0
                    3D
 Structure written by MMmdl.
153161  0  0  1  0            999 V2000
  -30.5600  -14.7499   20.5342 C   0  0  0  0  0  0
  -30.4637  -12.4746   19.4594 C   0  0  0  0  0  0
  -29.5245  -12.5424   18.2313 C   0  0  0  0  0  0
  -28.0436  -12.3602   18.6322 C   0  0  0  0  0  0
  -27.6565  -13.2174   19.8663 C   0  0  2  0  0  0
  -28.7017  -13.0363   20.9844 C   0  0  0  0  0  0
  -25.2578  -13.8164   20.5672 C   0  0  0  0  0  0
  -24.1832  -13.0427   20.9159 C   0  0  0  0  0  0
  -24.6399  -11.6900   20.8704 C   0  0  0  0  0  0
  -23.9066  -10.4285   21.0389 C   0  0  0  0  0  0
  -24.3618   -9.4205   21.9177 C   0  0  0  0  0  0
  -23.6291   -8.2242   22.0754 C   0  0  0  0  0  0
  -22.4268   -8.0275   21.3546 C   0  0  0  0  0  0
  -21.9898   -9.0249   20.4651 C   0  0  0  0  0  0
  -22.7228  -10.2124   20.3048 C   0  0  0  0  0  0
  -21.6852   -6.0725   22.5281 C   0  0  0  0  0  0
  -21.4014   -6.5636   23.8210 C   0  0  0  0  0  0
  -21.3662   -5.6784   24.9175 C   0  0  0  0  0  0
  -21.6040   -4.3048   24.7220 C   0  0  0  0  0  0
  -21.8818   -3.8139   23.4346 C   0  0  0  0  0  0
  -21.9193   -4.6956   22.3402 C   0  0  0  0  0  0
  -22.7854  -13.5233   21.1823 C   0  0  0  0  0  0
  -22.1658   -4.2137   21.0978 F   0  0  0  0  0  0
  -21.5633   -3.4531   25.7743 F   0  0  0  0  0  0
  -30.0034  -13.4818   20.4465 N   0  0  0  0  0  0
  -26.2999  -12.9336   20.3299 N   0  0  0  0  0  0
  -25.9330  -11.6493   20.5712 N   0  0  0  0  0  0
  -22.0496  -12.8246   22.0395 N   0  0  0  0  0  0
  -25.4317  -15.1887   20.4129 N   0  0  0  0  0  0
  -31.6922  -14.9412   20.0760 O   0  0  0  0  0  0
  -21.6629   -6.8869   21.4240 O   0  0  0  0  0  0
  -22.3534  -14.5535   20.6664 O   0  0  0  0  0  0
  -24.6332  -31.8548   23.2010 C   0  0  0  0  0  0
  -25.9159  -32.4747   23.8350 C   0  0  1  0  0  0
  -27.2192  -27.2523   20.1113 C   0  0  0  0  0  0
  -25.5952  -33.8554   24.2252 N   0  0  0  0  0  0
  -23.4288  -30.4807   21.5446 C   0  0  2  0  0  0
  -24.8761  -28.9340   20.1099 C   0  0  0  0  0  0
  -22.7514  -29.4592   22.4901 C   0  0  0  0  0  0
  -18.0296  -28.1407   22.8469 C   0  0  0  0  0  0
  -24.1496  -36.7286   23.2633 C   0  0  0  0  0  0
  -25.9788  -30.7606   21.3891 C   0  0  0  0  0  0
  -26.0500  -29.3857   20.7260 C   0  0  0  0  0  0
  -27.2229  -28.5572   20.7198 C   0  0  0  0  0  0
  -26.0196  -26.8902   19.4507 C   0  0  0  0  0  0
  -24.8676  -27.6939   19.4618 C   0  0  0  0  0  0
  -23.6485  -29.8230   20.1587 C   0  0  0  0  0  0
  -25.4118  -36.3052   24.0313 C   0  0  1  0  0  0
  -20.5901  -28.3711   23.1264 C   0  0  2  0  0  0
  -20.6783  -26.9425   22.5404 C   0  0  0  0  0  0
  -19.5760  -26.6390   21.5205 C   0  0  0  0  0  0
  -18.1942  -26.7947   22.1616 C   0  0  0  0  0  0
  -19.1551  -28.8874   23.2865 C   0  0  0  0  0  0
  -18.9468  -30.1477   23.8874 C   0  0  0  0  0  0
  -17.6465  -30.6598   24.0559 C   0  0  0  0  0  0
  -25.9065  -34.9431   23.5081 C   0  0  0  0  0  0
  -16.5356  -29.9089   23.6339 C   0  0  0  0  0  0
  -16.7282  -28.6520   23.0338 C   0  0  0  0  0  0
  -26.4520  -31.6583   25.0754 C   0  0  0  0  0  0
  -25.3723  -31.3757   26.1460 C   0  0  0  0  0  0
  -27.0353  -30.2976   24.6288 C   0  0  0  0  0  0
  -27.6073  -32.4322   25.7524 C   0  0  0  0  0  0
  -27.5580  -37.1789   24.8451 C   0  0  0  0  0  0
  -21.4217  -29.3054   22.3651 N   0  0  0  0  0  0
  -26.4288  -37.3753   23.9398 N   0  0  0  0  0  0
  -24.6987  -31.0508   22.0997 N   0  0  0  0  0  0
  -23.4212  -28.8121   23.2998 O   0  0  0  0  0  0
  -28.3049  -26.3328   20.1441 O   0  0  0  0  0  0
  -26.5631  -34.8898   22.4648 O   0  0  0  0  0  0
  -23.5486  -32.1390   23.7284 O   0  0  0  0  0  0
  -29.2647  -19.7621   20.7212 C   0  0  0  0  0  0
  -31.0300  -18.5862   19.5472 C   0  0  0  0  0  0
  -30.7227  -21.0336   19.2840 C   0  0  0  0  0  0
  -29.9517  -18.5079   20.4485 C   0  0  0  0  0  0
  -29.6113  -21.0510   20.1545 C   0  0  0  0  0  0
  -31.4093  -19.8294   18.9769 C   0  0  0  0  0  0
  -29.5116  -17.1985   21.1194 C   0  0  0  0  0  0
  -28.8223  -22.3580   20.4157 C   0  0  0  0  0  0
  -29.7063  -15.8164   21.1789 C   0  0  0  0  0  0
  -29.0058  -23.6845   20.0373 C   0  0  0  0  0  0
  -32.5713  -19.8740   18.0049 C   0  0  0  0  0  0
  -27.9639  -24.8650   20.2669 C   0  0  0  0  0  0
  -31.4953  -12.6472   19.1516 H   0  0  0  0  0  0
  -30.4542  -11.4751   19.8977 H   0  0  0  0  0  0
  -29.8078  -11.7869   17.4977 H   0  0  0  0  0  0
  -29.6484  -13.5073   17.7381 H   0  0  0  0  0  0
  -27.8864  -11.3049   18.8552 H   0  0  0  0  0  0
  -27.3908  -12.5927   17.7894 H   0  0  0  0  0  0
  -27.6808  -14.2595   19.5480 H   0  0  0  0  0  0
  -28.7544  -11.9837   21.2686 H   0  0  0  0  0  0
  -28.3990  -13.5344   21.9013 H   0  0  0  0  0  0
  -25.2766   -9.5673   22.4741 H   0  0  0  0  0  0
  -23.9995   -7.4630   22.7478 H   0  0  0  0  0  0
  -21.0828   -8.8771   19.8975 H   0  0  0  0  0  0
  -22.3692  -10.9658   19.6146 H   0  0  0  0  0  0
  -21.2004   -7.6138   23.9709 H   0  0  0  0  0  0
  -21.1488   -6.0515   25.9073 H   0  0  0  0  0  0
  -22.0599   -2.7599   23.2847 H   0  0  0  0  0  0
  -22.4099  -11.9915   22.4819 H   0  0  0  0  0  0
  -21.1114  -13.1299   22.2596 H   0  0  0  0  0  0
  -24.6737  -15.8517   20.5331 H   0  0  0  0  0  0
  -26.2973  -15.6268   20.1231 H   0  0  0  0  0  0
  -26.7217  -32.5369   23.1081 H   0  0  0  0  0  0
  -25.0072  -33.9697   25.0377 H   0  0  0  0  0  0
  -22.7261  -31.3041   21.4033 H   0  0  0  0  0  0
  -23.3745  -35.9631   23.3282 H   0  0  0  0  0  0
  -24.3576  -36.8932   22.2049 H   0  0  0  0  0  0
  -23.7275  -37.6489   23.6682 H   0  0  0  0  0  0
  -26.1284  -31.5241   20.6244 H   0  0  0  0  0  0
  -26.8516  -30.7989   22.0286 H   0  0  0  0  0  0
  -28.1180  -28.8976   21.2212 H   0  0  0  0  0  0
  -25.9223  -25.9751   18.8912 H   0  0  0  0  0  0
  -23.9769  -27.3526   18.9517 H   0  0  0  0  0  0
  -23.7737  -30.6040   19.4084 H   0  0  0  0  0  0
  -22.7657  -29.2627   19.8471 H   0  0  0  0  0  0
  -25.1303  -36.1878   25.0805 H   0  0  0  0  0  0
  -20.9991  -28.3286   24.1386 H   0  0  0  0  0  0
  -20.5682  -26.2315   23.3609 H   0  0  0  0  0  0
  -21.6652  -26.7448   22.1200 H   0  0  0  0  0  0
  -19.6919  -25.6294   21.1253 H   0  0  0  0  0  0
  -19.6711  -27.3183   20.6724 H   0  0  0  0  0  0
  -17.4210  -26.6682   21.4024 H   0  0  0  0  0  0
  -18.0352  -26.0106   22.9033 H   0  0  0  0  0  0
  -19.7940  -30.7311   24.2229 H   0  0  0  0  0  0
  -17.5013  -31.6270   24.5175 H   0  0  0  0  0  0
  -15.5358  -30.2977   23.7684 H   0  0  0  0  0  0
  -15.8685  -28.0839   22.7044 H   0  0  0  0  0  0
  -24.5914  -30.7088   25.7790 H   0  0  0  0  0  0
  -24.8905  -32.2937   26.4840 H   0  0  0  0  0  0
  -25.8030  -30.8971   27.0264 H   0  0  0  0  0  0
  -26.2944  -29.6726   24.1288 H   0  0  0  0  0  0
  -27.3954  -29.7252   25.4850 H   0  0  0  0  0  0
  -27.8877  -30.4206   23.9596 H   0  0  0  0  0  0
  -27.2687  -33.3623   26.2103 H   0  0  0  0  0  0
  -28.3898  -32.6875   25.0364 H   0  0  0  0  0  0
  -28.0736  -31.8444   26.5443 H   0  0  0  0  0  0
  -28.2575  -38.0108   24.7498 H   0  0  0  0  0  0
  -28.1101  -36.2630   24.6268 H   0  0  0  0  0  0
  -27.2301  -37.1427   25.8858 H   0  0  0  0  0  0
  -20.9402  -29.8786   21.6860 H   0  0  0  0  0  0
  -26.0155  -38.2820   24.1411 H   0  0  0  0  0  0
  -28.4185  -19.7351   21.3939 H   0  0  0  0  0  0
  -31.5781  -17.6875   19.2986 H   0  0  0  0  0  0
  -31.0432  -21.9574   18.8222 H   0  0  0  0  0  0
  -28.7453  -17.4592   21.8363 H   0  0  0  0  0  0
  -27.9144  -22.1794   20.9763 H   0  0  0  0  0  0
  -29.0540  -15.4246   21.9362 H   0  0  0  0  0  0
  -29.8913  -23.9529   19.4792 H   0  0  0  0  0  0
  -32.8034  -18.8816   17.6169 H   0  0  0  0  0  0
  -33.4627  -20.2664   18.4949 H   0  0  0  0  0  0
  -32.3385  -20.5154   17.1539 H   0  0  0  0  0  0
  -27.4729  -24.7065   21.2289 H   0  0  0  0  0  0
  -27.2236  -24.6026   19.5194 H   0  0  0  0  0  0
  1 25  1  0  0  0
  1 30  2  0  0  0
  1 79  1  0  0  0
  2  3  1  0  0  0
  2 25  1  0  0  0
  2 83  1  0  0  0
  2 84  1  0  0  0
  3  4  1  0  0  0
  3 85  1  0  0  0
  3 86  1  0  0  0
  4  5  1  0  0  0
  4 87  1  0  0  0
  4 88  1  0  0  0
  5  6  1  0  0  0
  5 26  1  0  0  0
  5 89  1  0  0  0
  6 25  1  0  0  0
  6 90  1  0  0  0
  6 91  1  0  0  0
  7  8  2  0  0  0
  7 26  1  0  0  0
  7 29  1  0  0  0
  8  9  1  0  0  0
  8 22  1  0  0  0
  9 10  1  0  0  0
  9 27  2  0  0  0
 10 11  2  0  0  0
 10 15  1  0  0  0
 11 12  1  0  0  0
 11 92  1  0  0  0
 12 13  2  0  0  0
 12 93  1  0  0  0
 13 14  1  0  0  0
 13 31  1  0  0  0
 14 15  2  0  0  0
 14 94  1  0  0  0
 15 95  1  0  0  0
 16 17  2  0  0  0
 16 21  1  0  0  0
 16 31  1  0  0  0
 17 18  1  0  0  0
 17 96  1  0  0  0
 18 19  2  0  0  0
 18 97  1  0  0  0
 19 20  1  0  0  0
 19 24  1  0  0  0
 20 21  2  0  0  0
 20 98  1  0  0  0
 21 23  1  0  0  0
 22 28  1  0  0  0
 22 32  2  0  0  0
 26 27  1  0  0  0
 28 99  1  0  0  0
 28100  1  0  0  0
 29101  1  0  0  0
 29102  1  0  0  0
 33 34  1  0  0  0
 33 66  1  0  0  0
 33 70  2  0  0  0
 34 36  1  0  0  0
 34 59  1  0  0  0
 34103  1  0  0  0
 35 44  2  0  0  0
 35 45  1  0  0  0
 35 68  1  0  0  0
 36 56  1  0  0  0
 36104  1  0  0  0
 37 39  1  0  0  0
 37 47  1  0  0  0
 37 66  1  0  0  0
 37105  1  0  0  0
 38 43  2  0  0  0
 38 46  1  0  0  0
 38 47  1  0  0  0
 39 64  1  0  0  0
 39 67  2  0  0  0
 40 52  1  0  0  0
 40 53  2  0  0  0
 40 58  1  0  0  0
 41106  1  0  0  0
 41107  1  0  0  0
 41108  1  0  0  0
 41 48  1  0  0  0
 42 43  1  0  0  0
 42 66  1  0  0  0
 42109  1  0  0  0
 42110  1  0  0  0
 43 44  1  0  0  0
 44111  1  0  0  0
 45 46  2  0  0  0
 45112  1  0  0  0
 46113  1  0  0  0
 47114  1  0  0  0
 47115  1  0  0  0
 48 56  1  0  0  0
 48 65  1  0  0  0
 48116  1  0  0  0
 49 50  1  0  0  0
 49 53  1  0  0  0
 49 64  1  0  0  0
 49117  1  0  0  0
 50 51  1  0  0  0
 50118  1  0  0  0
 50119  1  0  0  0
 51 52  1  0  0  0
 51120  1  0  0  0
 51121  1  0  0  0
 52122  1  0  0  0
 52123  1  0  0  0
 53 54  1  0  0  0
 54 55  2  0  0  0
 54124  1  0  0  0
 55 57  1  0  0  0
 55125  1  0  0  0
 56 69  2  0  0  0
 57 58  2  0  0  0
 57126  1  0  0  0
 58127  1  0  0  0
 59 60  1  0  0  0
 59 61  1  0  0  0
 59 62  1  0  0  0
 60128  1  0  0  0
 60129  1  0  0  0
 60130  1  0  0  0
 61131  1  0  0  0
 61132  1  0  0  0
 61133  1  0  0  0
 62134  1  0  0  0
 62135  1  0  0  0
 62136  1  0  0  0
 63 65  1  0  0  0
 63137  1  0  0  0
 63138  1  0  0  0
 63139  1  0  0  0
 64140  1  0  0  0
 65141  1  0  0  0
 68 82  1  0  0  0
 71 74  2  0  0  0
 71 75  1  0  0  0
 71142  1  0  0  0
 72 74  1  0  0  0
 72 76  2  0  0  0
 72143  1  0  0  0
 73 75  2  0  0  0
 73 76  1  0  0  0
 73144  1  0  0  0
 74 77  1  0  0  0
 75 78  1  0  0  0
 76 81  1  0  0  0
 77 79  2  0  0  0
 77145  1  0  0  0
 78 80  2  0  0  0
 78146  1  0  0  0
 79147  1  0  0  0
 80 82  1  0  0  0
 80148  1  0  0  0
 81149  1  0  0  0
 81150  1  0  0  0
 81151  1  0  0  0
 82152  1  0  0  0
 82153  1  0  0  0
M  ISO  4   1 100  68 101  79 100  82 101
M  END
> <chiral flag>
0

> <version>
0

> <s_m_source_file>
/data/baiqing/PycharmProjects/Reinvent-master-3.2/result/LINK_invent/BTK/process_docking_weight1_custom_product_contain_oxygen_bond_distance_aromatic_linkinvent_7_9_3/rearranged_h_0119.sdf

> <i_m_source_file_index>
1

> <r_mmod_Potential_Energy-OPLS-2005>
265.260925292969

> <r_mmod_Stretch_Energy-OPLS-2005>
123.661682128906

> <r_mmod_Bend_Energy-OPLS-2005>
235.446502685547

> <r_mmod_Torsional_Energy-OPLS-2005>
188.68229675293

> <r_mmod_Improper_Torsional_Energy-OPLS-2005>
2.91993618011475

> <r_mmod_Van_der_Waal_Energy-OPLS-2005>
148.09001159668

> <r_mmod_Electrostatic_Energy-OPLS-2005>
-324.823181152344

> <r_mmod_Solvation_Energy-OPLS-2005>
-195.74821472168

> <b_mmod_Minimization_Converged-OPLS-2005>
0

> <r_mmod_RMS_Derivative-OPLS-2005>
1.9961324930191

$$$$
1
                    3D
 Structure written by MMmdl.
157165  0  0  1  0            999 V2000
  -30.6500  -14.4788   20.5947 C   0  0  0  0  0  0
  -30.4452  -12.3146   19.4011 C   0  0  0  0  0  0
  -29.4921  -12.4856   18.1984 C   0  0  0  0  0  0
  -28.0144  -12.3207   18.6188 C   0  0  0  0  0  0
  -27.6567  -13.1703   19.8617 C   0  0  2  0  0  0
  -28.7038  -12.9140   20.9733 C   0  0  0  0  0  0
  -25.2625  -13.8101   20.5630 C   0  0  0  0  0  0
  -24.1845  -13.0438   20.9135 C   0  0  0  0  0  0
  -24.6345  -11.6887   20.8692 C   0  0  0  0  0  0
  -23.8999  -10.4307   21.0378 C   0  0  0  0  0  0
  -24.3583   -9.4235   21.9158 C   0  0  0  0  0  0
  -23.6288   -8.2251   22.0727 C   0  0  0  0  0  0
  -22.4266   -8.0280   21.3521 C   0  0  0  0  0  0
  -21.9876   -9.0236   20.4617 C   0  0  0  0  0  0
  -22.7169  -10.2135   20.3028 C   0  0  0  0  0  0
  -21.6861   -6.0729   22.5275 C   0  0  0  0  0  0
  -21.4011   -6.5633   23.8206 C   0  0  0  0  0  0
  -21.3654   -5.6789   24.9167 C   0  0  0  0  0  0
  -21.6047   -4.3053   24.7224 C   0  0  0  0  0  0
  -21.8825   -3.8144   23.4345 C   0  0  0  0  0  0
  -21.9204   -4.6956   22.3401 C   0  0  0  0  0  0
  -22.7878  -13.5256   21.1852 C   0  0  0  0  0  0
  -22.1671   -4.2149   21.0975 F   0  0  0  0  0  0
  -21.5631   -3.4532   25.7730 F   0  0  0  0  0  0
  -30.0313  -13.2733   20.4347 N   0  0  0  0  0  0
  -26.2988  -12.9182   20.3272 N   0  0  0  0  0  0
  -25.9249  -11.6384   20.5726 N   0  0  0  0  0  0
  -22.0553  -12.8227   22.0409 N   0  0  0  0  0  0
  -25.4435  -15.1822   20.4092 N   0  0  0  0  0  0
  -31.7968  -14.6963   20.1870 O   0  0  0  0  0  0
  -21.6639   -6.8872   21.4235 O   0  0  0  0  0  0
  -22.3550  -14.5585   20.6757 O   0  0  0  0  0  0
  -24.6116  -31.8699   23.2121 C   0  0  0  0  0  0
  -25.9032  -32.4821   23.8403 C   0  0  1  0  0  0
  -27.2412  -27.4679   20.0966 C   0  0  0  0  0  0
  -25.5905  -33.8621   24.2339 N   0  0  0  0  0  0
  -23.3996  -30.4932   21.5500 C   0  0  2  0  0  0
  -24.8476  -28.9543   20.1226 C   0  0  0  0  0  0
  -22.7365  -29.4699   22.4994 C   0  0  0  0  0  0
  -18.0243  -28.1404   22.8512 C   0  0  0  0  0  0
  -24.1492  -36.7324   23.2637 C   0  0  0  0  0  0
  -25.9240  -30.8430   21.3609 C   0  0  0  0  0  0
  -26.0037  -29.4756   20.7191 C   0  0  0  0  0  0
  -27.2047  -28.7364   20.7095 C   0  0  0  0  0  0
  -26.0759  -26.9498   19.4985 C   0  0  0  0  0  0
  -24.8751  -27.6848   19.5161 C   0  0  0  0  0  0
  -23.6093  -29.8207   20.1667 C   0  0  0  0  0  0
  -25.4105  -36.3115   24.0341 C   0  0  1  0  0  0
  -20.5830  -28.3722   23.1335 C   0  0  2  0  0  0
  -20.6749  -26.9438   22.5495 C   0  0  0  0  0  0
  -19.5729  -26.6363   21.5311 C   0  0  0  0  0  0
  -18.1912  -26.7905   22.1729 C   0  0  0  0  0  0
  -19.1491  -28.8874   23.2913 C   0  0  0  0  0  0
  -18.9395  -30.1472   23.8938 C   0  0  0  0  0  0
  -17.6383  -30.6596   24.0588 C   0  0  0  0  0  0
  -25.9033  -34.9473   23.5136 C   0  0  0  0  0  0
  -16.5292  -29.9101   23.6319 C   0  0  0  0  0  0
  -16.7223  -28.6521   23.0335 C   0  0  0  0  0  0
  -26.4491  -31.6584   25.0705 C   0  0  0  0  0  0
  -25.3795  -31.3669   26.1478 C   0  0  0  0  0  0
  -27.0314  -30.3030   24.6045 C   0  0  0  0  0  0
  -27.6090  -32.4291   25.7443 C   0  0  0  0  0  0
  -27.5582  -37.1806   24.8463 C   0  0  0  0  0  0
  -21.4089  -29.3085   22.3709 N   0  0  0  0  0  0
  -26.4295  -37.3792   23.9408 N   0  0  0  0  0  0
  -24.6630  -31.0835   22.1000 N   0  0  0  0  0  0
  -23.4122  -28.8238   23.3042 O   0  0  0  0  0  0
  -28.4118  -26.7585   20.0316 O   0  0  0  0  0  0
  -26.5595  -34.8926   22.4699 O   0  0  0  0  0  0
  -23.5323  -32.1444   23.7547 O   0  0  0  0  0  0
  -27.7463  -17.2212   22.4291 C   0  0  0  0  0  0
  -26.7352  -18.1296   22.7797 C   0  0  0  0  0  0
  -29.3413  -19.0366   22.2298 C   0  0  0  0  0  0
  -29.0593  -17.6565   22.1251 C   0  0  0  0  0  0
  -28.3406  -19.9607   22.6221 C   0  0  0  0  0  0
  -27.0194  -19.5052   22.8746 C   0  0  0  0  0  0
  -30.0898  -16.6975   21.6504 C   0  0  0  0  0  0
  -29.7479  -15.5184   21.0912 C   0  0  0  0  0  0
  -28.3915  -23.4879   21.9426 C   0  0  0  0  0  0
  -28.7034  -21.4053   22.8028 C   0  0  0  0  0  0
  -25.8944  -20.4494   23.2820 C   0  0  0  0  0  0
  -28.0147  -24.5024   20.8805 C   0  0  0  0  0  0
  -28.6509  -25.8818   21.1302 C   0  0  0  0  0  0
  -28.3402  -22.2275   21.7438 N   0  0  0  0  0  0
  -29.2608  -21.7246   23.8564 O   0  0  0  0  0  0
  -31.4769  -12.4625   19.0823 H   0  0  0  0  0  0
  -30.3949  -11.2983   19.7937 H   0  0  0  0  0  0
  -29.7364  -11.7575   17.4242 H   0  0  0  0  0  0
  -29.6389  -13.4691   17.7504 H   0  0  0  0  0  0
  -27.8515  -11.2662   18.8443 H   0  0  0  0  0  0
  -27.3494  -12.5619   17.7875 H   0  0  0  0  0  0
  -27.6966  -14.2073   19.5328 H   0  0  0  0  0  0
  -28.6949  -11.8584   21.2500 H   0  0  0  0  0  0
  -28.4604  -13.4360   21.9012 H   0  0  0  0  0  0
  -25.2743   -9.5749   22.4693 H   0  0  0  0  0  0
  -24.0031   -7.4654   22.7437 H   0  0  0  0  0  0
  -21.0804   -8.8720   19.8924 H   0  0  0  0  0  0
  -22.3603  -10.9653   19.6121 H   0  0  0  0  0  0
  -21.1988   -7.6143   23.9706 H   0  0  0  0  0  0
  -21.1465   -6.0513   25.9069 H   0  0  0  0  0  0
  -22.0612   -2.7608   23.2836 H   0  0  0  0  0  0
  -22.4196  -11.9875   22.4757 H   0  0  0  0  0  0
  -21.1163  -13.1195   22.2634 H   0  0  0  0  0  0
  -24.6937  -15.8480   20.5640 H   0  0  0  0  0  0
  -26.3101  -15.6263   20.1339 H   0  0  0  0  0  0
  -26.7096  -32.5548   23.1165 H   0  0  0  0  0  0
  -25.0024  -33.9768   25.0459 H   0  0  0  0  0  0
  -22.6902  -31.3102   21.4048 H   0  0  0  0  0  0
  -23.3738  -35.9675   23.3311 H   0  0  0  0  0  0
  -24.3592  -36.8931   22.2051 H   0  0  0  0  0  0
  -23.7264  -37.6543   23.6638 H   0  0  0  0  0  0
  -26.0314  -31.6041   20.5864 H   0  0  0  0  0  0
  -26.8144  -30.9028   21.9746 H   0  0  0  0  0  0
  -28.1014  -29.1398   21.1594 H   0  0  0  0  0  0
  -26.1010  -25.9817   19.0192 H   0  0  0  0  0  0
  -23.9861  -27.2740   19.0563 H   0  0  0  0  0  0
  -23.7215  -30.5928   19.4045 H   0  0  0  0  0  0
  -22.7339  -29.2412   19.8682 H   0  0  0  0  0  0
  -25.1284  -36.1981   25.0833 H   0  0  0  0  0  0
  -20.9911  -28.3362   24.1462 H   0  0  0  0  0  0
  -20.5650  -26.2378   23.3738 H   0  0  0  0  0  0
  -21.6606  -26.7488   22.1291 H   0  0  0  0  0  0
  -19.6892  -25.6240   21.1418 H   0  0  0  0  0  0
  -19.6659  -27.3138   20.6808 H   0  0  0  0  0  0
  -17.4127  -26.6560   21.4202 H   0  0  0  0  0  0
  -18.0379  -26.0118   22.9229 H   0  0  0  0  0  0
  -19.7869  -30.7294   24.2353 H   0  0  0  0  0  0
  -17.4924  -31.6264   24.5218 H   0  0  0  0  0  0
  -15.5291  -30.2999   23.7605 H   0  0  0  0  0  0
  -15.8639  -28.0840   22.7031 H   0  0  0  0  0  0
  -24.5980  -30.6987   25.7846 H   0  0  0  0  0  0
  -24.8954  -32.2808   26.4940 H   0  0  0  0  0  0
  -25.8194  -30.8850   27.0222 H   0  0  0  0  0  0
  -26.2811  -29.6747   24.1229 H   0  0  0  0  0  0
  -27.4213  -29.7302   25.4471 H   0  0  0  0  0  0
  -27.8601  -30.4351   23.9080 H   0  0  0  0  0  0
  -27.2729  -33.3584   26.2054 H   0  0  0  0  0  0
  -28.3860  -32.6871   25.0237 H   0  0  0  0  0  0
  -28.0795  -31.8389   26.5315 H   0  0  0  0  0  0
  -28.2613  -38.0090   24.7504 H   0  0  0  0  0  0
  -28.1069  -36.2624   24.6297 H   0  0  0  0  0  0
  -27.2301  -37.1474   25.8868 H   0  0  0  0  0  0
  -20.9274  -29.8715   21.6830 H   0  0  0  0  0  0
  -26.0193  -38.2883   24.1380 H   0  0  0  0  0  0
  -27.4791  -16.1763   22.4121 H   0  0  0  0  0  0
  -25.7376  -17.7541   22.9743 H   0  0  0  0  0  0
  -30.3393  -19.3893   22.0141 H   0  0  0  0  0  0
  -31.1305  -16.9661   21.7827 H   0  0  0  0  0  0
  -28.6951  -15.3648   20.9730 H   0  0  0  0  0  0
  -28.6917  -23.9424   22.8927 H   0  0  0  0  0  0
  -24.9334  -19.9329   23.2949 H   0  0  0  0  0  0
  -25.8068  -21.2848   22.5865 H   0  0  0  0  0  0
  -26.0728  -20.8474   24.2808 H   0  0  0  0  0  0
  -26.9288  -24.5929   20.8558 H   0  0  0  0  0  0
  -28.3283  -24.1267   19.9061 H   0  0  0  0  0  0
  -29.7315  -25.7739   21.2244 H   0  0  0  0  0  0
  -28.3022  -26.3189   22.0686 H   0  0  0  0  0  0
  1 25  1  0  0  0
  1 30  2  0  0  0
  1 78  1  0  0  0
  2  3  1  0  0  0
  2 25  1  0  0  0
  2 86  1  0  0  0
  2 87  1  0  0  0
  3  4  1  0  0  0
  3 88  1  0  0  0
  3 89  1  0  0  0
  4  5  1  0  0  0
  4 90  1  0  0  0
  4 91  1  0  0  0
  5  6  1  0  0  0
  5 26  1  0  0  0
  5 92  1  0  0  0
  6 25  1  0  0  0
  6 93  1  0  0  0
  6 94  1  0  0  0
  7  8  2  0  0  0
  7 26  1  0  0  0
  7 29  1  0  0  0
  8  9  1  0  0  0
  8 22  1  0  0  0
  9 10  1  0  0  0
  9 27  2  0  0  0
 10 11  2  0  0  0
 10 15  1  0  0  0
 11 12  1  0  0  0
 11 95  1  0  0  0
 12 13  2  0  0  0
 12 96  1  0  0  0
 13 14  1  0  0  0
 13 31  1  0  0  0
 14 15  2  0  0  0
 14 97  1  0  0  0
 15 98  1  0  0  0
 16 17  2  0  0  0
 16 21  1  0  0  0
 16 31  1  0  0  0
 17 18  1  0  0  0
 17 99  1  0  0  0
 18 19  2  0  0  0
 18100  1  0  0  0
 19 20  1  0  0  0
 19 24  1  0  0  0
 20 21  2  0  0  0
 20101  1  0  0  0
 21 23  1  0  0  0
 22 28  1  0  0  0
 22 32  2  0  0  0
 26 27  1  0  0  0
 28102  1  0  0  0
 28103  1  0  0  0
 29104  1  0  0  0
 29105  1  0  0  0
 33 34  1  0  0  0
 33 66  1  0  0  0
 33 70  2  0  0  0
 34 36  1  0  0  0
 34 59  1  0  0  0
 34106  1  0  0  0
 35 44  2  0  0  0
 35 45  1  0  0  0
 35 68  1  0  0  0
 36 56  1  0  0  0
 36107  1  0  0  0
 37 39  1  0  0  0
 37 47  1  0  0  0
 37 66  1  0  0  0
 37108  1  0  0  0
 38 43  2  0  0  0
 38 46  1  0  0  0
 38 47  1  0  0  0
 39 64  1  0  0  0
 39 67  2  0  0  0
 40 52  1  0  0  0
 40 53  2  0  0  0
 40 58  1  0  0  0
 41109  1  0  0  0
 41110  1  0  0  0
 41111  1  0  0  0
 41 48  1  0  0  0
 42 43  1  0  0  0
 42 66  1  0  0  0
 42112  1  0  0  0
 42113  1  0  0  0
 43 44  1  0  0  0
 44114  1  0  0  0
 45 46  2  0  0  0
 45115  1  0  0  0
 46116  1  0  0  0
 47117  1  0  0  0
 47118  1  0  0  0
 48 56  1  0  0  0
 48 65  1  0  0  0
 48119  1  0  0  0
 49 50  1  0  0  0
 49 53  1  0  0  0
 49 64  1  0  0  0
 49120  1  0  0  0
 50 51  1  0  0  0
 50121  1  0  0  0
 50122  1  0  0  0
 51 52  1  0  0  0
 51123  1  0  0  0
 51124  1  0  0  0
 52125  1  0  0  0
 52126  1  0  0  0
 53 54  1  0  0  0
 54 55  2  0  0  0
 54127  1  0  0  0
 55 57  1  0  0  0
 55128  1  0  0  0
 56 69  2  0  0  0
 57 58  2  0  0  0
 57129  1  0  0  0
 58130  1  0  0  0
 59 60  1  0  0  0
 59 61  1  0  0  0
 59 62  1  0  0  0
 60131  1  0  0  0
 60132  1  0  0  0
 60133  1  0  0  0
 61134  1  0  0  0
 61135  1  0  0  0
 61136  1  0  0  0
 62137  1  0  0  0
 62138  1  0  0  0
 62139  1  0  0  0
 63 65  1  0  0  0
 63140  1  0  0  0
 63141  1  0  0  0
 63142  1  0  0  0
 64143  1  0  0  0
 65144  1  0  0  0
 68 83  1  0  0  0
 71 72  2  0  0  0
 71 74  1  0  0  0
 71145  1  0  0  0
 72 76  1  0  0  0
 72146  1  0  0  0
 73 74  2  0  0  0
 73 75  1  0  0  0
 73147  1  0  0  0
 74 77  1  0  0  0
 75 76  2  0  0  0
 75 80  1  0  0  0
 76 81  1  0  0  0
 77 78  2  0  0  0
 77148  1  0  0  0
 78149  1  0  0  0
 79 82  1  0  0  0
 79 84  2  0  0  0
 79150  1  0  0  0
 80 84  1  0  0  0
 80 85  2  0  0  0
 81151  1  0  0  0
 81152  1  0  0  0
 81153  1  0  0  0
 82 83  1  0  0  0
 82154  1  0  0  0
 82155  1  0  0  0
 83156  1  0  0  0
 83157  1  0  0  0
M  ISO  4   1 100  68 101  78 100  83 101
M  END
> <chiral flag>
0

> <version>
0

> <s_m_source_file>
/data/baiqing/PycharmProjects/Reinvent-master-3.2/result/LINK_invent/BTK/process_docking_weight1_custom_product_contain_oxygen_bond_distance_aromatic_linkinvent_7_9_3/rearranged_h_0119.sdf

> <i_m_source_file_index>
2

> <r_mmod_Potential_Energy-OPLS-2005>
-23.8261032104492

> <r_mmod_Stretch_Energy-OPLS-2005>
35.6460304260254

> <r_mmod_Bend_Energy-OPLS-2005>
96.341178894043

> <r_mmod_Torsional_Energy-OPLS-2005>
209.085510253906

> <r_mmod_Improper_Torsional_Energy-OPLS-2005>
4.66842412948608

> <r_mmod_Van_der_Waal_Energy-OPLS-2005>
169.835372924805

> <r_mmod_Electrostatic_Energy-OPLS-2005>
-356.329772949219

> <r_mmod_Solvation_Energy-OPLS-2005>
-196.503952026367

> <b_mmod_Minimization_Converged-OPLS-2005>
0

> <r_mmod_RMS_Derivative-OPLS-2005>
3.53508281707764

$$$$
2
                    3D
 Structure written by MMmdl.
159168  0  0  1  0            999 V2000
  -30.5916  -14.6131   20.5652 C   0  0  0  0  0  0
  -30.4574  -12.3915   19.4343 C   0  0  0  0  0  0
  -29.5130  -12.5241   18.2163 C   0  0  0  0  0  0
  -28.0314  -12.3666   18.6219 C   0  0  0  0  0  0
  -27.6637  -13.2048   19.8744 C   0  0  2  0  0  0
  -28.7075  -12.9840   20.9923 C   0  0  0  0  0  0
  -25.2611  -13.8150   20.5672 C   0  0  0  0  0  0
  -24.1856  -13.0432   20.9165 C   0  0  0  0  0  0
  -24.6407  -11.6896   20.8721 C   0  0  0  0  0  0
  -23.9068  -10.4290   21.0399 C   0  0  0  0  0  0
  -24.3621   -9.4207   21.9179 C   0  0  0  0  0  0
  -23.6287   -8.2247   22.0748 C   0  0  0  0  0  0
  -22.4271   -8.0285   21.3537 C   0  0  0  0  0  0
  -21.9906   -9.0265   20.4644 C   0  0  0  0  0  0
  -22.7234  -10.2142   20.3047 C   0  0  0  0  0  0
  -21.6856   -6.0733   22.5276 C   0  0  0  0  0  0
  -21.4021   -6.5637   23.8208 C   0  0  0  0  0  0
  -21.3654   -5.6791   24.9173 C   0  0  0  0  0  0
  -21.6039   -4.3055   24.7223 C   0  0  0  0  0  0
  -21.8820   -3.8142   23.4346 C   0  0  0  0  0  0
  -21.9193   -4.6958   22.3403 C   0  0  0  0  0  0
  -22.7879  -13.5241   21.1835 C   0  0  0  0  0  0
  -22.1661   -4.2138   21.0979 F   0  0  0  0  0  0
  -21.5621   -3.4538   25.7741 F   0  0  0  0  0  0
  -30.0272  -13.3685   20.4514 N   0  0  0  0  0  0
  -26.3040  -12.9303   20.3344 N   0  0  0  0  0  0
  -25.9334  -11.6469   20.5749 N   0  0  0  0  0  0
  -22.0521  -12.8239   22.0402 N   0  0  0  0  0  0
  -25.4359  -15.1871   20.4113 N   0  0  0  0  0  0
  -31.7032  -14.8807   20.0937 O   0  0  0  0  0  0
  -21.6633   -6.8879   21.4240 O   0  0  0  0  0  0
  -22.3559  -14.5545   20.6681 O   0  0  0  0  0  0
  -24.6226  -31.8619   23.2035 C   0  0  0  0  0  0
  -25.9090  -32.4790   23.8360 C   0  0  1  0  0  0
  -27.2381  -27.3568   20.1169 C   0  0  0  0  0  0
  -25.5915  -33.8589   24.2284 N   0  0  0  0  0  0
  -23.4153  -30.4832   21.5448 C   0  0  2  0  0  0
  -24.8659  -28.9372   20.1148 C   0  0  0  0  0  0
  -22.7455  -29.4631   22.4953 C   0  0  0  0  0  0
  -18.0284  -28.1379   22.8488 C   0  0  0  0  0  0
  -24.1483  -36.7305   23.2639 C   0  0  0  0  0  0
  -25.9523  -30.8030   21.3700 C   0  0  0  0  0  0
  -26.0306  -29.4307   20.7181 C   0  0  0  0  0  0
  -27.2203  -28.6506   20.7125 C   0  0  0  0  0  0
  -26.0540  -26.9008   19.4978 C   0  0  0  0  0  0
  -24.8762  -27.6740   19.4994 C   0  0  0  0  0  0
  -23.6299  -29.8127   20.1615 C   0  0  0  0  0  0
  -25.4105  -36.3093   24.0334 C   0  0  1  0  0  0
  -20.5879  -28.3680   23.1290 C   0  0  2  0  0  0
  -20.6771  -26.9405   22.5414 C   0  0  0  0  0  0
  -19.5749  -26.6382   21.5211 C   0  0  0  0  0  0
  -18.1928  -26.7921   22.1625 C   0  0  0  0  0  0
  -19.1536  -28.8845   23.2883 C   0  0  0  0  0  0
  -18.9464  -30.1447   23.8896 C   0  0  0  0  0  0
  -17.6466  -30.6581   24.0568 C   0  0  0  0  0  0
  -25.9043  -34.9463   23.5110 C   0  0  0  0  0  0
  -16.5355  -29.9084   23.6332 C   0  0  0  0  0  0
  -16.7272  -28.6503   23.0347 C   0  0  0  0  0  0
  -26.4487  -31.6592   25.0719 C   0  0  0  0  0  0
  -25.3742  -31.3739   26.1464 C   0  0  0  0  0  0
  -27.0332  -30.3020   24.6153 C   0  0  0  0  0  0
  -27.6035  -32.4341   25.7493 C   0  0  0  0  0  0
  -27.5578  -37.1799   24.8458 C   0  0  0  0  0  0
  -21.4176  -29.3036   22.3687 N   0  0  0  0  0  0
  -26.4283  -37.3787   23.9417 N   0  0  0  0  0  0
  -24.6817  -31.0656   22.0968 N   0  0  0  0  0  0
  -23.4188  -28.8189   23.3037 O   0  0  0  0  0  0
  -28.3679  -26.5384   20.1126 O   0  0  0  0  0  0
  -26.5613  -34.8926   22.4675 O   0  0  0  0  0  0
  -23.5400  -32.1407   23.7380 O   0  0  0  0  0  0
  -28.7514  -19.6583   21.6919 C   0  0  0  0  0  0
  -30.1544  -18.0252   20.5325 C   0  0  0  0  0  0
  -28.5705  -17.2840   22.2167 C   0  0  0  0  0  0
  -29.7462  -19.4067   20.7213 C   0  0  0  0  0  0
  -28.1624  -18.6129   22.4244 C   0  0  0  0  0  0
  -29.5708  -16.9465   21.2811 C   0  0  0  0  0  0
  -29.0686  -24.1679   20.1873 C   0  0  0  0  0  0
  -28.2249  -25.1985   20.5005 C   0  0  0  0  0  0
  -30.3910  -20.5526   19.9142 C   0  0  0  0  0  0
  -30.2895  -24.2880   19.3295 C   0  0  0  0  0  0
  -28.9708  -22.6909   20.6309 C   0  0  0  0  0  0
  -30.7769  -22.8462   19.0869 C   0  0  0  0  0  0
  -27.0678  -18.9258   23.4257 C   0  0  0  0  0  0
  -30.0220  -21.8952   19.9312 N   0  0  0  0  0  0
  -29.7825  -15.5084   21.1967 N   0  0  0  0  0  0
  -31.3249  -20.2082   19.1794 O   0  0  0  0  0  0
  -31.4933  -12.5526   19.1302 H   0  0  0  0  0  0
  -30.4187  -11.3804   19.8431 H   0  0  0  0  0  0
  -29.7709  -11.7830   17.4586 H   0  0  0  0  0  0
  -29.6589  -13.4983   17.7477 H   0  0  0  0  0  0
  -27.8513  -11.3095   18.8185 H   0  0  0  0  0  0
  -27.3828  -12.6346   17.7870 H   0  0  0  0  0  0
  -27.7019  -14.2526   19.5750 H   0  0  0  0  0  0
  -28.7226  -11.9339   21.2890 H   0  0  0  0  0  0
  -28.4378  -13.5273   21.8987 H   0  0  0  0  0  0
  -25.2773   -9.5669   22.4745 H   0  0  0  0  0  0
  -23.9982   -7.4643   22.7477 H   0  0  0  0  0  0
  -21.0822   -8.8799   19.8967 H   0  0  0  0  0  0
  -22.3700  -10.9685   19.6149 H   0  0  0  0  0  0
  -21.2025   -7.6149   23.9712 H   0  0  0  0  0  0
  -21.1469   -6.0522   25.9073 H   0  0  0  0  0  0
  -22.0603   -2.7602   23.2856 H   0  0  0  0  0  0
  -22.4133  -11.9886   22.4771 H   0  0  0  0  0  0
  -21.1147  -13.1273   22.2637 H   0  0  0  0  0  0
  -24.6753  -15.8468   20.5284 H   0  0  0  0  0  0
  -26.2952  -15.6261   20.1043 H   0  0  0  0  0  0
  -26.7163  -32.5472   23.1119 H   0  0  0  0  0  0
  -25.0067  -33.9734   25.0432 H   0  0  0  0  0  0
  -22.7076  -31.3025   21.4003 H   0  0  0  0  0  0
  -23.3743  -35.9638   23.3297 H   0  0  0  0  0  0
  -24.3578  -36.8924   22.2054 H   0  0  0  0  0  0
  -23.7234  -37.6508   23.6657 H   0  0  0  0  0  0
  -26.0774  -31.5650   20.5994 H   0  0  0  0  0  0
  -26.8353  -30.8555   21.9952 H   0  0  0  0  0  0
  -28.1169  -29.0266   21.1849 H   0  0  0  0  0  0
  -26.0374  -25.9314   19.0198 H   0  0  0  0  0  0
  -23.9838  -27.2876   19.0266 H   0  0  0  0  0  0
  -23.7444  -30.5874   19.4026 H   0  0  0  0  0  0
  -22.7521  -29.2376   19.8612 H   0  0  0  0  0  0
  -25.1277  -36.1949   25.0826 H   0  0  0  0  0  0
  -20.9966  -28.3256   24.1412 H   0  0  0  0  0  0
  -20.5665  -26.2293   23.3615 H   0  0  0  0  0  0
  -21.6643  -26.7430   22.1209 H   0  0  0  0  0  0
  -19.6913  -25.6296   21.1230 H   0  0  0  0  0  0
  -19.6684  -27.3202   20.6748 H   0  0  0  0  0  0
  -17.4197  -26.6666   21.4029 H   0  0  0  0  0  0
  -18.0331  -26.0058   22.9018 H   0  0  0  0  0  0
  -19.7942  -30.7263   24.2259 H   0  0  0  0  0  0
  -17.5024  -31.6255   24.5182 H   0  0  0  0  0  0
  -15.5357  -30.2989   23.7654 H   0  0  0  0  0  0
  -15.8672  -28.0826   22.7057 H   0  0  0  0  0  0
  -24.5893  -30.7103   25.7818 H   0  0  0  0  0  0
  -24.8967  -32.2918   26.4902 H   0  0  0  0  0  0
  -25.8087  -30.8917   27.0228 H   0  0  0  0  0  0
  -26.2901  -29.6776   24.1176 H   0  0  0  0  0  0
  -27.4044  -29.7263   25.4642 H   0  0  0  0  0  0
  -27.8759  -30.4317   23.9360 H   0  0  0  0  0  0
  -27.2611  -33.3622   26.2081 H   0  0  0  0  0  0
  -28.3835  -32.6939   25.0327 H   0  0  0  0  0  0
  -28.0714  -31.8475   26.5406 H   0  0  0  0  0  0
  -28.2582  -38.0111   24.7524 H   0  0  0  0  0  0
  -28.1089  -36.2643   24.6249 H   0  0  0  0  0  0
  -27.2308  -37.1402   25.8864 H   0  0  0  0  0  0
  -20.9359  -29.8756   21.6892 H   0  0  0  0  0  0
  -26.0168  -38.2862   24.1431 H   0  0  0  0  0  0
  -28.4033  -20.6521   21.9041 H   0  0  0  0  0  0
  -30.9116  -17.7942   19.7958 H   0  0  0  0  0  0
  -28.0897  -16.5027   22.7897 H   0  0  0  0  0  0
  -27.3586  -25.0520   21.1335 H   0  0  0  0  0  0
  -31.0426  -24.8660   19.8663 H   0  0  0  0  0  0
  -30.0663  -24.8109   18.3982 H   0  0  0  0  0  0
  -27.9746  -22.3031   20.4158 H   0  0  0  0  0  0
  -29.1370  -22.6567   21.7080 H   0  0  0  0  0  0
  -31.8477  -22.7812   19.2878 H   0  0  0  0  0  0
  -30.6314  -22.5802   18.0386 H   0  0  0  0  0  0
  -27.3303  -19.7964   24.0274 H   0  0  0  0  0  0
  -26.8905  -18.0892   24.1028 H   0  0  0  0  0  0
  -26.1336  -19.1432   22.9066 H   0  0  0  0  0  0
  -29.0333  -14.9979   21.6370 H   0  0  0  0  0  0
  1 25  1  0  0  0
  1 30  2  0  0  0
  1 85  1  0  0  0
  2  3  1  0  0  0
  2 25  1  0  0  0
  2 87  1  0  0  0
  2 88  1  0  0  0
  3  4  1  0  0  0
  3 89  1  0  0  0
  3 90  1  0  0  0
  4  5  1  0  0  0
  4 91  1  0  0  0
  4 92  1  0  0  0
  5  6  1  0  0  0
  5 26  1  0  0  0
  5 93  1  0  0  0
  6 25  1  0  0  0
  6 94  1  0  0  0
  6 95  1  0  0  0
  7  8  2  0  0  0
  7 26  1  0  0  0
  7 29  1  0  0  0
  8  9  1  0  0  0
  8 22  1  0  0  0
  9 10  1  0  0  0
  9 27  2  0  0  0
 10 11  2  0  0  0
 10 15  1  0  0  0
 11 12  1  0  0  0
 11 96  1  0  0  0
 12 13  2  0  0  0
 12 97  1  0  0  0
 13 14  1  0  0  0
 13 31  1  0  0  0
 14 15  2  0  0  0
 14 98  1  0  0  0
 15 99  1  0  0  0
 16 17  2  0  0  0
 16 21  1  0  0  0
 16 31  1  0  0  0
 17 18  1  0  0  0
 17100  1  0  0  0
 18 19  2  0  0  0
 18101  1  0  0  0
 19 20  1  0  0  0
 19 24  1  0  0  0
 20 21  2  0  0  0
 20102  1  0  0  0
 21 23  1  0  0  0
 22 28  1  0  0  0
 22 32  2  0  0  0
 26 27  1  0  0  0
 28103  1  0  0  0
 28104  1  0  0  0
 29105  1  0  0  0
 29106  1  0  0  0
 33 34  1  0  0  0
 33 66  1  0  0  0
 33 70  2  0  0  0
 34 36  1  0  0  0
 34 59  1  0  0  0
 34107  1  0  0  0
 35 44  2  0  0  0
 35 45  1  0  0  0
 35 68  1  0  0  0
 36 56  1  0  0  0
 36108  1  0  0  0
 37 39  1  0  0  0
 37 47  1  0  0  0
 37 66  1  0  0  0
 37109  1  0  0  0
 38 43  2  0  0  0
 38 46  1  0  0  0
 38 47  1  0  0  0
 39 64  1  0  0  0
 39 67  2  0  0  0
 40 52  1  0  0  0
 40 53  2  0  0  0
 40 58  1  0  0  0
 41110  1  0  0  0
 41111  1  0  0  0
 41112  1  0  0  0
 41 48  1  0  0  0
 42 43  1  0  0  0
 42 66  1  0  0  0
 42113  1  0  0  0
 42114  1  0  0  0
 43 44  1  0  0  0
 44115  1  0  0  0
 45 46  2  0  0  0
 45116  1  0  0  0
 46117  1  0  0  0
 47118  1  0  0  0
 47119  1  0  0  0
 48 56  1  0  0  0
 48 65  1  0  0  0
 48120  1  0  0  0
 49 50  1  0  0  0
 49 53  1  0  0  0
 49 64  1  0  0  0
 49121  1  0  0  0
 50 51  1  0  0  0
 50122  1  0  0  0
 50123  1  0  0  0
 51 52  1  0  0  0
 51124  1  0  0  0
 51125  1  0  0  0
 52126  1  0  0  0
 52127  1  0  0  0
 53 54  1  0  0  0
 54 55  2  0  0  0
 54128  1  0  0  0
 55 57  1  0  0  0
 55129  1  0  0  0
 56 69  2  0  0  0
 57 58  2  0  0  0
 57130  1  0  0  0
 58131  1  0  0  0
 59 60  1  0  0  0
 59 61  1  0  0  0
 59 62  1  0  0  0
 60132  1  0  0  0
 60133  1  0  0  0
 60134  1  0  0  0
 61135  1  0  0  0
 61136  1  0  0  0
 61137  1  0  0  0
 62138  1  0  0  0
 62139  1  0  0  0
 62140  1  0  0  0
 63 65  1  0  0  0
 63141  1  0  0  0
 63142  1  0  0  0
 63143  1  0  0  0
 64144  1  0  0  0
 65145  1  0  0  0
 68 78  1  0  0  0
 71 74  2  0  0  0
 71 75  1  0  0  0
 71146  1  0  0  0
 72 74  1  0  0  0
 72 76  2  0  0  0
 72147  1  0  0  0
 73 75  2  0  0  0
 73 76  1  0  0  0
 73148  1  0  0  0
 74 79  1  0  0  0
 75 83  1  0  0  0
 76 85  1  0  0  0
 77 78  2  0  0  0
 77 80  1  0  0  0
 77 81  1  0  0  0
 78149  1  0  0  0
 79 84  1  0  0  0
 79 86  2  0  0  0
 80 82  1  0  0  0
 80150  1  0  0  0
 80151  1  0  0  0
 81 84  1  0  0  0
 81152  1  0  0  0
 81153  1  0  0  0
 82 84  1  0  0  0
 82154  1  0  0  0
 82155  1  0  0  0
 83156  1  0  0  0
 83157  1  0  0  0
 83158  1  0  0  0
 85159  1  0  0  0
M  ISO  4   1 100  68 101  78 101  85 100
M  END
> <chiral flag>
0

> <version>
0

> <s_m_source_file>
/data/baiqing/PycharmProjects/Reinvent-master-3.2/result/LINK_invent/BTK/process_docking_weight1_custom_product_contain_oxygen_bond_distance_aromatic_linkinvent_7_9_3/rearranged_h_0119.sdf

> <i_m_source_file_index>
3

> <r_mmod_Potential_Energy-OPLS-2005>
137.898162841797

> <r_mmod_Stretch_Energy-OPLS-2005>
72.7354965209961

> <r_mmod_Bend_Energy-OPLS-2005>
195.637176513672

> <r_mmod_Torsional_Energy-OPLS-2005>
266.262298583984

> <r_mmod_Improper_Torsional_Energy-OPLS-2005>
2.68334603309631

> <r_mmod_Van_der_Waal_Energy-OPLS-2005>
148.624694824219

> <r_mmod_Electrostatic_Energy-OPLS-2005>
-355.103698730469

> <r_mmod_Solvation_Energy-OPLS-2005>
-230.871139526367

> <b_mmod_Minimization_Converged-OPLS-2005>
0

> <r_mmod_RMS_Derivative-OPLS-2005>
1.49923527240753

$$$$
3
                    3D
 Structure written by MMmdl.
159167  0  0  1  0            999 V2000
  -30.6736  -14.5578   20.6384 C   0  0  0  0  0  0
  -30.4447  -12.3931   19.4181 C   0  0  0  0  0  0
  -29.4990  -12.5524   18.2080 C   0  0  0  0  0  0
  -28.0219  -12.3903   18.6221 C   0  0  0  0  0  0
  -27.6683  -13.2099   19.8923 C   0  0  2  0  0  0
  -28.7206  -12.9515   20.9954 C   0  0  0  0  0  0
  -25.2551  -13.8123   20.5556 C   0  0  0  0  0  0
  -24.1831  -13.0413   20.9143 C   0  0  0  0  0  0
  -24.6417  -11.6891   20.8754 C   0  0  0  0  0  0
  -23.9076  -10.4282   21.0416 C   0  0  0  0  0  0
  -24.3620   -9.4196   21.9192 C   0  0  0  0  0  0
  -23.6290   -8.2235   22.0759 C   0  0  0  0  0  0
  -22.4272   -8.0281   21.3546 C   0  0  0  0  0  0
  -21.9914   -9.0256   20.4647 C   0  0  0  0  0  0
  -22.7250  -10.2133   20.3059 C   0  0  0  0  0  0
  -21.6851   -6.0735   22.5275 C   0  0  0  0  0  0
  -21.4014   -6.5638   23.8209 C   0  0  0  0  0  0
  -21.3657   -5.6790   24.9171 C   0  0  0  0  0  0
  -21.6045   -4.3053   24.7222 C   0  0  0  0  0  0
  -21.8819   -3.8145   23.4343 C   0  0  0  0  0  0
  -21.9193   -4.6963   22.3399 C   0  0  0  0  0  0
  -22.7857  -13.5221   21.1809 C   0  0  0  0  0  0
  -22.1660   -4.2148   21.0977 F   0  0  0  0  0  0
  -21.5631   -3.4538   25.7736 F   0  0  0  0  0  0
  -30.0318  -13.3533   20.4639 N   0  0  0  0  0  0
  -26.3068  -12.9329   20.3464 N   0  0  0  0  0  0
  -25.9367  -11.6486   20.5853 N   0  0  0  0  0  0
  -22.0508  -12.8224   22.0385 N   0  0  0  0  0  0
  -25.4143  -15.1805   20.3689 N   0  0  0  0  0  0
  -31.7150  -14.8255   20.0264 O   0  0  0  0  0  0
  -21.6636   -6.8878   21.4238 O   0  0  0  0  0  0
  -22.3530  -14.5526   20.6670 O   0  0  0  0  0  0
  -24.6220  -31.8624   23.2038 C   0  0  0  0  0  0
  -25.9082  -32.4792   23.8357 C   0  0  1  0  0  0
  -27.2371  -27.3594   20.1056 C   0  0  0  0  0  0
  -25.5916  -33.8589   24.2287 N   0  0  0  0  0  0
  -23.4141  -30.4847   21.5456 C   0  0  2  0  0  0
  -24.8627  -28.9422   20.1137 C   0  0  0  0  0  0
  -22.7452  -29.4632   22.4950 C   0  0  0  0  0  0
  -18.0283  -28.1370   22.8490 C   0  0  0  0  0  0
  -24.1489  -36.7300   23.2636 C   0  0  0  0  0  0
  -25.9518  -30.8053   21.3681 C   0  0  0  0  0  0
  -26.0291  -29.4356   20.7105 C   0  0  0  0  0  0
  -27.2195  -28.6566   20.6935 C   0  0  0  0  0  0
  -26.0437  -26.9024   19.4991 C   0  0  0  0  0  0
  -24.8698  -27.6793   19.5010 C   0  0  0  0  0  0
  -23.6271  -29.8165   20.1618 C   0  0  0  0  0  0
  -25.4114  -36.3092   24.0328 C   0  0  1  0  0  0
  -20.5882  -28.3670   23.1291 C   0  0  2  0  0  0
  -20.6770  -26.9395   22.5407 C   0  0  0  0  0  0
  -19.5749  -26.6379   21.5202 C   0  0  0  0  0  0
  -18.1930  -26.7917   22.1618 C   0  0  0  0  0  0
  -19.1535  -28.8835   23.2892 C   0  0  0  0  0  0
  -18.9461  -30.1439   23.8907 C   0  0  0  0  0  0
  -17.6462  -30.6581   24.0557 C   0  0  0  0  0  0
  -25.9043  -34.9458   23.5107 C   0  0  0  0  0  0
  -16.5352  -29.9079   23.6328 C   0  0  0  0  0  0
  -16.7271  -28.6493   23.0356 C   0  0  0  0  0  0
  -26.4480  -31.6589   25.0713 C   0  0  0  0  0  0
  -25.3722  -31.3720   26.1447 C   0  0  0  0  0  0
  -27.0302  -30.3016   24.6132 C   0  0  0  0  0  0
  -27.6053  -32.4312   25.7477 C   0  0  0  0  0  0
  -27.5583  -37.1800   24.8465 C   0  0  0  0  0  0
  -21.4170  -29.3035   22.3693 N   0  0  0  0  0  0
  -26.4299  -37.3782   23.9406 N   0  0  0  0  0  0
  -24.6810  -31.0662   22.0968 N   0  0  0  0  0  0
  -23.4192  -28.8175   23.3016 O   0  0  0  0  0  0
  -28.3851  -26.5634   20.1298 O   0  0  0  0  0  0
  -26.5604  -34.8918   22.4667 O   0  0  0  0  0  0
  -23.5391  -32.1409   23.7388 O   0  0  0  0  0  0
  -27.5105  -18.3618   21.6671 C   0  0  0  0  0  0
  -28.1893  -19.4279   21.0660 C   0  0  0  0  0  0
  -30.1297  -17.9818   20.8136 C   0  0  0  0  0  0
  -28.1233  -17.1072   21.8899 C   0  0  0  0  0  0
  -29.4564  -16.8612   21.4162 C   0  0  0  0  0  0
  -29.5265  -19.2794   20.6620 C   0  0  0  0  0  0
  -26.3777  -16.4261   23.5878 C   0  0  0  0  0  0
  -27.3621  -16.1406   22.7169 C   0  0  0  0  0  0
  -30.1638  -15.5330   21.7450 C   0  0  0  0  0  0
  -29.4507  -22.7606   20.8384 C   0  0  0  0  0  0
  -29.5344  -24.2841   20.3952 C   0  0  0  0  0  0
  -29.6130  -21.6248   19.7610 C   0  0  0  0  0  0
  -28.2215  -25.1048   20.1232 C   0  0  0  0  0  0
  -30.3511  -15.2208   22.9615 N   0  0  0  0  0  0
  -30.2526  -20.3721   20.1788 O   0  0  0  0  0  0
  -31.4798  -12.5403   19.1058 H   0  0  0  0  0  0
  -30.4029  -11.3728   19.8032 H   0  0  0  0  0  0
  -29.7517  -11.8274   17.4332 H   0  0  0  0  0  0
  -29.6449  -13.5381   17.7630 H   0  0  0  0  0  0
  -27.8407  -11.3302   18.8046 H   0  0  0  0  0  0
  -27.3673  -12.6729   17.7968 H   0  0  0  0  0  0
  -27.7182  -14.2655   19.6235 H   0  0  0  0  0  0
  -28.7374  -11.8888   21.2428 H   0  0  0  0  0  0
  -28.4797  -13.4283   21.9360 H   0  0  0  0  0  0
  -25.2768   -9.5667   22.4765 H   0  0  0  0  0  0
  -23.9995   -7.4626   22.7481 H   0  0  0  0  0  0
  -21.0845   -8.8779   19.8949 H   0  0  0  0  0  0
  -22.3715  -10.9672   19.6165 H   0  0  0  0  0  0
  -21.2004   -7.6146   23.9710 H   0  0  0  0  0  0
  -21.1479   -6.0522   25.9073 H   0  0  0  0  0  0
  -22.0601   -2.7608   23.2842 H   0  0  0  0  0  0
  -22.4132  -11.9889   22.4768 H   0  0  0  0  0  0
  -21.1128  -13.1249   22.2598 H   0  0  0  0  0  0
  -24.6557  -15.8356   20.5165 H   0  0  0  0  0  0
  -26.2854  -15.6333   20.1266 H   0  0  0  0  0  0
  -26.7143  -32.5475   23.1104 H   0  0  0  0  0  0
  -25.0081  -33.9737   25.0442 H   0  0  0  0  0  0
  -22.7051  -31.3029   21.4015 H   0  0  0  0  0  0
  -23.3751  -35.9632   23.3311 H   0  0  0  0  0  0
  -24.3587  -36.8911   22.2050 H   0  0  0  0  0  0
  -23.7242  -37.6504   23.6649 H   0  0  0  0  0  0
  -26.0752  -31.5705   20.6008 H   0  0  0  0  0  0
  -26.8349  -30.8557   21.9935 H   0  0  0  0  0  0
  -28.1202  -29.0361   21.1566 H   0  0  0  0  0  0
  -25.9949  -25.9387   19.0163 H   0  0  0  0  0  0
  -23.9749  -27.2945   19.0313 H   0  0  0  0  0  0
  -23.7389  -30.5914   19.4025 H   0  0  0  0  0  0
  -22.7495  -29.2390   19.8649 H   0  0  0  0  0  0
  -25.1288  -36.1955   25.0821 H   0  0  0  0  0  0
  -20.9972  -28.3242   24.1414 H   0  0  0  0  0  0
  -20.5666  -26.2272   23.3599 H   0  0  0  0  0  0
  -21.6640  -26.7426   22.1198 H   0  0  0  0  0  0
  -19.6909  -25.6292   21.1229 H   0  0  0  0  0  0
  -19.6695  -27.3192   20.6735 H   0  0  0  0  0  0
  -17.4196  -26.6667   21.4024 H   0  0  0  0  0  0
  -18.0343  -26.0049   22.9007 H   0  0  0  0  0  0
  -19.7936  -30.7251   24.2286 H   0  0  0  0  0  0
  -17.5018  -31.6267   24.5146 H   0  0  0  0  0  0
  -15.5353  -30.2982   23.7645 H   0  0  0  0  0  0
  -15.8672  -28.0810   22.7069 H   0  0  0  0  0  0
  -24.5919  -30.7033   25.7792 H   0  0  0  0  0  0
  -24.8876  -32.2874   26.4846 H   0  0  0  0  0  0
  -25.8059  -30.8935   27.0238 H   0  0  0  0  0  0
  -26.2850  -29.6794   24.1158 H   0  0  0  0  0  0
  -27.4015  -29.7247   25.4612 H   0  0  0  0  0  0
  -27.8717  -30.4305   23.9321 H   0  0  0  0  0  0
  -27.2677  -33.3621   26.2046 H   0  0  0  0  0  0
  -28.3866  -32.6865   25.0300 H   0  0  0  0  0  0
  -28.0713  -31.8438   26.5396 H   0  0  0  0  0  0
  -28.2597  -38.0099   24.7516 H   0  0  0  0  0  0
  -28.1081  -36.2632   24.6288 H   0  0  0  0  0  0
  -27.2303  -37.1450   25.8867 H   0  0  0  0  0  0
  -20.9335  -29.8762   21.6917 H   0  0  0  0  0  0
  -26.0188  -38.2859   24.1417 H   0  0  0  0  0  0
  -26.4978  -18.5442   21.9942 H   0  0  0  0  0  0
  -27.6708  -20.3705   20.9756 H   0  0  0  0  0  0
  -31.1612  -17.8586   20.5151 H   0  0  0  0  0  0
  -25.8789  -15.6311   24.1235 H   0  0  0  0  0  0
  -26.0480  -17.4338   23.7936 H   0  0  0  0  0  0
  -27.5912  -15.1011   22.6030 H   0  0  0  0  0  0
  -30.2733  -22.6119   21.5387 H   0  0  0  0  0  0
  -28.5527  -22.5922   21.4326 H   0  0  0  0  0  0
  -30.2109  -24.3867   19.5460 H   0  0  0  0  0  0
  -30.0380  -24.8044   21.2112 H   0  0  0  0  0  0
  -30.2672  -22.0147   18.9812 H   0  0  0  0  0  0
  -28.6671  -21.4359   19.2523 H   0  0  0  0  0  0
  -27.4848  -24.8421   20.8843 H   0  0  0  0  0  0
  -27.8203  -24.7792   19.1632 H   0  0  0  0  0  0
  -29.9791  -15.9362   23.5751 H   0  0  0  0  0  0
  1 25  1  0  0  0
  1 30  2  0  0  0
  1 79  1  0  0  0
  2  3  1  0  0  0
  2 25  1  0  0  0
  2 86  1  0  0  0
  2 87  1  0  0  0
  3  4  1  0  0  0
  3 88  1  0  0  0
  3 89  1  0  0  0
  4  5  1  0  0  0
  4 90  1  0  0  0
  4 91  1  0  0  0
  5  6  1  0  0  0
  5 26  1  0  0  0
  5 92  1  0  0  0
  6 25  1  0  0  0
  6 93  1  0  0  0
  6 94  1  0  0  0
  7  8  2  0  0  0
  7 26  1  0  0  0
  7 29  1  0  0  0
  8  9  1  0  0  0
  8 22  1  0  0  0
  9 10  1  0  0  0
  9 27  2  0  0  0
 10 11  2  0  0  0
 10 15  1  0  0  0
 11 12  1  0  0  0
 11 95  1  0  0  0
 12 13  2  0  0  0
 12 96  1  0  0  0
 13 14  1  0  0  0
 13 31  1  0  0  0
 14 15  2  0  0  0
 14 97  1  0  0  0
 15 98  1  0  0  0
 16 17  2  0  0  0
 16 21  1  0  0  0
 16 31  1  0  0  0
 17 18  1  0  0  0
 17 99  1  0  0  0
 18 19  2  0  0  0
 18100  1  0  0  0
 19 20  1  0  0  0
 19 24  1  0  0  0
 20 21  2  0  0  0
 20101  1  0  0  0
 21 23  1  0  0  0
 22 28  1  0  0  0
 22 32  2  0  0  0
 26 27  1  0  0  0
 28102  1  0  0  0
 28103  1  0  0  0
 29104  1  0  0  0
 29105  1  0  0  0
 33 34  1  0  0  0
 33 66  1  0  0  0
 33 70  2  0  0  0
 34 36  1  0  0  0
 34 59  1  0  0  0
 34106  1  0  0  0
 35 44  2  0  0  0
 35 45  1  0  0  0
 35 68  1  0  0  0
 36 56  1  0  0  0
 36107  1  0  0  0
 37 39  1  0  0  0
 37 47  1  0  0  0
 37 66  1  0  0  0
 37108  1  0  0  0
 38 43  2  0  0  0
 38 46  1  0  0  0
 38 47  1  0  0  0
 39 64  1  0  0  0
 39 67  2  0  0  0
 40 52  1  0  0  0
 40 53  2  0  0  0
 40 58  1  0  0  0
 41109  1  0  0  0
 41110  1  0  0  0
 41111  1  0  0  0
 41 48  1  0  0  0
 42 43  1  0  0  0
 42 66  1  0  0  0
 42112  1  0  0  0
 42113  1  0  0  0
 43 44  1  0  0  0
 44114  1  0  0  0
 45 46  2  0  0  0
 45115  1  0  0  0
 46116  1  0  0  0
 47117  1  0  0  0
 47118  1  0  0  0
 48 56  1  0  0  0
 48 65  1  0  0  0
 48119  1  0  0  0
 49 50  1  0  0  0
 49 53  1  0  0  0
 49 64  1  0  0  0
 49120  1  0  0  0
 50 51  1  0  0  0
 50121  1  0  0  0
 50122  1  0  0  0
 51 52  1  0  0  0
 51123  1  0  0  0
 51124  1  0  0  0
 52125  1  0  0  0
 52126  1  0  0  0
 53 54  1  0  0  0
 54 55  2  0  0  0
 54127  1  0  0  0
 55 57  1  0  0  0
 55128  1  0  0  0
 56 69  2  0  0  0
 57 58  2  0  0  0
 57129  1  0  0  0
 58130  1  0  0  0
 59 60  1  0  0  0
 59 61  1  0  0  0
 59 62  1  0  0  0
 60131  1  0  0  0
 60132  1  0  0  0
 60133  1  0  0  0
 61134  1  0  0  0
 61135  1  0  0  0
 61136  1  0  0  0
 62137  1  0  0  0
 62138  1  0  0  0
 62139  1  0  0  0
 63 65  1  0  0  0
 63140  1  0  0  0
 63141  1  0  0  0
 63142  1  0  0  0
 64143  1  0  0  0
 65144  1  0  0  0
 68 83  1  0  0  0
 71 72  2  0  0  0
 71 74  1  0  0  0
 71145  1  0  0  0
 72 76  1  0  0  0
 72146  1  0  0  0
 73 75  1  0  0  0
 73 76  2  0  0  0
 73147  1  0  0  0
 74 75  2  0  0  0
 74 78  1  0  0  0
 75 79  1  0  0  0
 76 85  1  0  0  0
 77 78  2  0  0  0
 77148  1  0  0  0
 77149  1  0  0  0
 78150  1  0  0  0
 79 84  2  0  0  0
 80 81  1  0  0  0
 80 82  1  0  0  0
 80151  1  0  0  0
 80152  1  0  0  0
 81 83  1  0  0  0
 81153  1  0  0  0
 81154  1  0  0  0
 82 85  1  0  0  0
 82155  1  0  0  0
 82156  1  0  0  0
 83157  1  0  0  0
 83158  1  0  0  0
 84159  1  0  0  0
M  ISO  4   1 100  68 101  79 100  83 101
M  END
> <chiral flag>
0

> <version>
0

> <s_m_source_file>
/data/baiqing/PycharmProjects/Reinvent-master-3.2/result/LINK_invent/BTK/process_docking_weight1_custom_product_contain_oxygen_bond_distance_aromatic_linkinvent_7_9_3/rearranged_h_0119.sdf

> <i_m_source_file_index>
4

> <r_mmod_Potential_Energy-OPLS-2005>
226.487197875977

> <r_mmod_Stretch_Energy-OPLS-2005>
79.2768096923828

> <r_mmod_Bend_Energy-OPLS-2005>
150.229614257812

> <r_mmod_Torsional_Energy-OPLS-2005>
245.273147583008

> <r_mmod_Improper_Torsional_Energy-OPLS-2005>
4.38636541366577

> <r_mmod_Van_der_Waal_Energy-OPLS-2005>
149.810470581055

> <r_mmod_Electrostatic_Energy-OPLS-2005>
-235.932235717773

> <r_mmod_Solvation_Energy-OPLS-2005>
-195.095397949219

> <b_mmod_Minimization_Converged-OPLS-2005>
0

> <r_mmod_RMS_Derivative-OPLS-2005>
0.812779188156128

$$$$
4
                    3D
 Structure written by MMmdl.
161170  0  0  1  0            999 V2000
  -30.7060  -14.4568   20.5520 C   0  0  0  0  0  0
  -30.4186  -12.2947   19.4277 C   0  0  0  0  0  0
  -29.4931  -12.4930   18.2082 C   0  0  0  0  0  0
  -28.0122  -12.3645   18.6155 C   0  0  0  0  0  0
  -27.6592  -13.2055   19.8707 C   0  0  2  0  0  0
  -28.6961  -12.9796   20.9922 C   0  0  0  0  0  0
  -25.2594  -13.8165   20.5673 C   0  0  0  0  0  0
  -24.1829  -13.0448   20.9147 C   0  0  0  0  0  0
  -24.6355  -11.6911   20.8699 C   0  0  0  0  0  0
  -23.9028  -10.4297   21.0387 C   0  0  0  0  0  0
  -24.3581   -9.4219   21.9174 C   0  0  0  0  0  0
  -23.6269   -8.2246   22.0749 C   0  0  0  0  0  0
  -22.4252   -8.0266   21.3540 C   0  0  0  0  0  0
  -21.9876   -9.0243   20.4654 C   0  0  0  0  0  0
  -22.7192  -10.2132   20.3052 C   0  0  0  0  0  0
  -21.6856   -6.0715   22.5264 C   0  0  0  0  0  0
  -21.4022   -6.5621   23.8199 C   0  0  0  0  0  0
  -21.3668   -5.6775   24.9163 C   0  0  0  0  0  0
  -21.6038   -4.3038   24.7219 C   0  0  0  0  0  0
  -21.8823   -3.8128   23.4345 C   0  0  0  0  0  0
  -21.9206   -4.6944   22.3395 C   0  0  0  0  0  0
  -22.7850  -13.5252   21.1829 C   0  0  0  0  0  0
  -22.1665   -4.2123   21.0976 F   0  0  0  0  0  0
  -21.5636   -3.4528   25.7746 F   0  0  0  0  0  0
  -30.0298  -13.2792   20.4496 N   0  0  0  0  0  0
  -26.3006  -12.9324   20.3327 N   0  0  0  0  0  0
  -25.9285  -11.6480   20.5715 N   0  0  0  0  0  0
  -22.0487  -12.8258   22.0400 N   0  0  0  0  0  0
  -25.4391  -15.1880   20.4111 N   0  0  0  0  0  0
  -31.8408  -14.5937   20.0837 O   0  0  0  0  0  0
  -21.6633   -6.8850   21.4222 O   0  0  0  0  0  0
  -22.3541  -14.5560   20.6690 O   0  0  0  0  0  0
  -24.6105  -31.8711   23.2138 C   0  0  0  0  0  0
  -25.9023  -32.4832   23.8409 C   0  0  1  0  0  0
  -27.2265  -27.4740   20.0845 C   0  0  0  0  0  0
  -25.5905  -33.8629   24.2357 N   0  0  0  0  0  0
  -23.3948  -30.4961   21.5527 C   0  0  2  0  0  0
  -24.8390  -28.9643   20.1175 C   0  0  0  0  0  0
  -22.7379  -29.4678   22.5004 C   0  0  0  0  0  0
  -18.0272  -28.1357   22.8484 C   0  0  0  0  0  0
  -24.1481  -36.7305   23.2630 C   0  0  0  0  0  0
  -25.9196  -30.8456   21.3625 C   0  0  0  0  0  0
  -25.9955  -29.4807   20.7158 C   0  0  0  0  0  0
  -27.1930  -28.7359   20.7092 C   0  0  0  0  0  0
  -26.0561  -26.9552   19.4938 C   0  0  0  0  0  0
  -24.8604  -27.6963   19.5082 C   0  0  0  0  0  0
  -23.5999  -29.8266   20.1672 C   0  0  0  0  0  0
  -25.4100  -36.3116   24.0341 C   0  0  1  0  0  0
  -20.5858  -28.3649   23.1319 C   0  0  2  0  0  0
  -20.6761  -26.9390   22.5410 C   0  0  0  0  0  0
  -19.5744  -26.6384   21.5195 C   0  0  0  0  0  0
  -18.1921  -26.7907   22.1604 C   0  0  0  0  0  0
  -19.1519  -28.8818   23.2897 C   0  0  0  0  0  0
  -18.9445  -30.1428   23.8905 C   0  0  0  0  0  0
  -17.6453  -30.6570   24.0562 C   0  0  0  0  0  0
  -25.9022  -34.9480   23.5139 C   0  0  0  0  0  0
  -16.5344  -29.9072   23.6327 C   0  0  0  0  0  0
  -16.7269  -28.6485   23.0352 C   0  0  0  0  0  0
  -26.4469  -31.6596   25.0717 C   0  0  0  0  0  0
  -25.3751  -31.3706   26.1483 C   0  0  0  0  0  0
  -27.0289  -30.3044   24.6063 C   0  0  0  0  0  0
  -27.6064  -32.4293   25.7471 C   0  0  0  0  0  0
  -27.5588  -37.1796   24.8461 C   0  0  0  0  0  0
  -21.4116  -29.3029   22.3735 N   0  0  0  0  0  0
  -26.4294  -37.3798   23.9419 N   0  0  0  0  0  0
  -24.6594  -31.0849   22.1010 N   0  0  0  0  0  0
  -23.4169  -28.8227   23.3035 O   0  0  0  0  0  0
  -28.3843  -26.7458   20.0572 O   0  0  0  0  0  0
  -26.5569  -34.8926   22.4689 O   0  0  0  0  0  0
  -23.5310  -32.1447   23.7559 O   0  0  0  0  0  0
  -30.0852  -18.7515   18.9815 C   0  0  0  0  0  0
  -30.7028  -20.4806   21.0969 C   0  0  0  0  0  0
  -30.1954  -18.2310   20.2842 C   0  0  0  0  0  0
  -30.6716  -20.9961   19.7788 C   0  0  0  0  0  0
  -30.3174  -20.1168   18.7126 C   0  0  0  0  0  0
  -30.4599  -19.1169   21.3527 C   0  0  0  0  0  0
  -29.3074  -25.2526   18.4553 C   0  0  0  0  0  0
  -30.1708  -16.7678   20.4446 C   0  0  0  0  0  0
  -28.8786  -26.4716   18.8147 C   0  0  0  0  0  0
  -29.9763  -15.5960   21.0978 C   0  0  0  0  0  0
  -31.1664  -22.4036   19.5473 C   0  0  0  0  0  0
  -29.9913  -24.9408   17.1632 C   0  0  0  0  0  0
  -29.3344  -24.0121   19.3147 C   0  0  0  0  0  0
  -30.9876  -23.8596   17.5706 C   0  0  0  0  0  0
  -30.2633  -20.5557   17.2559 C   0  0  0  0  0  0
  -30.4241  -23.2040   18.7602 N   0  0  0  0  0  0
  -32.2485  -22.7584   20.0239 O   0  0  0  0  0  0
  -30.5613  -18.6442   22.6186 F   0  0  0  0  0  0
  -31.4626  -12.3834   19.1221 H   0  0  0  0  0  0
  -30.3172  -11.2860   19.8268 H   0  0  0  0  0  0
  -29.7291  -11.7628   17.4332 H   0  0  0  0  0  0
  -29.6694  -13.4747   17.7660 H   0  0  0  0  0  0
  -27.8123  -11.3107   18.8096 H   0  0  0  0  0  0
  -27.3674  -12.6448   17.7818 H   0  0  0  0  0  0
  -27.7097  -14.2534   19.5732 H   0  0  0  0  0  0
  -28.6692  -11.9421   21.3268 H   0  0  0  0  0  0
  -28.4499  -13.5662   21.8763 H   0  0  0  0  0  0
  -25.2720   -9.5721   22.4755 H   0  0  0  0  0  0
  -24.0001   -7.4633   22.7455 H   0  0  0  0  0  0
  -21.0814   -8.8743   19.8953 H   0  0  0  0  0  0
  -22.3629  -10.9661   19.6163 H   0  0  0  0  0  0
  -21.2008   -7.6127   23.9692 H   0  0  0  0  0  0
  -21.1490   -6.0508   25.9063 H   0  0  0  0  0  0
  -22.0601   -2.7589   23.2853 H   0  0  0  0  0  0
  -22.4078  -11.9926   22.4821 H   0  0  0  0  0  0
  -21.1111  -13.1319   22.2591 H   0  0  0  0  0  0
  -24.6860  -15.8579   20.5269 H   0  0  0  0  0  0
  -26.3079  -15.6163   20.1170 H   0  0  0  0  0  0
  -26.7094  -32.5554   23.1176 H   0  0  0  0  0  0
  -25.0129  -33.9791   25.0555 H   0  0  0  0  0  0
  -22.6819  -31.3114   21.4146 H   0  0  0  0  0  0
  -23.3754  -35.9625   23.3291 H   0  0  0  0  0  0
  -24.3596  -36.8913   22.2049 H   0  0  0  0  0  0
  -23.7216  -37.6504   23.6632 H   0  0  0  0  0  0
  -26.0262  -31.6105   20.5926 H   0  0  0  0  0  0
  -26.8101  -30.9005   21.9761 H   0  0  0  0  0  0
  -28.0893  -29.1270   21.1687 H   0  0  0  0  0  0
  -26.0739  -25.9801   19.0254 H   0  0  0  0  0  0
  -23.9682  -27.2909   19.0502 H   0  0  0  0  0  0
  -23.6994  -30.5972   19.4017 H   0  0  0  0  0  0
  -22.7265  -29.2392   19.8786 H   0  0  0  0  0  0
  -25.1266  -36.1978   25.0833 H   0  0  0  0  0  0
  -20.9948  -28.3209   24.1438 H   0  0  0  0  0  0
  -20.5650  -26.2253   23.3590 H   0  0  0  0  0  0
  -21.6638  -26.7426   22.1213 H   0  0  0  0  0  0
  -19.6905  -25.6298   21.1220 H   0  0  0  0  0  0
  -19.6685  -27.3207   20.6733 H   0  0  0  0  0  0
  -17.4188  -26.6657   21.4010 H   0  0  0  0  0  0
  -18.0330  -26.0042   22.8995 H   0  0  0  0  0  0
  -19.7921  -30.7236   24.2277 H   0  0  0  0  0  0
  -17.5011  -31.6255   24.5160 H   0  0  0  0  0  0
  -15.5346  -30.2973   23.7648 H   0  0  0  0  0  0
  -15.8666  -28.0813   22.7065 H   0  0  0  0  0  0
  -24.5930  -30.7032   25.7854 H   0  0  0  0  0  0
  -24.8926  -32.2858   26.4921 H   0  0  0  0  0  0
  -25.8125  -30.8906   27.0245 H   0  0  0  0  0  0
  -26.2813  -29.6812   24.1146 H   0  0  0  0  0  0
  -27.4112  -29.7277   25.4493 H   0  0  0  0  0  0
  -27.8624  -30.4380   23.9166 H   0  0  0  0  0  0
  -27.2721  -33.3615   26.2040 H   0  0  0  0  0  0
  -28.3884  -32.6809   25.0292 H   0  0  0  0  0  0
  -28.0712  -31.8402   26.5390 H   0  0  0  0  0  0
  -28.2588  -38.0113   24.7553 H   0  0  0  0  0  0
  -28.1097  -36.2648   24.6217 H   0  0  0  0  0  0
  -27.2314  -37.1377   25.8865 H   0  0  0  0  0  0
  -20.9261  -29.8740   21.6959 H   0  0  0  0  0  0
  -26.0180  -38.2867   24.1448 H   0  0  0  0  0  0
  -29.8799  -18.0732   18.1644 H   0  0  0  0  0  0
  -30.9732  -21.1250   21.9221 H   0  0  0  0  0  0
  -29.3206  -17.0622   21.0420 H   0  0  0  0  0  0
  -28.9255  -27.3442   18.1766 H   0  0  0  0  0  0
  -29.3685  -15.4793   21.9896 H   0  0  0  0  0  0
  -30.4599  -25.8107   16.7008 H   0  0  0  0  0  0
  -29.2547  -24.5332   16.4687 H   0  0  0  0  0  0
  -28.3908  -23.4727   19.2223 H   0  0  0  0  0  0
  -29.4860  -24.2692   20.3644 H   0  0  0  0  0  0
  -31.9524  -24.3068   17.8147 H   0  0  0  0  0  0
  -31.1494  -23.1570   16.7545 H   0  0  0  0  0  0
  -29.9784  -19.7352   16.5967 H   0  0  0  0  0  0
  -31.2413  -20.9064   16.9270 H   0  0  0  0  0  0
  -29.5270  -21.3457   17.1092 H   0  0  0  0  0  0
  1 25  1  0  0  0
  1 30  2  0  0  0
  1 80  1  0  0  0
  2  3  1  0  0  0
  2 25  1  0  0  0
  2 89  1  0  0  0
  2 90  1  0  0  0
  3  4  1  0  0  0
  3 91  1  0  0  0
  3 92  1  0  0  0
  4  5  1  0  0  0
  4 93  1  0  0  0
  4 94  1  0  0  0
  5  6  1  0  0  0
  5 26  1  0  0  0
  5 95  1  0  0  0
  6 25  1  0  0  0
  6 96  1  0  0  0
  6 97  1  0  0  0
  7  8  2  0  0  0
  7 26  1  0  0  0
  7 29  1  0  0  0
  8  9  1  0  0  0
  8 22  1  0  0  0
  9 10  1  0  0  0
  9 27  2  0  0  0
 10 11  2  0  0  0
 10 15  1  0  0  0
 11 12  1  0  0  0
 11 98  1  0  0  0
 12 13  2  0  0  0
 12 99  1  0  0  0
 13 14  1  0  0  0
 13 31  1  0  0  0
 14 15  2  0  0  0
 14100  1  0  0  0
 15101  1  0  0  0
 16 17  2  0  0  0
 16 21  1  0  0  0
 16 31  1  0  0  0
 17 18  1  0  0  0
 17102  1  0  0  0
 18 19  2  0  0  0
 18103  1  0  0  0
 19 20  1  0  0  0
 19 24  1  0  0  0
 20 21  2  0  0  0
 20104  1  0  0  0
 21 23  1  0  0  0
 22 28  1  0  0  0
 22 32  2  0  0  0
 26 27  1  0  0  0
 28105  1  0  0  0
 28106  1  0  0  0
 29107  1  0  0  0
 29108  1  0  0  0
 33 34  1  0  0  0
 33 66  1  0  0  0
 33 70  2  0  0  0
 34 36  1  0  0  0
 34 59  1  0  0  0
 34109  1  0  0  0
 35 44  2  0  0  0
 35 45  1  0  0  0
 35 68  1  0  0  0
 36 56  1  0  0  0
 36110  1  0  0  0
 37 39  1  0  0  0
 37 47  1  0  0  0
 37 66  1  0  0  0
 37111  1  0  0  0
 38 43  2  0  0  0
 38 46  1  0  0  0
 38 47  1  0  0  0
 39 64  1  0  0  0
 39 67  2  0  0  0
 40 52  1  0  0  0
 40 53  2  0  0  0
 40 58  1  0  0  0
 41112  1  0  0  0
 41113  1  0  0  0
 41114  1  0  0  0
 41 48  1  0  0  0
 42 43  1  0  0  0
 42 66  1  0  0  0
 42115  1  0  0  0
 42116  1  0  0  0
 43 44  1  0  0  0
 44117  1  0  0  0
 45 46  2  0  0  0
 45118  1  0  0  0
 46119  1  0  0  0
 47120  1  0  0  0
 47121  1  0  0  0
 48 56  1  0  0  0
 48 65  1  0  0  0
 48122  1  0  0  0
 49 50  1  0  0  0
 49 53  1  0  0  0
 49 64  1  0  0  0
 49123  1  0  0  0
 50 51  1  0  0  0
 50124  1  0  0  0
 50125  1  0  0  0
 51 52  1  0  0  0
 51126  1  0  0  0
 51127  1  0  0  0
 52128  1  0  0  0
 52129  1  0  0  0
 53 54  1  0  0  0
 54 55  2  0  0  0
 54130  1  0  0  0
 55 57  1  0  0  0
 55131  1  0  0  0
 56 69  2  0  0  0
 57 58  2  0  0  0
 57132  1  0  0  0
 58133  1  0  0  0
 59 60  1  0  0  0
 59 61  1  0  0  0
 59 62  1  0  0  0
 60134  1  0  0  0
 60135  1  0  0  0
 60136  1  0  0  0
 61137  1  0  0  0
 61138  1  0  0  0
 61139  1  0  0  0
 62140  1  0  0  0
 62141  1  0  0  0
 62142  1  0  0  0
 63 65  1  0  0  0
 63143  1  0  0  0
 63144  1  0  0  0
 63145  1  0  0  0
 64146  1  0  0  0
 65147  1  0  0  0
 68 79  1  0  0  0
 71 73  2  0  0  0
 71 75  1  0  0  0
 71148  1  0  0  0
 72 74  1  0  0  0
 72 76  2  0  0  0
 72149  1  0  0  0
 73 76  1  0  0  0
 73 78  1  0  0  0
 74 75  2  0  0  0
 74 81  1  0  0  0
 75 85  1  0  0  0
 76 88  1  0  0  0
 77 79  2  0  0  0
 77 82  1  0  0  0
 77 83  1  0  0  0
 78 80  2  0  0  0
 78150  1  0  0  0
 79151  1  0  0  0
 80152  1  0  0  0
 81 86  1  0  0  0
 81 87  2  0  0  0
 82 84  1  0  0  0
 82153  1  0  0  0
 82154  1  0  0  0
 83 86  1  0  0  0
 83155  1  0  0  0
 83156  1  0  0  0
 84 86  1  0  0  0
 84157  1  0  0  0
 84158  1  0  0  0
 85159  1  0  0  0
 85160  1  0  0  0
 85161  1  0  0  0
M  ISO  4   1 100  68 101  79 101  80 100
M  END
> <chiral flag>
0

> <version>
0

> <s_m_source_file>
/data/baiqing/PycharmProjects/Reinvent-master-3.2/result/LINK_invent/BTK/process_docking_weight1_custom_product_contain_oxygen_bond_distance_aromatic_linkinvent_7_9_3/rearranged_h_0119.sdf

> <i_m_source_file_index>
5

> <r_mmod_Potential_Energy-OPLS-2005>
412.2109375

> <r_mmod_Stretch_Energy-OPLS-2005>
34.6158447265625

> <r_mmod_Bend_Energy-OPLS-2005>
343.824829101562

> <r_mmod_Torsional_Energy-OPLS-2005>
347.008880615234

> <r_mmod_Improper_Torsional_Energy-OPLS-2005>
14.75648021698

> <r_mmod_Van_der_Waal_Energy-OPLS-2005>
160.028656005859

> <r_mmod_Electrostatic_Energy-OPLS-2005>
-292.923034667969

> <r_mmod_Solvation_Energy-OPLS-2005>
-206.319946289062

> <b_mmod_Minimization_Converged-OPLS-2005>
0

> <r_mmod_RMS_Derivative-OPLS-2005>
2.65115809440613

$$$$
5
                    3D
 Structure written by MMmdl.
162170  0  0  1  0            999 V2000
  -30.7531  -14.4748   20.5451 C   0  0  0  0  0  0
  -30.4017  -12.2991   19.4460 C   0  0  0  0  0  0
  -29.4829  -12.4758   18.2208 C   0  0  0  0  0  0
  -28.0122  -12.3296   18.6452 C   0  0  0  0  0  0
  -27.6542  -13.2090   19.8740 C   0  0  2  0  0  0
  -28.6957  -13.0575   21.0054 C   0  0  0  0  0  0
  -25.2559  -13.8175   20.5730 C   0  0  0  0  0  0
  -24.1820  -13.0457   20.9215 C   0  0  0  0  0  0
  -24.6367  -11.6913   20.8780 C   0  0  0  0  0  0
  -23.9038  -10.4300   21.0406 C   0  0  0  0  0  0
  -24.3594   -9.4209   21.9184 C   0  0  0  0  0  0
  -23.6268   -8.2250   22.0753 C   0  0  0  0  0  0
  -22.4252   -8.0281   21.3539 C   0  0  0  0  0  0
  -21.9882   -9.0261   20.4661 C   0  0  0  0  0  0
  -22.7203  -10.2150   20.3071 C   0  0  0  0  0  0
  -21.6852   -6.0722   22.5264 C   0  0  0  0  0  0
  -21.4011   -6.5629   23.8197 C   0  0  0  0  0  0
  -21.3667   -5.6791   24.9166 C   0  0  0  0  0  0
  -21.6043   -4.3051   24.7224 C   0  0  0  0  0  0
  -21.8816   -3.8137   23.4349 C   0  0  0  0  0  0
  -21.9192   -4.6948   22.3396 C   0  0  0  0  0  0
  -22.7844  -13.5275   21.1837 C   0  0  0  0  0  0
  -22.1663   -4.2120   21.0978 F   0  0  0  0  0  0
  -21.5623   -3.4543   25.7745 F   0  0  0  0  0  0
  -30.0244  -13.3255   20.4390 N   0  0  0  0  0  0
  -26.2987  -12.9349   20.3406 N   0  0  0  0  0  0
  -25.9295  -11.6513   20.5830 N   0  0  0  0  0  0
  -22.0481  -12.8299   22.0401 N   0  0  0  0  0  0
  -25.4290  -15.1894   20.4125 N   0  0  0  0  0  0
  -31.8981  -14.5266   20.0864 O   0  0  0  0  0  0
  -21.6638   -6.8864   21.4225 O   0  0  0  0  0  0
  -22.3543  -14.5581   20.6653 O   0  0  0  0  0  0
  -24.6052  -31.8729   23.2087 C   0  0  0  0  0  0
  -25.8979  -32.4825   23.8309 C   0  0  1  0  0  0
  -27.2343  -27.4541   20.0916 C   0  0  0  0  0  0
  -25.5942  -33.8628   24.2272 N   0  0  0  0  0  0
  -23.3887  -30.4952   21.5521 C   0  0  2  0  0  0
  -24.8320  -28.9587   20.1163 C   0  0  0  0  0  0
  -22.7352  -29.4661   22.5002 C   0  0  0  0  0  0
  -18.0295  -28.1360   22.8508 C   0  0  0  0  0  0
  -24.1562  -36.7331   23.2614 C   0  0  0  0  0  0
  -25.9122  -30.8389   21.3610 C   0  0  0  0  0  0
  -25.9883  -29.4743   20.7121 C   0  0  0  0  0  0
  -27.1841  -28.7242   20.7103 C   0  0  0  0  0  0
  -26.0556  -26.9440   19.4979 C   0  0  0  0  0  0
  -24.8568  -27.6843   19.5195 C   0  0  0  0  0  0
  -23.5979  -29.8332   20.1643 C   0  0  0  0  0  0
  -25.4180  -36.3097   24.0298 C   0  0  1  0  0  0
  -20.5878  -28.3621   23.1408 C   0  0  2  0  0  0
  -20.6856  -26.9376   22.5479 C   0  0  0  0  0  0
  -19.5833  -26.6368   21.5292 C   0  0  0  0  0  0
  -18.1972  -26.7908   22.1625 C   0  0  0  0  0  0
  -19.1533  -28.8813   23.2949 C   0  0  0  0  0  0
  -18.9426  -30.1455   23.8874 C   0  0  0  0  0  0
  -17.6409  -30.6555   24.0570 C   0  0  0  0  0  0
  -25.9072  -34.9490   23.5058 C   0  0  0  0  0  0
  -16.5325  -29.9029   23.6343 C   0  0  0  0  0  0
  -16.7271  -28.6499   23.0263 C   0  0  0  0  0  0
  -26.4449  -31.6552   25.0583 C   0  0  0  0  0  0
  -25.3770  -31.3591   26.1346 C   0  0  0  0  0  0
  -27.0248  -30.3024   24.5860 C   0  0  0  0  0  0
  -27.6053  -32.4240   25.7314 C   0  0  0  0  0  0
  -27.5629  -37.1786   24.8411 C   0  0  0  0  0  0
  -21.4093  -29.2970   22.3750 N   0  0  0  0  0  0
  -26.4349  -37.3788   23.9366 N   0  0  0  0  0  0
  -24.6518  -31.0842   22.0968 N   0  0  0  0  0  0
  -23.4163  -28.8248   23.3038 O   0  0  0  0  0  0
  -28.4442  -26.7909   20.0940 O   0  0  0  0  0  0
  -26.5588  -34.8929   22.4575 O   0  0  0  0  0  0
  -23.5275  -32.1450   23.7546 O   0  0  0  0  0  0
  -31.4081  -20.3401   22.4718 C   0  0  0  0  0  0
  -29.4565  -18.8511   21.1471 C   0  0  0  0  0  0
  -31.5624  -18.9414   22.3637 C   0  0  0  0  0  0
  -30.6154  -18.1899   21.6185 C   0  0  0  0  0  0
  -30.3103  -21.0194   21.9001 C   0  0  0  0  0  0
  -29.2756  -20.2506   21.2994 C   0  0  0  0  0  0
  -33.9076  -18.8942   23.2825 C   0  0  0  0  0  0
  -32.7489  -18.2947   22.9600 C   0  0  0  0  0  0
  -30.9037  -16.7687   21.2852 C   0  0  0  0  0  0
  -30.1019  -15.7005   21.0391 C   0  0  0  0  0  0
  -28.2392  -24.3950   20.5928 C   0  0  0  0  0  0
  -27.8614  -23.1435   20.2729 C   0  0  0  0  0  0
  -31.4413  -23.1503   21.9183 C   0  0  0  0  0  0
  -28.5697  -25.4690   19.5694 C   0  0  0  0  0  0
  -27.5819  -22.0211   21.2607 C   0  0  0  0  0  0
  -30.2325  -22.3970   21.9355 O   0  0  0  0  0  0
  -28.0968  -20.7703   20.7906 O   0  0  0  0  0  0
  -31.4455  -12.3575   19.1332 H   0  0  0  0  0  0
  -30.2860  -11.2997   19.8692 H   0  0  0  0  0  0
  -29.7241  -11.7320   17.4602 H   0  0  0  0  0  0
  -29.6417  -13.4517   17.7579 H   0  0  0  0  0  0
  -27.8552  -11.2774   18.8902 H   0  0  0  0  0  0
  -27.3467  -12.5461   17.8095 H   0  0  0  0  0  0
  -27.6856  -14.2467   19.5412 H   0  0  0  0  0  0
  -28.6646  -12.0523   21.4289 H   0  0  0  0  0  0
  -28.4601  -13.7228   21.8363 H   0  0  0  0  0  0
  -25.2738   -9.5685   22.4762 H   0  0  0  0  0  0
  -23.9959   -7.4652   22.7486 H   0  0  0  0  0  0
  -21.0800   -8.8800   19.8988 H   0  0  0  0  0  0
  -22.3642  -10.9700   19.6200 H   0  0  0  0  0  0
  -21.2000   -7.6137   23.9688 H   0  0  0  0  0  0
  -21.1492   -6.0528   25.9066 H   0  0  0  0  0  0
  -22.0587   -2.7592   23.2868 H   0  0  0  0  0  0
  -22.4126  -12.0006   22.4860 H   0  0  0  0  0  0
  -21.1083  -13.1308   22.2568 H   0  0  0  0  0  0
  -24.6637  -15.8434   20.5301 H   0  0  0  0  0  0
  -26.2799  -15.6307   20.0872 H   0  0  0  0  0  0
  -26.7002  -32.5539   23.1025 H   0  0  0  0  0  0
  -25.0245  -33.9839   25.0512 H   0  0  0  0  0  0
  -22.6713  -31.3085   21.4234 H   0  0  0  0  0  0
  -23.3826  -35.9652   23.3233 H   0  0  0  0  0  0
  -24.3672  -36.9001   22.2032 H   0  0  0  0  0  0
  -23.7340  -37.6534   23.6659 H   0  0  0  0  0  0
  -26.0366  -31.6125   20.6006 H   0  0  0  0  0  0
  -26.7906  -30.8795   21.9899 H   0  0  0  0  0  0
  -28.0692  -29.1197   21.1897 H   0  0  0  0  0  0
  -26.0417  -25.9786   19.0146 H   0  0  0  0  0  0
  -23.9610  -27.2697   19.0751 H   0  0  0  0  0  0
  -23.7144  -30.6147   19.4120 H   0  0  0  0  0  0
  -22.7124  -29.2716   19.8608 H   0  0  0  0  0  0
  -25.1403  -36.1917   25.0796 H   0  0  0  0  0  0
  -21.0001  -28.3185   24.1516 H   0  0  0  0  0  0
  -20.5964  -26.2167   23.3618 H   0  0  0  0  0  0
  -21.6704  -26.7572   22.1142 H   0  0  0  0  0  0
  -19.7022  -25.6301   21.1269 H   0  0  0  0  0  0
  -19.6810  -27.3240   20.6869 H   0  0  0  0  0  0
  -17.4323  -26.6738   21.3930 H   0  0  0  0  0  0
  -18.0234  -26.0033   22.8963 H   0  0  0  0  0  0
  -19.7882  -30.7352   24.2155 H   0  0  0  0  0  0
  -17.4926  -31.6224   24.5162 H   0  0  0  0  0  0
  -15.5305  -30.2864   23.7724 H   0  0  0  0  0  0
  -15.8693  -28.0878   22.6810 H   0  0  0  0  0  0
  -24.5932  -30.6976   25.7626 H   0  0  0  0  0  0
  -24.8984  -32.2723   26.4875 H   0  0  0  0  0  0
  -25.8171  -30.8645   27.0008 H   0  0  0  0  0  0
  -26.2673  -29.6738   24.1141 H   0  0  0  0  0  0
  -27.4326  -29.7304   25.4190 H   0  0  0  0  0  0
  -27.8384  -30.4396   23.8745 H   0  0  0  0  0  0
  -27.2687  -33.3502   26.1976 H   0  0  0  0  0  0
  -28.3773  -32.6843   25.0061 H   0  0  0  0  0  0
  -28.0782  -31.8283   26.5130 H   0  0  0  0  0  0
  -28.2573  -38.0156   24.7586 H   0  0  0  0  0  0
  -28.1229  -36.2701   24.6118 H   0  0  0  0  0  0
  -27.2340  -37.1254   25.8803 H   0  0  0  0  0  0
  -20.9190  -29.8537   21.6897 H   0  0  0  0  0  0
  -26.0240  -38.2868   24.1350 H   0  0  0  0  0  0
  -32.1453  -20.9028   23.0197 H   0  0  0  0  0  0
  -28.7093  -18.2874   20.6086 H   0  0  0  0  0  0
  -34.7133  -18.3254   23.7245 H   0  0  0  0  0  0
  -34.0875  -19.9459   23.1149 H   0  0  0  0  0  0
  -32.6564  -17.2421   23.1775 H   0  0  0  0  0  0
  -31.9648  -16.6080   21.1577 H   0  0  0  0  0  0
  -29.0288  -15.7720   21.1505 H   0  0  0  0  0  0
  -28.3575  -24.6703   21.6336 H   0  0  0  0  0  0
  -27.7492  -22.8766   19.2327 H   0  0  0  0  0  0
  -32.0989  -22.8197   21.1135 H   0  0  0  0  0  0
  -31.9754  -23.0941   22.8659 H   0  0  0  0  0  0
  -31.2115  -24.2033   21.7390 H   0  0  0  0  0  0
  -28.0423  -25.3211   18.6264 H   0  0  0  0  0  0
  -29.6235  -25.3338   19.3252 H   0  0  0  0  0  0
  -26.5005  -21.9142   21.3368 H   0  0  0  0  0  0
  -27.9097  -22.2678   22.2721 H   0  0  0  0  0  0
  1 25  1  0  0  0
  1 30  2  0  0  0
  1 80  1  0  0  0
  2  3  1  0  0  0
  2 25  1  0  0  0
  2 88  1  0  0  0
  2 89  1  0  0  0
  3  4  1  0  0  0
  3 90  1  0  0  0
  3 91  1  0  0  0
  4  5  1  0  0  0
  4 92  1  0  0  0
  4 93  1  0  0  0
  5  6  1  0  0  0
  5 26  1  0  0  0
  5 94  1  0  0  0
  6 25  1  0  0  0
  6 95  1  0  0  0
  6 96  1  0  0  0
  7  8  2  0  0  0
  7 26  1  0  0  0
  7 29  1  0  0  0
  8  9  1  0  0  0
  8 22  1  0  0  0
  9 10  1  0  0  0
  9 27  2  0  0  0
 10 11  2  0  0  0
 10 15  1  0  0  0
 11 12  1  0  0  0
 11 97  1  0  0  0
 12 13  2  0  0  0
 12 98  1  0  0  0
 13 14  1  0  0  0
 13 31  1  0  0  0
 14 15  2  0  0  0
 14 99  1  0  0  0
 15100  1  0  0  0
 16 17  2  0  0  0
 16 21  1  0  0  0
 16 31  1  0  0  0
 17 18  1  0  0  0
 17101  1  0  0  0
 18 19  2  0  0  0
 18102  1  0  0  0
 19 20  1  0  0  0
 19 24  1  0  0  0
 20 21  2  0  0  0
 20103  1  0  0  0
 21 23  1  0  0  0
 22 28  1  0  0  0
 22 32  2  0  0  0
 26 27  1  0  0  0
 28104  1  0  0  0
 28105  1  0  0  0
 29106  1  0  0  0
 29107  1  0  0  0
 33 34  1  0  0  0
 33 66  1  0  0  0
 33 70  2  0  0  0
 34 36  1  0  0  0
 34 59  1  0  0  0
 34108  1  0  0  0
 35 44  2  0  0  0
 35 45  1  0  0  0
 35 68  1  0  0  0
 36 56  1  0  0  0
 36109  1  0  0  0
 37 39  1  0  0  0
 37 47  1  0  0  0
 37 66  1  0  0  0
 37110  1  0  0  0
 38 43  2  0  0  0
 38 46  1  0  0  0
 38 47  1  0  0  0
 39 64  1  0  0  0
 39 67  2  0  0  0
 40 52  1  0  0  0
 40 53  2  0  0  0
 40 58  1  0  0  0
 41111  1  0  0  0
 41112  1  0  0  0
 41113  1  0  0  0
 41 48  1  0  0  0
 42 43  1  0  0  0
 42 66  1  0  0  0
 42114  1  0  0  0
 42115  1  0  0  0
 43 44  1  0  0  0
 44116  1  0  0  0
 45 46  2  0  0  0
 45117  1  0  0  0
 46118  1  0  0  0
 47119  1  0  0  0
 47120  1  0  0  0
 48 56  1  0  0  0
 48 65  1  0  0  0
 48121  1  0  0  0
 49 50  1  0  0  0
 49 53  1  0  0  0
 49 64  1  0  0  0
 49122  1  0  0  0
 50 51  1  0  0  0
 50123  1  0  0  0
 50124  1  0  0  0
 51 52  1  0  0  0
 51125  1  0  0  0
 51126  1  0  0  0
 52127  1  0  0  0
 52128  1  0  0  0
 53 54  1  0  0  0
 54 55  2  0  0  0
 54129  1  0  0  0
 55 57  1  0  0  0
 55130  1  0  0  0
 56 69  2  0  0  0
 57 58  2  0  0  0
 57131  1  0  0  0
 58132  1  0  0  0
 59 60  1  0  0  0
 59 61  1  0  0  0
 59 62  1  0  0  0
 60133  1  0  0  0
 60134  1  0  0  0
 60135  1  0  0  0
 61136  1  0  0  0
 61137  1  0  0  0
 61138  1  0  0  0
 62139  1  0  0  0
 62140  1  0  0  0
 62141  1  0  0  0
 63 65  1  0  0  0
 63142  1  0  0  0
 63143  1  0  0  0
 63144  1  0  0  0
 64145  1  0  0  0
 65146  1  0  0  0
 68 84  1  0  0  0
 71 73  2  0  0  0
 71 75  1  0  0  0
 71147  1  0  0  0
 72 74  2  0  0  0
 72 76  1  0  0  0
 72148  1  0  0  0
 73 74  1  0  0  0
 73 78  1  0  0  0
 74 79  1  0  0  0
 75 76  2  0  0  0
 75 86  1  0  0  0
 76 87  1  0  0  0
 77 78  2  0  0  0
 77149  1  0  0  0
 77150  1  0  0  0
 78151  1  0  0  0
 79 80  2  0  0  0
 79152  1  0  0  0
 80153  1  0  0  0
 81 82  2  0  0  0
 81 84  1  0  0  0
 81154  1  0  0  0
 82 85  1  0  0  0
 82155  1  0  0  0
 83 86  1  0  0  0
 83156  1  0  0  0
 83157  1  0  0  0
 83158  1  0  0  0
 84159  1  0  0  0
 84160  1  0  0  0
 85 87  1  0  0  0
 85161  1  0  0  0
 85162  1  0  0  0
M  ISO  4   1 100  68 101  80 100  84 101
M  END
> <chiral flag>
0

> <version>
0

> <s_m_source_file>
/data/baiqing/PycharmProjects/Reinvent-master-3.2/result/LINK_invent/BTK/process_docking_weight1_custom_product_contain_oxygen_bond_distance_aromatic_linkinvent_7_9_3/rearranged_h_0119.sdf

> <i_m_source_file_index>
6

> <r_mmod_Potential_Energy-OPLS-2005>
30.9842281341553

> <r_mmod_Stretch_Energy-OPLS-2005>
39.2610168457031

> <r_mmod_Bend_Energy-OPLS-2005>
135.388229370117

> <r_mmod_Torsional_Energy-OPLS-2005>
195.92512512207

> <r_mmod_Improper_Torsional_Energy-OPLS-2005>
5.27632761001587

> <r_mmod_Van_der_Waal_Energy-OPLS-2005>
181.680313110352

> <r_mmod_Electrostatic_Energy-OPLS-2005>
-346.689788818359

> <r_mmod_Solvation_Energy-OPLS-2005>
-198.198394775391

> <b_mmod_Minimization_Converged-OPLS-2005>
0

> <r_mmod_RMS_Derivative-OPLS-2005>
5.02871370315552

$$$$
6
                    3D
 Structure written by MMmdl.
153161  0  0  1  0            999 V2000
  -30.6292  -14.6630   20.4932 C   0  0  0  0  0  0
  -30.4434  -12.4069   19.4579 C   0  0  0  0  0  0
  -29.5130  -12.5084   18.2286 C   0  0  0  0  0  0
  -28.0364  -12.3389   18.6420 C   0  0  0  0  0  0
  -27.6520  -13.2171   19.8624 C   0  0  2  0  0  0
  -28.7008  -13.0920   20.9916 C   0  0  0  0  0  0
  -25.2455  -13.8039   20.5551 C   0  0  0  0  0  0
  -24.1788  -13.0342   20.9215 C   0  0  0  0  0  0
  -24.6406  -11.6841   20.8790 C   0  0  0  0  0  0
  -23.9070  -10.4244   21.0439 C   0  0  0  0  0  0
  -24.3613   -9.4158   21.9210 C   0  0  0  0  0  0
  -23.6278   -8.2204   22.0761 C   0  0  0  0  0  0
  -22.4260   -8.0261   21.3543 C   0  0  0  0  0  0
  -21.9900   -9.0239   20.4649 C   0  0  0  0  0  0
  -22.7243  -10.2114   20.3073 C   0  0  0  0  0  0
  -21.6842   -6.0727   22.5281 C   0  0  0  0  0  0
  -21.4015   -6.5638   23.8213 C   0  0  0  0  0  0
  -21.3652   -5.6786   24.9173 C   0  0  0  0  0  0
  -21.6041   -4.3046   24.7223 C   0  0  0  0  0  0
  -21.8821   -3.8137   23.4343 C   0  0  0  0  0  0
  -21.9188   -4.6957   22.3400 C   0  0  0  0  0  0
  -22.7816  -13.5164   21.1846 C   0  0  0  0  0  0
  -22.1656   -4.2145   21.0978 F   0  0  0  0  0  0
  -21.5615   -3.4531   25.7730 F   0  0  0  0  0  0
  -30.0144  -13.4373   20.4249 N   0  0  0  0  0  0
  -26.2974  -12.9302   20.3306 N   0  0  0  0  0  0
  -25.9347  -11.6462   20.5827 N   0  0  0  0  0  0
  -22.0439  -12.8198   22.0423 N   0  0  0  0  0  0
  -25.3915  -15.1686   20.3640 N   0  0  0  0  0  0
  -31.7987  -14.8071   20.1285 O   0  0  0  0  0  0
  -21.6619   -6.8863   21.4238 O   0  0  0  0  0  0
  -22.3526  -14.5472   20.6671 O   0  0  0  0  0  0
  -24.6250  -31.8615   23.2044 C   0  0  0  0  0  0
  -25.9103  -32.4788   23.8380 C   0  0  1  0  0  0
  -27.2303  -27.3370   20.1048 C   0  0  0  0  0  0
  -25.5923  -33.8585   24.2307 N   0  0  0  0  0  0
  -23.4187  -30.4854   21.5477 C   0  0  2  0  0  0
  -24.8655  -28.9462   20.1126 C   0  0  0  0  0  0
  -22.7475  -29.4616   22.4941 C   0  0  0  0  0  0
  -18.0293  -28.1381   22.8485 C   0  0  0  0  0  0
  -24.1490  -36.7297   23.2630 C   0  0  0  0  0  0
  -25.9597  -30.7972   21.3747 C   0  0  0  0  0  0
  -26.0349  -29.4269   20.7144 C   0  0  0  0  0  0
  -27.2201  -28.6340   20.7018 C   0  0  0  0  0  0
  -26.0311  -26.9046   19.4871 C   0  0  0  0  0  0
  -24.8641  -27.6886   19.4922 C   0  0  0  0  0  0
  -23.6336  -29.8246   20.1615 C   0  0  0  0  0  0
  -25.4101  -36.3079   24.0336 C   0  0  1  0  0  0
  -20.5889  -28.3682   23.1277 C   0  0  2  0  0  0
  -20.6781  -26.9406   22.5401 C   0  0  0  0  0  0
  -19.5755  -26.6378   21.5204 C   0  0  0  0  0  0
  -18.1939  -26.7923   22.1622 C   0  0  0  0  0  0
  -19.1545  -28.8849   23.2877 C   0  0  0  0  0  0
  -18.9467  -30.1447   23.8901 C   0  0  0  0  0  0
  -17.6465  -30.6578   24.0559 C   0  0  0  0  0  0
  -25.9045  -34.9453   23.5121 C   0  0  0  0  0  0
  -16.5358  -29.9076   23.6323 C   0  0  0  0  0  0
  -16.7280  -28.6495   23.0350 C   0  0  0  0  0  0
  -26.4497  -31.6587   25.0738 C   0  0  0  0  0  0
  -25.3741  -31.3733   26.1481 C   0  0  0  0  0  0
  -27.0324  -30.3011   24.6174 C   0  0  0  0  0  0
  -27.6087  -32.4300   25.7477 C   0  0  0  0  0  0
  -27.5597  -37.1765   24.8439 C   0  0  0  0  0  0
  -21.4191  -29.3038   22.3679 N   0  0  0  0  0  0
  -26.4271  -37.3782   23.9444 N   0  0  0  0  0  0
  -24.6869  -31.0630   22.0997 N   0  0  0  0  0  0
  -23.4204  -28.8155   23.3013 O   0  0  0  0  0  0
  -28.3566  -26.5005   20.1376 O   0  0  0  0  0  0
  -26.5608  -34.8911   22.4683 O   0  0  0  0  0  0
  -23.5415  -32.1414   23.7375 O   0  0  0  0  0  0
  -31.1796  -19.3136   20.3211 C   0  0  0  0  0  0
  -31.1422  -17.8879   20.4226 C   0  0  0  0  0  0
  -28.8276  -19.4312   20.7316 C   0  0  0  0  0  0
  -30.0265  -20.1322   20.4767 C   0  0  0  0  0  0
  -28.7795  -18.0106   20.8490 C   0  0  0  0  0  0
  -29.9368  -17.1840   20.6885 C   0  0  0  0  0  0
  -30.1043  -21.6476   20.3638 C   0  0  0  0  0  0
  -29.1043  -22.5862   20.2914 C   0  0  0  0  0  0
  -29.3302  -24.0878   20.2145 C   0  0  0  0  0  0
  -27.4191  -17.4115   21.1222 C   0  0  0  0  0  0
  -28.1147  -25.0521   19.9606 C   0  0  0  0  0  0
  -29.8159  -15.7231   20.8124 N   0  0  0  0  0  0
  -30.4574  -24.5813   20.3318 O   0  0  0  0  0  0
  -31.4839  -12.5347   19.1541 H   0  0  0  0  0  0
  -30.3838  -11.4160   19.9109 H   0  0  0  0  0  0
  -29.7817  -11.7509   17.4900 H   0  0  0  0  0  0
  -29.6496  -13.4746   17.7415 H   0  0  0  0  0  0
  -27.8831  -11.2867   18.8848 H   0  0  0  0  0  0
  -27.3816  -12.5537   17.7968 H   0  0  0  0  0  0
  -27.6613  -14.2492   19.5126 H   0  0  0  0  0  0
  -28.7194  -12.0752   21.3872 H   0  0  0  0  0  0
  -28.4460  -13.7354   21.8348 H   0  0  0  0  0  0
  -25.2764   -9.5622   22.4786 H   0  0  0  0  0  0
  -23.9966   -7.4590   22.7488 H   0  0  0  0  0  0
  -21.0823   -8.8787   19.8961 H   0  0  0  0  0  0
  -22.3725  -10.9661   19.6183 H   0  0  0  0  0  0
  -21.2026   -7.6149   23.9718 H   0  0  0  0  0  0
  -21.1463   -6.0515   25.9074 H   0  0  0  0  0  0
  -22.0610   -2.7594   23.2852 H   0  0  0  0  0  0
  -22.4033  -11.9881   22.4850 H   0  0  0  0  0  0
  -21.1062  -13.1274   22.2606 H   0  0  0  0  0  0
  -24.5903  -15.7890   20.4051 H   0  0  0  0  0  0
  -26.1819  -15.5720   19.8805 H   0  0  0  0  0  0
  -26.7177  -32.5467   23.1139 H   0  0  0  0  0  0
  -25.0075  -33.9743   25.0454 H   0  0  0  0  0  0
  -22.7116  -31.3050   21.4068 H   0  0  0  0  0  0
  -23.3764  -35.9611   23.3214 H   0  0  0  0  0  0
  -24.3621  -36.8993   22.2064 H   0  0  0  0  0  0
  -23.7209  -37.6462   23.6697 H   0  0  0  0  0  0
  -26.0905  -31.5632   20.6090 H   0  0  0  0  0  0
  -26.8398  -30.8450   22.0044 H   0  0  0  0  0  0
  -28.1182  -28.9993   21.1811 H   0  0  0  0  0  0
  -25.9605  -25.9477   18.9925 H   0  0  0  0  0  0
  -23.9677  -27.3143   19.0166 H   0  0  0  0  0  0
  -23.7544  -30.6049   19.4091 H   0  0  0  0  0  0
  -22.7546  -29.2556   19.8547 H   0  0  0  0  0  0
  -25.1261  -36.1926   25.0822 H   0  0  0  0  0  0
  -20.9984  -28.3259   24.1392 H   0  0  0  0  0  0
  -20.5671  -26.2298   23.3601 H   0  0  0  0  0  0
  -21.6648  -26.7430   22.1199 H   0  0  0  0  0  0
  -19.6911  -25.6284   21.1234 H   0  0  0  0  0  0
  -19.6684  -27.3185   20.6728 H   0  0  0  0  0  0
  -17.4202  -26.6662   21.4033 H   0  0  0  0  0  0
  -18.0344  -26.0064   22.9019 H   0  0  0  0  0  0
  -19.7941  -30.7260   24.2276 H   0  0  0  0  0  0
  -17.5017  -31.6258   24.5161 H   0  0  0  0  0  0
  -15.5356  -30.2981   23.7627 H   0  0  0  0  0  0
  -15.8684  -28.0798   22.7069 H   0  0  0  0  0  0
  -24.5884  -30.7117   25.7813 H   0  0  0  0  0  0
  -24.8973  -32.2908   26.4945 H   0  0  0  0  0  0
  -25.8063  -30.8872   27.0236 H   0  0  0  0  0  0
  -26.2886  -29.6756   24.1226 H   0  0  0  0  0  0
  -27.4064  -29.7272   25.4662 H   0  0  0  0  0  0
  -27.8742  -30.4305   23.9369 H   0  0  0  0  0  0
  -27.2745  -33.3613   26.2058 H   0  0  0  0  0  0
  -28.3878  -32.6827   25.0273 H   0  0  0  0  0  0
  -28.0772  -31.8418   26.5376 H   0  0  0  0  0  0
  -28.2510  -38.0164   24.7631 H   0  0  0  0  0  0
  -28.1194  -36.2710   24.6053 H   0  0  0  0  0  0
  -27.2354  -37.1153   25.8841 H   0  0  0  0  0  0
  -20.9369  -29.8793   21.6917 H   0  0  0  0  0  0
  -26.0143  -38.2831   24.1539 H   0  0  0  0  0  0
  -32.1294  -19.7879   20.1184 H   0  0  0  0  0  0
  -32.0672  -17.3447   20.2946 H   0  0  0  0  0  0
  -27.9144  -19.9953   20.8568 H   0  0  0  0  0  0
  -31.1151  -22.0329   20.3562 H   0  0  0  0  0  0
  -28.0747  -22.2629   20.2877 H   0  0  0  0  0  0
  -26.7962  -18.0924   21.7046 H   0  0  0  0  0  0
  -27.4737  -16.4721   21.6712 H   0  0  0  0  0  0
  -26.9231  -17.2517   20.1663 H   0  0  0  0  0  0
  -27.3010  -24.7410   20.6170 H   0  0  0  0  0  0
  -27.7861  -24.8747   18.9363 H   0  0  0  0  0  0
  -28.8941  -15.4155   21.0782 H   0  0  0  0  0  0
  1 25  1  0  0  0
  1 30  2  0  0  0
  1 82  1  0  0  0
  2  3  1  0  0  0
  2 25  1  0  0  0
  2 84  1  0  0  0
  2 85  1  0  0  0
  3  4  1  0  0  0
  3 86  1  0  0  0
  3 87  1  0  0  0
  4  5  1  0  0  0
  4 88  1  0  0  0
  4 89  1  0  0  0
  5  6  1  0  0  0
  5 26  1  0  0  0
  5 90  1  0  0  0
  6 25  1  0  0  0
  6 91  1  0  0  0
  6 92  1  0  0  0
  7  8  2  0  0  0
  7 26  1  0  0  0
  7 29  1  0  0  0
  8  9  1  0  0  0
  8 22  1  0  0  0
  9 10  1  0  0  0
  9 27  2  0  0  0
 10 11  2  0  0  0
 10 15  1  0  0  0
 11 12  1  0  0  0
 11 93  1  0  0  0
 12 13  2  0  0  0
 12 94  1  0  0  0
 13 14  1  0  0  0
 13 31  1  0  0  0
 14 15  2  0  0  0
 14 95  1  0  0  0
 15 96  1  0  0  0
 16 17  2  0  0  0
 16 21  1  0  0  0
 16 31  1  0  0  0
 17 18  1  0  0  0
 17 97  1  0  0  0
 18 19  2  0  0  0
 18 98  1  0  0  0
 19 20  1  0  0  0
 19 24  1  0  0  0
 20 21  2  0  0  0
 20 99  1  0  0  0
 21 23  1  0  0  0
 22 28  1  0  0  0
 22 32  2  0  0  0
 26 27  1  0  0  0
 28100  1  0  0  0
 28101  1  0  0  0
 29102  1  0  0  0
 29103  1  0  0  0
 33 34  1  0  0  0
 33 66  1  0  0  0
 33 70  2  0  0  0
 34 36  1  0  0  0
 34 59  1  0  0  0
 34104  1  0  0  0
 35 44  2  0  0  0
 35 45  1  0  0  0
 35 68  1  0  0  0
 36 56  1  0  0  0
 36105  1  0  0  0
 37 39  1  0  0  0
 37 47  1  0  0  0
 37 66  1  0  0  0
 37106  1  0  0  0
 38 43  2  0  0  0
 38 46  1  0  0  0
 38 47  1  0  0  0
 39 64  1  0  0  0
 39 67  2  0  0  0
 40 52  1  0  0  0
 40 53  2  0  0  0
 40 58  1  0  0  0
 41107  1  0  0  0
 41108  1  0  0  0
 41109  1  0  0  0
 41 48  1  0  0  0
 42 43  1  0  0  0
 42 66  1  0  0  0
 42110  1  0  0  0
 42111  1  0  0  0
 43 44  1  0  0  0
 44112  1  0  0  0
 45 46  2  0  0  0
 45113  1  0  0  0
 46114  1  0  0  0
 47115  1  0  0  0
 47116  1  0  0  0
 48 56  1  0  0  0
 48 65  1  0  0  0
 48117  1  0  0  0
 49 50  1  0  0  0
 49 53  1  0  0  0
 49 64  1  0  0  0
 49118  1  0  0  0
 50 51  1  0  0  0
 50119  1  0  0  0
 50120  1  0  0  0
 51 52  1  0  0  0
 51121  1  0  0  0
 51122  1  0  0  0
 52123  1  0  0  0
 52124  1  0  0  0
 53 54  1  0  0  0
 54 55  2  0  0  0
 54125  1  0  0  0
 55 57  1  0  0  0
 55126  1  0  0  0
 56 69  2  0  0  0
 57 58  2  0  0  0
 57127  1  0  0  0
 58128  1  0  0  0
 59 60  1  0  0  0
 59 61  1  0  0  0
 59 62  1  0  0  0
 60129  1  0  0  0
 60130  1  0  0  0
 60131  1  0  0  0
 61132  1  0  0  0
 61133  1  0  0  0
 61134  1  0  0  0
 62135  1  0  0  0
 62136  1  0  0  0
 62137  1  0  0  0
 63 65  1  0  0  0
 63138  1  0  0  0
 63139  1  0  0  0
 63140  1  0  0  0
 64141  1  0  0  0
 65142  1  0  0  0
 68 81  1  0  0  0
 71 72  2  0  0  0
 71 74  1  0  0  0
 71143  1  0  0  0
 72 76  1  0  0  0
 72144  1  0  0  0
 73 74  2  0  0  0
 73 75  1  0  0  0
 73145  1  0  0  0
 74 77  1  0  0  0
 75 76  2  0  0  0
 75 80  1  0  0  0
 76 82  1  0  0  0
 77 78  2  0  0  0
 77146  1  0  0  0
 78 79  1  0  0  0
 78147  1  0  0  0
 79 81  1  0  0  0
 79 83  2  0  0  0
 80148  1  0  0  0
 80149  1  0  0  0
 80150  1  0  0  0
 81151  1  0  0  0
 81152  1  0  0  0
 82153  1  0  0  0
M  ISO  4   1 100  68 101  81 101  82 100
M  END
> <chiral flag>
0

> <version>
0

> <s_m_source_file>
/data/baiqing/PycharmProjects/Reinvent-master-3.2/result/LINK_invent/BTK/process_docking_weight1_custom_product_contain_oxygen_bond_distance_aromatic_linkinvent_7_9_3/rearranged_h_0119.sdf

> <i_m_source_file_index>
7

> <r_mmod_Potential_Energy-OPLS-2005>
17.3762893676758

> <r_mmod_Stretch_Energy-OPLS-2005>
76.2647705078125

> <r_mmod_Bend_Energy-OPLS-2005>
128.889190673828

> <r_mmod_Torsional_Energy-OPLS-2005>
209.611755371094

> <r_mmod_Improper_Torsional_Energy-OPLS-2005>
5.33827304840088

> <r_mmod_Van_der_Waal_Energy-OPLS-2005>
150.311431884766

> <r_mmod_Electrostatic_Energy-OPLS-2005>
-373.359924316406

> <r_mmod_Solvation_Energy-OPLS-2005>
-228.910049438477

> <b_mmod_Minimization_Converged-OPLS-2005>
0

> <r_mmod_RMS_Derivative-OPLS-2005>
1.88998234272003

$$$$
7
                    3D
 Structure written by MMmdl.
162170  0  0  1  0            999 V2000
  -30.6378  -14.6958   20.5148 C   0  0  0  0  0  0
  -30.4371  -12.4324   19.4789 C   0  0  0  0  0  0
  -29.5162  -12.5268   18.2403 C   0  0  0  0  0  0
  -28.0376  -12.3545   18.6400 C   0  0  0  0  0  0
  -27.6521  -13.2246   19.8653 C   0  0  2  0  0  0
  -28.6911  -13.0847   20.9974 C   0  0  0  0  0  0
  -25.2549  -13.8182   20.5687 C   0  0  0  0  0  0
  -24.1820  -13.0438   20.9171 C   0  0  0  0  0  0
  -24.6398  -11.6911   20.8720 C   0  0  0  0  0  0
  -23.9068  -10.4293   21.0393 C   0  0  0  0  0  0
  -24.3619   -9.4210   21.9175 C   0  0  0  0  0  0
  -23.6291   -8.2248   22.0752 C   0  0  0  0  0  0
  -22.4273   -8.0281   21.3542 C   0  0  0  0  0  0
  -21.9909   -9.0255   20.4644 C   0  0  0  0  0  0
  -22.7239  -10.2131   20.3049 C   0  0  0  0  0  0
  -21.6855   -6.0735   22.5279 C   0  0  0  0  0  0
  -21.4015   -6.5639   23.8210 C   0  0  0  0  0  0
  -21.3659   -5.6792   24.9173 C   0  0  0  0  0  0
  -21.6046   -4.3055   24.7224 C   0  0  0  0  0  0
  -21.8820   -3.8145   23.4346 C   0  0  0  0  0  0
  -21.9191   -4.6963   22.3400 C   0  0  0  0  0  0
  -22.7843  -13.5225   21.1847 C   0  0  0  0  0  0
  -22.1661   -4.2149   21.0978 F   0  0  0  0  0  0
  -21.5629   -3.4537   25.7736 F   0  0  0  0  0  0
  -30.0064  -13.4656   20.4535 N   0  0  0  0  0  0
  -26.2982  -12.9379   20.3315 N   0  0  0  0  0  0
  -25.9329  -11.6521   20.5730 N   0  0  0  0  0  0
  -22.0491  -12.8213   22.0404 N   0  0  0  0  0  0
  -25.4254  -15.1907   20.4134 N   0  0  0  0  0  0
  -31.7634  -14.8378   20.0248 O   0  0  0  0  0  0
  -21.6638   -6.8878   21.4239 O   0  0  0  0  0  0
  -22.3524  -14.5532   20.6700 O   0  0  0  0  0  0
  -24.6299  -31.8572   23.2013 C   0  0  0  0  0  0
  -25.9131  -32.4764   23.8344 C   0  0  1  0  0  0
  -27.2180  -27.2773   20.1166 C   0  0  0  0  0  0
  -25.5936  -33.8566   24.2268 N   0  0  0  0  0  0
  -23.4250  -30.4816   21.5452 C   0  0  2  0  0  0
  -24.8716  -28.9375   20.1077 C   0  0  0  0  0  0
  -22.7494  -29.4603   22.4922 C   0  0  0  0  0  0
  -18.0294  -28.1384   22.8477 C   0  0  0  0  0  0
  -24.1489  -36.7285   23.2636 C   0  0  0  0  0  0
  -25.9710  -30.7735   21.3813 C   0  0  0  0  0  0
  -26.0432  -29.3990   20.7203 C   0  0  0  0  0  0
  -27.2176  -28.5801   20.7188 C   0  0  0  0  0  0
  -26.0246  -26.8939   19.4578 C   0  0  0  0  0  0
  -24.8667  -27.6913   19.4671 C   0  0  0  0  0  0
  -23.6420  -29.8218   20.1591 C   0  0  0  0  0  0
  -25.4113  -36.3074   24.0329 C   0  0  1  0  0  0
  -20.5893  -28.3691   23.1270 C   0  0  2  0  0  0
  -20.6778  -26.9409   22.5408 C   0  0  0  0  0  0
  -19.5757  -26.6382   21.5205 C   0  0  0  0  0  0
  -18.1936  -26.7925   22.1615 C   0  0  0  0  0  0
  -19.1547  -28.8854   23.2865 C   0  0  0  0  0  0
  -18.9470  -30.1453   23.8884 C   0  0  0  0  0  0
  -17.6470  -30.6586   24.0559 C   0  0  0  0  0  0
  -25.9057  -34.9445   23.5100 C   0  0  0  0  0  0
  -16.5360  -29.9084   23.6329 C   0  0  0  0  0  0
  -16.7280  -28.6501   23.0348 C   0  0  0  0  0  0
  -26.4503  -31.6588   25.0729 C   0  0  0  0  0  0
  -25.3725  -31.3744   26.1450 C   0  0  0  0  0  0
  -27.0346  -30.3002   24.6213 C   0  0  0  0  0  0
  -27.6064  -32.4326   25.7496 C   0  0  0  0  0  0
  -27.5588  -37.1782   24.8455 C   0  0  0  0  0  0
  -21.4201  -29.3043   22.3662 N   0  0  0  0  0  0
  -26.4285  -37.3777   23.9424 N   0  0  0  0  0  0
  -24.6943  -31.0546   22.0987 N   0  0  0  0  0  0
  -23.4199  -28.8132   23.3011 O   0  0  0  0  0  0
  -28.3091  -26.3787   20.1937 O   0  0  0  0  0  0
  -26.5631  -34.8917   22.4669 O   0  0  0  0  0  0
  -23.5453  -32.1399   23.7314 O   0  0  0  0  0  0
  -29.3407  -17.1784   19.0233 C   0  0  0  0  0  0
  -29.0005  -19.5956   18.7834 C   0  0  0  0  0  0
  -29.7372  -17.3003   20.3733 C   0  0  0  0  0  0
  -29.7992  -18.6739   20.8936 C   0  0  0  0  0  0
  -29.4104  -19.8443   20.1130 C   0  0  0  0  0  0
  -28.9848  -18.2952   18.2473 C   0  0  0  0  0  0
  -29.8942  -24.0695   21.4173 C   0  0  0  0  0  0
  -29.9096  -15.9610   21.1612 C   0  0  0  0  0  0
  -29.0053  -23.7962   20.4485 C   0  0  0  0  0  0
  -32.4323  -19.1338   23.7499 C   0  0  0  0  0  0
  -30.3310  -18.9391   22.3008 C   0  0  0  0  0  0
  -28.0741  -24.9333   19.8658 C   0  0  0  0  0  0
  -28.8613  -22.3270   19.8678 C   0  0  0  0  0  0
  -31.8579  -18.7686   22.3763 C   0  0  0  0  0  0
  -29.4596  -15.8866   22.3425 N   0  0  0  0  0  0
  -29.4417  -21.1798   20.6215 O   0  0  0  0  0  0
  -28.5976  -18.1118   16.9628 F   0  0  0  0  0  0
  -31.4804  -12.5485   19.1809 H   0  0  0  0  0  0
  -30.3741  -11.4392   19.9266 H   0  0  0  0  0  0
  -29.7951  -11.7708   17.5052 H   0  0  0  0  0  0
  -29.6554  -13.4928   17.7529 H   0  0  0  0  0  0
  -27.8794  -11.3007   18.8711 H   0  0  0  0  0  0
  -27.3872  -12.5801   17.7945 H   0  0  0  0  0  0
  -27.6687  -14.2612   19.5287 H   0  0  0  0  0  0
  -28.7195  -12.0556   21.3587 H   0  0  0  0  0  0
  -28.3966  -13.6746   21.8620 H   0  0  0  0  0  0
  -25.2767   -9.5686   22.4745 H   0  0  0  0  0  0
  -24.0001   -7.4642   22.7475 H   0  0  0  0  0  0
  -21.0841   -8.8772   19.8952 H   0  0  0  0  0  0
  -22.3698  -10.9666   19.6154 H   0  0  0  0  0  0
  -21.2008   -7.6147   23.9713 H   0  0  0  0  0  0
  -21.1482   -6.0521   25.9075 H   0  0  0  0  0  0
  -22.0598   -2.7607   23.2843 H   0  0  0  0  0  0
  -22.4112  -11.9872   22.4787 H   0  0  0  0  0  0
  -21.1112  -13.1238   22.2621 H   0  0  0  0  0  0
  -24.6631  -15.8478   20.5373 H   0  0  0  0  0  0
  -26.2895  -15.6351   20.1315 H   0  0  0  0  0  0
  -26.7192  -32.5418   23.1082 H   0  0  0  0  0  0
  -25.0065  -33.9707   25.0397 H   0  0  0  0  0  0
  -22.7206  -31.3037   21.4029 H   0  0  0  0  0  0
  -23.3765  -35.9602   23.3275 H   0  0  0  0  0  0
  -24.3581  -36.8933   22.2056 H   0  0  0  0  0  0
  -23.7225  -37.6470   23.6674 H   0  0  0  0  0  0
  -26.1101  -31.5373   20.6151 H   0  0  0  0  0  0
  -26.8477  -30.8180   22.0154 H   0  0  0  0  0  0
  -28.1118  -28.9242   21.2198 H   0  0  0  0  0  0
  -25.9444  -25.9548   18.9323 H   0  0  0  0  0  0
  -23.9722  -27.3361   18.9732 H   0  0  0  0  0  0
  -23.7645  -30.6015   19.4064 H   0  0  0  0  0  0
  -22.7600  -29.2563   19.8523 H   0  0  0  0  0  0
  -25.1286  -36.1918   25.0820 H   0  0  0  0  0  0
  -20.9982  -28.3275   24.1391 H   0  0  0  0  0  0
  -20.5672  -26.2300   23.3610 H   0  0  0  0  0  0
  -21.6648  -26.7429   22.1208 H   0  0  0  0  0  0
  -19.6918  -25.6291   21.1240 H   0  0  0  0  0  0
  -19.6705  -27.3188   20.6730 H   0  0  0  0  0  0
  -17.4205  -26.6673   21.4020 H   0  0  0  0  0  0
  -18.0334  -26.0067   22.9011 H   0  0  0  0  0  0
  -19.7950  -30.7261   24.2258 H   0  0  0  0  0  0
  -17.5032  -31.6266   24.5162 H   0  0  0  0  0  0
  -15.5360  -30.2983   23.7666 H   0  0  0  0  0  0
  -15.8677  -28.0819   22.7068 H   0  0  0  0  0  0
  -24.5913  -30.7072   25.7789 H   0  0  0  0  0  0
  -24.8898  -32.2913   26.4840 H   0  0  0  0  0  0
  -25.8042  -30.8957   27.0248 H   0  0  0  0  0  0
  -26.2926  -29.6750   24.1234 H   0  0  0  0  0  0
  -27.4021  -29.7266   25.4732 H   0  0  0  0  0  0
  -27.8810  -30.4273   23.9460 H   0  0  0  0  0  0
  -27.2678  -33.3639   26.2050 H   0  0  0  0  0  0
  -28.3882  -32.6867   25.0325 H   0  0  0  0  0  0
  -28.0718  -31.8463   26.5428 H   0  0  0  0  0  0
  -28.2567  -38.0119   24.7559 H   0  0  0  0  0  0
  -28.1122  -36.2650   24.6202 H   0  0  0  0  0  0
  -27.2312  -37.1335   25.8857 H   0  0  0  0  0  0
  -20.9382  -29.8774   21.6879 H   0  0  0  0  0  0
  -26.0165  -38.2841   24.1472 H   0  0  0  0  0  0
  -29.2643  -16.2045   18.5622 H   0  0  0  0  0  0
  -28.6972  -20.3971   18.1289 H   0  0  0  0  0  0
  -30.5344  -23.3001   21.8248 H   0  0  0  0  0  0
  -29.9959  -25.0678   21.8188 H   0  0  0  0  0  0
  -33.5165  -19.0172   23.7603 H   0  0  0  0  0  0
  -32.0230  -18.4952   24.5331 H   0  0  0  0  0  0
  -32.2098  -20.1692   24.0093 H   0  0  0  0  0  0
  -29.8341  -18.3069   23.0333 H   0  0  0  0  0  0
  -30.0747  -19.9526   22.6082 H   0  0  0  0  0  0
  -27.0790  -24.6398   20.2008 H   0  0  0  0  0  0
  -28.0825  -24.8374   18.7794 H   0  0  0  0  0  0
  -29.2971  -22.3599   18.8690 H   0  0  0  0  0  0
  -27.7959  -22.1297   19.7405 H   0  0  0  0  0  0
  -32.1334  -17.7414   22.1333 H   0  0  0  0  0  0
  -32.3274  -19.3977   21.6184 H   0  0  0  0  0  0
  -29.0196  -16.7556   22.6162 H   0  0  0  0  0  0
  1 25  1  0  0  0
  1 30  2  0  0  0
  1 78  1  0  0  0
  2  3  1  0  0  0
  2 25  1  0  0  0
  2 88  1  0  0  0
  2 89  1  0  0  0
  3  4  1  0  0  0
  3 90  1  0  0  0
  3 91  1  0  0  0
  4  5  1  0  0  0
  4 92  1  0  0  0
  4 93  1  0  0  0
  5  6  1  0  0  0
  5 26  1  0  0  0
  5 94  1  0  0  0
  6 25  1  0  0  0
  6 95  1  0  0  0
  6 96  1  0  0  0
  7  8  2  0  0  0
  7 26  1  0  0  0
  7 29  1  0  0  0
  8  9  1  0  0  0
  8 22  1  0  0  0
  9 10  1  0  0  0
  9 27  2  0  0  0
 10 11  2  0  0  0
 10 15  1  0  0  0
 11 12  1  0  0  0
 11 97  1  0  0  0
 12 13  2  0  0  0
 12 98  1  0  0  0
 13 14  1  0  0  0
 13 31  1  0  0  0
 14 15  2  0  0  0
 14 99  1  0  0  0
 15100  1  0  0  0
 16 17  2  0  0  0
 16 21  1  0  0  0
 16 31  1  0  0  0
 17 18  1  0  0  0
 17101  1  0  0  0
 18 19  2  0  0  0
 18102  1  0  0  0
 19 20  1  0  0  0
 19 24  1  0  0  0
 20 21  2  0  0  0
 20103  1  0  0  0
 21 23  1  0  0  0
 22 28  1  0  0  0
 22 32  2  0  0  0
 26 27  1  0  0  0
 28104  1  0  0  0
 28105  1  0  0  0
 29106  1  0  0  0
 29107  1  0  0  0
 33 34  1  0  0  0
 33 66  1  0  0  0
 33 70  2  0  0  0
 34 36  1  0  0  0
 34 59  1  0  0  0
 34108  1  0  0  0
 35 44  2  0  0  0
 35 45  1  0  0  0
 35 68  1  0  0  0
 36 56  1  0  0  0
 36109  1  0  0  0
 37 39  1  0  0  0
 37 47  1  0  0  0
 37 66  1  0  0  0
 37110  1  0  0  0
 38 43  2  0  0  0
 38 46  1  0  0  0
 38 47  1  0  0  0
 39 64  1  0  0  0
 39 67  2  0  0  0
 40 52  1  0  0  0
 40 53  2  0  0  0
 40 58  1  0  0  0
 41111  1  0  0  0
 41112  1  0  0  0
 41113  1  0  0  0
 41 48  1  0  0  0
 42 43  1  0  0  0
 42 66  1  0  0  0
 42114  1  0  0  0
 42115  1  0  0  0
 43 44  1  0  0  0
 44116  1  0  0  0
 45 46  2  0  0  0
 45117  1  0  0  0
 46118  1  0  0  0
 47119  1  0  0  0
 47120  1  0  0  0
 48 56  1  0  0  0
 48 65  1  0  0  0
 48121  1  0  0  0
 49 50  1  0  0  0
 49 53  1  0  0  0
 49 64  1  0  0  0
 49122  1  0  0  0
 50 51  1  0  0  0
 50123  1  0  0  0
 50124  1  0  0  0
 51 52  1  0  0  0
 51125  1  0  0  0
 51126  1  0  0  0
 52127  1  0  0  0
 52128  1  0  0  0
 53 54  1  0  0  0
 54 55  2  0  0  0
 54129  1  0  0  0
 55 57  1  0  0  0
 55130  1  0  0  0
 56 69  2  0  0  0
 57 58  2  0  0  0
 57131  1  0  0  0
 58132  1  0  0  0
 59 60  1  0  0  0
 59 61  1  0  0  0
 59 62  1  0  0  0
 60133  1  0  0  0
 60134  1  0  0  0
 60135  1  0  0  0
 61136  1  0  0  0
 61137  1  0  0  0
 61138  1  0  0  0
 62139  1  0  0  0
 62140  1  0  0  0
 62141  1  0  0  0
 63 65  1  0  0  0
 63142  1  0  0  0
 63143  1  0  0  0
 63144  1  0  0  0
 64145  1  0  0  0
 65146  1  0  0  0
 68 82  1  0  0  0
 71 73  2  0  0  0
 71 76  1  0  0  0
 71147  1  0  0  0
 72 75  1  0  0  0
 72 76  2  0  0  0
 72148  1  0  0  0
 73 74  1  0  0  0
 73 78  1  0  0  0
 74 75  2  0  0  0
 74 81  1  0  0  0
 75 86  1  0  0  0
 76 87  1  0  0  0
 77 79  2  0  0  0
 77149  1  0  0  0
 77150  1  0  0  0
 78 85  2  0  0  0
 79 82  1  0  0  0
 79 83  1  0  0  0
 80 84  1  0  0  0
 80151  1  0  0  0
 80152  1  0  0  0
 80153  1  0  0  0
 81 84  1  0  0  0
 81154  1  0  0  0
 81155  1  0  0  0
 82156  1  0  0  0
 82157  1  0  0  0
 83 86  1  0  0  0
 83158  1  0  0  0
 83159  1  0  0  0
 84160  1  0  0  0
 84161  1  0  0  0
 85162  1  0  0  0
M  ISO  4   1 100  68 101  78 100  82 101
M  END
> <chiral flag>
0

> <version>
0

> <s_m_source_file>
/data/baiqing/PycharmProjects/Reinvent-master-3.2/result/LINK_invent/BTK/process_docking_weight1_custom_product_contain_oxygen_bond_distance_aromatic_linkinvent_7_9_3/rearranged_h_0119.sdf

> <i_m_source_file_index>
8

> <r_mmod_Potential_Energy-OPLS-2005>
286.746948242188

> <r_mmod_Stretch_Energy-OPLS-2005>
130.289627075195

> <r_mmod_Bend_Energy-OPLS-2005>
162.615707397461

> <r_mmod_Torsional_Energy-OPLS-2005>
205.282318115234

> <r_mmod_Improper_Torsional_Energy-OPLS-2005>
2.60248756408691

> <r_mmod_Van_der_Waal_Energy-OPLS-2005>
147.566299438477

> <r_mmod_Electrostatic_Energy-OPLS-2005>
-238.818664550781

> <r_mmod_Solvation_Energy-OPLS-2005>
-191.488571166992

> <b_mmod_Minimization_Converged-OPLS-2005>
0

> <r_mmod_RMS_Derivative-OPLS-2005>
0.74987930059433

$$$$
8
                    3D
 Structure written by MMmdl.
159167  0  0  1  0            999 V2000
  -30.7149  -14.4219   20.6549 C   0  0  0  0  0  0
  -30.4163  -12.3112   19.3972 C   0  0  0  0  0  0
  -29.4836  -12.5219   18.1886 C   0  0  0  0  0  0
  -28.0059  -12.3793   18.6034 C   0  0  0  0  0  0
  -27.6591  -13.2013   19.8738 C   0  0  2  0  0  0
  -28.6951  -12.9474   20.9864 C   0  0  0  0  0  0
  -25.2576  -13.8140   20.5661 C   0  0  0  0  0  0
  -24.1830  -13.0429   20.9164 C   0  0  0  0  0  0
  -24.6373  -11.6887   20.8705 C   0  0  0  0  0  0
  -23.9042  -10.4276   21.0388 C   0  0  0  0  0  0
  -24.3606   -9.4198   21.9173 C   0  0  0  0  0  0
  -23.6283   -8.2233   22.0747 C   0  0  0  0  0  0
  -22.4273   -8.0262   21.3531 C   0  0  0  0  0  0
  -21.9897   -9.0239   20.4647 C   0  0  0  0  0  0
  -22.7214  -10.2117   20.3047 C   0  0  0  0  0  0
  -21.6856   -6.0728   22.5270 C   0  0  0  0  0  0
  -21.4026   -6.5634   23.8208 C   0  0  0  0  0  0
  -21.3660   -5.6784   24.9168 C   0  0  0  0  0  0
  -21.6038   -4.3045   24.7219 C   0  0  0  0  0  0
  -21.8826   -3.8143   23.4341 C   0  0  0  0  0  0
  -21.9198   -4.6957   22.3396 C   0  0  0  0  0  0
  -22.7857  -13.5227   21.1846 C   0  0  0  0  0  0
  -22.1662   -4.2141   21.0969 F   0  0  0  0  0  0
  -21.5630   -3.4534   25.7736 F   0  0  0  0  0  0
  -30.0260  -13.2706   20.4432 N   0  0  0  0  0  0
  -26.3002  -12.9296   20.3357 N   0  0  0  0  0  0
  -25.9291  -11.6460   20.5739 N   0  0  0  0  0  0
  -22.0511  -12.8214   22.0407 N   0  0  0  0  0  0
  -25.4317  -15.1870   20.4106 N   0  0  0  0  0  0
  -31.7952  -14.6668   20.1063 O   0  0  0  0  0  0
  -21.6633   -6.8866   21.4231 O   0  0  0  0  0  0
  -22.3542  -14.5528   20.6696 O   0  0  0  0  0  0
  -24.6167  -31.8680   23.2103 C   0  0  0  0  0  0
  -25.9062  -32.4828   23.8390 C   0  0  1  0  0  0
  -27.2252  -27.4052   20.1130 C   0  0  0  0  0  0
  -25.5912  -33.8621   24.2313 N   0  0  0  0  0  0
  -23.4057  -30.4921   21.5530 C   0  0  2  0  0  0
  -24.8507  -28.9621   20.1121 C   0  0  0  0  0  0
  -22.7435  -29.4636   22.5001 C   0  0  0  0  0  0
  -18.0270  -28.1394   22.8473 C   0  0  0  0  0  0
  -24.1506  -36.7306   23.2637 C   0  0  0  0  0  0
  -25.9385  -30.8286   21.3664 C   0  0  0  0  0  0
  -26.0139  -29.4629   20.7097 C   0  0  0  0  0  0
  -27.2038  -28.6953   20.7000 C   0  0  0  0  0  0
  -26.0382  -26.9294   19.5039 C   0  0  0  0  0  0
  -24.8612  -27.6983   19.5014 C   0  0  0  0  0  0
  -23.6144  -29.8314   20.1651 C   0  0  0  0  0  0
  -25.4123  -36.3114   24.0349 C   0  0  1  0  0  0
  -20.5862  -28.3652   23.1344 C   0  0  2  0  0  0
  -20.6774  -26.9394   22.5440 C   0  0  0  0  0  0
  -19.5763  -26.6395   21.5221 C   0  0  0  0  0  0
  -18.1918  -26.7941   22.1600 C   0  0  0  0  0  0
  -19.1524  -28.8843   23.2893 C   0  0  0  0  0  0
  -18.9447  -30.1440   23.8905 C   0  0  0  0  0  0
  -17.6457  -30.6583   24.0570 C   0  0  0  0  0  0
  -25.9062  -34.9479   23.5134 C   0  0  0  0  0  0
  -16.5343  -29.9089   23.6342 C   0  0  0  0  0  0
  -16.7260  -28.6521   23.0333 C   0  0  0  0  0  0
  -26.4476  -31.6598   25.0713 C   0  0  0  0  0  0
  -25.3738  -31.3722   26.1458 C   0  0  0  0  0  0
  -27.0288  -30.3044   24.6071 C   0  0  0  0  0  0
  -27.6069  -32.4313   25.7445 C   0  0  0  0  0  0
  -27.5595  -37.1785   24.8457 C   0  0  0  0  0  0
  -21.4159  -29.2997   22.3739 N   0  0  0  0  0  0
  -26.4299  -37.3802   23.9418 N   0  0  0  0  0  0
  -24.6721  -31.0783   22.0999 N   0  0  0  0  0  0
  -23.4198  -28.8187   23.3052 O   0  0  0  0  0  0
  -28.3798  -26.6394   20.1591 O   0  0  0  0  0  0
  -26.5604  -34.8927   22.4684 O   0  0  0  0  0  0
  -23.5352  -32.1428   23.7491 O   0  0  0  0  0  0
  -28.6848  -19.6078   21.8828 C   0  0  0  0  0  0
  -29.0289  -18.2456   22.0372 C   0  0  0  0  0  0
  -31.2878  -18.7638   21.3341 C   0  0  0  0  0  0
  -29.6331  -20.5776   21.4678 C   0  0  0  0  0  0
  -30.9615  -20.1332   21.1850 C   0  0  0  0  0  0
  -30.3493  -17.8182   21.7922 C   0  0  0  0  0  0
  -32.4670  -22.1105   21.4916 C   0  0  0  0  0  0
  -32.0918  -21.0065   20.8264 C   0  0  0  0  0  0
  -29.1810  -22.0173   21.4570 C   0  0  0  0  0  0
  -30.8216  -16.4096   22.1620 C   0  0  0  0  0  0
  -29.4122  -22.8716   20.1913 C   0  0  0  0  0  0
  -29.5181  -24.4174   20.4065 C   0  0  0  0  0  0
  -28.2105  -25.2032   20.1380 C   0  0  0  0  0  0
  -30.1464  -15.2849   21.5132 N   0  0  0  0  0  0
  -28.5704  -22.5127   22.4092 O   0  0  0  0  0  0
  -31.4590  -12.4227   19.0959 H   0  0  0  0  0  0
  -30.3257  -11.2917   19.7758 H   0  0  0  0  0  0
  -29.7199  -11.8034   17.4024 H   0  0  0  0  0  0
  -29.6499  -13.5101   17.7580 H   0  0  0  0  0  0
  -27.8120  -11.3215   18.7813 H   0  0  0  0  0  0
  -27.3555  -12.6697   17.7773 H   0  0  0  0  0  0
  -27.7138  -14.2556   19.6028 H   0  0  0  0  0  0
  -28.6714  -11.8980   21.2832 H   0  0  0  0  0  0
  -28.4395  -13.5037   21.8878 H   0  0  0  0  0  0
  -25.2761   -9.5679   22.4744 H   0  0  0  0  0  0
  -24.0005   -7.4621   22.7455 H   0  0  0  0  0  0
  -21.0840   -8.8741   19.8950 H   0  0  0  0  0  0
  -22.3667  -10.9653   19.6156 H   0  0  0  0  0  0
  -21.2012   -7.6144   23.9708 H   0  0  0  0  0  0
  -21.1484   -6.0516   25.9068 H   0  0  0  0  0  0
  -22.0609   -2.7607   23.2842 H   0  0  0  0  0  0
  -22.4165  -11.9885   22.4783 H   0  0  0  0  0  0
  -21.1127  -13.1228   22.2622 H   0  0  0  0  0  0
  -24.6692  -15.8466   20.5236 H   0  0  0  0  0  0
  -26.2940  -15.6244   20.1075 H   0  0  0  0  0  0
  -26.7108  -32.5539   23.1129 H   0  0  0  0  0  0
  -25.0080  -33.9758   25.0467 H   0  0  0  0  0  0
  -22.6927  -31.3077   21.4152 H   0  0  0  0  0  0
  -23.3790  -35.9621   23.3309 H   0  0  0  0  0  0
  -24.3592  -36.8920   22.2048 H   0  0  0  0  0  0
  -23.7224  -37.6493   23.6647 H   0  0  0  0  0  0
  -26.0553  -31.5953   20.5998 H   0  0  0  0  0  0
  -26.8248  -30.8763   21.9872 H   0  0  0  0  0  0
  -28.1011  -29.0796   21.1660 H   0  0  0  0  0  0
  -25.9921  -25.9624   19.0283 H   0  0  0  0  0  0
  -23.9682  -27.3097   19.0315 H   0  0  0  0  0  0
  -23.7166  -30.6105   19.4082 H   0  0  0  0  0  0
  -22.7374  -29.2549   19.8686 H   0  0  0  0  0  0
  -25.1295  -36.1977   25.0845 H   0  0  0  0  0  0
  -20.9906  -28.3212   24.1486 H   0  0  0  0  0  0
  -20.5722  -26.2238   23.3610 H   0  0  0  0  0  0
  -21.6636  -26.7466   22.1195 H   0  0  0  0  0  0
  -19.6952  -25.6319   21.1217 H   0  0  0  0  0  0
  -19.6749  -27.3234   20.6778 H   0  0  0  0  0  0
  -17.4214  -26.6696   21.3982 H   0  0  0  0  0  0
  -18.0283  -26.0084   22.8992 H   0  0  0  0  0  0
  -19.7925  -30.7247   24.2276 H   0  0  0  0  0  0
  -17.5013  -31.6268   24.5158 H   0  0  0  0  0  0
  -15.5335  -30.2994   23.7694 H   0  0  0  0  0  0
  -15.8647  -28.0865   22.7028 H   0  0  0  0  0  0
  -24.5918  -30.7058   25.7798 H   0  0  0  0  0  0
  -24.8903  -32.2883   26.4869 H   0  0  0  0  0  0
  -25.8071  -30.8914   27.0234 H   0  0  0  0  0  0
  -26.2794  -29.6806   24.1176 H   0  0  0  0  0  0
  -27.4121  -29.7277   25.4492 H   0  0  0  0  0  0
  -27.8630  -30.4378   23.9176 H   0  0  0  0  0  0
  -27.2708  -33.3619   26.2022 H   0  0  0  0  0  0
  -28.3848  -32.6852   25.0237 H   0  0  0  0  0  0
  -28.0772  -31.8441   26.5337 H   0  0  0  0  0  0
  -28.2597  -38.0093   24.7522 H   0  0  0  0  0  0
  -28.1095  -36.2617   24.6261 H   0  0  0  0  0  0
  -27.2310  -37.1427   25.8855 H   0  0  0  0  0  0
  -20.9328  -29.8700   21.6940 H   0  0  0  0  0  0
  -26.0218  -38.2890   24.1431 H   0  0  0  0  0  0
  -27.6763  -19.9185   22.1217 H   0  0  0  0  0  0
  -28.2895  -17.5437   22.4002 H   0  0  0  0  0  0
  -32.3091  -18.4467   21.1670 H   0  0  0  0  0  0
  -33.3081  -22.6995   21.1511 H   0  0  0  0  0  0
  -31.9572  -22.4432   22.3845 H   0  0  0  0  0  0
  -32.6498  -20.7199   19.9438 H   0  0  0  0  0  0
  -30.6636  -16.2922   23.2355 H   0  0  0  0  0  0
  -31.9031  -16.3359   22.0294 H   0  0  0  0  0  0
  -28.6039  -22.6536   19.4919 H   0  0  0  0  0  0
  -30.3185  -22.5191   19.7043 H   0  0  0  0  0  0
  -30.2772  -24.7951   19.7235 H   0  0  0  0  0  0
  -29.8912  -24.6416   21.4081 H   0  0  0  0  0  0
  -27.4538  -24.9050   20.8673 H   0  0  0  0  0  0
  -27.8510  -24.9062   19.1530 H   0  0  0  0  0  0
  -29.2492  -15.0156   21.8887 H   0  0  0  0  0  0
  1 25  1  0  0  0
  1 30  2  0  0  0
  1 84  1  0  0  0
  2  3  1  0  0  0
  2 25  1  0  0  0
  2 86  1  0  0  0
  2 87  1  0  0  0
  3  4  1  0  0  0
  3 88  1  0  0  0
  3 89  1  0  0  0
  4  5  1  0  0  0
  4 90  1  0  0  0
  4 91  1  0  0  0
  5  6  1  0  0  0
  5 26  1  0  0  0
  5 92  1  0  0  0
  6 25  1  0  0  0
  6 93  1  0  0  0
  6 94  1  0  0  0
  7  8  2  0  0  0
  7 26  1  0  0  0
  7 29  1  0  0  0
  8  9  1  0  0  0
  8 22  1  0  0  0
  9 10  1  0  0  0
  9 27  2  0  0  0
 10 11  2  0  0  0
 10 15  1  0  0  0
 11 12  1  0  0  0
 11 95  1  0  0  0
 12 13  2  0  0  0
 12 96  1  0  0  0
 13 14  1  0  0  0
 13 31  1  0  0  0
 14 15  2  0  0  0
 14 97  1  0  0  0
 15 98  1  0  0  0
 16 17  2  0  0  0
 16 21  1  0  0  0
 16 31  1  0  0  0
 17 18  1  0  0  0
 17 99  1  0  0  0
 18 19  2  0  0  0
 18100  1  0  0  0
 19 20  1  0  0  0
 19 24  1  0  0  0
 20 21  2  0  0  0
 20101  1  0  0  0
 21 23  1  0  0  0
 22 28  1  0  0  0
 22 32  2  0  0  0
 26 27  1  0  0  0
 28102  1  0  0  0
 28103  1  0  0  0
 29104  1  0  0  0
 29105  1  0  0  0
 33 34  1  0  0  0
 33 66  1  0  0  0
 33 70  2  0  0  0
 34 36  1  0  0  0
 34 59  1  0  0  0
 34106  1  0  0  0
 35 44  2  0  0  0
 35 45  1  0  0  0
 35 68  1  0  0  0
 36 56  1  0  0  0
 36107  1  0  0  0
 37 39  1  0  0  0
 37 47  1  0  0  0
 37 66  1  0  0  0
 37108  1  0  0  0
 38 43  2  0  0  0
 38 46  1  0  0  0
 38 47  1  0  0  0
 39 64  1  0  0  0
 39 67  2  0  0  0
 40 52  1  0  0  0
 40 53  2  0  0  0
 40 58  1  0  0  0
 41109  1  0  0  0
 41110  1  0  0  0
 41111  1  0  0  0
 41 48  1  0  0  0
 42 43  1  0  0  0
 42 66  1  0  0  0
 42112  1  0  0  0
 42113  1  0  0  0
 43 44  1  0  0  0
 44114  1  0  0  0
 45 46  2  0  0  0
 45115  1  0  0  0
 46116  1  0  0  0
 47117  1  0  0  0
 47118  1  0  0  0
 48 56  1  0  0  0
 48 65  1  0  0  0
 48119  1  0  0  0
 49 50  1  0  0  0
 49 53  1  0  0  0
 49 64  1  0  0  0
 49120  1  0  0  0
 50 51  1  0  0  0
 50121  1  0  0  0
 50122  1  0  0  0
 51 52  1  0  0  0
 51123  1  0  0  0
 51124  1  0  0  0
 52125  1  0  0  0
 52126  1  0  0  0
 53 54  1  0  0  0
 54 55  2  0  0  0
 54127  1  0  0  0
 55 57  1  0  0  0
 55128  1  0  0  0
 56 69  2  0  0  0
 57 58  2  0  0  0
 57129  1  0  0  0
 58130  1  0  0  0
 59 60  1  0  0  0
 59 61  1  0  0  0
 59 62  1  0  0  0
 60131  1  0  0  0
 60132  1  0  0  0
 60133  1  0  0  0
 61134  1  0  0  0
 61135  1  0  0  0
 61136  1  0  0  0
 62137  1  0  0  0
 62138  1  0  0  0
 62139  1  0  0  0
 63 65  1  0  0  0
 63140  1  0  0  0
 63141  1  0  0  0
 63142  1  0  0  0
 64143  1  0  0  0
 65144  1  0  0  0
 68 83  1  0  0  0
 71 72  2  0  0  0
 71 74  1  0  0  0
 71145  1  0  0  0
 72 76  1  0  0  0
 72146  1  0  0  0
 73 75  1  0  0  0
 73 76  2  0  0  0
 73147  1  0  0  0
 74 75  2  0  0  0
 74 79  1  0  0  0
 75 78  1  0  0  0
 76 80  1  0  0  0
 77 78  2  0  0  0
 77148  1  0  0  0
 77149  1  0  0  0
 78150  1  0  0  0
 79 81  1  0  0  0
 79 85  2  0  0  0
 80 84  1  0  0  0
 80151  1  0  0  0
 80152  1  0  0  0
 81 82  1  0  0  0
 81153  1  0  0  0
 81154  1  0  0  0
 82 83  1  0  0  0
 82155  1  0  0  0
 82156  1  0  0  0
 83157  1  0  0  0
 83158  1  0  0  0
 84159  1  0  0  0
M  ISO  4   1 100  68 101  83 101  84 100
M  END
> <chiral flag>
0

> <version>
0

> <s_m_source_file>
/data/baiqing/PycharmProjects/Reinvent-master-3.2/result/LINK_invent/BTK/process_docking_weight1_custom_product_contain_oxygen_bond_distance_aromatic_linkinvent_7_9_3/rearranged_h_0119.sdf

> <i_m_source_file_index>
9

> <r_mmod_Potential_Energy-OPLS-2005>
-53.2463226318359

> <r_mmod_Stretch_Energy-OPLS-2005>
41.4762954711914

> <r_mmod_Bend_Energy-OPLS-2005>
102.704528808594

> <r_mmod_Torsional_Energy-OPLS-2005>
257.895202636719

> <r_mmod_Improper_Torsional_Energy-OPLS-2005>
3.46512603759766

> <r_mmod_Van_der_Waal_Energy-OPLS-2005>
157.365692138672

> <r_mmod_Electrostatic_Energy-OPLS-2005>
-411.297973632812

> <r_mmod_Solvation_Energy-OPLS-2005>
-218.219802856445

> <b_mmod_Minimization_Converged-OPLS-2005>
0

> <r_mmod_RMS_Derivative-OPLS-2005>
2.98601412773132

$$$$
9
                    3D
 Structure written by MMmdl.
161169  0  0  1  0            999 V2000
  -30.7211  -14.4584   20.5182 C   0  0  0  0  0  0
  -30.4065  -12.2756   19.4513 C   0  0  0  0  0  0
  -29.5083  -12.5091   18.2194 C   0  0  0  0  0  0
  -28.0178  -12.3981   18.6070 C   0  0  0  0  0  0
  -27.6596  -13.2230   19.8741 C   0  0  2  0  0  0
  -28.6943  -13.0126   21.0007 C   0  0  0  0  0  0
  -25.2543  -13.8199   20.5667 C   0  0  0  0  0  0
  -24.1810  -13.0456   20.9161 C   0  0  0  0  0  0
  -24.6375  -11.6928   20.8697 C   0  0  0  0  0  0
  -23.9045  -10.4309   21.0390 C   0  0  0  0  0  0
  -24.3602   -9.4241   21.9182 C   0  0  0  0  0  0
  -23.6289   -8.2268   22.0745 C   0  0  0  0  0  0
  -22.4284   -8.0281   21.3538 C   0  0  0  0  0  0
  -21.9910   -9.0256   20.4645 C   0  0  0  0  0  0
  -22.7220  -10.2141   20.3052 C   0  0  0  0  0  0
  -21.6862   -6.0733   22.5285 C   0  0  0  0  0  0
  -21.4015   -6.5641   23.8221 C   0  0  0  0  0  0
  -21.3661   -5.6778   24.9180 C   0  0  0  0  0  0
  -21.6049   -4.3042   24.7232 C   0  0  0  0  0  0
  -21.8816   -3.8142   23.4343 C   0  0  0  0  0  0
  -21.9191   -4.6959   22.3397 C   0  0  0  0  0  0
  -22.7834  -13.5252   21.1848 C   0  0  0  0  0  0
  -22.1661   -4.2144   21.0977 F   0  0  0  0  0  0
  -21.5637   -3.4527   25.7741 F   0  0  0  0  0  0
  -30.0313  -13.2858   20.4539 N   0  0  0  0  0  0
  -26.2996  -12.9394   20.3328 N   0  0  0  0  0  0
  -25.9307  -11.6539   20.5708 N   0  0  0  0  0  0
  -22.0447  -12.8258   22.0394 N   0  0  0  0  0  0
  -25.4266  -15.1918   20.4127 N   0  0  0  0  0  0
  -31.8832  -14.5429   20.1099 O   0  0  0  0  0  0
  -21.6643   -6.8876   21.4251 O   0  0  0  0  0  0
  -22.3527  -14.5563   20.6698 O   0  0  0  0  0  0
  -24.6145  -31.8664   23.2077 C   0  0  0  0  0  0
  -25.9040  -32.4804   23.8375 C   0  0  1  0  0  0
  -27.2395  -27.4344   20.0943 C   0  0  0  0  0  0
  -25.5890  -33.8595   24.2307 N   0  0  0  0  0  0
  -23.4030  -30.4882   21.5485 C   0  0  2  0  0  0
  -24.8507  -28.9543   20.1121 C   0  0  0  0  0  0
  -22.7412  -29.4639   22.4990 C   0  0  0  0  0  0
  -18.0263  -28.1377   22.8485 C   0  0  0  0  0  0
  -24.1473  -36.7297   23.2641 C   0  0  0  0  0  0
  -25.9319  -30.8335   21.3600 C   0  0  0  0  0  0
  -26.0095  -29.4675   20.7070 C   0  0  0  0  0  0
  -27.2056  -28.7158   20.6914 C   0  0  0  0  0  0
  -26.0633  -26.9395   19.4853 C   0  0  0  0  0  0
  -24.8733  -27.6905   19.4973 C   0  0  0  0  0  0
  -23.6119  -29.8191   20.1625 C   0  0  0  0  0  0
  -25.4090  -36.3081   24.0333 C   0  0  1  0  0  0
  -20.5850  -28.3649   23.1324 C   0  0  2  0  0  0
  -20.6745  -26.9385   22.5431 C   0  0  0  0  0  0
  -19.5730  -26.6376   21.5219 C   0  0  0  0  0  0
  -18.1903  -26.7925   22.1621 C   0  0  0  0  0  0
  -19.1511  -28.8828   23.2901 C   0  0  0  0  0  0
  -18.9440  -30.1436   23.8903 C   0  0  0  0  0  0
  -17.6442  -30.6587   24.0546 C   0  0  0  0  0  0
  -25.9029  -34.9455   23.5116 C   0  0  0  0  0  0
  -16.5334  -29.9087   23.6320 C   0  0  0  0  0  0
  -16.7249  -28.6507   23.0339 C   0  0  0  0  0  0
  -26.4465  -31.6583   25.0709 C   0  0  0  0  0  0
  -25.3739  -31.3674   26.1461 C   0  0  0  0  0  0
  -27.0318  -30.3032   24.6088 C   0  0  0  0  0  0
  -27.6025  -32.4312   25.7495 C   0  0  0  0  0  0
  -27.5560  -37.1798   24.8458 C   0  0  0  0  0  0
  -21.4135  -29.3020   22.3748 N   0  0  0  0  0  0
  -26.4265  -37.3776   23.9416 N   0  0  0  0  0  0
  -24.6682  -31.0761   22.0980 N   0  0  0  0  0  0
  -23.4193  -28.8172   23.3018 O   0  0  0  0  0  0
  -28.4230  -26.7223   20.1260 O   0  0  0  0  0  0
  -26.5596  -34.8914   22.4684 O   0  0  0  0  0  0
  -23.5335  -32.1413   23.7475 O   0  0  0  0  0  0
  -29.3370  -18.6356   21.6569 C   0  0  0  0  0  0
  -29.4166  -20.4351   19.5105 C   0  0  0  0  0  0
  -29.7693  -18.1747   20.3950 C   0  0  0  0  0  0
  -29.0073  -19.9955   21.8676 C   0  0  0  0  0  0
  -29.7714  -19.0850   19.3078 C   0  0  0  0  0  0
  -29.0718  -20.9212   20.7932 C   0  0  0  0  0  0
  -30.2560  -16.7921   20.2025 C   0  0  0  0  0  0
  -29.9759  -15.6613   20.8925 C   0  0  0  0  0  0
  -29.6533  -23.1487   20.6243 C   0  0  0  0  0  0
  -30.1715  -18.6472   17.9065 C   0  0  0  0  0  0
  -29.9038  -20.6660   24.1334 C   0  0  0  0  0  0
  -28.6505  -20.4414   23.2790 C   0  0  0  0  0  0
  -29.5039  -24.6542   20.8044 C   0  0  0  0  0  0
  -28.3892  -25.2951   19.9514 C   0  0  0  0  0  0
  -28.7900  -22.2843   20.9945 N   0  0  0  0  0  0
  -31.4607  -12.3193   19.1728 H   0  0  0  0  0  0
  -30.2508  -11.2717   19.8504 H   0  0  0  0  0  0
  -29.7513  -11.7920   17.4349 H   0  0  0  0  0  0
  -29.7085  -13.4979   17.8008 H   0  0  0  0  0  0
  -27.7971  -11.3423   18.7748 H   0  0  0  0  0  0
  -27.3916  -12.7116   17.7716 H   0  0  0  0  0  0
  -27.7026  -14.2754   19.5886 H   0  0  0  0  0  0
  -28.6521  -11.9840   21.3646 H   0  0  0  0  0  0
  -28.4660  -13.6308   21.8679 H   0  0  0  0  0  0
  -25.2747   -9.5749   22.4736 H   0  0  0  0  0  0
  -24.0025   -7.4666   22.7451 H   0  0  0  0  0  0
  -21.0848   -8.8763   19.8948 H   0  0  0  0  0  0
  -22.3678  -10.9663   19.6142 H   0  0  0  0  0  0
  -21.2010   -7.6143   23.9730 H   0  0  0  0  0  0
  -21.1485   -6.0502   25.9081 H   0  0  0  0  0  0
  -22.0589   -2.7602   23.2837 H   0  0  0  0  0  0
  -22.4034  -11.9933   22.4822 H   0  0  0  0  0  0
  -21.1055  -13.1300   22.2543 H   0  0  0  0  0  0
  -24.6678  -15.8530   20.5359 H   0  0  0  0  0  0
  -26.2938  -15.6311   20.1293 H   0  0  0  0  0  0
  -26.7120  -32.5509   23.1149 H   0  0  0  0  0  0
  -25.0012  -33.9754   25.0429 H   0  0  0  0  0  0
  -22.6901  -31.3031   21.4076 H   0  0  0  0  0  0
  -23.3731  -35.9638   23.3307 H   0  0  0  0  0  0
  -24.3566  -36.8918   22.2059 H   0  0  0  0  0  0
  -23.7244  -37.6504   23.6665 H   0  0  0  0  0  0
  -26.0454  -31.6001   20.5910 H   0  0  0  0  0  0
  -26.8204  -30.8854   21.9783 H   0  0  0  0  0  0
  -28.1023  -29.1112   21.1484 H   0  0  0  0  0  0
  -26.0484  -25.9803   18.9882 H   0  0  0  0  0  0
  -23.9857  -27.2906   19.0272 H   0  0  0  0  0  0
  -23.7181  -30.5944   19.4024 H   0  0  0  0  0  0
  -22.7380  -29.2351   19.8681 H   0  0  0  0  0  0
  -25.1273  -36.1929   25.0824 H   0  0  0  0  0  0
  -20.9932  -28.3208   24.1442 H   0  0  0  0  0  0
  -20.5635  -26.2249   23.3610 H   0  0  0  0  0  0
  -21.6614  -26.7414   22.1221 H   0  0  0  0  0  0
  -19.6879  -25.6289   21.1239 H   0  0  0  0  0  0
  -19.6685  -27.3188   20.6753 H   0  0  0  0  0  0
  -17.4180  -26.6671   21.4018 H   0  0  0  0  0  0
  -18.0290  -26.0071   22.9014 H   0  0  0  0  0  0
  -19.7912  -30.7243   24.2283 H   0  0  0  0  0  0
  -17.4999  -31.6267   24.5143 H   0  0  0  0  0  0
  -15.5331  -30.2987   23.7646 H   0  0  0  0  0  0
  -15.8650  -28.0836   22.7040 H   0  0  0  0  0  0
  -24.5910  -30.7026   25.7796 H   0  0  0  0  0  0
  -24.8928  -32.2820   26.4931 H   0  0  0  0  0  0
  -25.8096  -30.8826   27.0207 H   0  0  0  0  0  0
  -26.2873  -29.6790   24.1129 H   0  0  0  0  0  0
  -27.4092  -29.7259   25.4540 H   0  0  0  0  0  0
  -27.8695  -30.4361   23.9238 H   0  0  0  0  0  0
  -27.2623  -33.3605   26.2072 H   0  0  0  0  0  0
  -28.3841  -32.6884   25.0339 H   0  0  0  0  0  0
  -28.0685  -31.8441   26.5420 H   0  0  0  0  0  0
  -28.2557  -38.0109   24.7501 H   0  0  0  0  0  0
  -28.1064  -36.2636   24.6268 H   0  0  0  0  0  0
  -27.2278  -37.1433   25.8858 H   0  0  0  0  0  0
  -20.9295  -29.8766   21.6995 H   0  0  0  0  0  0
  -26.0138  -38.2843   24.1437 H   0  0  0  0  0  0
  -29.3195  -17.9545   22.4962 H   0  0  0  0  0  0
  -29.4381  -21.1130   18.6681 H   0  0  0  0  0  0
  -30.9864  -16.7107   19.4081 H   0  0  0  0  0  0
  -29.2533  -15.6598   21.6936 H   0  0  0  0  0  0
  -30.6034  -22.8588   20.1647 H   0  0  0  0  0  0
  -29.9548  -19.4183   17.1668 H   0  0  0  0  0  0
  -29.6308  -17.7475   17.6084 H   0  0  0  0  0  0
  -31.2412  -18.4399   17.8641 H   0  0  0  0  0  0
  -29.6381  -21.0148   25.1313 H   0  0  0  0  0  0
  -30.5612  -21.4105   23.6830 H   0  0  0  0  0  0
  -30.4741  -19.7431   24.2441 H   0  0  0  0  0  0
  -28.0226  -19.6806   23.7430 H   0  0  0  0  0  0
  -28.0464  -21.3491   23.2621 H   0  0  0  0  0  0
  -30.4598  -25.1135   20.5558 H   0  0  0  0  0  0
  -29.3299  -24.8645   21.8596 H   0  0  0  0  0  0
  -27.4388  -24.8559   20.2586 H   0  0  0  0  0  0
  -28.5324  -25.0653   18.8938 H   0  0  0  0  0  0
  1 25  1  0  0  0
  1 30  2  0  0  0
  1 78  1  0  0  0
  2  3  1  0  0  0
  2 25  1  0  0  0
  2 86  1  0  0  0
  2 87  1  0  0  0
  3  4  1  0  0  0
  3 88  1  0  0  0
  3 89  1  0  0  0
  4  5  1  0  0  0
  4 90  1  0  0  0
  4 91  1  0  0  0
  5  6  1  0  0  0
  5 26  1  0  0  0
  5 92  1  0  0  0
  6 25  1  0  0  0
  6 93  1  0  0  0
  6 94  1  0  0  0
  7  8  2  0  0  0
  7 26  1  0  0  0
  7 29  1  0  0  0
  8  9  1  0  0  0
  8 22  1  0  0  0
  9 10  1  0  0  0
  9 27  2  0  0  0
 10 11  2  0  0  0
 10 15  1  0  0  0
 11 12  1  0  0  0
 11 95  1  0  0  0
 12 13  2  0  0  0
 12 96  1  0  0  0
 13 14  1  0  0  0
 13 31  1  0  0  0
 14 15  2  0  0  0
 14 97  1  0  0  0
 15 98  1  0  0  0
 16 17  2  0  0  0
 16 21  1  0  0  0
 16 31  1  0  0  0
 17 18  1  0  0  0
 17 99  1  0  0  0
 18 19  2  0  0  0
 18100  1  0  0  0
 19 20  1  0  0  0
 19 24  1  0  0  0
 20 21  2  0  0  0
 20101  1  0  0  0
 21 23  1  0  0  0
 22 28  1  0  0  0
 22 32  2  0  0  0
 26 27  1  0  0  0
 28102  1  0  0  0
 28103  1  0  0  0
 29104  1  0  0  0
 29105  1  0  0  0
 33 34  1  0  0  0
 33 66  1  0  0  0
 33 70  2  0  0  0
 34 36  1  0  0  0
 34 59  1  0  0  0
 34106  1  0  0  0
 35 44  2  0  0  0
 35 45  1  0  0  0
 35 68  1  0  0  0
 36 56  1  0  0  0
 36107  1  0  0  0
 37 39  1  0  0  0
 37 47  1  0  0  0
 37 66  1  0  0  0
 37108  1  0  0  0
 38 43  2  0  0  0
 38 46  1  0  0  0
 38 47  1  0  0  0
 39 64  1  0  0  0
 39 67  2  0  0  0
 40 52  1  0  0  0
 40 53  2  0  0  0
 40 58  1  0  0  0
 41109  1  0  0  0
 41110  1  0  0  0
 41111  1  0  0  0
 41 48  1  0  0  0
 42 43  1  0  0  0
 42 66  1  0  0  0
 42112  1  0  0  0
 42113  1  0  0  0
 43 44  1  0  0  0
 44114  1  0  0  0
 45 46  2  0  0  0
 45115  1  0  0  0
 46116  1  0  0  0
 47117  1  0  0  0
 47118  1  0  0  0
 48 56  1  0  0  0
 48 65  1  0  0  0
 48119  1  0  0  0
 49 50  1  0  0  0
 49 53  1  0  0  0
 49 64  1  0  0  0
 49120  1  0  0  0
 50 51  1  0  0  0
 50121  1  0  0  0
 50122  1  0  0  0
 51 52  1  0  0  0
 51123  1  0  0  0
 51124  1  0  0  0
 52125  1  0  0  0
 52126  1  0  0  0
 53 54  1  0  0  0
 54 55  2  0  0  0
 54127  1  0  0  0
 55 57  1  0  0  0
 55128  1  0  0  0
 56 69  2  0  0  0
 57 58  2  0  0  0
 57129  1  0  0  0
 58130  1  0  0  0
 59 60  1  0  0  0
 59 61  1  0  0  0
 59 62  1  0  0  0
 60131  1  0  0  0
 60132  1  0  0  0
 60133  1  0  0  0
 61134  1  0  0  0
 61135  1  0  0  0
 61136  1  0  0  0
 62137  1  0  0  0
 62138  1  0  0  0
 62139  1  0  0  0
 63 65  1  0  0  0
 63140  1  0  0  0
 63141  1  0  0  0
 63142  1  0  0  0
 64143  1  0  0  0
 65144  1  0  0  0
 68 84  1  0  0  0
 71 73  2  0  0  0
 71 74  1  0  0  0
 71145  1  0  0  0
 72 75  2  0  0  0
 72 76  1  0  0  0
 72146  1  0  0  0
 73 75  1  0  0  0
 73 77  1  0  0  0
 74 76  2  0  0  0
 74 82  1  0  0  0
 75 80  1  0  0  0
 76 85  1  0  0  0
 77 78  2  0  0  0
 77147  1  0  0  0
 78148  1  0  0  0
 79 83  1  0  0  0
 79 85  2  0  0  0
 79149  1  0  0  0
 80150  1  0  0  0
 80151  1  0  0  0
 80152  1  0  0  0
 81 82  1  0  0  0
 81153  1  0  0  0
 81154  1  0  0  0
 81155  1  0  0  0
 82156  1  0  0  0
 82157  1  0  0  0
 83 84  1  0  0  0
 83158  1  0  0  0
 83159  1  0  0  0
 84160  1  0  0  0
 84161  1  0  0  0
M  ISO  4   1 100  68 101  78 100  84 101
M  END
> <chiral flag>
0

> <version>
0

> <s_m_source_file>
/data/baiqing/PycharmProjects/Reinvent-master-3.2/result/LINK_invent/BTK/process_docking_weight1_custom_product_contain_oxygen_bond_distance_aromatic_linkinvent_7_9_3/rearranged_h_0119.sdf

> <i_m_source_file_index>
10

> <r_mmod_Potential_Energy-OPLS-2005>
-44.9627113342285

> <r_mmod_Stretch_Energy-OPLS-2005>
37.6646194458008

> <r_mmod_Bend_Energy-OPLS-2005>
103.520515441895

> <r_mmod_Torsional_Energy-OPLS-2005>
205.463439941406

> <r_mmod_Improper_Torsional_Energy-OPLS-2005>
4.8816237449646

> <r_mmod_Van_der_Waal_Energy-OPLS-2005>
166.684982299805

> <r_mmod_Electrostatic_Energy-OPLS-2005>
-384.602233886719

> <r_mmod_Solvation_Energy-OPLS-2005>
-194.975326538086

> <b_mmod_Minimization_Converged-OPLS-2005>
0

> <r_mmod_RMS_Derivative-OPLS-2005>
2.78467035293579

$$$$
10
                    3D
 Structure written by MMmdl.
160168  0  0  1  0            999 V2000
  -30.6867  -14.4704   20.4759 C   0  0  0  0  0  0
  -30.4229  -12.2498   19.4660 C   0  0  0  0  0  0
  -29.5127  -12.3773   18.2261 C   0  0  0  0  0  0
  -28.0155  -12.3374   18.6202 C   0  0  0  0  0  0
  -27.6528  -13.1935   19.8691 C   0  0  2  0  0  0
  -28.6956  -13.0161   20.9958 C   0  0  0  0  0  0
  -25.2569  -13.8117   20.5691 C   0  0  0  0  0  0
  -24.1806  -13.0417   20.9196 C   0  0  0  0  0  0
  -24.6337  -11.6880   20.8753 C   0  0  0  0  0  0
  -23.8999  -10.4277   21.0422 C   0  0  0  0  0  0
  -24.3576   -9.4196   21.9191 C   0  0  0  0  0  0
  -23.6264   -8.2223   22.0754 C   0  0  0  0  0  0
  -22.4247   -8.0252   21.3548 C   0  0  0  0  0  0
  -21.9864   -9.0217   20.4657 C   0  0  0  0  0  0
  -22.7177  -10.2106   20.3071 C   0  0  0  0  0  0
  -21.6837   -6.0715   22.5273 C   0  0  0  0  0  0
  -21.4011   -6.5619   23.8205 C   0  0  0  0  0  0
  -21.3662   -5.6775   24.9166 C   0  0  0  0  0  0
  -21.6039   -4.3038   24.7220 C   0  0  0  0  0  0
  -21.8816   -3.8131   23.4338 C   0  0  0  0  0  0
  -21.9191   -4.6946   22.3396 C   0  0  0  0  0  0
  -22.7837  -13.5237   21.1845 C   0  0  0  0  0  0
  -22.1663   -4.2136   21.0974 F   0  0  0  0  0  0
  -21.5630   -3.4525   25.7738 F   0  0  0  0  0  0
  -30.0290  -13.2825   20.4335 N   0  0  0  0  0  0
  -26.2963  -12.9241   20.3341 N   0  0  0  0  0  0
  -25.9257  -11.6424   20.5789 N   0  0  0  0  0  0
  -22.0462  -12.8276   22.0424 N   0  0  0  0  0  0
  -25.4346  -15.1831   20.4123 N   0  0  0  0  0  0
  -31.8567  -14.6153   20.1131 O   0  0  0  0  0  0
  -21.6619   -6.8850   21.4234 O   0  0  0  0  0  0
  -22.3535  -14.5537   20.6666 O   0  0  0  0  0  0
  -24.6096  -31.8669   23.2146 C   0  0  0  0  0  0
  -25.9001  -32.4816   23.8422 C   0  0  1  0  0  0
  -27.2510  -27.4697   20.0896 C   0  0  0  0  0  0
  -25.5857  -33.8611   24.2336 N   0  0  0  0  0  0
  -23.3961  -30.4881   21.5546 C   0  0  2  0  0  0
  -24.8458  -28.9555   20.1220 C   0  0  0  0  0  0
  -22.7360  -29.4627   22.5033 C   0  0  0  0  0  0
  -18.0237  -28.1344   22.8488 C   0  0  0  0  0  0
  -24.1487  -36.7354   23.2645 C   0  0  0  0  0  0
  -25.9209  -30.8437   21.3625 C   0  0  0  0  0  0
  -26.0022  -29.4788   20.7132 C   0  0  0  0  0  0
  -27.2039  -28.7430   20.6946 C   0  0  0  0  0  0
  -26.0757  -26.9493   19.4978 C   0  0  0  0  0  0
  -24.8757  -27.6858   19.5176 C   0  0  0  0  0  0
  -23.6046  -29.8161   20.1700 C   0  0  0  0  0  0
  -25.4097  -36.3112   24.0341 C   0  0  1  0  0  0
  -20.5820  -28.3605   23.1336 C   0  0  2  0  0  0
  -20.6734  -26.9345   22.5411 C   0  0  0  0  0  0
  -19.5723  -26.6358   21.5191 C   0  0  0  0  0  0
  -18.1902  -26.7887   22.1611 C   0  0  0  0  0  0
  -19.1483  -28.8795   23.2906 C   0  0  0  0  0  0
  -18.9420  -30.1414   23.8892 C   0  0  0  0  0  0
  -17.6434  -30.6563   24.0554 C   0  0  0  0  0  0
  -25.9014  -34.9469   23.5142 C   0  0  0  0  0  0
  -16.5321  -29.9059   23.6331 C   0  0  0  0  0  0
  -16.7226  -28.6485   23.0341 C   0  0  0  0  0  0
  -26.4458  -31.6594   25.0733 C   0  0  0  0  0  0
  -25.3767  -31.3679   26.1527 C   0  0  0  0  0  0
  -27.0276  -30.3031   24.6089 C   0  0  0  0  0  0
  -27.6043  -32.4314   25.7476 C   0  0  0  0  0  0
  -27.5573  -37.1820   24.8450 C   0  0  0  0  0  0
  -21.4086  -29.2993   22.3771 N   0  0  0  0  0  0
  -26.4277  -37.3797   23.9408 N   0  0  0  0  0  0
  -24.6600  -31.0797   22.1035 N   0  0  0  0  0  0
  -23.4139  -28.8170   23.3055 O   0  0  0  0  0  0
  -28.4617  -26.8173   20.0480 O   0  0  0  0  0  0
  -26.5593  -34.8909   22.4706 O   0  0  0  0  0  0
  -23.5292  -32.1401   23.7558 O   0  0  0  0  0  0
  -29.2180  -18.3795   17.5901 C   0  0  0  0  0  0
  -29.2163  -16.1040   18.3890 C   0  0  0  0  0  0
  -29.9179  -17.8908   19.8817 C   0  0  0  0  0  0
  -28.9763  -17.0179   17.3483 C   0  0  0  0  0  0
  -29.6828  -18.8297   18.8479 C   0  0  0  0  0  0
  -29.6988  -16.5141   19.6528 C   0  0  0  0  0  0
  -28.1581  -15.3512   15.6403 C   0  0  0  0  0  0
  -28.4795  -16.5988   16.0243 C   0  0  0  0  0  0
  -29.9600  -20.2589   19.0552 C   0  0  0  0  0  0
  -30.2509  -21.1260   18.0632 C   0  0  0  0  0  0
  -29.5271  -24.7646   19.3015 C   0  0  0  0  0  0
  -30.4584  -22.6187   18.2126 C   0  0  0  0  0  0
  -29.5994  -23.2355   19.3331 C   0  0  0  0  0  0
  -28.4755  -25.3993   20.2165 C   0  0  0  0  0  0
  -29.9021  -15.5421   20.6786 N   0  0  0  0  0  0
  -30.2693  -25.4384   18.5780 O   0  0  0  0  0  0
  -31.4745  -12.3208   19.1799 H   0  0  0  0  0  0
  -30.3055  -11.2661   19.9199 H   0  0  0  0  0  0
  -29.7201  -11.5546   17.5388 H   0  0  0  0  0  0
  -29.7670  -13.2691   17.6618 H   0  0  0  0  0  0
  -27.7784  -11.2937   18.8265 H   0  0  0  0  0  0
  -27.3906  -12.6207   17.7729 H   0  0  0  0  0  0
  -27.6608  -14.2329   19.5625 H   0  0  0  0  0  0
  -28.6599  -12.0001   21.3896 H   0  0  0  0  0  0
  -28.4693  -13.6713   21.8389 H   0  0  0  0  0  0
  -25.2737   -9.5658   22.4744 H   0  0  0  0  0  0
  -23.9980   -7.4606   22.7463 H   0  0  0  0  0  0
  -21.0790   -8.8718   19.8966 H   0  0  0  0  0  0
  -22.3638  -10.9633   19.6164 H   0  0  0  0  0  0
  -21.2006   -7.6128   23.9699 H   0  0  0  0  0  0
  -21.1496   -6.0514   25.9067 H   0  0  0  0  0  0
  -22.0605   -2.7597   23.2839 H   0  0  0  0  0  0
  -22.4059  -11.9966   22.4889 H   0  0  0  0  0  0
  -21.1078  -13.1329   22.2602 H   0  0  0  0  0  0
  -24.6780  -15.8482   20.5296 H   0  0  0  0  0  0
  -26.2874  -15.6134   20.0761 H   0  0  0  0  0  0
  -26.7071  -32.5553   23.1187 H   0  0  0  0  0  0
  -24.9947  -33.9777   25.0441 H   0  0  0  0  0  0
  -22.6849  -31.3039   21.4132 H   0  0  0  0  0  0
  -23.3715  -35.9724   23.3306 H   0  0  0  0  0  0
  -24.3583  -36.8971   22.2059 H   0  0  0  0  0  0
  -23.7265  -37.6573   23.6661 H   0  0  0  0  0  0
  -26.0220  -31.6098   20.5941 H   0  0  0  0  0  0
  -26.8126  -30.9014   21.9755 H   0  0  0  0  0  0
  -28.1000  -29.1515   21.1412 H   0  0  0  0  0  0
  -26.0803  -25.9960   18.9895 H   0  0  0  0  0  0
  -23.9873  -27.2787   19.0553 H   0  0  0  0  0  0
  -23.7061  -30.5889   19.4063 H   0  0  0  0  0  0
  -22.7327  -29.2293   19.8767 H   0  0  0  0  0  0
  -25.1256  -36.1986   25.0832 H   0  0  0  0  0  0
  -20.9891  -28.3150   24.1462 H   0  0  0  0  0  0
  -20.5592  -26.2200   23.3577 H   0  0  0  0  0  0
  -21.6617  -26.7381   22.1220 H   0  0  0  0  0  0
  -19.6897  -25.6270   21.1213 H   0  0  0  0  0  0
  -19.6686  -27.3179   20.6733 H   0  0  0  0  0  0
  -17.4161  -26.6589   21.4033 H   0  0  0  0  0  0
  -18.0339  -26.0014   22.9001 H   0  0  0  0  0  0
  -19.7896  -30.7228   24.2261 H   0  0  0  0  0  0
  -17.4982  -31.6249   24.5133 H   0  0  0  0  0  0
  -15.5317  -30.2968   23.7662 H   0  0  0  0  0  0
  -15.8619  -28.0820   22.7047 H   0  0  0  0  0  0
  -24.5878  -30.7085   25.7885 H   0  0  0  0  0  0
  -24.9049  -32.2836   26.5102 H   0  0  0  0  0  0
  -25.8172  -30.8750   27.0206 H   0  0  0  0  0  0
  -26.2792  -29.6796   24.1180 H   0  0  0  0  0  0
  -27.4074  -29.7257   25.4535 H   0  0  0  0  0  0
  -27.8628  -30.4350   23.9206 H   0  0  0  0  0  0
  -27.2647  -33.3579   26.2126 H   0  0  0  0  0  0
  -28.3811  -32.6930   25.0276 H   0  0  0  0  0  0
  -28.0770  -31.8403   26.5337 H   0  0  0  0  0  0
  -28.2579  -38.0127   24.7489 H   0  0  0  0  0  0
  -28.1069  -36.2649   24.6268 H   0  0  0  0  0  0
  -27.2293  -37.1476   25.8854 H   0  0  0  0  0  0
  -20.9239  -29.8767   21.7048 H   0  0  0  0  0  0
  -26.0168  -38.2873   24.1410 H   0  0  0  0  0  0
  -29.0164  -19.0858   16.7984 H   0  0  0  0  0  0
  -29.0220  -15.0691   18.2084 H   0  0  0  0  0  0
  -30.2809  -18.2287   20.8428 H   0  0  0  0  0  0
  -27.8096  -15.1693   14.6331 H   0  0  0  0  0  0
  -28.2269  -14.4924   16.2899 H   0  0  0  0  0  0
  -28.3711  -17.3872   15.2897 H   0  0  0  0  0  0
  -29.8905  -20.6130   20.0732 H   0  0  0  0  0  0
  -30.3536  -20.7665   17.0497 H   0  0  0  0  0  0
  -30.1984  -23.0745   17.2553 H   0  0  0  0  0  0
  -31.5194  -22.8171   18.3727 H   0  0  0  0  0  0
  -28.5787  -22.8611   19.2537 H   0  0  0  0  0  0
  -29.9743  -22.9305   20.3093 H   0  0  0  0  0  0
  -27.5154  -24.9247   20.0313 H   0  0  0  0  0  0
  -28.7445  -25.1731   21.2482 H   0  0  0  0  0  0
  -29.0702  -15.3249   21.2067 H   0  0  0  0  0  0
  1 25  1  0  0  0
  1 30  2  0  0  0
  1 85  1  0  0  0
  2  3  1  0  0  0
  2 25  1  0  0  0
  2 87  1  0  0  0
  2 88  1  0  0  0
  3  4  1  0  0  0
  3 89  1  0  0  0
  3 90  1  0  0  0
  4  5  1  0  0  0
  4 91  1  0  0  0
  4 92  1  0  0  0
  5  6  1  0  0  0
  5 26  1  0  0  0
  5 93  1  0  0  0
  6 25  1  0  0  0
  6 94  1  0  0  0
  6 95  1  0  0  0
  7  8  2  0  0  0
  7 26  1  0  0  0
  7 29  1  0  0  0
  8  9  1  0  0  0
  8 22  1  0  0  0
  9 10  1  0  0  0
  9 27  2  0  0  0
 10 11  2  0  0  0
 10 15  1  0  0  0
 11 12  1  0  0  0
 11 96  1  0  0  0
 12 13  2  0  0  0
 12 97  1  0  0  0
 13 14  1  0  0  0
 13 31  1  0  0  0
 14 15  2  0  0  0
 14 98  1  0  0  0
 15 99  1  0  0  0
 16 17  2  0  0  0
 16 21  1  0  0  0
 16 31  1  0  0  0
 17 18  1  0  0  0
 17100  1  0  0  0
 18 19  2  0  0  0
 18101  1  0  0  0
 19 20  1  0  0  0
 19 24  1  0  0  0
 20 21  2  0  0  0
 20102  1  0  0  0
 21 23  1  0  0  0
 22 28  1  0  0  0
 22 32  2  0  0  0
 26 27  1  0  0  0
 28103  1  0  0  0
 28104  1  0  0  0
 29105  1  0  0  0
 29106  1  0  0  0
 33 34  1  0  0  0
 33 66  1  0  0  0
 33 70  2  0  0  0
 34 36  1  0  0  0
 34 59  1  0  0  0
 34107  1  0  0  0
 35 44  2  0  0  0
 35 45  1  0  0  0
 35 68  1  0  0  0
 36 56  1  0  0  0
 36108  1  0  0  0
 37 39  1  0  0  0
 37 47  1  0  0  0
 37 66  1  0  0  0
 37109  1  0  0  0
 38 43  2  0  0  0
 38 46  1  0  0  0
 38 47  1  0  0  0
 39 64  1  0  0  0
 39 67  2  0  0  0
 40 52  1  0  0  0
 40 53  2  0  0  0
 40 58  1  0  0  0
 41110  1  0  0  0
 41111  1  0  0  0
 41112  1  0  0  0
 41 48  1  0  0  0
 42 43  1  0  0  0
 42 66  1  0  0  0
 42113  1  0  0  0
 42114  1  0  0  0
 43 44  1  0  0  0
 44115  1  0  0  0
 45 46  2  0  0  0
 45116  1  0  0  0
 46117  1  0  0  0
 47118  1  0  0  0
 47119  1  0  0  0
 48 56  1  0  0  0
 48 65  1  0  0  0
 48120  1  0  0  0
 49 50  1  0  0  0
 49 53  1  0  0  0
 49 64  1  0  0  0
 49121  1  0  0  0
 50 51  1  0  0  0
 50122  1  0  0  0
 50123  1  0  0  0
 51 52  1  0  0  0
 51124  1  0  0  0
 51125  1  0  0  0
 52126  1  0  0  0
 52127  1  0  0  0
 53 54  1  0  0  0
 54 55  2  0  0  0
 54128  1  0  0  0
 55 57  1  0  0  0
 55129  1  0  0  0
 56 69  2  0  0  0
 57 58  2  0  0  0
 57130  1  0  0  0
 58131  1  0  0  0
 59 60  1  0  0  0
 59 61  1  0  0  0
 59 62  1  0  0  0
 60132  1  0  0  0
 60133  1  0  0  0
 60134  1  0  0  0
 61135  1  0  0  0
 61136  1  0  0  0
 61137  1  0  0  0
 62138  1  0  0  0
 62139  1  0  0  0
 62140  1  0  0  0
 63 65  1  0  0  0
 63141  1  0  0  0
 63142  1  0  0  0
 63143  1  0  0  0
 64144  1  0  0  0
 65145  1  0  0  0
 68 84  1  0  0  0
 71 74  2  0  0  0
 71 75  1  0  0  0
 71146  1  0  0  0
 72 74  1  0  0  0
 72 76  2  0  0  0
 72147  1  0  0  0
 73 75  2  0  0  0
 73 76  1  0  0  0
 73148  1  0  0  0
 74 78  1  0  0  0
 75 79  1  0  0  0
 76 85  1  0  0  0
 77 78  2  0  0  0
 77149  1  0  0  0
 77150  1  0  0  0
 78151  1  0  0  0
 79 80  2  0  0  0
 79152  1  0  0  0
 80 82  1  0  0  0
 80153  1  0  0  0
 81 83  1  0  0  0
 81 84  1  0  0  0
 81 86  2  0  0  0
 82 83  1  0  0  0
 82154  1  0  0  0
 82155  1  0  0  0
 83156  1  0  0  0
 83157  1  0  0  0
 84158  1  0  0  0
 84159  1  0  0  0
 85160  1  0  0  0
M  ISO  4   1 100  68 101  84 101  85 100
M  END
> <chiral flag>
0

> <version>
0

> <s_m_source_file>
/data/baiqing/PycharmProjects/Reinvent-master-3.2/result/LINK_invent/BTK/process_docking_weight1_custom_product_contain_oxygen_bond_distance_aromatic_linkinvent_7_9_3/rearranged_h_0119.sdf

> <i_m_source_file_index>
11

> <r_mmod_Potential_Energy-OPLS-2005>
37.7279472351074

> <r_mmod_Stretch_Energy-OPLS-2005>
33.4968452453613

> <r_mmod_Bend_Energy-OPLS-2005>
95.7411956787109

> <r_mmod_Torsional_Energy-OPLS-2005>
276.049987792969

> <r_mmod_Improper_Torsional_Energy-OPLS-2005>
10.1376438140869

> <r_mmod_Van_der_Waal_Energy-OPLS-2005>
159.680786132812

> <r_mmod_Electrostatic_Energy-OPLS-2005>
-324.036804199219

> <r_mmod_Solvation_Energy-OPLS-2005>
-231.703277587891

> <b_mmod_Minimization_Converged-OPLS-2005>
0

> <r_mmod_RMS_Derivative-OPLS-2005>
2.67960476875305

$$$$
11
                    3D
 Structure written by MMmdl.
160168  0  0  1  0            999 V2000
  -30.6210  -14.6983   20.4641 C   0  0  0  0  0  0
  -30.4417  -12.4097   19.4671 C   0  0  0  0  0  0
  -29.5126  -12.4593   18.2323 C   0  0  0  0  0  0
  -28.0328  -12.3225   18.6437 C   0  0  0  0  0  0
  -27.6504  -13.2218   19.8491 C   0  0  2  0  0  0
  -28.6990  -13.1289   20.9794 C   0  0  0  0  0  0
  -25.2561  -13.8180   20.5686 C   0  0  0  0  0  0
  -24.1841  -13.0444   20.9205 C   0  0  0  0  0  0
  -24.6422  -11.6914   20.8757 C   0  0  0  0  0  0
  -23.9087  -10.4293   21.0411 C   0  0  0  0  0  0
  -24.3631   -9.4207   21.9186 C   0  0  0  0  0  0
  -23.6302   -8.2244   22.0749 C   0  0  0  0  0  0
  -22.4281   -8.0285   21.3543 C   0  0  0  0  0  0
  -21.9926   -9.0264   20.4643 C   0  0  0  0  0  0
  -22.7258  -10.2140   20.3057 C   0  0  0  0  0  0
  -21.6854   -6.0746   22.5280 C   0  0  0  0  0  0
  -21.4014   -6.5645   23.8214 C   0  0  0  0  0  0
  -21.3659   -5.6795   24.9175 C   0  0  0  0  0  0
  -21.6047   -4.3059   24.7223 C   0  0  0  0  0  0
  -21.8816   -3.8153   23.4340 C   0  0  0  0  0  0
  -21.9193   -4.6973   22.3403 C   0  0  0  0  0  0
  -22.7856  -13.5226   21.1866 C   0  0  0  0  0  0
  -22.1660   -4.2161   21.0980 F   0  0  0  0  0  0
  -21.5628   -3.4541   25.7734 F   0  0  0  0  0  0
  -30.0087  -13.4667   20.4071 N   0  0  0  0  0  0
  -26.3000  -12.9382   20.3295 N   0  0  0  0  0  0
  -25.9354  -11.6535   20.5772 N   0  0  0  0  0  0
  -22.0516  -12.8210   22.0418 N   0  0  0  0  0  0
  -25.4272  -15.1906   20.4088 N   0  0  0  0  0  0
  -31.8005  -14.8024   20.1145 O   0  0  0  0  0  0
  -21.6638   -6.8887   21.4237 O   0  0  0  0  0  0
  -22.3536  -14.5541   20.6723 O   0  0  0  0  0  0
  -24.6272  -31.8584   23.2003 C   0  0  0  0  0  0
  -25.9122  -32.4758   23.8322 C   0  0  1  0  0  0
  -27.2252  -27.2958   20.1220 C   0  0  0  0  0  0
  -25.5947  -33.8554   24.2258 N   0  0  0  0  0  0
  -23.4213  -30.4822   21.5439 C   0  0  2  0  0  0
  -24.8683  -28.9371   20.1081 C   0  0  0  0  0  0
  -22.7484  -29.4613   22.4930 C   0  0  0  0  0  0
  -18.0294  -28.1386   22.8463 C   0  0  0  0  0  0
  -24.1493  -36.7276   23.2637 C   0  0  0  0  0  0
  -25.9646  -30.7835   21.3743 C   0  0  0  0  0  0
  -26.0395  -29.4085   20.7155 C   0  0  0  0  0  0
  -27.2195  -28.6016   20.7122 C   0  0  0  0  0  0
  -26.0300  -26.8888   19.4820 C   0  0  0  0  0  0
  -24.8677  -27.6824   19.4820 C   0  0  0  0  0  0
  -23.6358  -29.8183   20.1586 C   0  0  0  0  0  0
  -25.4115  -36.3057   24.0328 C   0  0  1  0  0  0
  -20.5891  -28.3677   23.1280 C   0  0  2  0  0  0
  -20.6790  -26.9404   22.5404 C   0  0  0  0  0  0
  -19.5772  -26.6384   21.5203 C   0  0  0  0  0  0
  -18.1946  -26.7926   22.1612 C   0  0  0  0  0  0
  -19.1546  -28.8849   23.2866 C   0  0  0  0  0  0
  -18.9471  -30.1455   23.8879 C   0  0  0  0  0  0
  -17.6480  -30.6591   24.0550 C   0  0  0  0  0  0
  -25.9061  -34.9434   23.5087 C   0  0  0  0  0  0
  -16.5361  -29.9083   23.6336 C   0  0  0  0  0  0
  -16.7279  -28.6506   23.0340 C   0  0  0  0  0  0
  -26.4498  -31.6570   25.0696 C   0  0  0  0  0  0
  -25.3739  -31.3719   26.1432 C   0  0  0  0  0  0
  -27.0337  -30.2992   24.6152 C   0  0  0  0  0  0
  -27.6053  -32.4298   25.7479 C   0  0  0  0  0  0
  -27.5578  -37.1787   24.8462 C   0  0  0  0  0  0
  -21.4197  -29.3029   22.3670 N   0  0  0  0  0  0
  -26.4284  -37.3763   23.9419 N   0  0  0  0  0  0
  -24.6898  -31.0574   22.0967 N   0  0  0  0  0  0
  -23.4199  -28.8157   23.3019 O   0  0  0  0  0  0
  -28.3309  -26.4202   20.1892 O   0  0  0  0  0  0
  -26.5623  -34.8909   22.4650 O   0  0  0  0  0  0
  -23.5436  -32.1380   23.7341 O   0  0  0  0  0  0
  -30.4476  -18.7305   18.0120 C   0  0  0  0  0  0
  -29.7786  -18.6984   20.6930 C   0  0  0  0  0  0
  -30.2129  -17.4813   18.6362 C   0  0  0  0  0  0
  -29.9806  -17.4191   20.0398 C   0  0  0  0  0  0
  -30.3108  -19.9699   18.6869 C   0  0  0  0  0  0
  -29.8660  -19.9838   20.0309 C   0  0  0  0  0  0
  -30.9279  -16.0733   16.6740 C   0  0  0  0  0  0
  -30.2099  -16.2759   17.7917 C   0  0  0  0  0  0
  -31.3873  -21.1630   16.8927 C   0  0  0  0  0  0
  -29.8151  -16.0386   20.8325 C   0  0  0  0  0  0
  -29.1605  -23.8410   20.4339 C   0  0  0  0  0  0
  -28.0965  -24.9581   19.9904 C   0  0  0  0  0  0
  -28.8078  -22.2981   20.1316 C   0  0  0  0  0  0
  -30.6146  -21.1767   18.0895 O   0  0  0  0  0  0
  -29.6490  -21.2148   20.7042 O   0  0  0  0  0  0
  -31.4828  -12.5246   19.1606 H   0  0  0  0  0  0
  -30.3804  -11.4323   19.9509 H   0  0  0  0  0  0
  -29.7749  -11.6593   17.5388 H   0  0  0  0  0  0
  -29.6646  -13.3855   17.6824 H   0  0  0  0  0  0
  -27.8653  -11.2754   18.9020 H   0  0  0  0  0  0
  -27.3815  -12.5315   17.7942 H   0  0  0  0  0  0
  -27.6526  -14.2444   19.4730 H   0  0  0  0  0  0
  -28.7223  -12.1234   21.4035 H   0  0  0  0  0  0
  -28.4459  -13.7944   21.8058 H   0  0  0  0  0  0
  -25.2779   -9.5675   22.4756 H   0  0  0  0  0  0
  -24.0014   -7.4629   22.7459 H   0  0  0  0  0  0
  -21.0863   -8.8793   19.8941 H   0  0  0  0  0  0
  -22.3730  -10.9686   19.6164 H   0  0  0  0  0  0
  -21.2007   -7.6152   23.9723 H   0  0  0  0  0  0
  -21.1482   -6.0524   25.9081 H   0  0  0  0  0  0
  -22.0597   -2.7616   23.2841 H   0  0  0  0  0  0
  -22.4136  -11.9863   22.4792 H   0  0  0  0  0  0
  -21.1135  -13.1216   22.2635 H   0  0  0  0  0  0
  -24.6598  -15.8447   20.5157 H   0  0  0  0  0  0
  -26.2780  -15.6313   20.0829 H   0  0  0  0  0  0
  -26.7183  -32.5421   23.1064 H   0  0  0  0  0  0
  -25.0080  -33.9687   25.0392 H   0  0  0  0  0  0
  -22.7158  -31.3033   21.4010 H   0  0  0  0  0  0
  -23.3757  -35.9608   23.3281 H   0  0  0  0  0  0
  -24.3591  -36.8916   22.2056 H   0  0  0  0  0  0
  -23.7247  -37.6474   23.6673 H   0  0  0  0  0  0
  -26.0971  -31.5499   20.6079 H   0  0  0  0  0  0
  -26.8443  -30.8314   22.0037 H   0  0  0  0  0  0
  -28.1138  -28.9589   21.2028 H   0  0  0  0  0  0
  -25.9600  -25.9348   18.9822 H   0  0  0  0  0  0
  -23.9722  -27.3133   19.0000 H   0  0  0  0  0  0
  -23.7539  -30.5961   19.4038 H   0  0  0  0  0  0
  -22.7554  -29.2501   19.8531 H   0  0  0  0  0  0
  -25.1295  -36.1891   25.0822 H   0  0  0  0  0  0
  -20.9977  -28.3257   24.1405 H   0  0  0  0  0  0
  -20.5708  -26.2278   23.3601 H   0  0  0  0  0  0
  -21.6655  -26.7446   22.1192 H   0  0  0  0  0  0
  -19.6939  -25.6297   21.1236 H   0  0  0  0  0  0
  -19.6725  -27.3188   20.6733 H   0  0  0  0  0  0
  -17.4214  -26.6652   21.4020 H   0  0  0  0  0  0
  -18.0354  -26.0076   22.9019 H   0  0  0  0  0  0
  -19.7955  -30.7271   24.2235 H   0  0  0  0  0  0
  -17.5037  -31.6273   24.5154 H   0  0  0  0  0  0
  -15.5359  -30.2982   23.7695 H   0  0  0  0  0  0
  -15.8676  -28.0844   22.7045 H   0  0  0  0  0  0
  -24.5932  -30.7031   25.7782 H   0  0  0  0  0  0
  -24.8907  -32.2894   26.4811 H   0  0  0  0  0  0
  -25.8083  -30.8948   27.0228 H   0  0  0  0  0  0
  -26.2899  -29.6743   24.1199 H   0  0  0  0  0  0
  -27.4058  -29.7243   25.4639 H   0  0  0  0  0  0
  -27.8761  -30.4261   23.9347 H   0  0  0  0  0  0
  -27.2672  -33.3633   26.1988 H   0  0  0  0  0  0
  -28.3923  -32.6796   25.0349 H   0  0  0  0  0  0
  -28.0648  -31.8453   26.5463 H   0  0  0  0  0  0
  -28.2566  -38.0107   24.7536 H   0  0  0  0  0  0
  -28.1103  -36.2645   24.6254 H   0  0  0  0  0  0
  -27.2303  -37.1389   25.8862 H   0  0  0  0  0  0
  -20.9373  -29.8726   21.6869 H   0  0  0  0  0  0
  -26.0155  -38.2828   24.1443 H   0  0  0  0  0  0
  -30.6944  -18.7291   16.9621 H   0  0  0  0  0  0
  -29.5218  -18.6945   21.7422 H   0  0  0  0  0  0
  -30.8240  -15.1521   16.1162 H   0  0  0  0  0  0
  -31.6282  -16.8018   16.2919 H   0  0  0  0  0  0
  -29.5233  -15.5025   18.0945 H   0  0  0  0  0  0
  -31.7445  -22.1703   16.6802 H   0  0  0  0  0  0
  -30.7916  -20.8391   16.0383 H   0  0  0  0  0  0
  -32.2636  -20.5187   16.9839 H   0  0  0  0  0  0
  -28.7495  -15.8256   20.8095 H   0  0  0  0  0  0
  -30.0440  -16.2383   21.8786 H   0  0  0  0  0  0
  -29.3318  -23.9441   21.5058 H   0  0  0  0  0  0
  -30.1174  -24.0653   19.9631 H   0  0  0  0  0  0
  -27.9015  -24.8067   18.9276 H   0  0  0  0  0  0
  -27.1694  -24.7001   20.5052 H   0  0  0  0  0  0
  -28.6764  -22.1762   19.0583 H   0  0  0  0  0  0
  -27.8123  -22.1149   20.5373 H   0  0  0  0  0  0
  1 25  1  0  0  0
  1 30  2  0  0  0
  1 80  1  0  0  0
  2  3  1  0  0  0
  2 25  1  0  0  0
  2 86  1  0  0  0
  2 87  1  0  0  0
  3  4  1  0  0  0
  3 88  1  0  0  0
  3 89  1  0  0  0
  4  5  1  0  0  0
  4 90  1  0  0  0
  4 91  1  0  0  0
  5  6  1  0  0  0
  5 26  1  0  0  0
  5 92  1  0  0  0
  6 25  1  0  0  0
  6 93  1  0  0  0
  6 94  1  0  0  0
  7  8  2  0  0  0
  7 26  1  0  0  0
  7 29  1  0  0  0
  8  9  1  0  0  0
  8 22  1  0  0  0
  9 10  1  0  0  0
  9 27  2  0  0  0
 10 11  2  0  0  0
 10 15  1  0  0  0
 11 12  1  0  0  0
 11 95  1  0  0  0
 12 13  2  0  0  0
 12 96  1  0  0  0
 13 14  1  0  0  0
 13 31  1  0  0  0
 14 15  2  0  0  0
 14 97  1  0  0  0
 15 98  1  0  0  0
 16 17  2  0  0  0
 16 21  1  0  0  0
 16 31  1  0  0  0
 17 18  1  0  0  0
 17 99  1  0  0  0
 18 19  2  0  0  0
 18100  1  0  0  0
 19 20  1  0  0  0
 19 24  1  0  0  0
 20 21  2  0  0  0
 20101  1  0  0  0
 21 23  1  0  0  0
 22 28  1  0  0  0
 22 32  2  0  0  0
 26 27  1  0  0  0
 28102  1  0  0  0
 28103  1  0  0  0
 29104  1  0  0  0
 29105  1  0  0  0
 33 34  1  0  0  0
 33 66  1  0  0  0
 33 70  2  0  0  0
 34 36  1  0  0  0
 34 59  1  0  0  0
 34106  1  0  0  0
 35 44  2  0  0  0
 35 45  1  0  0  0
 35 68  1  0  0  0
 36 56  1  0  0  0
 36107  1  0  0  0
 37 39  1  0  0  0
 37 47  1  0  0  0
 37 66  1  0  0  0
 37108  1  0  0  0
 38 43  2  0  0  0
 38 46  1  0  0  0
 38 47  1  0  0  0
 39 64  1  0  0  0
 39 67  2  0  0  0
 40 52  1  0  0  0
 40 53  2  0  0  0
 40 58  1  0  0  0
 41109  1  0  0  0
 41110  1  0  0  0
 41111  1  0  0  0
 41 48  1  0  0  0
 42 43  1  0  0  0
 42 66  1  0  0  0
 42112  1  0  0  0
 42113  1  0  0  0
 43 44  1  0  0  0
 44114  1  0  0  0
 45 46  2  0  0  0
 45115  1  0  0  0
 46116  1  0  0  0
 47117  1  0  0  0
 47118  1  0  0  0
 48 56  1  0  0  0
 48 65  1  0  0  0
 48119  1  0  0  0
 49 50  1  0  0  0
 49 53  1  0  0  0
 49 64  1  0  0  0
 49120  1  0  0  0
 50 51  1  0  0  0
 50121  1  0  0  0
 50122  1  0  0  0
 51 52  1  0  0  0
 51123  1  0  0  0
 51124  1  0  0  0
 52125  1  0  0  0
 52126  1  0  0  0
 53 54  1  0  0  0
 54 55  2  0  0  0
 54127  1  0  0  0
 55 57  1  0  0  0
 55128  1  0  0  0
 56 69  2  0  0  0
 57 58  2  0  0  0
 57129  1  0  0  0
 58130  1  0  0  0
 59 60  1  0  0  0
 59 61  1  0  0  0
 59 62  1  0  0  0
 60131  1  0  0  0
 60132  1  0  0  0
 60133  1  0  0  0
 61134  1  0  0  0
 61135  1  0  0  0
 61136  1  0  0  0
 62137  1  0  0  0
 62138  1  0  0  0
 62139  1  0  0  0
 63 65  1  0  0  0
 63140  1  0  0  0
 63141  1  0  0  0
 63142  1  0  0  0
 64143  1  0  0  0
 65144  1  0  0  0
 68 82  1  0  0  0
 71 73  2  0  0  0
 71 75  1  0  0  0
 71145  1  0  0  0
 72 74  2  0  0  0
 72 76  1  0  0  0
 72146  1  0  0  0
 73 74  1  0  0  0
 73 78  1  0  0  0
 74 80  1  0  0  0
 75 76  2  0  0  0
 75 84  1  0  0  0
 76 85  1  0  0  0
 77 78  2  0  0  0
 77147  1  0  0  0
 77148  1  0  0  0
 78149  1  0  0  0
 79 84  1  0  0  0
 79150  1  0  0  0
 79151  1  0  0  0
 79152  1  0  0  0
 80153  1  0  0  0
 80154  1  0  0  0
 81 82  1  0  0  0
 81 83  1  0  0  0
 81155  1  0  0  0
 81156  1  0  0  0
 82157  1  0  0  0
 82158  1  0  0  0
 83 85  1  0  0  0
 83159  1  0  0  0
 83160  1  0  0  0
M  ISO  4   1 100  68 101  80 100  82 101
M  END
> <chiral flag>
0

> <version>
0

> <s_m_source_file>
/data/baiqing/PycharmProjects/Reinvent-master-3.2/result/LINK_invent/BTK/process_docking_weight1_custom_product_contain_oxygen_bond_distance_aromatic_linkinvent_7_9_3/rearranged_h_0119.sdf

> <i_m_source_file_index>
12

> <r_mmod_Potential_Energy-OPLS-2005>
190.249588012695

> <r_mmod_Stretch_Energy-OPLS-2005>
111.94490814209

> <r_mmod_Bend_Energy-OPLS-2005>
164.838287353516

> <r_mmod_Torsional_Energy-OPLS-2005>
214.386917114258

> <r_mmod_Improper_Torsional_Energy-OPLS-2005>
3.92328810691833

> <r_mmod_Van_der_Waal_Energy-OPLS-2005>
153.966018676758

> <r_mmod_Electrostatic_Energy-OPLS-2005>
-313.707641601562

> <r_mmod_Solvation_Energy-OPLS-2005>
-210.98779296875

> <b_mmod_Minimization_Converged-OPLS-2005>
0

> <r_mmod_RMS_Derivative-OPLS-2005>
2.03670358657837

$$$$
12
                    3D
 Structure written by MMmdl.
153161  0  0  1  0            999 V2000
  -30.5822  -14.7691   20.5289 C   0  0  0  0  0  0
  -30.4516  -12.4841   19.4805 C   0  0  0  0  0  0
  -29.5195  -12.5421   18.2470 C   0  0  0  0  0  0
  -28.0449  -12.3553   18.6525 C   0  0  0  0  0  0
  -27.6541  -13.2297   19.8721 C   0  0  2  0  0  0
  -28.6985  -13.1186   21.0072 C   0  0  0  0  0  0
  -25.2459  -13.8073   20.5490 C   0  0  0  0  0  0
  -24.1802  -13.0361   20.9176 C   0  0  0  0  0  0
  -24.6430  -11.6863   20.8783 C   0  0  0  0  0  0
  -23.9099  -10.4255   21.0432 C   0  0  0  0  0  0
  -24.3640   -9.4168   21.9205 C   0  0  0  0  0  0
  -23.6300   -8.2218   22.0764 C   0  0  0  0  0  0
  -22.4284   -8.0275   21.3550 C   0  0  0  0  0  0
  -21.9933   -9.0252   20.4655 C   0  0  0  0  0  0
  -22.7274  -10.2120   20.3069 C   0  0  0  0  0  0
  -21.6844   -6.0744   22.5281 C   0  0  0  0  0  0
  -21.4005   -6.5642   23.8215 C   0  0  0  0  0  0
  -21.3656   -5.6792   24.9174 C   0  0  0  0  0  0
  -21.6046   -4.3056   24.7218 C   0  0  0  0  0  0
  -21.8822   -3.8152   23.4336 C   0  0  0  0  0  0
  -21.9191   -4.6976   22.3398 C   0  0  0  0  0  0
  -22.7832  -13.5179   21.1818 C   0  0  0  0  0  0
  -22.1664   -4.2169   21.0974 F   0  0  0  0  0  0
  -21.5630   -3.4534   25.7727 F   0  0  0  0  0  0
  -30.0075  -13.5115   20.4570 N   0  0  0  0  0  0
  -26.3001  -12.9353   20.3352 N   0  0  0  0  0  0
  -25.9389  -11.6500   20.5861 N   0  0  0  0  0  0
  -22.0482  -12.8207   22.0406 N   0  0  0  0  0  0
  -25.3895  -15.1718   20.3462 N   0  0  0  0  0  0
  -31.6854  -14.9704   20.0101 O   0  0  0  0  0  0
  -21.6627   -6.8886   21.4246 O   0  0  0  0  0  0
  -22.3532  -14.5488   20.6657 O   0  0  0  0  0  0
  -24.6336  -31.8536   23.1971 C   0  0  0  0  0  0
  -25.9146  -32.4749   23.8339 C   0  0  1  0  0  0
  -27.2267  -27.2401   20.1397 C   0  0  0  0  0  0
  -25.5935  -33.8550   24.2260 N   0  0  0  0  0  0
  -23.4329  -30.4771   21.5395 C   0  0  2  0  0  0
  -24.8830  -28.9206   20.1097 C   0  0  0  0  0  0
  -22.7527  -29.4598   22.4884 C   0  0  0  0  0  0
  -18.0303  -28.1402   22.8490 C   0  0  0  0  0  0
  -24.1488  -36.7282   23.2642 C   0  0  0  0  0  0
  -25.9810  -30.7624   21.3789 C   0  0  0  0  0  0
  -26.0549  -29.3817   20.7226 C   0  0  0  0  0  0
  -27.2283  -28.5560   20.7236 C   0  0  0  0  0  0
  -26.0290  -26.8533   19.4951 C   0  0  0  0  0  0
  -24.8771  -27.6658   19.4828 C   0  0  0  0  0  0
  -23.6554  -29.8127   20.1552 C   0  0  0  0  0  0
  -25.4111  -36.3062   24.0330 C   0  0  1  0  0  0
  -20.5914  -28.3715   23.1257 C   0  0  2  0  0  0
  -20.6794  -26.9426   22.5408 C   0  0  0  0  0  0
  -19.5757  -26.6384   21.5230 C   0  0  0  0  0  0
  -18.1940  -26.7942   22.1639 C   0  0  0  0  0  0
  -19.1559  -28.8874   23.2876 C   0  0  0  0  0  0
  -18.9472  -30.1479   23.8888 C   0  0  0  0  0  0
  -17.6466  -30.6592   24.0573 C   0  0  0  0  0  0
  -25.9053  -34.9435   23.5095 C   0  0  0  0  0  0
  -16.5359  -29.9089   23.6332 C   0  0  0  0  0  0
  -16.7291  -28.6517   23.0338 C   0  0  0  0  0  0
  -26.4506  -31.6570   25.0729 C   0  0  0  0  0  0
  -25.3729  -31.3718   26.1449 C   0  0  0  0  0  0
  -27.0339  -30.2981   24.6213 C   0  0  0  0  0  0
  -27.6060  -32.4310   25.7499 C   0  0  0  0  0  0
  -27.5577  -37.1796   24.8468 C   0  0  0  0  0  0
  -21.4230  -29.3057   22.3632 N   0  0  0  0  0  0
  -26.4282  -37.3763   23.9419 N   0  0  0  0  0  0
  -24.7019  -31.0497   22.0951 N   0  0  0  0  0  0
  -23.4214  -28.8130   23.2987 O   0  0  0  0  0  0
  -28.3200  -26.3325   20.2056 O   0  0  0  0  0  0
  -26.5626  -34.8910   22.4665 O   0  0  0  0  0  0
  -23.5476  -32.1361   23.7247 O   0  0  0  0  0  0
  -27.6518  -19.4639   21.0029 C   0  0  0  0  0  0
  -27.9131  -17.0511   21.2858 C   0  0  0  0  0  0
  -29.8368  -18.4186   20.7040 C   0  0  0  0  0  0
  -27.1089  -18.2039   21.2988 C   0  0  0  0  0  0
  -29.0253  -19.6537   20.7129 C   0  0  0  0  0  0
  -29.2883  -17.0830   20.9802 C   0  0  0  0  0  0
  -28.7725  -22.1275   20.3947 C   0  0  0  0  0  0
  -25.6465  -18.1072   21.6918 C   0  0  0  0  0  0
  -29.1830  -23.6903   20.4211 C   0  0  0  0  0  0
  -28.0645  -24.8396   20.1143 C   0  0  0  0  0  0
  -29.5188  -21.0343   20.5596 N   0  0  0  0  0  0
  -29.9136  -15.7491   21.2459 N   0  0  0  0  0  0
  -31.4865  -12.6398   19.1708 H   0  0  0  0  0  0
  -30.4288  -11.4931   19.9372 H   0  0  0  0  0  0
  -29.8065  -11.7830   17.5185 H   0  0  0  0  0  0
  -29.6392  -13.5051   17.7475 H   0  0  0  0  0  0
  -27.8943  -11.3007   18.8876 H   0  0  0  0  0  0
  -27.3899  -12.5736   17.8083 H   0  0  0  0  0  0
  -27.6613  -14.2634   19.5254 H   0  0  0  0  0  0
  -28.7429  -12.0973   21.3879 H   0  0  0  0  0  0
  -28.4109  -13.7375   21.8575 H   0  0  0  0  0  0
  -25.2780   -9.5637   22.4792 H   0  0  0  0  0  0
  -23.9997   -7.4604   22.7481 H   0  0  0  0  0  0
  -21.0866   -8.8779   19.8959 H   0  0  0  0  0  0
  -22.3738  -10.9672   19.6187 H   0  0  0  0  0  0
  -21.1991   -7.6150   23.9727 H   0  0  0  0  0  0
  -21.1476   -6.0515   25.9078 H   0  0  0  0  0  0
  -22.0604   -2.7620   23.2820 H   0  0  0  0  0  0
  -22.4087  -11.9866   22.4799 H   0  0  0  0  0  0
  -21.1120  -13.1269   22.2631 H   0  0  0  0  0  0
  -24.5881  -15.7897   20.3915 H   0  0  0  0  0  0
  -26.2059  -15.6087   19.9389 H   0  0  0  0  0  0
  -26.7216  -32.5401   23.1086 H   0  0  0  0  0  0
  -25.0103  -33.9689   25.0420 H   0  0  0  0  0  0
  -22.7307  -31.3007   21.3927 H   0  0  0  0  0  0
  -23.3749  -35.9615   23.3280 H   0  0  0  0  0  0
  -24.3600  -36.8917   22.2064 H   0  0  0  0  0  0
  -23.7229  -37.6473   23.6677 H   0  0  0  0  0  0
  -26.1202  -31.5187   20.6049 H   0  0  0  0  0  0
  -26.8589  -30.8168   22.0112 H   0  0  0  0  0  0
  -28.1227  -28.9044   21.2209 H   0  0  0  0  0  0
  -25.9489  -25.8959   19.0038 H   0  0  0  0  0  0
  -23.9823  -27.3076   18.9925 H   0  0  0  0  0  0
  -23.7875  -30.5928   19.4044 H   0  0  0  0  0  0
  -22.7730  -29.2522   19.8423 H   0  0  0  0  0  0
  -25.1283  -36.1911   25.0820 H   0  0  0  0  0  0
  -21.0035  -28.3307   24.1369 H   0  0  0  0  0  0
  -20.5722  -26.2331   23.3625 H   0  0  0  0  0  0
  -21.6652  -26.7454   22.1178 H   0  0  0  0  0  0
  -19.6915  -25.6294   21.1258 H   0  0  0  0  0  0
  -19.6681  -27.3199   20.6763 H   0  0  0  0  0  0
  -17.4213  -26.6705   21.4037 H   0  0  0  0  0  0
  -18.0322  -26.0092   22.9040 H   0  0  0  0  0  0
  -19.7944  -30.7317   24.2236 H   0  0  0  0  0  0
  -17.5009  -31.6265   24.5183 H   0  0  0  0  0  0
  -15.5357  -30.2982   23.7654 H   0  0  0  0  0  0
  -15.8701  -28.0841   22.7023 H   0  0  0  0  0  0
  -24.5919  -30.7051   25.7775 H   0  0  0  0  0  0
  -24.8916  -32.2887   26.4863 H   0  0  0  0  0  0
  -25.8049  -30.8907   27.0234 H   0  0  0  0  0  0
  -26.2913  -29.6739   24.1231 H   0  0  0  0  0  0
  -27.4005  -29.7230   25.4725 H   0  0  0  0  0  0
  -27.8801  -30.4241   23.9456 H   0  0  0  0  0  0
  -27.2675  -33.3632   26.2034 H   0  0  0  0  0  0
  -28.3889  -32.6829   25.0334 H   0  0  0  0  0  0
  -28.0708  -31.8467   26.5449 H   0  0  0  0  0  0
  -28.2567  -38.0118   24.7519 H   0  0  0  0  0  0
  -28.1089  -36.2643   24.6262 H   0  0  0  0  0  0
  -27.2313  -37.1407   25.8876 H   0  0  0  0  0  0
  -20.9418  -29.8791   21.6840 H   0  0  0  0  0  0
  -26.0151  -38.2829   24.1430 H   0  0  0  0  0  0
  -26.9685  -20.2965   21.0701 H   0  0  0  0  0  0
  -27.4586  -16.1153   21.5766 H   0  0  0  0  0  0
  -30.9014  -18.5081   20.5418 H   0  0  0  0  0  0
  -27.6993  -22.0377   20.2125 H   0  0  0  0  0  0
  -25.3358  -18.9827   22.2629 H   0  0  0  0  0  0
  -25.4621  -17.2306   22.3142 H   0  0  0  0  0  0
  -25.0167  -18.0400   20.8045 H   0  0  0  0  0  0
  -30.0126  -23.8239   19.7278 H   0  0  0  0  0  0
  -29.5973  -23.8896   21.4092 H   0  0  0  0  0  0
  -27.2195  -24.6304   20.7722 H   0  0  0  0  0  0
  -27.7100  -24.6370   19.1041 H   0  0  0  0  0  0
  -29.3107  -15.2353   21.8706 H   0  0  0  0  0  0
  1 25  1  0  0  0
  1 30  2  0  0  0
  1 82  1  0  0  0
  2  3  1  0  0  0
  2 25  1  0  0  0
  2 83  1  0  0  0
  2 84  1  0  0  0
  3  4  1  0  0  0
  3 85  1  0  0  0
  3 86  1  0  0  0
  4  5  1  0  0  0
  4 87  1  0  0  0
  4 88  1  0  0  0
  5  6  1  0  0  0
  5 26  1  0  0  0
  5 89  1  0  0  0
  6 25  1  0  0  0
  6 90  1  0  0  0
  6 91  1  0  0  0
  7  8  2  0  0  0
  7 26  1  0  0  0
  7 29  1  0  0  0
  8  9  1  0  0  0
  8 22  1  0  0  0
  9 10  1  0  0  0
  9 27  2  0  0  0
 10 11  2  0  0  0
 10 15  1  0  0  0
 11 12  1  0  0  0
 11 92  1  0  0  0
 12 13  2  0  0  0
 12 93  1  0  0  0
 13 14  1  0  0  0
 13 31  1  0  0  0
 14 15  2  0  0  0
 14 94  1  0  0  0
 15 95  1  0  0  0
 16 17  2  0  0  0
 16 21  1  0  0  0
 16 31  1  0  0  0
 17 18  1  0  0  0
 17 96  1  0  0  0
 18 19  2  0  0  0
 18 97  1  0  0  0
 19 20  1  0  0  0
 19 24  1  0  0  0
 20 21  2  0  0  0
 20 98  1  0  0  0
 21 23  1  0  0  0
 22 28  1  0  0  0
 22 32  2  0  0  0
 26 27  1  0  0  0
 28 99  1  0  0  0
 28100  1  0  0  0
 29101  1  0  0  0
 29102  1  0  0  0
 33 34  1  0  0  0
 33 66  1  0  0  0
 33 70  2  0  0  0
 34 36  1  0  0  0
 34 59  1  0  0  0
 34103  1  0  0  0
 35 44  2  0  0  0
 35 45  1  0  0  0
 35 68  1  0  0  0
 36 56  1  0  0  0
 36104  1  0  0  0
 37 39  1  0  0  0
 37 47  1  0  0  0
 37 66  1  0  0  0
 37105  1  0  0  0
 38 43  2  0  0  0
 38 46  1  0  0  0
 38 47  1  0  0  0
 39 64  1  0  0  0
 39 67  2  0  0  0
 40 52  1  0  0  0
 40 53  2  0  0  0
 40 58  1  0  0  0
 41106  1  0  0  0
 41107  1  0  0  0
 41108  1  0  0  0
 41 48  1  0  0  0
 42 43  1  0  0  0
 42 66  1  0  0  0
 42109  1  0  0  0
 42110  1  0  0  0
 43 44  1  0  0  0
 44111  1  0  0  0
 45 46  2  0  0  0
 45112  1  0  0  0
 46113  1  0  0  0
 47114  1  0  0  0
 47115  1  0  0  0
 48 56  1  0  0  0
 48 65  1  0  0  0
 48116  1  0  0  0
 49 50  1  0  0  0
 49 53  1  0  0  0
 49 64  1  0  0  0
 49117  1  0  0  0
 50 51  1  0  0  0
 50118  1  0  0  0
 50119  1  0  0  0
 51 52  1  0  0  0
 51120  1  0  0  0
 51121  1  0  0  0
 52122  1  0  0  0
 52123  1  0  0  0
 53 54  1  0  0  0
 54 55  2  0  0  0
 54124  1  0  0  0
 55 57  1  0  0  0
 55125  1  0  0  0
 56 69  2  0  0  0
 57 58  2  0  0  0
 57126  1  0  0  0
 58127  1  0  0  0
 59 60  1  0  0  0
 59 61  1  0  0  0
 59 62  1  0  0  0
 60128  1  0  0  0
 60129  1  0  0  0
 60130  1  0  0  0
 61131  1  0  0  0
 61132  1  0  0  0
 61133  1  0  0  0
 62134  1  0  0  0
 62135  1  0  0  0
 62136  1  0  0  0
 63 65  1  0  0  0
 63137  1  0  0  0
 63138  1  0  0  0
 63139  1  0  0  0
 64140  1  0  0  0
 65141  1  0  0  0
 68 80  1  0  0  0
 71 74  2  0  0  0
 71 75  1  0  0  0
 71142  1  0  0  0
 72 74  1  0  0  0
 72 76  2  0  0  0
 72143  1  0  0  0
 73 75  2  0  0  0
 73 76  1  0  0  0
 73144  1  0  0  0
 74 78  1  0  0  0
 75 81  1  0  0  0
 76 82  1  0  0  0
 77 79  1  0  0  0
 77 81  2  0  0  0
 77145  1  0  0  0
 78146  1  0  0  0
 78147  1  0  0  0
 78148  1  0  0  0
 79 80  1  0  0  0
 79149  1  0  0  0
 79150  1  0  0  0
 80151  1  0  0  0
 80152  1  0  0  0
 82153  1  0  0  0
M  ISO  4   1 100  68 101  80 101  82 100
M  END
> <chiral flag>
0

> <version>
0

> <s_m_source_file>
/data/baiqing/PycharmProjects/Reinvent-master-3.2/result/LINK_invent/BTK/process_docking_weight1_custom_product_contain_oxygen_bond_distance_aromatic_linkinvent_7_9_3/rearranged_h_0119.sdf

> <i_m_source_file_index>
13

> <r_mmod_Potential_Energy-OPLS-2005>
275.611572265625

> <r_mmod_Stretch_Energy-OPLS-2005>
153.618988037109

> <r_mmod_Bend_Energy-OPLS-2005>
212.436050415039

> <r_mmod_Torsional_Energy-OPLS-2005>
241.299102783203

> <r_mmod_Improper_Torsional_Energy-OPLS-2005>
8.38004207611084

> <r_mmod_Van_der_Waal_Energy-OPLS-2005>
141.856567382812

> <r_mmod_Electrostatic_Energy-OPLS-2005>
-362.16259765625

> <r_mmod_Solvation_Energy-OPLS-2005>
-217.574859619141

> <b_mmod_Minimization_Converged-OPLS-2005>
0

> <r_mmod_RMS_Derivative-OPLS-2005>
1.18485331535339

$$$$
13
                    3D
 Structure written by MMmdl.
175184  0  0  1  0            999 V2000
  -30.6762  -14.6090   20.4987 C   0  0  0  0  0  0
  -30.4167  -12.3786   19.4506 C   0  0  0  0  0  0
  -29.4962  -12.5017   18.2191 C   0  0  0  0  0  0
  -28.0213  -12.3444   18.6348 C   0  0  0  0  0  0
  -27.6462  -13.2265   19.8562 C   0  0  2  0  0  0
  -28.6908  -13.1115   20.9882 C   0  0  0  0  0  0
  -25.2517  -13.8201   20.5648 C   0  0  0  0  0  0
  -24.1811  -13.0455   20.9198 C   0  0  0  0  0  0
  -24.6396  -11.6932   20.8757 C   0  0  0  0  0  0
  -23.9069  -10.4305   21.0420 C   0  0  0  0  0  0
  -24.3620   -9.4216   21.9194 C   0  0  0  0  0  0
  -23.6296   -8.2252   22.0760 C   0  0  0  0  0  0
  -22.4278   -8.0290   21.3551 C   0  0  0  0  0  0
  -21.9917   -9.0262   20.4652 C   0  0  0  0  0  0
  -22.7244  -10.2144   20.3064 C   0  0  0  0  0  0
  -21.6858   -6.0741   22.5278 C   0  0  0  0  0  0
  -21.4015   -6.5641   23.8212 C   0  0  0  0  0  0
  -21.3652   -5.6793   24.9173 C   0  0  0  0  0  0
  -21.6044   -4.3057   24.7222 C   0  0  0  0  0  0
  -21.8817   -3.8151   23.4341 C   0  0  0  0  0  0
  -21.9192   -4.6969   22.3398 C   0  0  0  0  0  0
  -22.7832  -13.5240   21.1861 C   0  0  0  0  0  0
  -22.1662   -4.2155   21.0977 F   0  0  0  0  0  0
  -21.5625   -3.4542   25.7733 F   0  0  0  0  0  0
  -30.0032  -13.4216   20.4103 N   0  0  0  0  0  0
  -26.2955  -12.9407   20.3305 N   0  0  0  0  0  0
  -25.9327  -11.6551   20.5777 N   0  0  0  0  0  0
  -22.0476  -12.8230   22.0417 N   0  0  0  0  0  0
  -25.4190  -15.1917   20.3975 N   0  0  0  0  0  0
  -31.8555  -14.6921   20.1500 O   0  0  0  0  0  0
  -21.6645   -6.8886   21.4241 O   0  0  0  0  0  0
  -22.3508  -14.5542   20.6708 O   0  0  0  0  0  0
  -24.6241  -31.8608   23.2041 C   0  0  0  0  0  0
  -25.9093  -32.4785   23.8370 C   0  0  1  0  0  0
  -27.2169  -27.3412   20.1172 C   0  0  0  0  0  0
  -25.5918  -33.8585   24.2291 N   0  0  0  0  0  0
  -23.4170  -30.4846   21.5461 C   0  0  2  0  0  0
  -24.8638  -28.9441   20.1079 C   0  0  0  0  0  0
  -22.7474  -29.4621   22.4943 C   0  0  0  0  0  0
  -18.0282  -28.1379   22.8482 C   0  0  0  0  0  0
  -24.1485  -36.7285   23.2639 C   0  0  0  0  0  0
  -25.9560  -30.7988   21.3713 C   0  0  0  0  0  0
  -26.0319  -29.4288   20.7124 C   0  0  0  0  0  0
  -27.2173  -28.6387   20.7070 C   0  0  0  0  0  0
  -26.0351  -26.9045   19.4841 C   0  0  0  0  0  0
  -24.8662  -27.6870   19.4834 C   0  0  0  0  0  0
  -23.6300  -29.8208   20.1602 C   0  0  0  0  0  0
  -25.4108  -36.3081   24.0334 C   0  0  1  0  0  0
  -20.5884  -28.3674   23.1287 C   0  0  2  0  0  0
  -20.6770  -26.9396   22.5414 C   0  0  0  0  0  0
  -19.5751  -26.6373   21.5212 C   0  0  0  0  0  0
  -18.1922  -26.7923   22.1608 C   0  0  0  0  0  0
  -19.1536  -28.8845   23.2883 C   0  0  0  0  0  0
  -18.9461  -30.1446   23.8898 C   0  0  0  0  0  0
  -17.6464  -30.6582   24.0563 C   0  0  0  0  0  0
  -25.9046  -34.9455   23.5111 C   0  0  0  0  0  0
  -16.5352  -29.9081   23.6336 C   0  0  0  0  0  0
  -16.7267  -28.6497   23.0351 C   0  0  0  0  0  0
  -26.4491  -31.6590   25.0730 C   0  0  0  0  0  0
  -25.3730  -31.3713   26.1459 C   0  0  0  0  0  0
  -27.0329  -30.3020   24.6158 C   0  0  0  0  0  0
  -27.6060  -32.4322   25.7492 C   0  0  0  0  0  0
  -27.5579  -37.1791   24.8461 C   0  0  0  0  0  0
  -21.4187  -29.3033   22.3692 N   0  0  0  0  0  0
  -26.4282  -37.3779   23.9419 N   0  0  0  0  0  0
  -24.6843  -31.0643   22.0973 N   0  0  0  0  0  0
  -23.4208  -28.8158   23.3013 O   0  0  0  0  0  0
  -28.3022  -26.4653   20.1559 O   0  0  0  0  0  0
  -26.5619  -34.8919   22.4679 O   0  0  0  0  0  0
  -23.5410  -32.1385   23.7386 O   0  0  0  0  0  0
  -29.4789  -20.7155   19.7311 C   0  0  0  0  0  0
  -28.6722  -20.3254   21.9562 C   0  0  0  0  0  0
  -29.9117  -19.3508   19.6606 C   0  0  0  0  0  0
  -28.8707  -21.2489   20.8950 C   0  0  0  0  0  0
  -29.7912  -18.4579   20.7728 C   0  0  0  0  0  0
  -29.1119  -18.9728   21.9061 C   0  0  0  0  0  0
  -31.5877  -19.5300   17.8897 C   0  0  0  0  0  0
  -30.5236  -18.8812   18.4050 C   0  0  0  0  0  0
  -28.4482  -22.6937   21.1059 C   0  0  0  0  0  0
  -28.6141  -23.8602   20.4043 C   0  0  0  0  0  0
  -32.2707  -19.1696   16.5805 C   0  0  0  0  0  0
  -29.8638  -17.7404   17.6361 C   0  0  0  0  0  0
  -31.4431  -18.1978   15.7224 C   0  0  0  0  0  0
  -30.7919  -17.1118   16.5852 C   0  0  0  0  0  0
  -26.6389  -15.3388   23.9655 C   0  0  0  0  0  0
  -30.5967  -17.1065   20.8666 C   0  0  0  0  0  0
  -28.0520  -25.2279   20.9151 C   0  0  0  0  0  0
  -27.8631  -16.2626   23.9724 C   0  0  0  0  0  0
  -27.7427  -17.4130   22.9663 C   0  0  0  0  0  0
  -29.9718  -15.7422   20.7995 N   0  0  0  0  0  0
  -28.9382  -18.1800   23.0092 O   0  0  0  0  0  0
  -31.4615  -12.4733   19.1497 H   0  0  0  0  0  0
  -30.3256  -11.3903   19.9035 H   0  0  0  0  0  0
  -29.7575  -11.7498   17.4734 H   0  0  0  0  0  0
  -29.6434  -13.4715   17.7411 H   0  0  0  0  0  0
  -27.8582  -11.2929   18.8747 H   0  0  0  0  0  0
  -27.3650  -12.5671   17.7926 H   0  0  0  0  0  0
  -27.6578  -14.2574   19.5019 H   0  0  0  0  0  0
  -28.6951  -12.1061   21.4109 H   0  0  0  0  0  0
  -28.4497  -13.7855   21.8110 H   0  0  0  0  0  0
  -25.2763   -9.5695   22.4770 H   0  0  0  0  0  0
  -24.0001   -7.4644   22.7485 H   0  0  0  0  0  0
  -21.0847   -8.8785   19.8956 H   0  0  0  0  0  0
  -22.3706  -10.9686   19.6174 H   0  0  0  0  0  0
  -21.2012   -7.6149   23.9717 H   0  0  0  0  0  0
  -21.1471   -6.0524   25.9075 H   0  0  0  0  0  0
  -22.0600   -2.7614   23.2840 H   0  0  0  0  0  0
  -22.4089  -11.9884   22.4795 H   0  0  0  0  0  0
  -21.1099  -13.1262   22.2633 H   0  0  0  0  0  0
  -24.6416  -15.8360   20.4875 H   0  0  0  0  0  0
  -26.2512  -15.6276   20.0236 H   0  0  0  0  0  0
  -26.7161  -32.5459   23.1120 H   0  0  0  0  0  0
  -25.0102  -33.9748   25.0461 H   0  0  0  0  0  0
  -22.7091  -31.3037   21.4047 H   0  0  0  0  0  0
  -23.3757  -35.9607   23.3294 H   0  0  0  0  0  0
  -24.3579  -36.8909   22.2055 H   0  0  0  0  0  0
  -23.7226  -37.6478   23.6665 H   0  0  0  0  0  0
  -26.0859  -31.5638   20.6046 H   0  0  0  0  0  0
  -26.8371  -30.8457   21.9998 H   0  0  0  0  0  0
  -28.1141  -29.0015   21.1896 H   0  0  0  0  0  0
  -26.0094  -25.9332   19.0100 H   0  0  0  0  0  0
  -23.9712  -27.3117   19.0063 H   0  0  0  0  0  0
  -23.7454  -30.5983   19.4042 H   0  0  0  0  0  0
  -22.7499  -29.2490   19.8593 H   0  0  0  0  0  0
  -25.1287  -36.1931   25.0827 H   0  0  0  0  0  0
  -20.9978  -28.3242   24.1405 H   0  0  0  0  0  0
  -20.5660  -26.2286   23.3614 H   0  0  0  0  0  0
  -21.6642  -26.7414   22.1210 H   0  0  0  0  0  0
  -19.6919  -25.6287   21.1234 H   0  0  0  0  0  0
  -19.6701  -27.3191   20.6750 H   0  0  0  0  0  0
  -17.4204  -26.6686   21.4000 H   0  0  0  0  0  0
  -18.0305  -26.0059   22.8989 H   0  0  0  0  0  0
  -19.7941  -30.7262   24.2264 H   0  0  0  0  0  0
  -17.5014  -31.6265   24.5159 H   0  0  0  0  0  0
  -15.5351  -30.2980   23.7671 H   0  0  0  0  0  0
  -15.8664  -28.0820   22.7068 H   0  0  0  0  0  0
  -24.5954  -30.6994   25.7803 H   0  0  0  0  0  0
  -24.8856  -32.2861   26.4843 H   0  0  0  0  0  0
  -25.8068  -30.8950   27.0259 H   0  0  0  0  0  0
  -26.2890  -29.6771   24.1197 H   0  0  0  0  0  0
  -27.4062  -29.7272   25.4644 H   0  0  0  0  0  0
  -27.8746  -30.4320   23.9348 H   0  0  0  0  0  0
  -27.2688  -33.3642   26.2040 H   0  0  0  0  0  0
  -28.3886  -32.6842   25.0323 H   0  0  0  0  0  0
  -28.0704  -31.8455   26.5427 H   0  0  0  0  0  0
  -28.2584  -38.0101   24.7534 H   0  0  0  0  0  0
  -28.1093  -36.2637   24.6254 H   0  0  0  0  0  0
  -27.2305  -37.1395   25.8865 H   0  0  0  0  0  0
  -20.9363  -29.8763   21.6910 H   0  0  0  0  0  0
  -26.0163  -38.2847   24.1448 H   0  0  0  0  0  0
  -29.6256  -21.3629   18.8774 H   0  0  0  0  0  0
  -28.2002  -20.6697   22.8656 H   0  0  0  0  0  0
  -32.0269  -20.3526   18.4376 H   0  0  0  0  0  0
  -27.8893  -22.8220   22.0228 H   0  0  0  0  0  0
  -29.1522  -23.8675   19.4678 H   0  0  0  0  0  0
  -33.2384  -18.7271   16.8204 H   0  0  0  0  0  0
  -32.4746  -20.0809   16.0172 H   0  0  0  0  0  0
  -28.9548  -18.1234   17.1710 H   0  0  0  0  0  0
  -29.5456  -16.9592   18.3250 H   0  0  0  0  0  0
  -32.0727  -17.7484   14.9530 H   0  0  0  0  0  0
  -30.6630  -18.7494   15.1952 H   0  0  0  0  0  0
  -30.2298  -16.4155   15.9616 H   0  0  0  0  0  0
  -31.5660  -16.5247   17.0822 H   0  0  0  0  0  0
  -26.7329  -14.5581   24.7205 H   0  0  0  0  0  0
  -26.5194  -14.8490   22.9997 H   0  0  0  0  0  0
  -25.7228  -15.8931   24.1721 H   0  0  0  0  0  0
  -31.1190  -17.1408   21.8237 H   0  0  0  0  0  0
  -31.4044  -17.1561   20.1364 H   0  0  0  0  0  0
  -28.4739  -25.3896   21.9077 H   0  0  0  0  0  0
  -26.9861  -25.0776   21.0934 H   0  0  0  0  0  0
  -28.7570  -15.6778   23.7509 H   0  0  0  0  0  0
  -28.0043  -16.6715   24.9734 H   0  0  0  0  0  0
  -26.8917  -18.0498   23.2136 H   0  0  0  0  0  0
  -27.5659  -17.0122   21.9659 H   0  0  0  0  0  0
  -28.9931  -15.6516   21.0205 H   0  0  0  0  0  0
  1 25  1  0  0  0
  1 30  2  0  0  0
  1 90  1  0  0  0
  2  3  1  0  0  0
  2 25  1  0  0  0
  2 92  1  0  0  0
  2 93  1  0  0  0
  3  4  1  0  0  0
  3 94  1  0  0  0
  3 95  1  0  0  0
  4  5  1  0  0  0
  4 96  1  0  0  0
  4 97  1  0  0  0
  5  6  1  0  0  0
  5 26  1  0  0  0
  5 98  1  0  0  0
  6 25  1  0  0  0
  6 99  1  0  0  0
  6100  1  0  0  0
  7  8  2  0  0  0
  7 26  1  0  0  0
  7 29  1  0  0  0
  8  9  1  0  0  0
  8 22  1  0  0  0
  9 10  1  0  0  0
  9 27  2  0  0  0
 10 11  2  0  0  0
 10 15  1  0  0  0
 11 12  1  0  0  0
 11101  1  0  0  0
 12 13  2  0  0  0
 12102  1  0  0  0
 13 14  1  0  0  0
 13 31  1  0  0  0
 14 15  2  0  0  0
 14103  1  0  0  0
 15104  1  0  0  0
 16 17  2  0  0  0
 16 21  1  0  0  0
 16 31  1  0  0  0
 17 18  1  0  0  0
 17105  1  0  0  0
 18 19  2  0  0  0
 18106  1  0  0  0
 19 20  1  0  0  0
 19 24  1  0  0  0
 20 21  2  0  0  0
 20107  1  0  0  0
 21 23  1  0  0  0
 22 28  1  0  0  0
 22 32  2  0  0  0
 26 27  1  0  0  0
 28108  1  0  0  0
 28109  1  0  0  0
 29110  1  0  0  0
 29111  1  0  0  0
 33 34  1  0  0  0
 33 66  1  0  0  0
 33 70  2  0  0  0
 34 36  1  0  0  0
 34 59  1  0  0  0
 34112  1  0  0  0
 35 44  2  0  0  0
 35 45  1  0  0  0
 35 68  1  0  0  0
 36 56  1  0  0  0
 36113  1  0  0  0
 37 39  1  0  0  0
 37 47  1  0  0  0
 37 66  1  0  0  0
 37114  1  0  0  0
 38 43  2  0  0  0
 38 46  1  0  0  0
 38 47  1  0  0  0
 39 64  1  0  0  0
 39 67  2  0  0  0
 40 52  1  0  0  0
 40 53  2  0  0  0
 40 58  1  0  0  0
 41115  1  0  0  0
 41116  1  0  0  0
 41117  1  0  0  0
 41 48  1  0  0  0
 42 43  1  0  0  0
 42 66  1  0  0  0
 42118  1  0  0  0
 42119  1  0  0  0
 43 44  1  0  0  0
 44120  1  0  0  0
 45 46  2  0  0  0
 45121  1  0  0  0
 46122  1  0  0  0
 47123  1  0  0  0
 47124  1  0  0  0
 48 56  1  0  0  0
 48 65  1  0  0  0
 48125  1  0  0  0
 49 50  1  0  0  0
 49 53  1  0  0  0
 49 64  1  0  0  0
 49126  1  0  0  0
 50 51  1  0  0  0
 50127  1  0  0  0
 50128  1  0  0  0
 51 52  1  0  0  0
 51129  1  0  0  0
 51130  1  0  0  0
 52131  1  0  0  0
 52132  1  0  0  0
 53 54  1  0  0  0
 54 55  2  0  0  0
 54133  1  0  0  0
 55 57  1  0  0  0
 55134  1  0  0  0
 56 69  2  0  0  0
 57 58  2  0  0  0
 57135  1  0  0  0
 58136  1  0  0  0
 59 60  1  0  0  0
 59 61  1  0  0  0
 59 62  1  0  0  0
 60137  1  0  0  0
 60138  1  0  0  0
 60139  1  0  0  0
 61140  1  0  0  0
 61141  1  0  0  0
 61142  1  0  0  0
 62143  1  0  0  0
 62144  1  0  0  0
 62145  1  0  0  0
 63 65  1  0  0  0
 63146  1  0  0  0
 63147  1  0  0  0
 63148  1  0  0  0
 64149  1  0  0  0
 65150  1  0  0  0
 68 87  1  0  0  0
 71 73  2  0  0  0
 71 74  1  0  0  0
 71151  1  0  0  0
 72 74  2  0  0  0
 72 76  1  0  0  0
 72152  1  0  0  0
 73 75  1  0  0  0
 73 78  1  0  0  0
 74 79  1  0  0  0
 75 76  2  0  0  0
 75 86  1  0  0  0
 76 91  1  0  0  0
 77 78  2  0  0  0
 77 81  1  0  0  0
 77153  1  0  0  0
 78 82  1  0  0  0
 79 80  2  0  0  0
 79154  1  0  0  0
 80 87  1  0  0  0
 80155  1  0  0  0
 81 83  1  0  0  0
 81156  1  0  0  0
 81157  1  0  0  0
 82 84  1  0  0  0
 82158  1  0  0  0
 82159  1  0  0  0
 83 84  1  0  0  0
 83160  1  0  0  0
 83161  1  0  0  0
 84162  1  0  0  0
 84163  1  0  0  0
 85 88  1  0  0  0
 85164  1  0  0  0
 85165  1  0  0  0
 85166  1  0  0  0
 86 90  1  0  0  0
 86167  1  0  0  0
 86168  1  0  0  0
 87169  1  0  0  0
 87170  1  0  0  0
 88 89  1  0  0  0
 88171  1  0  0  0
 88172  1  0  0  0
 89 91  1  0  0  0
 89173  1  0  0  0
 89174  1  0  0  0
 90175  1  0  0  0
M  ISO  4   1 100  68 101  87 101  90 100
M  END
> <chiral flag>
0

> <version>
0

> <s_m_source_file>
/data/baiqing/PycharmProjects/Reinvent-master-3.2/result/LINK_invent/BTK/process_docking_weight1_custom_product_contain_oxygen_bond_distance_aromatic_linkinvent_7_9_3/rearranged_h_0119.sdf

> <i_m_source_file_index>
14

> <r_mmod_Potential_Energy-OPLS-2005>
99.492561340332

> <r_mmod_Stretch_Energy-OPLS-2005>
71.1843719482422

> <r_mmod_Bend_Energy-OPLS-2005>
143.18977355957

> <r_mmod_Torsional_Energy-OPLS-2005>
298.360595703125

> <r_mmod_Improper_Torsional_Energy-OPLS-2005>
5.98168754577637

> <r_mmod_Van_der_Waal_Energy-OPLS-2005>
131.7177734375

> <r_mmod_Electrostatic_Energy-OPLS-2005>
-399.949401855469

> <r_mmod_Solvation_Energy-OPLS-2005>
-195.972305297852

> <b_mmod_Minimization_Converged-OPLS-2005>
0

> <r_mmod_RMS_Derivative-OPLS-2005>
0.89898145198822

$$$$
14
                    3D
 Structure written by MMmdl.
153161  0  0  1  0            999 V2000
  -30.6603  -14.6725   20.4792 C   0  0  0  0  0  0
  -30.4246  -12.4157   19.4601 C   0  0  0  0  0  0
  -29.4972  -12.4879   18.2287 C   0  0  0  0  0  0
  -28.0270  -12.3182   18.6530 C   0  0  0  0  0  0
  -27.6416  -13.2259   19.8519 C   0  0  2  0  0  0
  -28.6898  -13.1529   20.9843 C   0  0  0  0  0  0
  -25.2514  -13.8193   20.5726 C   0  0  0  0  0  0
  -24.1790  -13.0442   20.9218 C   0  0  0  0  0  0
  -24.6370  -11.6922   20.8765 C   0  0  0  0  0  0
  -23.9059  -10.4291   21.0435 C   0  0  0  0  0  0
  -24.3609   -9.4212   21.9208 C   0  0  0  0  0  0
  -23.6288   -8.2242   22.0757 C   0  0  0  0  0  0
  -22.4278   -8.0277   21.3535 C   0  0  0  0  0  0
  -21.9919   -9.0257   20.4650 C   0  0  0  0  0  0
  -22.7237  -10.2138   20.3074 C   0  0  0  0  0  0
  -21.6849   -6.0747   22.5280 C   0  0  0  0  0  0
  -21.4013   -6.5652   23.8216 C   0  0  0  0  0  0
  -21.3658   -5.6798   24.9176 C   0  0  0  0  0  0
  -21.6037   -4.3063   24.7224 C   0  0  0  0  0  0
  -21.8816   -3.8157   23.4345 C   0  0  0  0  0  0
  -21.9191   -4.6976   22.3400 C   0  0  0  0  0  0
  -22.7815  -13.5231   21.1881 C   0  0  0  0  0  0
  -22.1658   -4.2164   21.0976 F   0  0  0  0  0  0
  -21.5628   -3.4540   25.7737 F   0  0  0  0  0  0
  -29.9946  -13.4765   20.3951 N   0  0  0  0  0  0
  -26.2942  -12.9394   20.3328 N   0  0  0  0  0  0
  -25.9299  -11.6540   20.5788 N   0  0  0  0  0  0
  -22.0458  -12.8218   22.0432 N   0  0  0  0  0  0
  -25.4219  -15.1918   20.4146 N   0  0  0  0  0  0
  -31.8517  -14.7418   20.1696 O   0  0  0  0  0  0
  -21.6634   -6.8884   21.4242 O   0  0  0  0  0  0
  -22.3506  -14.5551   20.6737 O   0  0  0  0  0  0
  -24.6269  -31.8584   23.2018 C   0  0  0  0  0  0
  -25.9110  -32.4776   23.8353 C   0  0  1  0  0  0
  -27.2274  -27.3085   20.1103 C   0  0  0  0  0  0
  -25.5925  -33.8581   24.2273 N   0  0  0  0  0  0
  -23.4202  -30.4801   21.5460 C   0  0  2  0  0  0
  -24.8662  -28.9352   20.1123 C   0  0  0  0  0  0
  -22.7472  -29.4597   22.4945 C   0  0  0  0  0  0
  -18.0269  -28.1368   22.8480 C   0  0  0  0  0  0
  -24.1493  -36.7282   23.2644 C   0  0  0  0  0  0
  -25.9620  -30.7863   21.3746 C   0  0  0  0  0  0
  -26.0355  -29.4126   20.7168 C   0  0  0  0  0  0
  -27.2138  -28.6087   20.7091 C   0  0  0  0  0  0
  -26.0227  -26.8765   19.5070 C   0  0  0  0  0  0
  -24.8625  -27.6719   19.5036 C   0  0  0  0  0  0
  -23.6363  -29.8170   20.1610 C   0  0  0  0  0  0
  -25.4110  -36.3074   24.0329 C   0  0  1  0  0  0
  -20.5871  -28.3664   23.1299 C   0  0  2  0  0  0
  -20.6762  -26.9394   22.5423 C   0  0  0  0  0  0
  -19.5759  -26.6367   21.5218 C   0  0  0  0  0  0
  -18.1913  -26.7908   22.1611 C   0  0  0  0  0  0
  -19.1525  -28.8833   23.2879 C   0  0  0  0  0  0
  -18.9469  -30.1443   23.8886 C   0  0  0  0  0  0
  -17.6473  -30.6581   24.0563 C   0  0  0  0  0  0
  -25.9051  -34.9452   23.5094 C   0  0  0  0  0  0
  -16.5357  -29.9082   23.6349 C   0  0  0  0  0  0
  -16.7252  -28.6497   23.0347 C   0  0  0  0  0  0
  -26.4501  -31.6600   25.0735 C   0  0  0  0  0  0
  -25.3738  -31.3723   26.1471 C   0  0  0  0  0  0
  -27.0355  -30.3032   24.6167 C   0  0  0  0  0  0
  -27.6058  -32.4357   25.7488 C   0  0  0  0  0  0
  -27.5574  -37.1786   24.8451 C   0  0  0  0  0  0
  -21.4183  -29.3030   22.3711 N   0  0  0  0  0  0
  -26.4277  -37.3780   23.9421 N   0  0  0  0  0  0
  -24.6886  -31.0596   22.0978 N   0  0  0  0  0  0
  -23.4195  -28.8132   23.3018 O   0  0  0  0  0  0
  -28.3656  -26.4846   20.1765 O   0  0  0  0  0  0
  -26.5628  -34.8922   22.4662 O   0  0  0  0  0  0
  -23.5431  -32.1384   23.7341 O   0  0  0  0  0  0
  -28.9008  -20.8079   21.1548 C   0  0  0  0  0  0
  -29.8651  -20.5166   18.9829 C   0  0  0  0  0  0
  -29.2105  -19.4379   21.4691 C   0  0  0  0  0  0
  -29.8947  -18.5790   20.5455 C   0  0  0  0  0  0
  -29.2397  -21.3975   19.9045 C   0  0  0  0  0  0
  -30.1895  -19.1621   19.2848 C   0  0  0  0  0  0
  -28.7049  -23.8341   20.1347 C   0  0  0  0  0  0
  -28.8295  -18.9259   22.8485 C   0  0  0  0  0  0
  -30.5520  -17.1917   20.9521 C   0  0  0  0  0  0
  -28.4978  -25.2252   19.4048 C   0  0  0  0  0  0
  -28.9850  -22.7486   19.4648 N   0  0  0  0  0  0
  -29.9450  -15.8227   20.7310 N   0  0  0  0  0  0
  -30.8465  -18.4306   18.3518 F   0  0  0  0  0  0
  -31.4657  -12.5270   19.1512 H   0  0  0  0  0  0
  -30.3586  -11.4378   19.9409 H   0  0  0  0  0  0
  -29.7673  -11.7143   17.5090 H   0  0  0  0  0  0
  -29.6262  -13.4437   17.7187 H   0  0  0  0  0  0
  -27.8906  -11.2704   18.9275 H   0  0  0  0  0  0
  -27.3612  -12.5013   17.8089 H   0  0  0  0  0  0
  -27.6391  -14.2474   19.4687 H   0  0  0  0  0  0
  -28.7104  -12.1587   21.4334 H   0  0  0  0  0  0
  -28.4377  -13.8472   21.7886 H   0  0  0  0  0  0
  -25.2749   -9.5697   22.4792 H   0  0  0  0  0  0
  -24.0002   -7.4641   22.7471 H   0  0  0  0  0  0
  -21.0852   -8.8773   19.8951 H   0  0  0  0  0  0
  -22.3699  -10.9684   19.6188 H   0  0  0  0  0  0
  -21.2002   -7.6158   23.9730 H   0  0  0  0  0  0
  -21.1481   -6.0526   25.9077 H   0  0  0  0  0  0
  -22.0593   -2.7620   23.2841 H   0  0  0  0  0  0
  -22.4061  -11.9856   22.4802 H   0  0  0  0  0  0
  -21.1080  -13.1244   22.2652 H   0  0  0  0  0  0
  -24.6562  -15.8471   20.5300 H   0  0  0  0  0  0
  -26.2696  -15.6331   20.0826 H   0  0  0  0  0  0
  -26.7171  -32.5443   23.1096 H   0  0  0  0  0  0
  -25.0125  -33.9754   25.0443 H   0  0  0  0  0  0
  -22.7128  -31.2994   21.4008 H   0  0  0  0  0  0
  -23.3772  -35.9598   23.3278 H   0  0  0  0  0  0
  -24.3588  -36.8931   22.2067 H   0  0  0  0  0  0
  -23.7236  -37.6468   23.6684 H   0  0  0  0  0  0
  -26.0921  -31.5516   20.6078 H   0  0  0  0  0  0
  -26.8434  -30.8348   22.0039 H   0  0  0  0  0  0
  -28.1125  -28.9702   21.1893 H   0  0  0  0  0  0
  -25.9217  -25.9009   19.0607 H   0  0  0  0  0  0
  -23.9611  -27.2889   19.0460 H   0  0  0  0  0  0
  -23.7595  -30.5975   19.4091 H   0  0  0  0  0  0
  -22.7549  -29.2521   19.8532 H   0  0  0  0  0  0
  -25.1285  -36.1917   25.0818 H   0  0  0  0  0  0
  -20.9939  -28.3248   24.1428 H   0  0  0  0  0  0
  -20.5711  -26.2257   23.3603 H   0  0  0  0  0  0
  -21.6632  -26.7451   22.1190 H   0  0  0  0  0  0
  -19.6942  -25.6289   21.1239 H   0  0  0  0  0  0
  -19.6719  -27.3195   20.6770 H   0  0  0  0  0  0
  -17.4200  -26.6684   21.3996 H   0  0  0  0  0  0
  -18.0298  -26.0031   22.8978 H   0  0  0  0  0  0
  -19.7956  -30.7256   24.2249 H   0  0  0  0  0  0
  -17.5035  -31.6270   24.5147 H   0  0  0  0  0  0
  -15.5372  -30.2992   23.7682 H   0  0  0  0  0  0
  -15.8636  -28.0840   22.7057 H   0  0  0  0  0  0
  -24.5919  -30.7054   25.7806 H   0  0  0  0  0  0
  -24.8924  -32.2888   26.4922 H   0  0  0  0  0  0
  -25.8092  -30.8900   27.0238 H   0  0  0  0  0  0
  -26.2924  -29.6772   24.1213 H   0  0  0  0  0  0
  -27.4105  -29.7294   25.4658 H   0  0  0  0  0  0
  -27.8757  -30.4342   23.9337 H   0  0  0  0  0  0
  -27.2664  -33.3682   26.2014 H   0  0  0  0  0  0
  -28.3892  -32.6888   25.0325 H   0  0  0  0  0  0
  -28.0683  -31.8512   26.5458 H   0  0  0  0  0  0
  -28.2552  -38.0129   24.7571 H   0  0  0  0  0  0
  -28.1122  -36.2666   24.6184 H   0  0  0  0  0  0
  -27.2301  -37.1307   25.8856 H   0  0  0  0  0  0
  -20.9358  -29.8764   21.6936 H   0  0  0  0  0  0
  -26.0149  -38.2833   24.1501 H   0  0  0  0  0  0
  -28.3984  -21.4117   21.9003 H   0  0  0  0  0  0
  -30.1377  -20.8967   18.0081 H   0  0  0  0  0  0
  -28.6156  -23.8553   21.2247 H   0  0  0  0  0  0
  -27.9298  -19.4234   23.2148 H   0  0  0  0  0  0
  -29.6349  -19.1153   23.5588 H   0  0  0  0  0  0
  -28.6208  -17.8557   22.8386 H   0  0  0  0  0  0
  -30.7961  -17.2422   22.0132 H   0  0  0  0  0  0
  -31.5300  -17.2025   20.4694 H   0  0  0  0  0  0
  -27.7360  -25.0983   18.6403 H   0  0  0  0  0  0
  -29.3994  -25.3773   18.8138 H   0  0  0  0  0  0
  -28.9520  -15.7278   20.8791 H   0  0  0  0  0  0
  1 25  1  0  0  0
  1 30  2  0  0  0
  1 82  1  0  0  0
  2  3  1  0  0  0
  2 25  1  0  0  0
  2 84  1  0  0  0
  2 85  1  0  0  0
  3  4  1  0  0  0
  3 86  1  0  0  0
  3 87  1  0  0  0
  4  5  1  0  0  0
  4 88  1  0  0  0
  4 89  1  0  0  0
  5  6  1  0  0  0
  5 26  1  0  0  0
  5 90  1  0  0  0
  6 25  1  0  0  0
  6 91  1  0  0  0
  6 92  1  0  0  0
  7  8  2  0  0  0
  7 26  1  0  0  0
  7 29  1  0  0  0
  8  9  1  0  0  0
  8 22  1  0  0  0
  9 10  1  0  0  0
  9 27  2  0  0  0
 10 11  2  0  0  0
 10 15  1  0  0  0
 11 12  1  0  0  0
 11 93  1  0  0  0
 12 13  2  0  0  0
 12 94  1  0  0  0
 13 14  1  0  0  0
 13 31  1  0  0  0
 14 15  2  0  0  0
 14 95  1  0  0  0
 15 96  1  0  0  0
 16 17  2  0  0  0
 16 21  1  0  0  0
 16 31  1  0  0  0
 17 18  1  0  0  0
 17 97  1  0  0  0
 18 19  2  0  0  0
 18 98  1  0  0  0
 19 20  1  0  0  0
 19 24  1  0  0  0
 20 21  2  0  0  0
 20 99  1  0  0  0
 21 23  1  0  0  0
 22 28  1  0  0  0
 22 32  2  0  0  0
 26 27  1  0  0  0
 28100  1  0  0  0
 28101  1  0  0  0
 29102  1  0  0  0
 29103  1  0  0  0
 33 34  1  0  0  0
 33 66  1  0  0  0
 33 70  2  0  0  0
 34 36  1  0  0  0
 34 59  1  0  0  0
 34104  1  0  0  0
 35 44  2  0  0  0
 35 45  1  0  0  0
 35 68  1  0  0  0
 36 56  1  0  0  0
 36105  1  0  0  0
 37 39  1  0  0  0
 37 47  1  0  0  0
 37 66  1  0  0  0
 37106  1  0  0  0
 38 43  2  0  0  0
 38 46  1  0  0  0
 38 47  1  0  0  0
 39 64  1  0  0  0
 39 67  2  0  0  0
 40 52  1  0  0  0
 40 53  2  0  0  0
 40 58  1  0  0  0
 41107  1  0  0  0
 41108  1  0  0  0
 41109  1  0  0  0
 41 48  1  0  0  0
 42 43  1  0  0  0
 42 66  1  0  0  0
 42110  1  0  0  0
 42111  1  0  0  0
 43 44  1  0  0  0
 44112  1  0  0  0
 45 46  2  0  0  0
 45113  1  0  0  0
 46114  1  0  0  0
 47115  1  0  0  0
 47116  1  0  0  0
 48 56  1  0  0  0
 48 65  1  0  0  0
 48117  1  0  0  0
 49 50  1  0  0  0
 49 53  1  0  0  0
 49 64  1  0  0  0
 49118  1  0  0  0
 50 51  1  0  0  0
 50119  1  0  0  0
 50120  1  0  0  0
 51 52  1  0  0  0
 51121  1  0  0  0
 51122  1  0  0  0
 52123  1  0  0  0
 52124  1  0  0  0
 53 54  1  0  0  0
 54 55  2  0  0  0
 54125  1  0  0  0
 55 57  1  0  0  0
 55126  1  0  0  0
 56 69  2  0  0  0
 57 58  2  0  0  0
 57127  1  0  0  0
 58128  1  0  0  0
 59 60  1  0  0  0
 59 61  1  0  0  0
 59 62  1  0  0  0
 60129  1  0  0  0
 60130  1  0  0  0
 60131  1  0  0  0
 61132  1  0  0  0
 61133  1  0  0  0
 61134  1  0  0  0
 62135  1  0  0  0
 62136  1  0  0  0
 62137  1  0  0  0
 63 65  1  0  0  0
 63138  1  0  0  0
 63139  1  0  0  0
 63140  1  0  0  0
 64141  1  0  0  0
 65142  1  0  0  0
 68 80  1  0  0  0
 71 73  2  0  0  0
 71 75  1  0  0  0
 71143  1  0  0  0
 72 75  2  0  0  0
 72 76  1  0  0  0
 72144  1  0  0  0
 73 74  1  0  0  0
 73 78  1  0  0  0
 74 76  2  0  0  0
 74 79  1  0  0  0
 75 81  1  0  0  0
 76 83  1  0  0  0
 77 80  1  0  0  0
 77 81  2  0  0  0
 77145  1  0  0  0
 78146  1  0  0  0
 78147  1  0  0  0
 78148  1  0  0  0
 79 82  1  0  0  0
 79149  1  0  0  0
 79150  1  0  0  0
 80151  1  0  0  0
 80152  1  0  0  0
 82153  1  0  0  0
M  ISO  4   1 100  68 101  80 101  82 100
M  END
> <chiral flag>
0

> <version>
0

> <s_m_source_file>
/data/baiqing/PycharmProjects/Reinvent-master-3.2/result/LINK_invent/BTK/process_docking_weight1_custom_product_contain_oxygen_bond_distance_aromatic_linkinvent_7_9_3/rearranged_h_0119.sdf

> <i_m_source_file_index>
15

> <r_mmod_Potential_Energy-OPLS-2005>
112.720336914062

> <r_mmod_Stretch_Energy-OPLS-2005>
88.8288192749023

> <r_mmod_Bend_Energy-OPLS-2005>
180.960556030273

> <r_mmod_Torsional_Energy-OPLS-2005>
208.592697143555

> <r_mmod_Improper_Torsional_Energy-OPLS-2005>
5.70646572113037

> <r_mmod_Van_der_Waal_Energy-OPLS-2005>
145.291687011719

> <r_mmod_Electrostatic_Energy-OPLS-2005>
-364.062896728516

> <r_mmod_Solvation_Energy-OPLS-2005>
-211.470809936523

> <b_mmod_Minimization_Converged-OPLS-2005>
0

> <r_mmod_RMS_Derivative-OPLS-2005>
2.50521540641785

$$$$
15
                    3D
 Structure written by MMmdl.
165174  0  0  1  0            999 V2000
  -30.6986  -14.5897   20.5217 C   0  0  0  0  0  0
  -30.4297  -12.3745   19.4431 C   0  0  0  0  0  0
  -29.5070  -12.4972   18.2170 C   0  0  0  0  0  0
  -28.0318  -12.3424   18.6361 C   0  0  0  0  0  0
  -27.6567  -13.2237   19.8596 C   0  0  2  0  0  0
  -28.7028  -13.0969   20.9918 C   0  0  0  0  0  0
  -25.2566  -13.8183   20.5731 C   0  0  0  0  0  0
  -24.1833  -13.0421   20.9192 C   0  0  0  0  0  0
  -24.6423  -11.6907   20.8713 C   0  0  0  0  0  0
  -23.9102  -10.4297   21.0393 C   0  0  0  0  0  0
  -24.3638   -9.4200   21.9186 C   0  0  0  0  0  0
  -23.6292   -8.2256   22.0774 C   0  0  0  0  0  0
  -22.4266   -8.0309   21.3566 C   0  0  0  0  0  0
  -21.9909   -9.0292   20.4680 C   0  0  0  0  0  0
  -22.7256  -10.2162   20.3072 C   0  0  0  0  0  0
  -21.6827   -6.0769   22.5306 C   0  0  0  0  0  0
  -21.4034   -6.5673   23.8254 C   0  0  0  0  0  0
  -21.3657   -5.6808   24.9197 C   0  0  0  0  0  0
  -21.5997   -4.3062   24.7227 C   0  0  0  0  0  0
  -21.8806   -3.8172   23.4349 C   0  0  0  0  0  0
  -21.9179   -4.7002   22.3406 C   0  0  0  0  0  0
  -22.7846  -13.5231   21.1814 C   0  0  0  0  0  0
  -22.1629   -4.2200   21.0975 F   0  0  0  0  0  0
  -21.5605   -3.4543   25.7725 F   0  0  0  0  0  0
  -30.0170  -13.4096   20.4150 N   0  0  0  0  0  0
  -26.3035  -12.9401   20.3344 N   0  0  0  0  0  0
  -25.9348  -11.6541   20.5715 N   0  0  0  0  0  0
  -22.0443  -12.8311   22.0404 N   0  0  0  0  0  0
  -25.4191  -15.1919   20.4230 N   0  0  0  0  0  0
  -31.8197  -14.6982   20.0177 O   0  0  0  0  0  0
  -21.6606   -6.8916   21.4280 O   0  0  0  0  0  0
  -22.3576  -14.5532   20.6591 O   0  0  0  0  0  0
  -24.6240  -31.8670   23.2093 C   0  0  0  0  0  0
  -25.9113  -32.4818   23.8408 C   0  0  1  0  0  0
  -27.2028  -27.3469   20.0934 C   0  0  0  0  0  0
  -25.5940  -33.8611   24.2336 N   0  0  0  0  0  0
  -23.4123  -30.4952   21.5537 C   0  0  2  0  0  0
  -24.8499  -28.9642   20.1116 C   0  0  0  0  0  0
  -22.7458  -29.4659   22.4982 C   0  0  0  0  0  0
  -18.0286  -28.1363   22.8511 C   0  0  0  0  0  0
  -24.1472  -36.7279   23.2639 C   0  0  0  0  0  0
  -25.9536  -30.8034   21.3792 C   0  0  0  0  0  0
  -26.0242  -29.4382   20.7113 C   0  0  0  0  0  0
  -27.2060  -28.6423   20.6966 C   0  0  0  0  0  0
  -25.9900  -26.9106   19.5101 C   0  0  0  0  0  0
  -24.8332  -27.7031   19.5068 C   0  0  0  0  0  0
  -23.6215  -29.8435   20.1638 C   0  0  0  0  0  0
  -25.4099  -36.3103   24.0343 C   0  0  1  0  0  0
  -20.5883  -28.3669   23.1294 C   0  0  2  0  0  0
  -20.6756  -26.9393   22.5417 C   0  0  0  0  0  0
  -19.5729  -26.6369   21.5210 C   0  0  0  0  0  0
  -18.1911  -26.7908   22.1631 C   0  0  0  0  0  0
  -19.1542  -28.8830   23.2894 C   0  0  0  0  0  0
  -18.9462  -30.1421   23.8923 C   0  0  0  0  0  0
  -17.6470  -30.6573   24.0559 C   0  0  0  0  0  0
  -25.9057  -34.9474   23.5136 C   0  0  0  0  0  0
  -16.5362  -29.9078   23.6318 C   0  0  0  0  0  0
  -16.7269  -28.6480   23.0365 C   0  0  0  0  0  0
  -26.4485  -31.6609   25.0772 C   0  0  0  0  0  0
  -25.3722  -31.3769   26.1506 C   0  0  0  0  0  0
  -27.0337  -30.3037   24.6225 C   0  0  0  0  0  0
  -27.6063  -32.4348   25.7519 C   0  0  0  0  0  0
  -27.5578  -37.1790   24.8464 C   0  0  0  0  0  0
  -21.4183  -29.3040   22.3711 N   0  0  0  0  0  0
  -26.4275  -37.3804   23.9435 N   0  0  0  0  0  0
  -24.6812  -31.0703   22.1037 N   0  0  0  0  0  0
  -23.4210  -28.8191   23.3047 O   0  0  0  0  0  0
  -28.3107  -26.4872   20.1121 O   0  0  0  0  0  0
  -26.5604  -34.8924   22.4702 O   0  0  0  0  0  0
  -23.5410  -32.1467   23.7438 O   0  0  0  0  0  0
  -29.1786  -19.2745   20.2513 C   0  0  0  0  0  0
  -31.2032  -18.4437   21.3002 C   0  0  0  0  0  0
  -30.8255  -20.8522   21.1032 C   0  0  0  0  0  0
  -29.9809  -18.1540   20.6665 C   0  0  0  0  0  0
  -29.5628  -20.6470   20.4940 C   0  0  0  0  0  0
  -31.6545  -19.7666   21.4599 C   0  0  0  0  0  0
  -28.5277  -24.0932   19.3224 C   0  0  0  0  0  0
  -29.7294  -16.6818   20.3689 C   0  0  0  0  0  0
  -28.3184  -25.4417   19.1879 C   0  0  0  0  0  0
  -28.3109  -23.1828   18.1398 C   0  0  0  0  0  0
  -28.4891  -21.7392   18.6210 C   0  0  0  0  0  0
  -28.9086  -23.1874   20.5090 C   0  0  1  0  0  0
  -28.0888  -23.5047   21.7712 C   0  0  0  0  0  0
  -34.0100  -19.5411   19.7134 C   0  0  0  0  0  0
  -33.8528  -20.4747   20.9303 C   0  0  0  0  0  0
  -30.0902  -15.6963   21.1353 N   0  0  0  0  0  0
  -28.7690  -21.7645   20.0567 N   0  0  0  0  0  0
  -32.9428  -19.9518   21.9035 O   0  0  0  0  0  0
  -31.4693  -12.4793   19.1318 H   0  0  0  0  0  0
  -30.3738  -11.3822   19.8929 H   0  0  0  0  0  0
  -29.7665  -11.7414   17.4720 H   0  0  0  0  0  0
  -29.6636  -13.4629   17.7316 H   0  0  0  0  0  0
  -27.8707  -11.2934   18.8805 H   0  0  0  0  0  0
  -27.3828  -12.5521   17.7849 H   0  0  0  0  0  0
  -27.6716  -14.2597   19.5143 H   0  0  0  0  0  0
  -28.7179  -12.0874   21.4097 H   0  0  0  0  0  0
  -28.4605  -13.7685   21.8173 H   0  0  0  0  0  0
  -25.2780   -9.5662   22.4788 H   0  0  0  0  0  0
  -23.9979   -7.4642   22.7492 H   0  0  0  0  0  0
  -21.0836   -8.8821   19.9015 H   0  0  0  0  0  0
  -22.3696  -10.9710   19.6202 H   0  0  0  0  0  0
  -21.2084   -7.6197   23.9789 H   0  0  0  0  0  0
  -21.1461   -6.0526   25.9100 H   0  0  0  0  0  0
  -22.0586   -2.7650   23.2804 H   0  0  0  0  0  0
  -22.3941  -12.0030   22.4988 H   0  0  0  0  0  0
  -21.1094  -13.1475   22.2528 H   0  0  0  0  0  0
  -24.6550  -15.8383   20.5822 H   0  0  0  0  0  0
  -26.2774  -15.6524   20.1522 H   0  0  0  0  0  0
  -26.7192  -32.5484   23.1165 H   0  0  0  0  0  0
  -25.0116  -33.9784   25.0490 H   0  0  0  0  0  0
  -22.7047  -31.3159   21.4218 H   0  0  0  0  0  0
  -23.3771  -35.9575   23.3307 H   0  0  0  0  0  0
  -24.3565  -36.8889   22.2052 H   0  0  0  0  0  0
  -23.7166  -37.6460   23.6655 H   0  0  0  0  0  0
  -26.0964  -31.5745   20.6226 H   0  0  0  0  0  0
  -26.8306  -30.8395   22.0123 H   0  0  0  0  0  0
  -28.1088  -29.0041   21.1675 H   0  0  0  0  0  0
  -25.8914  -25.9284   19.0693 H   0  0  0  0  0  0
  -23.9263  -27.3298   19.0511 H   0  0  0  0  0  0
  -23.7383  -30.6264   19.4140 H   0  0  0  0  0  0
  -22.7389  -29.2761   19.8639 H   0  0  0  0  0  0
  -25.1267  -36.1978   25.0830 H   0  0  0  0  0  0
  -20.9965  -28.3226   24.1413 H   0  0  0  0  0  0
  -20.5618  -26.2289   23.3617 H   0  0  0  0  0  0
  -21.6627  -26.7398   22.1232 H   0  0  0  0  0  0
  -19.6887  -25.6275   21.1229 H   0  0  0  0  0  0
  -19.6648  -27.3187   20.6740 H   0  0  0  0  0  0
  -17.4176  -26.6666   21.4031 H   0  0  0  0  0  0
  -18.0312  -26.0037   22.9014 H   0  0  0  0  0  0
  -19.7933  -30.7202   24.2337 H   0  0  0  0  0  0
  -17.5027  -31.6259   24.5137 H   0  0  0  0  0  0
  -15.5360  -30.2984   23.7613 H   0  0  0  0  0  0
  -15.8662  -28.0772   22.7110 H   0  0  0  0  0  0
  -24.5871  -30.7137   25.7848 H   0  0  0  0  0  0
  -24.8924  -32.2944   26.4934 H   0  0  0  0  0  0
  -25.8028  -30.8942   27.0289 H   0  0  0  0  0  0
  -26.2921  -29.6797   24.1214 H   0  0  0  0  0  0
  -27.4015  -29.7287   25.4740 H   0  0  0  0  0  0
  -27.8807  -30.4350   23.9484 H   0  0  0  0  0  0
  -27.2700  -33.3676   26.2062 H   0  0  0  0  0  0
  -28.3864  -32.6862   25.0324 H   0  0  0  0  0  0
  -28.0737  -31.8494   26.5448 H   0  0  0  0  0  0
  -28.2593  -38.0092   24.7569 H   0  0  0  0  0  0
  -28.1081  -36.2644   24.6225 H   0  0  0  0  0  0
  -27.2323  -37.1355   25.8868 H   0  0  0  0  0  0
  -20.9355  -29.8815   21.6966 H   0  0  0  0  0  0
  -26.0175  -38.2883   24.1468 H   0  0  0  0  0  0
  -28.2559  -19.0744   19.7252 H   0  0  0  0  0  0
  -31.8604  -17.6268   21.5704 H   0  0  0  0  0  0
  -31.2021  -21.8506   21.2553 H   0  0  0  0  0  0
  -29.2855  -16.4669   19.3897 H   0  0  0  0  0  0
  -28.0469  -25.8193   18.2112 H   0  0  0  0  0  0
  -29.0089  -23.4256   17.3366 H   0  0  0  0  0  0
  -27.2996  -23.3152   17.7525 H   0  0  0  0  0  0
  -29.3024  -21.2654   18.0666 H   0  0  0  0  0  0
  -27.5822  -21.1651   18.4223 H   0  0  0  0  0  0
  -29.9517  -23.4089   20.7274 H   0  0  0  0  0  0
  -27.0204  -23.3473   21.6184 H   0  0  0  0  0  0
  -28.2152  -24.5533   22.0531 H   0  0  0  0  0  0
  -28.4008  -22.8986   22.6216 H   0  0  0  0  0  0
  -33.0533  -19.3238   19.2381 H   0  0  0  0  0  0
  -34.4628  -18.5887   19.9997 H   0  0  0  0  0  0
  -34.6465  -20.0016   18.9537 H   0  0  0  0  0  0
  -33.5505  -21.4735   20.6119 H   0  0  0  0  0  0
  -34.8287  -20.5908   21.4088 H   0  0  0  0  0  0
  1 25  1  0  0  0
  1 30  2  0  0  0
  1 86  1  0  0  0
  2  3  1  0  0  0
  2 25  1  0  0  0
  2 89  1  0  0  0
  2 90  1  0  0  0
  3  4  1  0  0  0
  3 91  1  0  0  0
  3 92  1  0  0  0
  4  5  1  0  0  0
  4 93  1  0  0  0
  4 94  1  0  0  0
  5  6  1  0  0  0
  5 26  1  0  0  0
  5 95  1  0  0  0
  6 25  1  0  0  0
  6 96  1  0  0  0
  6 97  1  0  0  0
  7  8  2  0  0  0
  7 26  1  0  0  0
  7 29  1  0  0  0
  8  9  1  0  0  0
  8 22  1  0  0  0
  9 10  1  0  0  0
  9 27  2  0  0  0
 10 11  2  0  0  0
 10 15  1  0  0  0
 11 12  1  0  0  0
 11 98  1  0  0  0
 12 13  2  0  0  0
 12 99  1  0  0  0
 13 14  1  0  0  0
 13 31  1  0  0  0
 14 15  2  0  0  0
 14100  1  0  0  0
 15101  1  0  0  0
 16 17  2  0  0  0
 16 21  1  0  0  0
 16 31  1  0  0  0
 17 18  1  0  0  0
 17102  1  0  0  0
 18 19  2  0  0  0
 18103  1  0  0  0
 19 20  1  0  0  0
 19 24  1  0  0  0
 20 21  2  0  0  0
 20104  1  0  0  0
 21 23  1  0  0  0
 22 28  1  0  0  0
 22 32  2  0  0  0
 26 27  1  0  0  0
 28105  1  0  0  0
 28106  1  0  0  0
 29107  1  0  0  0
 29108  1  0  0  0
 33 34  1  0  0  0
 33 66  1  0  0  0
 33 70  2  0  0  0
 34 36  1  0  0  0
 34 59  1  0  0  0
 34109  1  0  0  0
 35 44  2  0  0  0
 35 45  1  0  0  0
 35 68  1  0  0  0
 36 56  1  0  0  0
 36110  1  0  0  0
 37 39  1  0  0  0
 37 47  1  0  0  0
 37 66  1  0  0  0
 37111  1  0  0  0
 38 43  2  0  0  0
 38 46  1  0  0  0
 38 47  1  0  0  0
 39 64  1  0  0  0
 39 67  2  0  0  0
 40 52  1  0  0  0
 40 53  2  0  0  0
 40 58  1  0  0  0
 41112  1  0  0  0
 41113  1  0  0  0
 41114  1  0  0  0
 41 48  1  0  0  0
 42 43  1  0  0  0
 42 66  1  0  0  0
 42115  1  0  0  0
 42116  1  0  0  0
 43 44  1  0  0  0
 44117  1  0  0  0
 45 46  2  0  0  0
 45118  1  0  0  0
 46119  1  0  0  0
 47120  1  0  0  0
 47121  1  0  0  0
 48 56  1  0  0  0
 48 65  1  0  0  0
 48122  1  0  0  0
 49 50  1  0  0  0
 49 53  1  0  0  0
 49 64  1  0  0  0
 49123  1  0  0  0
 50 51  1  0  0  0
 50124  1  0  0  0
 50125  1  0  0  0
 51 52  1  0  0  0
 51126  1  0  0  0
 51127  1  0  0  0
 52128  1  0  0  0
 52129  1  0  0  0
 53 54  1  0  0  0
 54 55  2  0  0  0
 54130  1  0  0  0
 55 57  1  0  0  0
 55131  1  0  0  0
 56 69  2  0  0  0
 57 58  2  0  0  0
 57132  1  0  0  0
 58133  1  0  0  0
 59 60  1  0  0  0
 59 61  1  0  0  0
 59 62  1  0  0  0
 60134  1  0  0  0
 60135  1  0  0  0
 60136  1  0  0  0
 61137  1  0  0  0
 61138  1  0  0  0
 61139  1  0  0  0
 62140  1  0  0  0
 62141  1  0  0  0
 62142  1  0  0  0
 63 65  1  0  0  0
 63143  1  0  0  0
 63144  1  0  0  0
 63145  1  0  0  0
 64146  1  0  0  0
 65147  1  0  0  0
 68 79  1  0  0  0
 71 74  2  0  0  0
 71 75  1  0  0  0
 71148  1  0  0  0
 72 74  1  0  0  0
 72 76  2  0  0  0
 72149  1  0  0  0
 73 75  2  0  0  0
 73 76  1  0  0  0
 73150  1  0  0  0
 74 78  1  0  0  0
 75 87  1  0  0  0
 76 88  1  0  0  0
 77 79  2  0  0  0
 77 80  1  0  0  0
 77 82  1  0  0  0
 78 86  2  0  0  0
 78151  1  0  0  0
 79152  1  0  0  0
 80 81  1  0  0  0
 80153  1  0  0  0
 80154  1  0  0  0
 81 87  1  0  0  0
 81155  1  0  0  0
 81156  1  0  0  0
 82 83  1  0  0  0
 82 87  1  0  0  0
 82157  1  0  0  0
 83158  1  0  0  0
 83159  1  0  0  0
 83160  1  0  0  0
 84 85  1  0  0  0
 84161  1  0  0  0
 84162  1  0  0  0
 84163  1  0  0  0
 85 88  1  0  0  0
 85164  1  0  0  0
 85165  1  0  0  0
M  ISO  4   1 100  68 101  79 101  86 100
M  END
> <chiral flag>
0

> <version>
0

> <s_m_source_file>
/data/baiqing/PycharmProjects/Reinvent-master-3.2/result/LINK_invent/BTK/process_docking_weight1_custom_product_contain_oxygen_bond_distance_aromatic_linkinvent_7_9_3/rearranged_h_0119.sdf

> <i_m_source_file_index>
16

> <r_mmod_Potential_Energy-OPLS-2005>
143.277984619141

> <r_mmod_Stretch_Energy-OPLS-2005>
69.4537887573242

> <r_mmod_Bend_Energy-OPLS-2005>
170.548370361328

> <r_mmod_Torsional_Energy-OPLS-2005>
286.273651123047

> <r_mmod_Improper_Torsional_Energy-OPLS-2005>
7.28232383728027

> <r_mmod_Van_der_Waal_Energy-OPLS-2005>
152.403991699219

> <r_mmod_Electrostatic_Energy-OPLS-2005>
-381.465667724609

> <r_mmod_Solvation_Energy-OPLS-2005>
-200.102462768555

> <b_mmod_Minimization_Converged-OPLS-2005>
0

> <r_mmod_RMS_Derivative-OPLS-2005>
6.08145618438721

$$$$
16
                    3D
 Structure written by MMmdl.
160168  0  0  1  0            999 V2000
  -30.7117  -14.4420   20.5990 C   0  0  0  0  0  0
  -30.4200  -12.3023   19.4031 C   0  0  0  0  0  0
  -29.4878  -12.5199   18.1943 C   0  0  0  0  0  0
  -28.0106  -12.3757   18.6116 C   0  0  0  0  0  0
  -27.6626  -13.2042   19.8774 C   0  0  2  0  0  0
  -28.7059  -12.9659   20.9918 C   0  0  0  0  0  0
  -25.2598  -13.8154   20.5682 C   0  0  0  0  0  0
  -24.1850  -13.0440   20.9173 C   0  0  0  0  0  0
  -24.6401  -11.6905   20.8732 C   0  0  0  0  0  0
  -23.9066  -10.4293   21.0409 C   0  0  0  0  0  0
  -24.3619   -9.4208   21.9186 C   0  0  0  0  0  0
  -23.6294   -8.2244   22.0755 C   0  0  0  0  0  0
  -22.4277   -8.0287   21.3546 C   0  0  0  0  0  0
  -21.9918   -9.0260   20.4645 C   0  0  0  0  0  0
  -22.7244  -10.2136   20.3054 C   0  0  0  0  0  0
  -21.6848   -6.0740   22.5276 C   0  0  0  0  0  0
  -21.4014   -6.5645   23.8214 C   0  0  0  0  0  0
  -21.3663   -5.6797   24.9177 C   0  0  0  0  0  0
  -21.6042   -4.3059   24.7224 C   0  0  0  0  0  0
  -21.8819   -3.8151   23.4347 C   0  0  0  0  0  0
  -21.9198   -4.6966   22.3404 C   0  0  0  0  0  0
  -22.7872  -13.5236   21.1842 C   0  0  0  0  0  0
  -22.1662   -4.2152   21.0977 F   0  0  0  0  0  0
  -21.5634   -3.4545   25.7737 F   0  0  0  0  0  0
  -30.0359  -13.2731   20.4379 N   0  0  0  0  0  0
  -26.3035  -12.9321   20.3380 N   0  0  0  0  0  0
  -25.9325  -11.6480   20.5770 N   0  0  0  0  0  0
  -22.0518  -12.8221   22.0394 N   0  0  0  0  0  0
  -25.4340  -15.1873   20.4090 N   0  0  0  0  0  0
  -31.8319  -14.6450   20.1238 O   0  0  0  0  0  0
  -21.6642   -6.8885   21.4241 O   0  0  0  0  0  0
  -22.3564  -14.5558   20.6712 O   0  0  0  0  0  0
  -24.6148  -31.8678   23.2116 C   0  0  0  0  0  0
  -25.9041  -32.4832   23.8403 C   0  0  1  0  0  0
  -27.2319  -27.4370   20.0791 C   0  0  0  0  0  0
  -25.5877  -33.8616   24.2327 N   0  0  0  0  0  0
  -23.4011  -30.4957   21.5529 C   0  0  2  0  0  0
  -24.8436  -28.9613   20.1172 C   0  0  0  0  0  0
  -22.7411  -29.4662   22.4988 C   0  0  0  0  0  0
  -18.0268  -28.1387   22.8497 C   0  0  0  0  0  0
  -24.1471  -36.7329   23.2649 C   0  0  0  0  0  0
  -25.9315  -30.8317   21.3664 C   0  0  0  0  0  0
  -26.0043  -29.4669   20.7124 C   0  0  0  0  0  0
  -27.1980  -28.7114   20.6917 C   0  0  0  0  0  0
  -26.0437  -26.9398   19.4918 C   0  0  0  0  0  0
  -24.8579  -27.6972   19.5050 C   0  0  0  0  0  0
  -23.6080  -29.8304   20.1663 C   0  0  0  0  0  0
  -25.4095  -36.3109   24.0337 C   0  0  1  0  0  0
  -20.5862  -28.3667   23.1330 C   0  0  2  0  0  0
  -20.6767  -26.9408   22.5421 C   0  0  0  0  0  0
  -19.5747  -26.6384   21.5224 C   0  0  0  0  0  0
  -18.1919  -26.7944   22.1622 C   0  0  0  0  0  0
  -19.1519  -28.8842   23.2918 C   0  0  0  0  0  0
  -18.9442  -30.1446   23.8933 C   0  0  0  0  0  0
  -17.6448  -30.6604   24.0562 C   0  0  0  0  0  0
  -25.9012  -34.9469   23.5128 C   0  0  0  0  0  0
  -16.5333  -29.9105   23.6331 C   0  0  0  0  0  0
  -16.7257  -28.6514   23.0359 C   0  0  0  0  0  0
  -26.4465  -31.6636   25.0749 C   0  0  0  0  0  0
  -25.3709  -31.3747   26.1487 C   0  0  0  0  0  0
  -27.0336  -30.3084   24.6153 C   0  0  0  0  0  0
  -27.6019  -32.4390   25.7511 C   0  0  0  0  0  0
  -27.5580  -37.1815   24.8458 C   0  0  0  0  0  0
  -21.4136  -29.3042   22.3742 N   0  0  0  0  0  0
  -26.4285  -37.3791   23.9407 N   0  0  0  0  0  0
  -24.6672  -31.0793   22.1015 N   0  0  0  0  0  0
  -23.4195  -28.8176   23.2995 O   0  0  0  0  0  0
  -28.4320  -26.7513   20.0706 O   0  0  0  0  0  0
  -26.5578  -34.8924   22.4691 O   0  0  0  0  0  0
  -23.5333  -32.1421   23.7499 O   0  0  0  0  0  0
  -30.2033  -18.6240   18.1765 C   0  0  0  0  0  0
  -30.3389  -17.5872   19.1200 C   0  0  0  0  0  0
  -29.9659  -19.1823   20.9146 C   0  0  0  0  0  0
  -29.9561  -19.9540   18.5862 C   0  0  0  0  0  0
  -30.2372  -17.8555   20.5015 C   0  0  0  0  0  0
  -29.8267  -20.2280   19.9694 C   0  0  0  0  0  0
  -29.9760  -20.9637   16.2727 C   0  0  0  0  0  0
  -29.8381  -21.0551   17.6068 C   0  0  0  0  0  0
  -28.2257  -24.3764   20.6890 C   0  0  0  0  0  0
  -30.4961  -16.7645   21.5487 C   0  0  0  0  0  0
  -27.6844  -23.0005   20.2771 C   0  0  0  0  0  0
  -28.4909  -25.4040   19.5726 C   0  0  0  0  0  0
  -28.3583  -21.7991   20.9782 C   0  0  0  0  0  0
  -30.0240  -15.4159   21.2157 N   0  0  0  0  0  0
  -28.4270  -24.6536   21.8763 O   0  0  0  0  0  0
  -29.6253  -21.5267   20.3818 O   0  0  0  0  0  0
  -31.4637  -12.4032   19.1002 H   0  0  0  0  0  0
  -30.3155  -11.2861   19.7867 H   0  0  0  0  0  0
  -29.7221  -11.8104   17.3999 H   0  0  0  0  0  0
  -29.6533  -13.5136   17.7743 H   0  0  0  0  0  0
  -27.8192  -11.3182   18.7981 H   0  0  0  0  0  0
  -27.3564  -12.6606   17.7866 H   0  0  0  0  0  0
  -27.7134  -14.2553   19.5921 H   0  0  0  0  0  0
  -28.6818  -11.9251   21.3189 H   0  0  0  0  0  0
  -28.4687  -13.5502   21.8816 H   0  0  0  0  0  0
  -25.2767   -9.5684   22.4765 H   0  0  0  0  0  0
  -24.0005   -7.4637   22.7475 H   0  0  0  0  0  0
  -21.0855   -8.8786   19.8944 H   0  0  0  0  0  0
  -22.3716  -10.9683   19.6165 H   0  0  0  0  0  0
  -21.2003   -7.6152   23.9717 H   0  0  0  0  0  0
  -21.1484   -6.0527   25.9078 H   0  0  0  0  0  0
  -22.0599   -2.7614   23.2846 H   0  0  0  0  0  0
  -22.4136  -11.9855   22.4734 H   0  0  0  0  0  0
  -21.1143  -13.1248   22.2627 H   0  0  0  0  0  0
  -24.6686  -15.8446   20.5117 H   0  0  0  0  0  0
  -26.2920  -15.6249   20.0969 H   0  0  0  0  0  0
  -26.7115  -32.5528   23.1174 H   0  0  0  0  0  0
  -24.9993  -33.9753   25.0446 H   0  0  0  0  0  0
  -22.6898  -31.3128   21.4170 H   0  0  0  0  0  0
  -23.3728  -35.9670   23.3292 H   0  0  0  0  0  0
  -24.3558  -36.8968   22.2072 H   0  0  0  0  0  0
  -23.7233  -37.6525   23.6685 H   0  0  0  0  0  0
  -26.0466  -31.5943   20.5940 H   0  0  0  0  0  0
  -26.8200  -30.8826   21.9845 H   0  0  0  0  0  0
  -28.0967  -29.1032   21.1481 H   0  0  0  0  0  0
  -25.9973  -25.9767   19.0086 H   0  0  0  0  0  0
  -23.9644  -27.3054   19.0394 H   0  0  0  0  0  0
  -23.7195  -30.6076   19.4096 H   0  0  0  0  0  0
  -22.7314  -29.2543   19.8679 H   0  0  0  0  0  0
  -25.1278  -36.1962   25.0834 H   0  0  0  0  0  0
  -20.9946  -28.3233   24.1453 H   0  0  0  0  0  0
  -20.5698  -26.2259   23.3591 H   0  0  0  0  0  0
  -21.6633  -26.7475   22.1193 H   0  0  0  0  0  0
  -19.6897  -25.6294   21.1256 H   0  0  0  0  0  0
  -19.6705  -27.3180   20.6748 H   0  0  0  0  0  0
  -17.4199  -26.6689   21.4025 H   0  0  0  0  0  0
  -18.0303  -26.0094   22.9016 H   0  0  0  0  0  0
  -19.7906  -30.7249   24.2338 H   0  0  0  0  0  0
  -17.4996  -31.6296   24.5144 H   0  0  0  0  0  0
  -15.5328  -30.3009   23.7660 H   0  0  0  0  0  0
  -15.8643  -28.0840   22.7083 H   0  0  0  0  0  0
  -24.5859  -30.7124   25.7813 H   0  0  0  0  0  0
  -24.8920  -32.2915   26.4947 H   0  0  0  0  0  0
  -25.8039  -30.8898   27.0247 H   0  0  0  0  0  0
  -26.2940  -29.6822   24.1157 H   0  0  0  0  0  0
  -27.4077  -29.7335   25.4631 H   0  0  0  0  0  0
  -27.8752  -30.4437   23.9360 H   0  0  0  0  0  0
  -27.2638  -33.3697   26.2081 H   0  0  0  0  0  0
  -28.3825  -32.6949   25.0339 H   0  0  0  0  0  0
  -28.0693  -31.8533   26.5437 H   0  0  0  0  0  0
  -28.2568  -38.0137   24.7531 H   0  0  0  0  0  0
  -28.1106  -36.2670   24.6253 H   0  0  0  0  0  0
  -27.2294  -37.1419   25.8855 H   0  0  0  0  0  0
  -20.9271  -29.8786   21.6989 H   0  0  0  0  0  0
  -26.0166  -38.2868   24.1403 H   0  0  0  0  0  0
  -30.3108  -18.3781   17.1309 H   0  0  0  0  0  0
  -30.5544  -16.5910   18.7627 H   0  0  0  0  0  0
  -29.8998  -19.4117   21.9693 H   0  0  0  0  0  0
  -29.8640  -21.8423   15.6530 H   0  0  0  0  0  0
  -30.2005  -20.0375   15.7659 H   0  0  0  0  0  0
  -29.6161  -22.0337   18.0080 H   0  0  0  0  0  0
  -30.0170  -17.0490   22.4870 H   0  0  0  0  0  0
  -31.5674  -16.7376   21.7597 H   0  0  0  0  0  0
  -27.7366  -22.8877   19.1953 H   0  0  0  0  0  0
  -26.6238  -22.9990   20.5285 H   0  0  0  0  0  0
  -27.8515  -25.2352   18.7075 H   0  0  0  0  0  0
  -29.5066  -25.2368   19.2144 H   0  0  0  0  0  0
  -27.6930  -20.9364   20.9059 H   0  0  0  0  0  0
  -28.4980  -21.9837   22.0443 H   0  0  0  0  0  0
  -29.0980  -15.1730   21.5327 H   0  0  0  0  0  0
  1 25  1  0  0  0
  1 30  2  0  0  0
  1 84  1  0  0  0
  2  3  1  0  0  0
  2 25  1  0  0  0
  2 87  1  0  0  0
  2 88  1  0  0  0
  3  4  1  0  0  0
  3 89  1  0  0  0
  3 90  1  0  0  0
  4  5  1  0  0  0
  4 91  1  0  0  0
  4 92  1  0  0  0
  5  6  1  0  0  0
  5 26  1  0  0  0
  5 93  1  0  0  0
  6 25  1  0  0  0
  6 94  1  0  0  0
  6 95  1  0  0  0
  7  8  2  0  0  0
  7 26  1  0  0  0
  7 29  1  0  0  0
  8  9  1  0  0  0
  8 22  1  0  0  0
  9 10  1  0  0  0
  9 27  2  0  0  0
 10 11  2  0  0  0
 10 15  1  0  0  0
 11 12  1  0  0  0
 11 96  1  0  0  0
 12 13  2  0  0  0
 12 97  1  0  0  0
 13 14  1  0  0  0
 13 31  1  0  0  0
 14 15  2  0  0  0
 14 98  1  0  0  0
 15 99  1  0  0  0
 16 17  2  0  0  0
 16 21  1  0  0  0
 16 31  1  0  0  0
 17 18  1  0  0  0
 17100  1  0  0  0
 18 19  2  0  0  0
 18101  1  0  0  0
 19 20  1  0  0  0
 19 24  1  0  0  0
 20 21  2  0  0  0
 20102  1  0  0  0
 21 23  1  0  0  0
 22 28  1  0  0  0
 22 32  2  0  0  0
 26 27  1  0  0  0
 28103  1  0  0  0
 28104  1  0  0  0
 29105  1  0  0  0
 29106  1  0  0  0
 33 34  1  0  0  0
 33 66  1  0  0  0
 33 70  2  0  0  0
 34 36  1  0  0  0
 34 59  1  0  0  0
 34107  1  0  0  0
 35 44  2  0  0  0
 35 45  1  0  0  0
 35 68  1  0  0  0
 36 56  1  0  0  0
 36108  1  0  0  0
 37 39  1  0  0  0
 37 47  1  0  0  0
 37 66  1  0  0  0
 37109  1  0  0  0
 38 43  2  0  0  0
 38 46  1  0  0  0
 38 47  1  0  0  0
 39 64  1  0  0  0
 39 67  2  0  0  0
 40 52  1  0  0  0
 40 53  2  0  0  0
 40 58  1  0  0  0
 41110  1  0  0  0
 41111  1  0  0  0
 41112  1  0  0  0
 41 48  1  0  0  0
 42 43  1  0  0  0
 42 66  1  0  0  0
 42113  1  0  0  0
 42114  1  0  0  0
 43 44  1  0  0  0
 44115  1  0  0  0
 45 46  2  0  0  0
 45116  1  0  0  0
 46117  1  0  0  0
 47118  1  0  0  0
 47119  1  0  0  0
 48 56  1  0  0  0
 48 65  1  0  0  0
 48120  1  0  0  0
 49 50  1  0  0  0
 49 53  1  0  0  0
 49 64  1  0  0  0
 49121  1  0  0  0
 50 51  1  0  0  0
 50122  1  0  0  0
 50123  1  0  0  0
 51 52  1  0  0  0
 51124  1  0  0  0
 51125  1  0  0  0
 52126  1  0  0  0
 52127  1  0  0  0
 53 54  1  0  0  0
 54 55  2  0  0  0
 54128  1  0  0  0
 55 57  1  0  0  0
 55129  1  0  0  0
 56 69  2  0  0  0
 57 58  2  0  0  0
 57130  1  0  0  0
 58131  1  0  0  0
 59 60  1  0  0  0
 59 61  1  0  0  0
 59 62  1  0  0  0
 60132  1  0  0  0
 60133  1  0  0  0
 60134  1  0  0  0
 61135  1  0  0  0
 61136  1  0  0  0
 61137  1  0  0  0
 62138  1  0  0  0
 62139  1  0  0  0
 62140  1  0  0  0
 63 65  1  0  0  0
 63141  1  0  0  0
 63142  1  0  0  0
 63143  1  0  0  0
 64144  1  0  0  0
 65145  1  0  0  0
 68 82  1  0  0  0
 71 72  2  0  0  0
 71 74  1  0  0  0
 71146  1  0  0  0
 72 75  1  0  0  0
 72147  1  0  0  0
 73 75  2  0  0  0
 73 76  1  0  0  0
 73148  1  0  0  0
 74 76  2  0  0  0
 74 78  1  0  0  0
 75 80  1  0  0  0
 76 86  1  0  0  0
 77 78  2  0  0  0
 77149  1  0  0  0
 77150  1  0  0  0
 78151  1  0  0  0
 79 81  1  0  0  0
 79 82  1  0  0  0
 79 85  2  0  0  0
 80 84  1  0  0  0
 80152  1  0  0  0
 80153  1  0  0  0
 81 83  1  0  0  0
 81154  1  0  0  0
 81155  1  0  0  0
 82156  1  0  0  0
 82157  1  0  0  0
 83 86  1  0  0  0
 83158  1  0  0  0
 83159  1  0  0  0
 84160  1  0  0  0
M  ISO  4   1 100  68 101  82 101  84 100
M  END
> <chiral flag>
0

> <version>
0

> <s_m_source_file>
/data/baiqing/PycharmProjects/Reinvent-master-3.2/result/LINK_invent/BTK/process_docking_weight1_custom_product_contain_oxygen_bond_distance_aromatic_linkinvent_7_9_3/rearranged_h_0119.sdf

> <i_m_source_file_index>
17

> <r_mmod_Potential_Energy-OPLS-2005>
-120.084922790527

> <r_mmod_Stretch_Energy-OPLS-2005>
36.4586181640625

> <r_mmod_Bend_Energy-OPLS-2005>
101.653831481934

> <r_mmod_Torsional_Energy-OPLS-2005>
208.950408935547

> <r_mmod_Improper_Torsional_Energy-OPLS-2005>
2.95627045631409

> <r_mmod_Van_der_Waal_Energy-OPLS-2005>
155.798706054688

> <r_mmod_Electrostatic_Energy-OPLS-2005>
-401.417144775391

> <r_mmod_Solvation_Energy-OPLS-2005>
-235.433807373047

> <b_mmod_Minimization_Converged-OPLS-2005>
0

> <r_mmod_RMS_Derivative-OPLS-2005>
1.97178387641907

$$$$
17
                    3D
 Structure written by MMmdl.
163171  0  0  1  0            999 V2000
  -30.6643  -14.5752   20.5610 C   0  0  0  0  0  0
  -30.4409  -12.3632   19.4596 C   0  0  0  0  0  0
  -29.5136  -12.5308   18.2342 C   0  0  0  0  0  0
  -28.0384  -12.3651   18.6463 C   0  0  0  0  0  0
  -27.6726  -13.2056   19.8982 C   0  0  2  0  0  0
  -28.7131  -12.9967   21.0193 C   0  0  0  0  0  0
  -25.2628  -13.8090   20.5692 C   0  0  0  0  0  0
  -24.1898  -13.0396   20.9176 C   0  0  0  0  0  0
  -24.6451  -11.6854   20.8776 C   0  0  0  0  0  0
  -23.9103  -10.4276   21.0447 C   0  0  0  0  0  0
  -24.3649   -9.4208   21.9220 C   0  0  0  0  0  0
  -23.6317   -8.2261   22.0793 C   0  0  0  0  0  0
  -22.4303   -8.0301   21.3572 C   0  0  0  0  0  0
  -21.9937   -9.0284   20.4682 C   0  0  0  0  0  0
  -22.7278  -10.2149   20.3094 C   0  0  0  0  0  0
  -21.6868   -6.0757   22.5287 C   0  0  0  0  0  0
  -21.4029   -6.5662   23.8209 C   0  0  0  0  0  0
  -21.3668   -5.6817   24.9174 C   0  0  0  0  0  0
  -21.6034   -4.3075   24.7226 C   0  0  0  0  0  0
  -21.8820   -3.8170   23.4345 C   0  0  0  0  0  0
  -21.9206   -4.6988   22.3406 C   0  0  0  0  0  0
  -22.7935  -13.5235   21.1820 C   0  0  0  0  0  0
  -22.1680   -4.2181   21.0977 F   0  0  0  0  0  0
  -21.5629   -3.4553   25.7724 F   0  0  0  0  0  0
  -30.0331  -13.3597   20.4710 N   0  0  0  0  0  0
  -26.3118  -12.9279   20.3491 N   0  0  0  0  0  0
  -25.9387  -11.6444   20.5858 N   0  0  0  0  0  0
  -22.0587  -12.8238   22.0370 N   0  0  0  0  0  0
  -25.4205  -15.1782   20.3985 N   0  0  0  0  0  0
  -31.7870  -14.7353   20.0706 O   0  0  0  0  0  0
  -21.6660   -6.8907   21.4250 O   0  0  0  0  0  0
  -22.3658  -14.5602   20.6728 O   0  0  0  0  0  0
  -24.6172  -31.8637   23.2033 C   0  0  0  0  0  0
  -25.9055  -32.4794   23.8358 C   0  0  1  0  0  0
  -27.2522  -27.4105   20.1019 C   0  0  0  0  0  0
  -25.5888  -33.8588   24.2293 N   0  0  0  0  0  0
  -23.4067  -30.4829   21.5462 C   0  0  2  0  0  0
  -24.8560  -28.9359   20.1220 C   0  0  0  0  0  0
  -22.7413  -29.4647   22.4986 C   0  0  0  0  0  0
  -18.0272  -28.1385   22.8498 C   0  0  0  0  0  0
  -24.1477  -36.7304   23.2642 C   0  0  0  0  0  0
  -25.9349  -30.8223   21.3570 C   0  0  0  0  0  0
  -26.0151  -29.4527   20.7092 C   0  0  0  0  0  0
  -27.2115  -28.7002   20.6914 C   0  0  0  0  0  0
  -26.0635  -26.9019   19.5242 C   0  0  0  0  0  0
  -24.8759  -27.6604   19.5310 C   0  0  0  0  0  0
  -23.6153  -29.8020   20.1672 C   0  0  0  0  0  0
  -25.4102  -36.3088   24.0332 C   0  0  1  0  0  0
  -20.5863  -28.3669   23.1318 C   0  0  2  0  0  0
  -20.6757  -26.9403   22.5428 C   0  0  0  0  0  0
  -19.5741  -26.6392   21.5220 C   0  0  0  0  0  0
  -18.1917  -26.7938   22.1632 C   0  0  0  0  0  0
  -19.1518  -28.8846   23.2905 C   0  0  0  0  0  0
  -18.9460  -30.1444   23.8917 C   0  0  0  0  0  0
  -17.6457  -30.6591   24.0580 C   0  0  0  0  0  0
  -25.9036  -34.9454   23.5110 C   0  0  0  0  0  0
  -16.5350  -29.9098   23.6326 C   0  0  0  0  0  0
  -16.7255  -28.6521   23.0349 C   0  0  0  0  0  0
  -26.4474  -31.6578   25.0693 C   0  0  0  0  0  0
  -25.3721  -31.3677   26.1424 C   0  0  0  0  0  0
  -27.0333  -30.3021   24.6091 C   0  0  0  0  0  0
  -27.6047  -32.4300   25.7448 C   0  0  0  0  0  0
  -27.5574  -37.1801   24.8464 C   0  0  0  0  0  0
  -21.4143  -29.3036   22.3721 N   0  0  0  0  0  0
  -26.4287  -37.3780   23.9405 N   0  0  0  0  0  0
  -24.6711  -31.0727   22.0936 N   0  0  0  0  0  0
  -23.4163  -28.8198   23.3062 O   0  0  0  0  0  0
  -28.4570  -26.7244   20.1128 O   0  0  0  0  0  0
  -26.5616  -34.8925   22.4682 O   0  0  0  0  0  0
  -23.5365  -32.1395   23.7429 O   0  0  0  0  0  0
  -28.1926  -19.5233   23.1655 C   0  0  0  0  0  0
  -29.4724  -19.4634   20.7110 C   0  0  0  0  0  0
  -28.2169  -20.7063   22.3997 C   0  0  0  0  0  0
  -29.4756  -18.2554   21.4845 C   0  0  0  0  0  0
  -28.8113  -18.3207   22.7500 C   0  0  0  0  0  0
  -28.8749  -20.6900   21.1450 C   0  0  0  0  0  0
  -26.2595  -21.9426   23.3593 C   0  0  0  0  0  0
  -27.5309  -21.9029   22.9198 C   0  0  0  0  0  0
  -30.1402  -17.0172   20.9091 C   0  0  0  0  0  0
  -29.9040  -15.6941   21.1682 C   0  0  0  0  0  0
  -27.4336  -16.4016   23.7261 C   0  0  0  0  0  0
  -28.7561  -17.1824   23.7647 C   0  0  0  0  0  0
  -28.5373  -24.3130   20.8233 C   0  0  0  0  0  0
  -28.6040  -25.3534   19.6681 C   0  0  0  0  0  0
  -29.4569  -23.0398   20.7105 C   0  0  0  0  0  0
  -28.8441  -21.7963   20.2916 O   0  0  0  0  0  0
  -31.4886  -12.4606   19.1734 H   0  0  0  0  0  0
  -30.3401  -11.3558   19.8684 H   0  0  0  0  0  0
  -29.7710  -11.8010   17.4671 H   0  0  0  0  0  0
  -29.6588  -13.5172   17.7874 H   0  0  0  0  0  0
  -27.8787  -11.3066   18.8524 H   0  0  0  0  0  0
  -27.3782  -12.6240   17.8194 H   0  0  0  0  0  0
  -27.7223  -14.2519   19.6020 H   0  0  0  0  0  0
  -28.7210  -11.9509   21.3369 H   0  0  0  0  0  0
  -28.4461  -13.5438   21.9226 H   0  0  0  0  0  0
  -25.2792   -9.5687   22.4801 H   0  0  0  0  0  0
  -24.0018   -7.4657   22.7513 H   0  0  0  0  0  0
  -21.0888   -8.8835   19.8985 H   0  0  0  0  0  0
  -22.3759  -10.9714   19.6236 H   0  0  0  0  0  0
  -21.2019   -7.6173   23.9720 H   0  0  0  0  0  0
  -21.1489   -6.0551   25.9075 H   0  0  0  0  0  0
  -22.0579   -2.7636   23.2830 H   0  0  0  0  0  0
  -22.4196  -11.9860   22.4713 H   0  0  0  0  0  0
  -21.1225  -13.1316   22.2620 H   0  0  0  0  0  0
  -24.6336  -15.8088   20.5060 H   0  0  0  0  0  0
  -26.2476  -15.6298   20.0317 H   0  0  0  0  0  0
  -26.7128  -32.5493   23.1121 H   0  0  0  0  0  0
  -25.0005  -33.9737   25.0414 H   0  0  0  0  0  0
  -22.6982  -31.2994   21.3994 H   0  0  0  0  0  0
  -23.3728  -35.9653   23.3314 H   0  0  0  0  0  0
  -24.3565  -36.8910   22.2058 H   0  0  0  0  0  0
  -23.7244  -37.6513   23.6656 H   0  0  0  0  0  0
  -26.0512  -31.5860   20.5866 H   0  0  0  0  0  0
  -26.8213  -30.8785   21.9774 H   0  0  0  0  0  0
  -28.1110  -29.1082   21.1343 H   0  0  0  0  0  0
  -26.0323  -25.9247   19.0693 H   0  0  0  0  0  0
  -23.9843  -27.2450   19.0881 H   0  0  0  0  0  0
  -23.7204  -30.5672   19.3963 H   0  0  0  0  0  0
  -22.7405  -29.2149   19.8793 H   0  0  0  0  0  0
  -25.1286  -36.1947   25.0829 H   0  0  0  0  0  0
  -20.9967  -28.3248   24.1431 H   0  0  0  0  0  0
  -20.5657  -26.2285   23.3624 H   0  0  0  0  0  0
  -21.6630  -26.7445   22.1223 H   0  0  0  0  0  0
  -19.6898  -25.6306   21.1239 H   0  0  0  0  0  0
  -19.6673  -27.3212   20.6760 H   0  0  0  0  0  0
  -17.4186  -26.6686   21.4022 H   0  0  0  0  0  0
  -18.0308  -26.0073   22.9025 H   0  0  0  0  0  0
  -19.7932  -30.7258   24.2297 H   0  0  0  0  0  0
  -17.5018  -31.6271   24.5186 H   0  0  0  0  0  0
  -15.5349  -30.3021   23.7641 H   0  0  0  0  0  0
  -15.8657  -28.0854   22.7051 H   0  0  0  0  0  0
  -24.5887  -30.7042   25.7708 H   0  0  0  0  0  0
  -24.8913  -32.2825   26.4883 H   0  0  0  0  0  0
  -25.8052  -30.8795   27.0164 H   0  0  0  0  0  0
  -26.2896  -29.6759   24.1155 H   0  0  0  0  0  0
  -27.4107  -29.7288   25.4567 H   0  0  0  0  0  0
  -27.8718  -30.4341   23.9249 H   0  0  0  0  0  0
  -27.2662  -33.3603   26.2043 H   0  0  0  0  0  0
  -28.3849  -32.6867   25.0266 H   0  0  0  0  0  0
  -28.0734  -31.8421   26.5359 H   0  0  0  0  0  0
  -28.2610  -38.0080   24.7493 H   0  0  0  0  0  0
  -28.1049  -36.2612   24.6307 H   0  0  0  0  0  0
  -27.2294  -37.1478   25.8868 H   0  0  0  0  0  0
  -20.9307  -29.8722   21.6905 H   0  0  0  0  0  0
  -26.0169  -38.2857   24.1394 H   0  0  0  0  0  0
  -27.7003  -19.5504   24.1289 H   0  0  0  0  0  0
  -29.9491  -19.4500   19.7406 H   0  0  0  0  0  0
  -25.8371  -22.8648   23.7379 H   0  0  0  0  0  0
  -25.6196  -21.0716   23.3485 H   0  0  0  0  0  0
  -28.1110  -22.8103   22.9897 H   0  0  0  0  0  0
  -30.9253  -17.2365   20.1972 H   0  0  0  0  0  0
  -29.1303  -15.4543   21.8598 H   0  0  0  0  0  0
  -27.3913  -15.7023   24.5611 H   0  0  0  0  0  0
  -27.3142  -15.8252   22.8114 H   0  0  0  0  0  0
  -26.5730  -17.0669   23.7954 H   0  0  0  0  0  0
  -28.8583  -17.6311   24.7524 H   0  0  0  0  0  0
  -29.6134  -16.5137   23.6870 H   0  0  0  0  0  0
  -27.5009  -24.0438   21.0237 H   0  0  0  0  0  0
  -28.8725  -24.8455   21.7122 H   0  0  0  0  0  0
  -27.9498  -25.0838   18.8419 H   0  0  0  0  0  0
  -29.6052  -25.3141   19.2394 H   0  0  0  0  0  0
  -29.9703  -22.8951   21.6604 H   0  0  0  0  0  0
  -30.2660  -23.2489   20.0097 H   0  0  0  0  0  0
  1 25  1  0  0  0
  1 30  2  0  0  0
  1 80  1  0  0  0
  2  3  1  0  0  0
  2 25  1  0  0  0
  2 87  1  0  0  0
  2 88  1  0  0  0
  3  4  1  0  0  0
  3 89  1  0  0  0
  3 90  1  0  0  0
  4  5  1  0  0  0
  4 91  1  0  0  0
  4 92  1  0  0  0
  5  6  1  0  0  0
  5 26  1  0  0  0
  5 93  1  0  0  0
  6 25  1  0  0  0
  6 94  1  0  0  0
  6 95  1  0  0  0
  7  8  2  0  0  0
  7 26  1  0  0  0
  7 29  1  0  0  0
  8  9  1  0  0  0
  8 22  1  0  0  0
  9 10  1  0  0  0
  9 27  2  0  0  0
 10 11  2  0  0  0
 10 15  1  0  0  0
 11 12  1  0  0  0
 11 96  1  0  0  0
 12 13  2  0  0  0
 12 97  1  0  0  0
 13 14  1  0  0  0
 13 31  1  0  0  0
 14 15  2  0  0  0
 14 98  1  0  0  0
 15 99  1  0  0  0
 16 17  2  0  0  0
 16 21  1  0  0  0
 16 31  1  0  0  0
 17 18  1  0  0  0
 17100  1  0  0  0
 18 19  2  0  0  0
 18101  1  0  0  0
 19 20  1  0  0  0
 19 24  1  0  0  0
 20 21  2  0  0  0
 20102  1  0  0  0
 21 23  1  0  0  0
 22 28  1  0  0  0
 22 32  2  0  0  0
 26 27  1  0  0  0
 28103  1  0  0  0
 28104  1  0  0  0
 29105  1  0  0  0
 29106  1  0  0  0
 33 34  1  0  0  0
 33 66  1  0  0  0
 33 70  2  0  0  0
 34 36  1  0  0  0
 34 59  1  0  0  0
 34107  1  0  0  0
 35 44  2  0  0  0
 35 45  1  0  0  0
 35 68  1  0  0  0
 36 56  1  0  0  0
 36108  1  0  0  0
 37 39  1  0  0  0
 37 47  1  0  0  0
 37 66  1  0  0  0
 37109  1  0  0  0
 38 43  2  0  0  0
 38 46  1  0  0  0
 38 47  1  0  0  0
 39 64  1  0  0  0
 39 67  2  0  0  0
 40 52  1  0  0  0
 40 53  2  0  0  0
 40 58  1  0  0  0
 41110  1  0  0  0
 41111  1  0  0  0
 41112  1  0  0  0
 41 48  1  0  0  0
 42 43  1  0  0  0
 42 66  1  0  0  0
 42113  1  0  0  0
 42114  1  0  0  0
 43 44  1  0  0  0
 44115  1  0  0  0
 45 46  2  0  0  0
 45116  1  0  0  0
 46117  1  0  0  0
 47118  1  0  0  0
 47119  1  0  0  0
 48 56  1  0  0  0
 48 65  1  0  0  0
 48120  1  0  0  0
 49 50  1  0  0  0
 49 53  1  0  0  0
 49 64  1  0  0  0
 49121  1  0  0  0
 50 51  1  0  0  0
 50122  1  0  0  0
 50123  1  0  0  0
 51 52  1  0  0  0
 51124  1  0  0  0
 51125  1  0  0  0
 52126  1  0  0  0
 52127  1  0  0  0
 53 54  1  0  0  0
 54 55  2  0  0  0
 54128  1  0  0  0
 55 57  1  0  0  0
 55129  1  0  0  0
 56 69  2  0  0  0
 57 58  2  0  0  0
 57130  1  0  0  0
 58131  1  0  0  0
 59 60  1  0  0  0
 59 61  1  0  0  0
 59 62  1  0  0  0
 60132  1  0  0  0
 60133  1  0  0  0
 60134  1  0  0  0
 61135  1  0  0  0
 61136  1  0  0  0
 61137  1  0  0  0
 62138  1  0  0  0
 62139  1  0  0  0
 62140  1  0  0  0
 63 65  1  0  0  0
 63141  1  0  0  0
 63142  1  0  0  0
 63143  1  0  0  0
 64144  1  0  0  0
 65145  1  0  0  0
 68 84  1  0  0  0
 71 73  2  0  0  0
 71 75  1  0  0  0
 71146  1  0  0  0
 72 74  1  0  0  0
 72 76  2  0  0  0
 72147  1  0  0  0
 73 76  1  0  0  0
 73 78  1  0  0  0
 74 75  2  0  0  0
 74 79  1  0  0  0
 75 82  1  0  0  0
 76 86  1  0  0  0
 77 78  2  0  0  0
 77148  1  0  0  0
 77149  1  0  0  0
 78150  1  0  0  0
 79 80  2  0  0  0
 79151  1  0  0  0
 80152  1  0  0  0
 81 82  1  0  0  0
 81153  1  0  0  0
 81154  1  0  0  0
 81155  1  0  0  0
 82156  1  0  0  0
 82157  1  0  0  0
 83 84  1  0  0  0
 83 85  1  0  0  0
 83158  1  0  0  0
 83159  1  0  0  0
 84160  1  0  0  0
 84161  1  0  0  0
 85 86  1  0  0  0
 85162  1  0  0  0
 85163  1  0  0  0
M  ISO  4   1 100  68 101  80 100  84 101
M  END
> <chiral flag>
0

> <version>
0

> <s_m_source_file>
/data/baiqing/PycharmProjects/Reinvent-master-3.2/result/LINK_invent/BTK/process_docking_weight1_custom_product_contain_oxygen_bond_distance_aromatic_linkinvent_7_9_3/rearranged_h_0119.sdf

> <i_m_source_file_index>
18

> <r_mmod_Potential_Energy-OPLS-2005>
78.5139999389648

> <r_mmod_Stretch_Energy-OPLS-2005>
59.4991645812988

> <r_mmod_Bend_Energy-OPLS-2005>
143.611968994141

> <r_mmod_Torsional_Energy-OPLS-2005>
234.122406005859

> <r_mmod_Improper_Torsional_Energy-OPLS-2005>
3.54972720146179

> <r_mmod_Van_der_Waal_Energy-OPLS-2005>
155.105041503906

> <r_mmod_Electrostatic_Energy-OPLS-2005>
-349.811126708984

> <r_mmod_Solvation_Energy-OPLS-2005>
-189.537399291992

> <b_mmod_Minimization_Converged-OPLS-2005>
0

> <r_mmod_RMS_Derivative-OPLS-2005>
5.20666599273682

$$$$
18
                    3D
 Structure written by MMmdl.
157166  0  0  1  0            999 V2000
  -30.6126  -14.7733   20.4647 C   0  0  0  0  0  0
  -30.4338  -12.4811   19.4646 C   0  0  0  0  0  0
  -29.5042  -12.4999   18.2319 C   0  0  0  0  0  0
  -28.0356  -12.3122   18.6589 C   0  0  0  0  0  0
  -27.6364  -13.2305   19.8443 C   0  0  2  0  0  0
  -28.6853  -13.1923   20.9755 C   0  0  0  0  0  0
  -25.2500  -13.8203   20.5721 C   0  0  0  0  0  0
  -24.1794  -13.0447   20.9234 C   0  0  0  0  0  0
  -24.6386  -11.6925   20.8780 C   0  0  0  0  0  0
  -23.9072  -10.4299   21.0435 C   0  0  0  0  0  0
  -24.3623   -9.4213   21.9207 C   0  0  0  0  0  0
  -23.6302   -8.2248   22.0763 C   0  0  0  0  0  0
  -22.4285   -8.0286   21.3551 C   0  0  0  0  0  0
  -21.9922   -9.0261   20.4655 C   0  0  0  0  0  0
  -22.7251  -10.2143   20.3075 C   0  0  0  0  0  0
  -21.6851   -6.0749   22.5290 C   0  0  0  0  0  0
  -21.4009   -6.5651   23.8224 C   0  0  0  0  0  0
  -21.3654   -5.6800   24.9184 C   0  0  0  0  0  0
  -21.6038   -4.3063   24.7232 C   0  0  0  0  0  0
  -21.8813   -3.8160   23.4352 C   0  0  0  0  0  0
  -21.9188   -4.6978   22.3411 C   0  0  0  0  0  0
  -22.7818  -13.5232   21.1892 C   0  0  0  0  0  0
  -22.1659   -4.2164   21.0989 F   0  0  0  0  0  0
  -21.5624   -3.4546   25.7745 F   0  0  0  0  0  0
  -29.9752  -13.5544   20.3765 N   0  0  0  0  0  0
  -26.2916  -12.9403   20.3290 N   0  0  0  0  0  0
  -25.9313  -11.6548   20.5779 N   0  0  0  0  0  0
  -22.0452  -12.8210   22.0430 N   0  0  0  0  0  0
  -25.4199  -15.1932   20.4150 N   0  0  0  0  0  0
  -31.8168  -14.8444   20.2056 O   0  0  0  0  0  0
  -21.6639   -6.8892   21.4252 O   0  0  0  0  0  0
  -22.3510  -14.5545   20.6744 O   0  0  0  0  0  0
  -24.6318  -31.8527   23.1930 C   0  0  0  0  0  0
  -25.9132  -32.4737   23.8291 C   0  0  1  0  0  0
  -27.2283  -27.2477   20.1480 C   0  0  0  0  0  0
  -25.5921  -33.8539   24.2230 N   0  0  0  0  0  0
  -23.4300  -30.4710   21.5358 C   0  0  2  0  0  0
  -24.8793  -28.9037   20.1165 C   0  0  0  0  0  0
  -22.7505  -29.4589   22.4899 C   0  0  0  0  0  0
  -18.0298  -28.1405   22.8476 C   0  0  0  0  0  0
  -24.1492  -36.7274   23.2636 C   0  0  0  0  0  0
  -25.9736  -30.7644   21.3686 C   0  0  0  0  0  0
  -26.0498  -29.3805   20.7209 C   0  0  0  0  0  0
  -27.2286  -28.5674   20.7166 C   0  0  0  0  0  0
  -26.0350  -26.8291   19.5261 C   0  0  0  0  0  0
  -24.8779  -27.6375   19.5063 C   0  0  0  0  0  0
  -23.6501  -29.7937   20.1559 C   0  0  0  0  0  0
  -25.4111  -36.3056   24.0333 C   0  0  1  0  0  0
  -20.5901  -28.3714   23.1271 C   0  0  2  0  0  0
  -20.6791  -26.9429   22.5411 C   0  0  0  0  0  0
  -19.5771  -26.6397   21.5212 C   0  0  0  0  0  0
  -18.1942  -26.7946   22.1613 C   0  0  0  0  0  0
  -19.1548  -28.8873   23.2874 C   0  0  0  0  0  0
  -18.9477  -30.1469   23.8896 C   0  0  0  0  0  0
  -17.6474  -30.6600   24.0568 C   0  0  0  0  0  0
  -25.9061  -34.9431   23.5089 C   0  0  0  0  0  0
  -16.5369  -29.9100   23.6331 C   0  0  0  0  0  0
  -16.7282  -28.6523   23.0338 C   0  0  0  0  0  0
  -26.4499  -31.6560   25.0683 C   0  0  0  0  0  0
  -25.3716  -31.3702   26.1404 C   0  0  0  0  0  0
  -27.0336  -30.2978   24.6137 C   0  0  0  0  0  0
  -27.6062  -32.4295   25.7449 C   0  0  0  0  0  0
  -27.5590  -37.1770   24.8454 C   0  0  0  0  0  0
  -21.4211  -29.3057   22.3650 N   0  0  0  0  0  0
  -26.4275  -37.3775   23.9438 N   0  0  0  0  0  0
  -24.6980  -31.0486   22.0896 N   0  0  0  0  0  0
  -23.4199  -28.8145   23.3014 O   0  0  0  0  0  0
  -28.3474  -26.3852   20.1410 O   0  0  0  0  0  0
  -26.5643  -34.8921   22.4665 O   0  0  0  0  0  0
  -23.5464  -32.1335   23.7227 O   0  0  0  0  0  0
  -30.8718  -19.8143   20.6929 C   0  0  0  0  0  0
  -30.3673  -21.1569   20.4408 C   0  0  0  0  0  0
  -29.9727  -18.7617   20.6906 C   0  0  0  0  0  0
  -29.0096  -21.2256   20.1989 C   0  0  0  0  0  0
  -28.4114  -24.0698   18.2616 C   0  0  0  0  0  0
  -28.4303  -23.7692   19.5618 C   0  0  0  0  0  0
  -28.0158  -22.8994   17.4242 C   0  0  0  0  0  0
  -27.4876  -21.9569   18.5132 C   0  0  0  0  0  0
  -31.2723  -22.3528   20.4260 C   0  0  0  0  0  0
  -30.3550  -17.2875   21.1767 C   0  0  0  0  0  0
  -28.2610  -24.9501   20.6127 C   0  0  0  0  0  0
  -28.1695  -22.3458   19.7574 N   0  0  0  0  0  0
  -29.8621  -15.9306   20.6659 N   0  0  0  0  0  0
  -28.3894  -19.5221   20.3570 S   0  0  0  0  0  0
  -31.4699  -12.6192   19.1510 H   0  0  0  0  0  0
  -30.3987  -11.5127   19.9666 H   0  0  0  0  0  0
  -29.7921  -11.7162   17.5305 H   0  0  0  0  0  0
  -29.6134  -13.4464   17.6998 H   0  0  0  0  0  0
  -27.9134  -11.2675   18.9488 H   0  0  0  0  0  0
  -27.3677  -12.4720   17.8121 H   0  0  0  0  0  0
  -27.6216  -14.2448   19.4448 H   0  0  0  0  0  0
  -28.7364  -12.2027   21.4310 H   0  0  0  0  0  0
  -28.4177  -13.8859   21.7741 H   0  0  0  0  0  0
  -25.2764   -9.5694   22.4789 H   0  0  0  0  0  0
  -24.0012   -7.4636   22.7479 H   0  0  0  0  0  0
  -21.0856   -8.8786   19.8956 H   0  0  0  0  0  0
  -22.3717  -10.9689   19.6192 H   0  0  0  0  0  0
  -21.1998   -7.6157   23.9737 H   0  0  0  0  0  0
  -21.1474   -6.0529   25.9086 H   0  0  0  0  0  0
  -22.0589   -2.7621   23.2850 H   0  0  0  0  0  0
  -22.4046  -11.9844   22.4790 H   0  0  0  0  0  0
  -21.1081  -13.1249   22.2661 H   0  0  0  0  0  0
  -24.6540  -15.8472   20.5346 H   0  0  0  0  0  0
  -26.2642  -15.6337   20.0744 H   0  0  0  0  0  0
  -26.7194  -32.5395   23.1026 H   0  0  0  0  0  0
  -25.0064  -33.9667   25.0372 H   0  0  0  0  0  0
  -22.7274  -31.2928   21.3816 H   0  0  0  0  0  0
  -23.3780  -35.9578   23.3235 H   0  0  0  0  0  0
  -24.3597  -36.8952   22.2064 H   0  0  0  0  0  0
  -23.7207  -37.6438   23.6700 H   0  0  0  0  0  0
  -26.1021  -31.5177   20.5902 H   0  0  0  0  0  0
  -26.8554  -30.8255   21.9944 H   0  0  0  0  0  0
  -28.1320  -28.9317   21.1853 H   0  0  0  0  0  0
  -25.9963  -25.8567   19.0554 H   0  0  0  0  0  0
  -23.9816  -27.2677   19.0274 H   0  0  0  0  0  0
  -23.7756  -30.5643   19.3940 H   0  0  0  0  0  0
  -22.7693  -29.2263   19.8519 H   0  0  0  0  0  0
  -25.1277  -36.1891   25.0821 H   0  0  0  0  0  0
  -20.9994  -28.3311   24.1393 H   0  0  0  0  0  0
  -20.5702  -26.2326   23.3621 H   0  0  0  0  0  0
  -21.6658  -26.7461   22.1196 H   0  0  0  0  0  0
  -19.6943  -25.6313   21.1237 H   0  0  0  0  0  0
  -19.6719  -27.3210   20.6748 H   0  0  0  0  0  0
  -17.4217  -26.6701   21.4010 H   0  0  0  0  0  0
  -18.0340  -26.0088   22.9006 H   0  0  0  0  0  0
  -19.7957  -30.7285   24.2262 H   0  0  0  0  0  0
  -17.5034  -31.6273   24.5180 H   0  0  0  0  0  0
  -15.5372  -30.3008   23.7660 H   0  0  0  0  0  0
  -15.8684  -28.0852   22.7043 H   0  0  0  0  0  0
  -24.5947  -30.6977   25.7742 H   0  0  0  0  0  0
  -24.8839  -32.2861   26.4764 H   0  0  0  0  0  0
  -25.8044  -30.8952   27.0217 H   0  0  0  0  0  0
  -26.2897  -29.6727   24.1182 H   0  0  0  0  0  0
  -27.4060  -29.7236   25.4630 H   0  0  0  0  0  0
  -27.8757  -30.4260   23.9327 H   0  0  0  0  0  0
  -27.2692  -33.3645   26.1935 H   0  0  0  0  0  0
  -28.3916  -32.6755   25.0287 H   0  0  0  0  0  0
  -28.0666  -31.8454   26.5425 H   0  0  0  0  0  0
  -28.2533  -38.0142   24.7598 H   0  0  0  0  0  0
  -28.1160  -36.2677   24.6143 H   0  0  0  0  0  0
  -27.2329  -37.1244   25.8857 H   0  0  0  0  0  0
  -20.9413  -29.8759   21.6826 H   0  0  0  0  0  0
  -26.0145  -38.2828   24.1508 H   0  0  0  0  0  0
  -31.9218  -19.6726   20.9107 H   0  0  0  0  0  0
  -28.4628  -25.0692   17.8511 H   0  0  0  0  0  0
  -28.8893  -22.4965   16.9098 H   0  0  0  0  0  0
  -27.2465  -23.1514   16.6936 H   0  0  0  0  0  0
  -27.6309  -20.9210   18.2052 H   0  0  0  0  0  0
  -26.4147  -22.1010   18.6529 H   0  0  0  0  0  0
  -32.3175  -22.0722   20.5579 H   0  0  0  0  0  0
  -31.0174  -23.0461   21.2273 H   0  0  0  0  0  0
  -31.2010  -22.8953   19.4837 H   0  0  0  0  0  0
  -30.1183  -17.2576   22.2408 H   0  0  0  0  0  0
  -31.4448  -17.2325   21.1652 H   0  0  0  0  0  0
  -29.0448  -24.8223   21.3596 H   0  0  0  0  0  0
  -27.3254  -24.7977   21.1514 H   0  0  0  0  0  0
  -28.8659  -15.7857   20.7254 H   0  0  0  0  0  0
  1 25  1  0  0  0
  1 30  2  0  0  0
  1 83  1  0  0  0
  2  3  1  0  0  0
  2 25  1  0  0  0
  2 85  1  0  0  0
  2 86  1  0  0  0
  3  4  1  0  0  0
  3 87  1  0  0  0
  3 88  1  0  0  0
  4  5  1  0  0  0
  4 89  1  0  0  0
  4 90  1  0  0  0
  5  6  1  0  0  0
  5 26  1  0  0  0
  5 91  1  0  0  0
  6 25  1  0  0  0
  6 92  1  0  0  0
  6 93  1  0  0  0
  7  8  2  0  0  0
  7 26  1  0  0  0
  7 29  1  0  0  0
  8  9  1  0  0  0
  8 22  1  0  0  0
  9 10  1  0  0  0
  9 27  2  0  0  0
 10 11  2  0  0  0
 10 15  1  0  0  0
 11 12  1  0  0  0
 11 94  1  0  0  0
 12 13  2  0  0  0
 12 95  1  0  0  0
 13 14  1  0  0  0
 13 31  1  0  0  0
 14 15  2  0  0  0
 14 96  1  0  0  0
 15 97  1  0  0  0
 16 17  2  0  0  0
 16 21  1  0  0  0
 16 31  1  0  0  0
 17 18  1  0  0  0
 17 98  1  0  0  0
 18 19  2  0  0  0
 18 99  1  0  0  0
 19 20  1  0  0  0
 19 24  1  0  0  0
 20 21  2  0  0  0
 20100  1  0  0  0
 21 23  1  0  0  0
 22 28  1  0  0  0
 22 32  2  0  0  0
 26 27  1  0  0  0
 28101  1  0  0  0
 28102  1  0  0  0
 29103  1  0  0  0
 29104  1  0  0  0
 33 34  1  0  0  0
 33 66  1  0  0  0
 33 70  2  0  0  0
 34 36  1  0  0  0
 34 59  1  0  0  0
 34105  1  0  0  0
 35 44  2  0  0  0
 35 45  1  0  0  0
 35 68  1  0  0  0
 36 56  1  0  0  0
 36106  1  0  0  0
 37 39  1  0  0  0
 37 47  1  0  0  0
 37 66  1  0  0  0
 37107  1  0  0  0
 38 43  2  0  0  0
 38 46  1  0  0  0
 38 47  1  0  0  0
 39 64  1  0  0  0
 39 67  2  0  0  0
 40 52  1  0  0  0
 40 53  2  0  0  0
 40 58  1  0  0  0
 41108  1  0  0  0
 41109  1  0  0  0
 41110  1  0  0  0
 41 48  1  0  0  0
 42 43  1  0  0  0
 42 66  1  0  0  0
 42111  1  0  0  0
 42112  1  0  0  0
 43 44  1  0  0  0
 44113  1  0  0  0
 45 46  2  0  0  0
 45114  1  0  0  0
 46115  1  0  0  0
 47116  1  0  0  0
 47117  1  0  0  0
 48 56  1  0  0  0
 48 65  1  0  0  0
 48118  1  0  0  0
 49 50  1  0  0  0
 49 53  1  0  0  0
 49 64  1  0  0  0
 49119  1  0  0  0
 50 51  1  0  0  0
 50120  1  0  0  0
 50121  1  0  0  0
 51 52  1  0  0  0
 51122  1  0  0  0
 51123  1  0  0  0
 52124  1  0  0  0
 52125  1  0  0  0
 53 54  1  0  0  0
 54 55  2  0  0  0
 54126  1  0  0  0
 55 57  1  0  0  0
 55127  1  0  0  0
 56 69  2  0  0  0
 57 58  2  0  0  0
 57128  1  0  0  0
 58129  1  0  0  0
 59 60  1  0  0  0
 59 61  1  0  0  0
 59 62  1  0  0  0
 60130  1  0  0  0
 60131  1  0  0  0
 60132  1  0  0  0
 61133  1  0  0  0
 61134  1  0  0  0
 61135  1  0  0  0
 62136  1  0  0  0
 62137  1  0  0  0
 62138  1  0  0  0
 63 65  1  0  0  0
 63139  1  0  0  0
 63140  1  0  0  0
 63141  1  0  0  0
 64142  1  0  0  0
 65143  1  0  0  0
 68 81  1  0  0  0
 71 72  1  0  0  0
 71 73  2  0  0  0
 71144  1  0  0  0
 72 74  2  0  0  0
 72 79  1  0  0  0
 73 80  1  0  0  0
 73 84  1  0  0  0
 74 82  1  0  0  0
 74 84  1  0  0  0
 75 76  2  0  0  0
 75 77  1  0  0  0
 75145  1  0  0  0
 76 81  1  0  0  0
 76 82  1  0  0  0
 77 78  1  0  0  0
 77146  1  0  0  0
 77147  1  0  0  0
 78 82  1  0  0  0
 78148  1  0  0  0
 78149  1  0  0  0
 79150  1  0  0  0
 79151  1  0  0  0
 79152  1  0  0  0
 80 83  1  0  0  0
 80153  1  0  0  0
 80154  1  0  0  0
 81155  1  0  0  0
 81156  1  0  0  0
 83157  1  0  0  0
M  ISO  4   1 100  68 101  81 101  83 100
M  END
> <chiral flag>
0

> <version>
0

> <s_m_source_file>
/data/baiqing/PycharmProjects/Reinvent-master-3.2/result/LINK_invent/BTK/process_docking_weight1_custom_product_contain_oxygen_bond_distance_aromatic_linkinvent_7_9_3/rearranged_h_0119.sdf

> <i_m_source_file_index>
19

> <r_mmod_Potential_Energy-OPLS-2005>
300.233551025391

> <r_mmod_Stretch_Energy-OPLS-2005>
132.879989624023

> <r_mmod_Bend_Energy-OPLS-2005>
288.350372314453

> <r_mmod_Torsional_Energy-OPLS-2005>
268.949523925781

> <r_mmod_Improper_Torsional_Energy-OPLS-2005>
12.3851671218872

> <r_mmod_Van_der_Waal_Energy-OPLS-2005>
108.988426208496

> <r_mmod_Electrostatic_Energy-OPLS-2005>
-394.415344238281

> <r_mmod_Solvation_Energy-OPLS-2005>
-211.057312011719

> <b_mmod_Minimization_Converged-OPLS-2005>
0

> <r_mmod_RMS_Derivative-OPLS-2005>
1.38013124465942

$$$$
19
                    3D
 Structure written by MMmdl.
153161  0  0  1  0            999 V2000
  -30.6638  -14.7088   20.2774 C   0  0  0  0  0  0
  -30.4160  -12.4431   19.3634 C   0  0  0  0  0  0
  -29.4426  -12.5827   18.1708 C   0  0  0  0  0  0
  -27.9652  -12.5743   18.6052 C   0  0  0  0  0  0
  -27.6472  -13.3264   19.9294 C   0  0  2  0  0  0
  -28.7507  -13.1293   20.9857 C   0  0  0  0  0  0
  -25.2335  -13.8448   20.6036 C   0  0  0  0  0  0
  -24.1664  -13.0477   20.9364 C   0  0  0  0  0  0
  -24.6434  -11.7088   20.8688 C   0  0  0  0  0  0
  -23.9130  -10.4374   21.0388 C   0  0  0  0  0  0
  -24.3608   -9.4181   21.9123 C   0  0  0  0  0  0
  -23.6352   -8.2192   22.0562 C   0  0  0  0  0  0
  -22.4366   -8.0225   21.3361 C   0  0  0  0  0  0
  -22.0011   -9.0264   20.4523 C   0  0  0  0  0  0
  -22.7296  -10.2185   20.3028 C   0  0  0  0  0  0
  -21.6894   -6.0788   22.5286 C   0  0  0  0  0  0
  -21.4055   -6.5657   23.8213 C   0  0  0  0  0  0
  -21.3682   -5.6794   24.9221 C   0  0  0  0  0  0
  -21.6028   -4.3014   24.7216 C   0  0  0  0  0  0
  -21.8831   -3.8193   23.4303 C   0  0  0  0  0  0
  -21.9219   -4.7029   22.3416 C   0  0  0  0  0  0
  -22.7659  -13.5064   21.1976 C   0  0  0  0  0  0
  -22.1628   -4.2164   21.0971 F   0  0  0  0  0  0
  -21.5647   -3.4512   25.7721 F   0  0  0  0  0  0
  -30.0419  -13.4760   20.3260 N   0  0  0  0  0  0
  -26.3046  -12.9840   20.3919 N   0  0  0  0  0  0
  -25.9444  -11.6888   20.5880 N   0  0  0  0  0  0
  -22.0311  -12.7809   22.0484 N   0  0  0  0  0  0
  -25.3569  -15.2188   20.4543 N   0  0  0  0  0  0
  -31.8217  -14.7846   20.6665 O   0  0  0  0  0  0
  -21.6590   -6.8866   21.4191 O   0  0  0  0  0  0
  -22.3337  -14.5429   20.7091 O   0  0  0  0  0  0
  -24.6259  -31.8636   23.2062 C   0  0  0  0  0  0
  -25.9095  -32.4820   23.8403 C   0  0  1  0  0  0
  -27.2998  -27.3677   20.1294 C   0  0  0  0  0  0
  -25.5904  -33.8599   24.2343 N   0  0  0  0  0  0
  -23.4248  -30.4757   21.5498 C   0  0  2  0  0  0
  -24.8848  -28.9341   20.1165 C   0  0  0  0  0  0
  -22.7480  -29.4609   22.4964 C   0  0  0  0  0  0
  -18.0264  -28.1414   22.8474 C   0  0  0  0  0  0
  -24.1465  -36.7305   23.2635 C   0  0  0  0  0  0
  -25.9550  -30.8139   21.3645 C   0  0  0  0  0  0
  -26.0511  -29.4435   20.7117 C   0  0  0  0  0  0
  -27.2578  -28.6787   20.6893 C   0  0  0  0  0  0
  -26.1104  -26.9011   19.5163 C   0  0  0  0  0  0
  -24.9193  -27.6625   19.5201 C   0  0  0  0  0  0
  -23.6468  -29.8082   20.1645 C   0  0  0  0  0  0
  -25.4081  -36.3100   24.0337 C   0  0  1  0  0  0
  -20.5886  -28.3702   23.1285 C   0  0  2  0  0  0
  -20.6761  -26.9408   22.5402 C   0  0  0  0  0  0
  -19.5741  -26.6396   21.5211 C   0  0  0  0  0  0
  -18.1930  -26.7940   22.1622 C   0  0  0  0  0  0
  -19.1533  -28.8860   23.2893 C   0  0  0  0  0  0
  -18.9447  -30.1476   23.8897 C   0  0  0  0  0  0
  -17.6454  -30.6595   24.0569 C   0  0  0  0  0  0
  -25.9017  -34.9474   23.5118 C   0  0  0  0  0  0
  -16.5337  -29.9105   23.6349 C   0  0  0  0  0  0
  -16.7261  -28.6538   23.0333 C   0  0  0  0  0  0
  -26.4478  -31.6593   25.0741 C   0  0  0  0  0  0
  -25.3738  -31.3683   26.1499 C   0  0  0  0  0  0
  -27.0315  -30.3044   24.6095 C   0  0  0  0  0  0
  -27.6060  -32.4301   25.7511 C   0  0  0  0  0  0
  -27.5572  -37.1805   24.8466 C   0  0  0  0  0  0
  -21.4208  -29.3042   22.3706 N   0  0  0  0  0  0
  -26.4269  -37.3802   23.9431 N   0  0  0  0  0  0
  -24.6857  -31.0673   22.0954 N   0  0  0  0  0  0
  -23.4214  -28.8134   23.3057 O   0  0  0  0  0  0
  -28.4590  -26.5596   20.1849 O   0  0  0  0  0  0
  -26.5585  -34.8947   22.4696 O   0  0  0  0  0  0
  -23.5425  -32.1334   23.7391 O   0  0  0  0  0  0
  -29.9245  -19.4649   19.2209 C   0  0  0  0  0  0
  -28.6000  -18.2263   17.5780 C   0  0  0  0  0  0
  -28.5706  -20.6253   17.5447 C   0  0  0  0  0  0
  -29.5148  -18.1706   18.6411 C   0  0  0  0  0  0
  -29.4238  -20.7387   18.6751 C   0  0  0  0  0  0
  -28.1866  -19.4125   16.9948 C   0  0  0  0  0  0
  -30.1339  -16.7599   18.5209 C   0  0  0  0  0  0
  -30.5106  -15.5107   19.0201 C   0  0  0  0  0  0
  -30.0152  -22.9862   20.3173 C   0  0  0  0  0  0
  -29.5165  -24.1994   20.7839 C   0  0  0  0  0  0
  -29.6279  -22.2673   19.0488 C   0  0  0  0  0  0
  -28.2992  -25.0952   20.3317 C   0  0  0  0  0  0
  -29.4506  -23.1499   18.1520 N   0  0  0  0  0  0
  -27.4251  -19.3834   15.8777 F   0  0  0  0  0  0
  -31.4489  -12.5844   19.0680 H   0  0  0  0  0  0
  -30.3529  -11.4428   19.8007 H   0  0  0  0  0  0
  -29.6316  -11.8426   17.3851 H   0  0  0  0  0  0
  -29.6048  -13.5409   17.6933 H   0  0  0  0  0  0
  -27.6388  -11.5369   18.6871 H   0  0  0  0  0  0
  -27.3631  -13.0191   17.8157 H   0  0  0  0  0  0
  -27.6139  -14.3958   19.6949 H   0  0  0  0  0  0
  -28.7476  -12.0934   21.3317 H   0  0  0  0  0  0
  -28.5854  -13.7238   21.8906 H   0  0  0  0  0  0
  -25.2706   -9.5765   22.4677 H   0  0  0  0  0  0
  -24.0181   -7.4580   22.7181 H   0  0  0  0  0  0
  -21.0934   -8.8771   19.8743 H   0  0  0  0  0  0
  -22.3742  -10.9701   19.6210 H   0  0  0  0  0  0
  -21.2013   -7.6136   23.9791 H   0  0  0  0  0  0
  -21.1512   -6.0452   25.9118 H   0  0  0  0  0  0
  -22.0574   -2.7581   23.2784 H   0  0  0  0  0  0
  -22.3954  -11.9691   22.5221 H   0  0  0  0  0  0
  -21.0883  -13.0733   22.2708 H   0  0  0  0  0  0
  -24.4582  -15.6957   20.4945 H   0  0  0  0  0  0
  -26.0218  -15.6608   21.0821 H   0  0  0  0  0  0
  -26.7179  -32.5537   23.1201 H   0  0  0  0  0  0
  -25.0134  -33.9755   25.0536 H   0  0  0  0  0  0
  -22.7155  -31.2940   21.4001 H   0  0  0  0  0  0
  -23.3746  -35.9632   23.3299 H   0  0  0  0  0  0
  -24.3577  -36.8915   22.2063 H   0  0  0  0  0  0
  -23.7211  -37.6493   23.6646 H   0  0  0  0  0  0
  -26.0660  -31.5725   20.5893 H   0  0  0  0  0  0
  -26.8447  -30.8823   21.9806 H   0  0  0  0  0  0
  -28.1570  -29.0832   21.1397 H   0  0  0  0  0  0
  -26.0842  -25.9407   19.0265 H   0  0  0  0  0  0
  -24.0351  -27.2512   19.0518 H   0  0  0  0  0  0
  -23.7714  -30.5869   19.4108 H   0  0  0  0  0  0
  -22.7642  -29.2371   19.8571 H   0  0  0  0  0  0
  -25.1260  -36.1966   25.0829 H   0  0  0  0  0  0
  -20.9969  -28.3272   24.1419 H   0  0  0  0  0  0
  -20.5690  -26.2297   23.3623 H   0  0  0  0  0  0
  -21.6646  -26.7457   22.1207 H   0  0  0  0  0  0
  -19.6902  -25.6316   21.1261 H   0  0  0  0  0  0
  -19.6699  -27.3209   20.6764 H   0  0  0  0  0  0
  -17.4202  -26.6698   21.4024 H   0  0  0  0  0  0
  -18.0296  -26.0089   22.9018 H   0  0  0  0  0  0
  -19.7924  -30.7282   24.2286 H   0  0  0  0  0  0
  -17.4999  -31.6258   24.5185 H   0  0  0  0  0  0
  -15.5351  -30.3005   23.7636 H   0  0  0  0  0  0
  -15.8667  -28.0862   22.7025 H   0  0  0  0  0  0
  -24.5939  -30.6984   25.7855 H   0  0  0  0  0  0
  -24.8906  -32.2824   26.4966 H   0  0  0  0  0  0
  -25.8127  -30.8872   27.0271 H   0  0  0  0  0  0
  -26.2849  -29.6827   24.1121 H   0  0  0  0  0  0
  -27.4065  -29.7255   25.4562 H   0  0  0  0  0  0
  -27.8709  -30.4408   23.9263 H   0  0  0  0  0  0
  -27.2697  -33.3609   26.2123 H   0  0  0  0  0  0
  -28.3877  -32.6849   25.0329 H   0  0  0  0  0  0
  -28.0729  -31.8398   26.5425 H   0  0  0  0  0  0
  -28.2567  -38.0124   24.7561 H   0  0  0  0  0  0
  -28.1089  -36.2670   24.6217 H   0  0  0  0  0  0
  -27.2320  -37.1375   25.8873 H   0  0  0  0  0  0
  -20.9353  -29.8791   21.6927 H   0  0  0  0  0  0
  -26.0150  -38.2864   24.1478 H   0  0  0  0  0  0
  -30.6592  -19.4940   20.0034 H   0  0  0  0  0  0
  -28.2879  -17.3436   17.0372 H   0  0  0  0  0  0
  -28.1684  -21.4895   17.0311 H   0  0  0  0  0  0
  -30.4126  -16.7051   17.4802 H   0  0  0  0  0  0
  -30.9451  -14.9319   18.2157 H   0  0  0  0  0  0
  -30.8196  -22.5009   20.8540 H   0  0  0  0  0  0
  -29.9811  -24.6204   21.6605 H   0  0  0  0  0  0
  -27.5689  -24.9902   21.1427 H   0  0  0  0  0  0
  -27.8177  -24.6812   19.4504 H   0  0  0  0  0  0
  -29.1316  -22.7668   17.2766 H   0  0  0  0  0  0
  1 25  1  0  0  0
  1 30  2  0  0  0
  1 78  1  0  0  0
  2  3  1  0  0  0
  2 25  1  0  0  0
  2 85  1  0  0  0
  2 86  1  0  0  0
  3  4  1  0  0  0
  3 87  1  0  0  0
  3 88  1  0  0  0
  4  5  1  0  0  0
  4 89  1  0  0  0
  4 90  1  0  0  0
  5  6  1  0  0  0
  5 26  1  0  0  0
  5 91  1  0  0  0
  6 25  1  0  0  0
  6 92  1  0  0  0
  6 93  1  0  0  0
  7  8  2  0  0  0
  7 26  1  0  0  0
  7 29  1  0  0  0
  8  9  1  0  0  0
  8 22  1  0  0  0
  9 10  1  0  0  0
  9 27  2  0  0  0
 10 11  2  0  0  0
 10 15  1  0  0  0
 11 12  1  0  0  0
 11 94  1  0  0  0
 12 13  2  0  0  0
 12 95  1  0  0  0
 13 14  1  0  0  0
 13 31  1  0  0  0
 14 15  2  0  0  0
 14 96  1  0  0  0
 15 97  1  0  0  0
 16 17  2  0  0  0
 16 21  1  0  0  0
 16 31  1  0  0  0
 17 18  1  0  0  0
 17 98  1  0  0  0
 18 19  2  0  0  0
 18 99  1  0  0  0
 19 20  1  0  0  0
 19 24  1  0  0  0
 20 21  2  0  0  0
 20100  1  0  0  0
 21 23  1  0  0  0
 22 28  1  0  0  0
 22 32  2  0  0  0
 26 27  1  0  0  0
 28101  1  0  0  0
 28102  1  0  0  0
 29103  1  0  0  0
 29104  1  0  0  0
 33 34  1  0  0  0
 33 66  1  0  0  0
 33 70  2  0  0  0
 34 36  1  0  0  0
 34 59  1  0  0  0
 34105  1  0  0  0
 35 44  2  0  0  0
 35 45  1  0  0  0
 35 68  1  0  0  0
 36 56  1  0  0  0
 36106  1  0  0  0
 37 39  1  0  0  0
 37 47  1  0  0  0
 37 66  1  0  0  0
 37107  1  0  0  0
 38 43  2  0  0  0
 38 46  1  0  0  0
 38 47  1  0  0  0
 39 64  1  0  0  0
 39 67  2  0  0  0
 40 52  1  0  0  0
 40 53  2  0  0  0
 40 58  1  0  0  0
 41108  1  0  0  0
 41109  1  0  0  0
 41110  1  0  0  0
 41 48  1  0  0  0
 42 43  1  0  0  0
 42 66  1  0  0  0
 42111  1  0  0  0
 42112  1  0  0  0
 43 44  1  0  0  0
 44113  1  0  0  0
 45 46  2  0  0  0
 45114  1  0  0  0
 46115  1  0  0  0
 47116  1  0  0  0
 47117  1  0  0  0
 48 56  1  0  0  0
 48 65  1  0  0  0
 48118  1  0  0  0
 49 50  1  0  0  0
 49 53  1  0  0  0
 49 64  1  0  0  0
 49119  1  0  0  0
 50 51  1  0  0  0
 50120  1  0  0  0
 50121  1  0  0  0
 51 52  1  0  0  0
 51122  1  0  0  0
 51123  1  0  0  0
 52124  1  0  0  0
 52125  1  0  0  0
 53 54  1  0  0  0
 54 55  2  0  0  0
 54126  1  0  0  0
 55 57  1  0  0  0
 55127  1  0  0  0
 56 69  2  0  0  0
 57 58  2  0  0  0
 57128  1  0  0  0
 58129  1  0  0  0
 59 60  1  0  0  0
 59 61  1  0  0  0
 59 62  1  0  0  0
 60130  1  0  0  0
 60131  1  0  0  0
 60132  1  0  0  0
 61133  1  0  0  0
 61134  1  0  0  0
 61135  1  0  0  0
 62136  1  0  0  0
 62137  1  0  0  0
 62138  1  0  0  0
 63 65  1  0  0  0
 63139  1  0  0  0
 63140  1  0  0  0
 63141  1  0  0  0
 64142  1  0  0  0
 65143  1  0  0  0
 68 82  1  0  0  0
 71 74  2  0  0  0
 71 75  1  0  0  0
 71144  1  0  0  0
 72 74  1  0  0  0
 72 76  2  0  0  0
 72145  1  0  0  0
 73 75  2  0  0  0
 73 76  1  0  0  0
 73146  1  0  0  0
 74 77  1  0  0  0
 75 81  1  0  0  0
 76 84  1  0  0  0
 77 78  2  0  0  0
 77147  1  0  0  0
 78148  1  0  0  0
 79 80  2  0  0  0
 79 81  1  0  0  0
 79149  1  0  0  0
 80 82  1  0  0  0
 80150  1  0  0  0
 81 83  2  0  0  0
 82151  1  0  0  0
 82152  1  0  0  0
 83153  1  0  0  0
M  ISO  4   1 100  68 101  78 100  82 101
M  END
> <chiral flag>
0

> <version>
0

> <s_m_source_file>
/data/baiqing/PycharmProjects/Reinvent-master-3.2/result/LINK_invent/BTK/process_docking_weight1_custom_product_contain_oxygen_bond_distance_aromatic_linkinvent_7_9_3/rearranged_h_0119.sdf

> <i_m_source_file_index>
20

> <r_mmod_Potential_Energy-OPLS-2005>
623.076171875

> <r_mmod_Stretch_Energy-OPLS-2005>
130.050918579102

> <r_mmod_Bend_Energy-OPLS-2005>
408.273010253906

> <r_mmod_Torsional_Energy-OPLS-2005>
342.738006591797

> <r_mmod_Improper_Torsional_Energy-OPLS-2005>
55.0916175842285

> <r_mmod_Van_der_Waal_Energy-OPLS-2005>
172.174713134766

> <r_mmod_Electrostatic_Energy-OPLS-2005>
-387.337585449219

> <r_mmod_Solvation_Energy-OPLS-2005>
-206.998794555664

> <b_mmod_Minimization_Converged-OPLS-2005>
0

> <r_mmod_RMS_Derivative-OPLS-2005>
21.5492324829102

$$$$
20
                    3D
 Structure written by MMmdl.
167175  0  0  1  0            999 V2000
  -30.6995  -14.4497   20.5860 C   0  0  0  0  0  0
  -30.4246  -12.2972   19.4104 C   0  0  0  0  0  0
  -29.4939  -12.5007   18.1969 C   0  0  0  0  0  0
  -28.0158  -12.3560   18.6131 C   0  0  0  0  0  0
  -27.6614  -13.1969   19.8695 C   0  0  2  0  0  0
  -28.7019  -12.9662   20.9892 C   0  0  0  0  0  0
  -25.2595  -13.8138   20.5653 C   0  0  0  0  0  0
  -24.1840  -13.0427   20.9157 C   0  0  0  0  0  0
  -24.6378  -11.6889   20.8721 C   0  0  0  0  0  0
  -23.9042  -10.4286   21.0405 C   0  0  0  0  0  0
  -24.3604   -9.4202   21.9177 C   0  0  0  0  0  0
  -23.6291   -8.2232   22.0745 C   0  0  0  0  0  0
  -22.4266   -8.0280   21.3541 C   0  0  0  0  0  0
  -21.9903   -9.0251   20.4633 C   0  0  0  0  0  0
  -22.7223  -10.2133   20.3049 C   0  0  0  0  0  0
  -21.6847   -6.0736   22.5281 C   0  0  0  0  0  0
  -21.4009   -6.5638   23.8215 C   0  0  0  0  0  0
  -21.3656   -5.6788   24.9172 C   0  0  0  0  0  0
  -21.6045   -4.3053   24.7217 C   0  0  0  0  0  0
  -21.8819   -3.8145   23.4336 C   0  0  0  0  0  0
  -21.9188   -4.6965   22.3395 C   0  0  0  0  0  0
  -22.7869  -13.5246   21.1829 C   0  0  0  0  0  0
  -22.1655   -4.2149   21.0972 F   0  0  0  0  0  0
  -21.5631   -3.4536   25.7729 F   0  0  0  0  0  0
  -30.0309  -13.2748   20.4348 N   0  0  0  0  0  0
  -26.3013  -12.9285   20.3322 N   0  0  0  0  0  0
  -25.9296  -11.6457   20.5734 N   0  0  0  0  0  0
  -22.0491  -12.8269   22.0401 N   0  0  0  0  0  0
  -25.4353  -15.1850   20.4048 N   0  0  0  0  0  0
  -31.8323  -14.6394   20.1331 O   0  0  0  0  0  0
  -21.6629   -6.8878   21.4244 O   0  0  0  0  0  0
  -22.3572  -14.5559   20.6675 O   0  0  0  0  0  0
  -24.6130  -31.8700   23.2115 C   0  0  0  0  0  0
  -25.9038  -32.4843   23.8422 C   0  0  1  0  0  0
  -27.2346  -27.4344   20.0967 C   0  0  0  0  0  0
  -25.5925  -33.8649   24.2333 N   0  0  0  0  0  0
  -23.4033  -30.4901   21.5491 C   0  0  2  0  0  0
  -24.8467  -28.9504   20.1241 C   0  0  0  0  0  0
  -22.7402  -29.4655   22.4974 C   0  0  0  0  0  0
  -18.0274  -28.1367   22.8485 C   0  0  0  0  0  0
  -24.1483  -36.7300   23.2629 C   0  0  0  0  0  0
  -25.9300  -30.8304   21.3682 C   0  0  0  0  0  0
  -26.0048  -29.4624   20.7198 C   0  0  0  0  0  0
  -27.1998  -28.7102   20.7057 C   0  0  0  0  0  0
  -26.0635  -26.9426   19.4826 C   0  0  0  0  0  0
  -24.8691  -27.6880   19.5052 C   0  0  0  0  0  0
  -23.6121  -29.8199   20.1654 C   0  0  0  0  0  0
  -25.4112  -36.3129   24.0341 C   0  0  1  0  0  0
  -20.5862  -28.3668   23.1292 C   0  0  2  0  0  0
  -20.6753  -26.9404   22.5402 C   0  0  0  0  0  0
  -19.5733  -26.6377   21.5198 C   0  0  0  0  0  0
  -18.1916  -26.7912   22.1616 C   0  0  0  0  0  0
  -19.1524  -28.8832   23.2887 C   0  0  0  0  0  0
  -18.9457  -30.1423   23.8917 C   0  0  0  0  0  0
  -17.6467  -30.6576   24.0564 C   0  0  0  0  0  0
  -25.9043  -34.9497   23.5124 C   0  0  0  0  0  0
  -16.5350  -29.9088   23.6323 C   0  0  0  0  0  0
  -16.7271  -28.6498   23.0362 C   0  0  0  0  0  0
  -26.4460  -31.6639   25.0767 C   0  0  0  0  0  0
  -25.3736  -31.3776   26.1528 C   0  0  0  0  0  0
  -27.0257  -30.3070   24.6146 C   0  0  0  0  0  0
  -27.6034  -32.4376   25.7533 C   0  0  0  0  0  0
  -27.5570  -37.1809   24.8466 C   0  0  0  0  0  0
  -21.4130  -29.3061   22.3723 N   0  0  0  0  0  0
  -26.4284  -37.3818   23.9407 N   0  0  0  0  0  0
  -24.6662  -31.0794   22.1011 N   0  0  0  0  0  0
  -23.4164  -28.8170   23.3012 O   0  0  0  0  0  0
  -28.4420  -26.7609   20.0362 O   0  0  0  0  0  0
  -26.5596  -34.8952   22.4674 O   0  0  0  0  0  0
  -23.5323  -32.1441   23.7510 O   0  0  0  0  0  0
  -29.7389  -17.8843   20.8299 C   0  0  0  0  0  0
  -31.4844  -16.9980   22.2675 C   0  0  0  0  0  0
  -30.1389  -19.2135   21.1167 C   0  0  0  0  0  0
  -31.8772  -18.3071   22.6115 C   0  0  0  0  0  0
  -31.2166  -19.4281   22.0300 C   0  0  0  0  0  0
  -30.4140  -16.7754   21.3834 C   0  0  0  0  0  0
  -29.4139  -20.2908   20.3919 C   0  0  0  0  0  0
  -29.9389  -21.4349   19.9019 C   0  0  0  0  0  0
  -27.5962  -24.2282   20.1561 C   0  0  0  0  0  0
  -27.8562  -23.0060   19.6356 C   0  0  0  0  0  0
  -31.6363  -20.8456   22.4220 C   0  0  0  0  0  0
  -26.7295  -22.0046   19.4617 C   0  0  0  0  0  0
  -34.3355  -18.8688   23.0241 C   0  0  0  0  0  0
  -32.9964  -18.4489   23.6401 C   0  0  0  0  0  0
  -29.2427  -22.5690   19.1498 C   0  0  0  0  0  0
  -28.6068  -25.3600   20.3676 C   0  0  0  0  0  0
  -29.9693  -15.4507   21.1100 N   0  0  0  0  0  0
  -31.4689  -12.3998   19.1104 H   0  0  0  0  0  0
  -30.3263  -11.2812   19.7979 H   0  0  0  0  0  0
  -29.7349  -11.7791   17.4152 H   0  0  0  0  0  0
  -29.6618  -13.4885   17.7641 H   0  0  0  0  0  0
  -27.8337  -11.3002   18.8159 H   0  0  0  0  0  0
  -27.3612  -12.6173   17.7811 H   0  0  0  0  0  0
  -27.7105  -14.2455   19.5758 H   0  0  0  0  0  0
  -28.6722  -11.9252   21.3148 H   0  0  0  0  0  0
  -28.4618  -13.5518   21.8780 H   0  0  0  0  0  0
  -25.2748   -9.5682   22.4745 H   0  0  0  0  0  0
  -23.9994   -7.4625   22.7475 H   0  0  0  0  0  0
  -21.0824   -8.8776   19.8949 H   0  0  0  0  0  0
  -22.3682  -10.9675   19.6159 H   0  0  0  0  0  0
  -21.2006   -7.6147   23.9726 H   0  0  0  0  0  0
  -21.1478   -6.0506   25.9076 H   0  0  0  0  0  0
  -22.0603   -2.7609   23.2828 H   0  0  0  0  0  0
  -22.4085  -11.9934   22.4824 H   0  0  0  0  0  0
  -21.1102  -13.1315   22.2562 H   0  0  0  0  0  0
  -24.6733  -15.8446   20.5110 H   0  0  0  0  0  0
  -26.2873  -15.6181   20.0723 H   0  0  0  0  0  0
  -26.7129  -32.5555   23.1199 H   0  0  0  0  0  0
  -25.0210  -33.9841   25.0572 H   0  0  0  0  0  0
  -22.6942  -31.3085   21.4078 H   0  0  0  0  0  0
  -23.3773  -35.9604   23.3318 H   0  0  0  0  0  0
  -24.3563  -36.8881   22.2034 H   0  0  0  0  0  0
  -23.7236  -37.6516   23.6624 H   0  0  0  0  0  0
  -26.0519  -31.5950   20.6004 H   0  0  0  0  0  0
  -26.8148  -30.8784   21.9925 H   0  0  0  0  0  0
  -28.0985  -29.1038   21.1600 H   0  0  0  0  0  0
  -26.0708  -26.0049   18.9472 H   0  0  0  0  0  0
  -23.9814  -27.2964   19.0268 H   0  0  0  0  0  0
  -23.7345  -30.5933   19.4066 H   0  0  0  0  0  0
  -22.7363  -29.2413   19.8649 H   0  0  0  0  0  0
  -25.1291  -36.1974   25.0841 H   0  0  0  0  0  0
  -20.9972  -28.3239   24.1401 H   0  0  0  0  0  0
  -20.5628  -26.2294   23.3604 H   0  0  0  0  0  0
  -21.6622  -26.7432   22.1205 H   0  0  0  0  0  0
  -19.6901  -25.6293   21.1220 H   0  0  0  0  0  0
  -19.6651  -27.3186   20.6735 H   0  0  0  0  0  0
  -17.4180  -26.6672   21.4019 H   0  0  0  0  0  0
  -18.0316  -26.0032   22.8995 H   0  0  0  0  0  0
  -19.7941  -30.7214   24.2296 H   0  0  0  0  0  0
  -17.5042  -31.6261   24.5159 H   0  0  0  0  0  0
  -15.5355  -30.3011   23.7628 H   0  0  0  0  0  0
  -15.8668  -28.0818   22.7090 H   0  0  0  0  0  0
  -24.5889  -30.7127   25.7892 H   0  0  0  0  0  0
  -24.8944  -32.2942   26.4977 H   0  0  0  0  0  0
  -25.8095  -30.8967   27.0294 H   0  0  0  0  0  0
  -26.2777  -29.6891   24.1140 H   0  0  0  0  0  0
  -27.3951  -29.7264   25.4608 H   0  0  0  0  0  0
  -27.8682  -30.4385   23.9352 H   0  0  0  0  0  0
  -27.2639  -33.3668   26.2136 H   0  0  0  0  0  0
  -28.3828  -32.6950   25.0352 H   0  0  0  0  0  0
  -28.0736  -31.8499   26.5428 H   0  0  0  0  0  0
  -28.2618  -38.0075   24.7506 H   0  0  0  0  0  0
  -28.1039  -36.2616   24.6296 H   0  0  0  0  0  0
  -27.2288  -37.1475   25.8871 H   0  0  0  0  0  0
  -20.9297  -29.8828   21.6984 H   0  0  0  0  0  0
  -26.0169  -38.2896   24.1421 H   0  0  0  0  0  0
  -28.9149  -17.7167   20.1510 H   0  0  0  0  0  0
  -31.9929  -16.1535   22.7128 H   0  0  0  0  0  0
  -28.3598  -20.1100   20.2602 H   0  0  0  0  0  0
  -31.0023  -21.5909   20.0026 H   0  0  0  0  0  0
  -26.5757  -24.4295   20.4533 H   0  0  0  0  0  0
  -30.7816  -21.5213   22.4375 H   0  0  0  0  0  0
  -32.3765  -21.2323   21.7205 H   0  0  0  0  0  0
  -32.0739  -20.9110   23.4148 H   0  0  0  0  0  0
  -25.7871  -22.5175   19.2671 H   0  0  0  0  0  0
  -26.5953  -21.4041   20.3603 H   0  0  0  0  0  0
  -26.9250  -21.3428   18.6161 H   0  0  0  0  0  0
  -34.2674  -19.8218   22.5001 H   0  0  0  0  0  0
  -34.6847  -18.1207   22.3127 H   0  0  0  0  0  0
  -35.0958  -18.9761   23.7994 H   0  0  0  0  0  0
  -33.1375  -17.4945   24.1492 H   0  0  0  0  0  0
  -32.6989  -19.1312   24.4352 H   0  0  0  0  0  0
  -29.1818  -22.2948   18.0954 H   0  0  0  0  0  0
  -29.9179  -23.4240   19.1874 H   0  0  0  0  0  0
  -28.0533  -25.5494   21.2884 H   0  0  0  0  0  0
  -28.3984  -25.3788   19.2951 H   0  0  0  0  0  0
  -28.9958  -15.2501   21.2806 H   0  0  0  0  0  0
  1 25  1  0  0  0
  1 30  2  0  0  0
  1 87  1  0  0  0
  2  3  1  0  0  0
  2 25  1  0  0  0
  2 88  1  0  0  0
  2 89  1  0  0  0
  3  4  1  0  0  0
  3 90  1  0  0  0
  3 91  1  0  0  0
  4  5  1  0  0  0
  4 92  1  0  0  0
  4 93  1  0  0  0
  5  6  1  0  0  0
  5 26  1  0  0  0
  5 94  1  0  0  0
  6 25  1  0  0  0
  6 95  1  0  0  0
  6 96  1  0  0  0
  7  8  2  0  0  0
  7 26  1  0  0  0
  7 29  1  0  0  0
  8  9  1  0  0  0
  8 22  1  0  0  0
  9 10  1  0  0  0
  9 27  2  0  0  0
 10 11  2  0  0  0
 10 15  1  0  0  0
 11 12  1  0  0  0
 11 97  1  0  0  0
 12 13  2  0  0  0
 12 98  1  0  0  0
 13 14  1  0  0  0
 13 31  1  0  0  0
 14 15  2  0  0  0
 14 99  1  0  0  0
 15100  1  0  0  0
 16 17  2  0  0  0
 16 21  1  0  0  0
 16 31  1  0  0  0
 17 18  1  0  0  0
 17101  1  0  0  0
 18 19  2  0  0  0
 18102  1  0  0  0
 19 20  1  0  0  0
 19 24  1  0  0  0
 20 21  2  0  0  0
 20103  1  0  0  0
 21 23  1  0  0  0
 22 28  1  0  0  0
 22 32  2  0  0  0
 26 27  1  0  0  0
 28104  1  0  0  0
 28105  1  0  0  0
 29106  1  0  0  0
 29107  1  0  0  0
 33 34  1  0  0  0
 33 66  1  0  0  0
 33 70  2  0  0  0
 34 36  1  0  0  0
 34 59  1  0  0  0
 34108  1  0  0  0
 35 44  2  0  0  0
 35 45  1  0  0  0
 35 68  1  0  0  0
 36 56  1  0  0  0
 36109  1  0  0  0
 37 39  1  0  0  0
 37 47  1  0  0  0
 37 66  1  0  0  0
 37110  1  0  0  0
 38 43  2  0  0  0
 38 46  1  0  0  0
 38 47  1  0  0  0
 39 64  1  0  0  0
 39 67  2  0  0  0
 40 52  1  0  0  0
 40 53  2  0  0  0
 40 58  1  0  0  0
 41111  1  0  0  0
 41112  1  0  0  0
 41113  1  0  0  0
 41 48  1  0  0  0
 42 43  1  0  0  0
 42 66  1  0  0  0
 42114  1  0  0  0
 42115  1  0  0  0
 43 44  1  0  0  0
 44116  1  0  0  0
 45 46  2  0  0  0
 45117  1  0  0  0
 46118  1  0  0  0
 47119  1  0  0  0
 47120  1  0  0  0
 48 56  1  0  0  0
 48 65  1  0  0  0
 48121  1  0  0  0
 49 50  1  0  0  0
 49 53  1  0  0  0
 49 64  1  0  0  0
 49122  1  0  0  0
 50 51  1  0  0  0
 50123  1  0  0  0
 50124  1  0  0  0
 51 52  1  0  0  0
 51125  1  0  0  0
 51126  1  0  0  0
 52127  1  0  0  0
 52128  1  0  0  0
 53 54  1  0  0  0
 54 55  2  0  0  0
 54129  1  0  0  0
 55 57  1  0  0  0
 55130  1  0  0  0
 56 69  2  0  0  0
 57 58  2  0  0  0
 57131  1  0  0  0
 58132  1  0  0  0
 59 60  1  0  0  0
 59 61  1  0  0  0
 59 62  1  0  0  0
 60133  1  0  0  0
 60134  1  0  0  0
 60135  1  0  0  0
 61136  1  0  0  0
 61137  1  0  0  0
 61138  1  0  0  0
 62139  1  0  0  0
 62140  1  0  0  0
 62141  1  0  0  0
 63 65  1  0  0  0
 63142  1  0  0  0
 63143  1  0  0  0
 63144  1  0  0  0
 64145  1  0  0  0
 65146  1  0  0  0
 68 86  1  0  0  0
 71 73  2  0  0  0
 71 76  1  0  0  0
 71147  1  0  0  0
 72 74  1  0  0  0
 72 76  2  0  0  0
 72148  1  0  0  0
 73 75  1  0  0  0
 73 77  1  0  0  0
 74 75  2  0  0  0
 74 84  1  0  0  0
 75 81  1  0  0  0
 76 87  1  0  0  0
 77 78  2  0  0  0
 77149  1  0  0  0
 78 85  1  0  0  0
 78150  1  0  0  0
 79 80  2  0  0  0
 79 86  1  0  0  0
 79151  1  0  0  0
 80 82  1  0  0  0
 80 85  1  0  0  0
 81152  1  0  0  0
 81153  1  0  0  0
 81154  1  0  0  0
 82155  1  0  0  0
 82156  1  0  0  0
 82157  1  0  0  0
 83 84  1  0  0  0
 83158  1  0  0  0
 83159  1  0  0  0
 83160  1  0  0  0
 84161  1  0  0  0
 84162  1  0  0  0
 85163  1  0  0  0
 85164  1  0  0  0
 86165  1  0  0  0
 86166  1  0  0  0
 87167  1  0  0  0
M  ISO  4   1 100  68 101  86 101  87 100
M  END
> <chiral flag>
0

> <version>
0

> <s_m_source_file>
/data/baiqing/PycharmProjects/Reinvent-master-3.2/result/LINK_invent/BTK/process_docking_weight1_custom_product_contain_oxygen_bond_distance_aromatic_linkinvent_7_9_3/rearranged_h_0119.sdf

> <i_m_source_file_index>
21

> <r_mmod_Potential_Energy-OPLS-2005>
240.903610229492

> <r_mmod_Stretch_Energy-OPLS-2005>
40.9245986938477

> <r_mmod_Bend_Energy-OPLS-2005>
333.933135986328

> <r_mmod_Torsional_Energy-OPLS-2005>
250.289413452148

> <r_mmod_Improper_Torsional_Energy-OPLS-2005>
4.59125518798828

> <r_mmod_Van_der_Waal_Energy-OPLS-2005>
172.604873657227

> <r_mmod_Electrostatic_Energy-OPLS-2005>
-375.975341796875

> <r_mmod_Solvation_Energy-OPLS-2005>
-196.859634399414

> <b_mmod_Minimization_Converged-OPLS-2005>
0

> <r_mmod_RMS_Derivative-OPLS-2005>
2.79640984535217

$$$$
21
                    3D
 Structure written by MMmdl.
162171  0  0  1  0            999 V2000
  -30.6051  -14.6081   20.5117 C   0  0  0  0  0  0
  -30.4404  -12.3775   19.4374 C   0  0  0  0  0  0
  -29.4976  -12.5194   18.2220 C   0  0  0  0  0  0
  -28.0220  -12.3578   18.6395 C   0  0  0  0  0  0
  -27.6592  -13.2117   19.8817 C   0  0  2  0  0  0
  -28.7048  -13.0165   21.0036 C   0  0  0  0  0  0
  -25.2598  -13.8175   20.5743 C   0  0  0  0  0  0
  -24.1837  -13.0453   20.9184 C   0  0  0  0  0  0
  -24.6401  -11.6912   20.8761 C   0  0  0  0  0  0
  -23.9073  -10.4294   21.0427 C   0  0  0  0  0  0
  -24.3609   -9.4213   21.9215 C   0  0  0  0  0  0
  -23.6282   -8.2233   22.0764 C   0  0  0  0  0  0
  -22.4271   -8.0275   21.3524 C   0  0  0  0  0  0
  -21.9916   -9.0266   20.4641 C   0  0  0  0  0  0
  -22.7253  -10.2138   20.3071 C   0  0  0  0  0  0
  -21.6851   -6.0729   22.5287 C   0  0  0  0  0  0
  -21.4018   -6.5629   23.8214 C   0  0  0  0  0  0
  -21.3657   -5.6784   24.9166 C   0  0  0  0  0  0
  -21.6041   -4.3052   24.7222 C   0  0  0  0  0  0
  -21.8821   -3.8151   23.4346 C   0  0  0  0  0  0
  -21.9189   -4.6964   22.3406 C   0  0  0  0  0  0
  -22.7858  -13.5254   21.1830 C   0  0  0  0  0  0
  -22.1656   -4.2145   21.0991 F   0  0  0  0  0  0
  -21.5620   -3.4551   25.7736 F   0  0  0  0  0  0
  -30.0249  -13.3691   20.4481 N   0  0  0  0  0  0
  -26.3025  -12.9334   20.3450 N   0  0  0  0  0  0
  -25.9334  -11.6500   20.5842 N   0  0  0  0  0  0
  -22.0478  -12.8231   22.0358 N   0  0  0  0  0  0
  -25.4377  -15.1892   20.4139 N   0  0  0  0  0  0
  -31.7333  -14.8214   20.0583 O   0  0  0  0  0  0
  -21.6624   -6.8883   21.4249 O   0  0  0  0  0  0
  -22.3549  -14.5567   20.6699 O   0  0  0  0  0  0
  -24.6248  -31.8590   23.2011 C   0  0  0  0  0  0
  -25.9089  -32.4772   23.8341 C   0  0  1  0  0  0
  -27.2174  -27.3021   20.1037 C   0  0  0  0  0  0
  -25.5859  -33.8575   24.2259 N   0  0  0  0  0  0
  -23.4202  -30.4803   21.5483 C   0  0  2  0  0  0
  -24.8657  -28.9339   20.1117 C   0  0  0  0  0  0
  -22.7463  -29.4571   22.4973 C   0  0  0  0  0  0
  -18.0265  -28.1334   22.8479 C   0  0  0  0  0  0
  -24.1493  -36.7288   23.2648 C   0  0  0  0  0  0
  -25.9635  -30.7851   21.3711 C   0  0  0  0  0  0
  -26.0379  -29.4103   20.7142 C   0  0  0  0  0  0
  -27.2198  -28.6069   20.6939 C   0  0  0  0  0  0
  -26.0220  -26.8834   19.4809 C   0  0  0  0  0  0
  -24.8610  -27.6774   19.4885 C   0  0  0  0  0  0
  -23.6339  -29.8175   20.1636 C   0  0  0  0  0  0
  -25.4124  -36.3099   24.0332 C   0  0  1  0  0  0
  -20.5871  -28.3639   23.1317 C   0  0  2  0  0  0
  -20.6782  -26.9364   22.5418 C   0  0  0  0  0  0
  -19.5762  -26.6358   21.5217 C   0  0  0  0  0  0
  -18.1935  -26.7878   22.1605 C   0  0  0  0  0  0
  -19.1514  -28.8807   23.2887 C   0  0  0  0  0  0
  -18.9456  -30.1405   23.8910 C   0  0  0  0  0  0
  -17.6468  -30.6564   24.0545 C   0  0  0  0  0  0
  -25.9062  -34.9455   23.5121 C   0  0  0  0  0  0
  -16.5355  -29.9060   23.6328 C   0  0  0  0  0  0
  -16.7254  -28.6467   23.0364 C   0  0  0  0  0  0
  -26.4466  -31.6571   25.0708 C   0  0  0  0  0  0
  -25.3656  -31.3601   26.1397 C   0  0  0  0  0  0
  -27.0305  -30.3015   24.6063 C   0  0  0  0  0  0
  -27.6077  -32.4256   25.7456 C   0  0  0  0  0  0
  -27.5576  -37.1813   24.8451 C   0  0  0  0  0  0
  -21.4182  -29.3004   22.3731 N   0  0  0  0  0  0
  -26.4295  -37.3803   23.9394 N   0  0  0  0  0  0
  -24.6905  -31.0556   22.0987 N   0  0  0  0  0  0
  -23.4188  -28.8094   23.3048 O   0  0  0  0  0  0
  -28.3317  -26.4512   20.0898 O   0  0  0  0  0  0
  -26.5672  -34.8935   22.4715 O   0  0  0  0  0  0
  -23.5403  -32.1394   23.7324 O   0  0  0  0  0  0
  -29.8789  -19.0772   19.4107 C   0  0  0  0  0  0
  -30.2170  -17.7157   19.6844 C   0  0  0  0  0  0
  -28.4429  -19.1164   21.3367 C   0  0  0  0  0  0
  -28.7800  -17.7596   21.6362 C   0  0  0  0  0  0
  -28.9683  -19.8138   20.2194 C   0  0  0  0  0  0
  -29.6520  -17.0156   20.7865 C   0  0  0  0  0  0
  -30.4079  -22.5285   20.7928 C   0  0  0  0  0  0
  -27.0405  -17.4467   23.4400 C   0  0  0  0  0  0
  -28.1729  -17.0923   22.8106 C   0  0  0  0  0  0
  -31.2334  -23.7277   20.3685 C   0  0  0  0  0  0
  -30.3721  -24.3705   19.2801 C   0  0  0  0  0  0
  -28.9405  -23.8887   19.5739 C   0  0  2  0  0  0
  -28.4567  -21.2666   19.8437 C   0  0  0  0  0  0
  -28.1678  -25.0069   20.4355 C   0  0  0  0  0  0
  -29.1915  -22.5357   20.2195 N   0  0  0  0  0  0
  -29.8158  -15.5843   21.0389 N   0  0  0  0  0  0
  -30.8801  -21.6488   21.5151 O   0  0  0  0  0  0
  -31.4784  -12.5149   19.1291 H   0  0  0  0  0  0
  -30.3819  -11.3727   19.8560 H   0  0  0  0  0  0
  -29.7474  -11.7816   17.4580 H   0  0  0  0  0  0
  -29.6371  -13.4987   17.7635 H   0  0  0  0  0  0
  -27.8523  -11.3031   18.8578 H   0  0  0  0  0  0
  -27.3609  -12.6080   17.8075 H   0  0  0  0  0  0
  -27.6910  -14.2552   19.5697 H   0  0  0  0  0  0
  -28.7120  -11.9801   21.3436 H   0  0  0  0  0  0
  -28.4548  -13.6067   21.8874 H   0  0  0  0  0  0
  -25.2736   -9.5677   22.4799 H   0  0  0  0  0  0
  -23.9977   -7.4640   22.7488 H   0  0  0  0  0  0
  -21.0836   -8.8809   19.8939 H   0  0  0  0  0  0
  -22.3740  -10.9685   19.6170 H   0  0  0  0  0  0
  -21.2023   -7.6137   23.9726 H   0  0  0  0  0  0
  -21.1469   -6.0502   25.9061 H   0  0  0  0  0  0
  -22.0603   -2.7613   23.2858 H   0  0  0  0  0  0
  -22.4042  -11.9830   22.4681 H   0  0  0  0  0  0
  -21.1121  -13.1307   22.2617 H   0  0  0  0  0  0
  -24.6926  -15.8605   20.5479 H   0  0  0  0  0  0
  -26.3138  -15.6215   20.1539 H   0  0  0  0  0  0
  -26.7150  -32.5440   23.1104 H   0  0  0  0  0  0
  -24.9934  -33.9747   25.0335 H   0  0  0  0  0  0
  -22.7123  -31.2997   21.4059 H   0  0  0  0  0  0
  -23.3801  -35.9568   23.3253 H   0  0  0  0  0  0
  -24.3588  -36.8963   22.2067 H   0  0  0  0  0  0
  -23.7213  -37.6449   23.6719 H   0  0  0  0  0  0
  -26.0857  -31.5468   20.5995 H   0  0  0  0  0  0
  -26.8483  -30.8398   21.9922 H   0  0  0  0  0  0
  -28.1275  -28.9683   21.1548 H   0  0  0  0  0  0
  -25.9792  -25.9294   18.9765 H   0  0  0  0  0  0
  -23.9657  -27.3124   19.0060 H   0  0  0  0  0  0
  -23.7453  -30.5985   19.4096 H   0  0  0  0  0  0
  -22.7509  -29.2498   19.8622 H   0  0  0  0  0  0
  -25.1308  -36.1983   25.0825 H   0  0  0  0  0  0
  -20.9937  -28.3199   24.1439 H   0  0  0  0  0  0
  -20.5722  -26.2215   23.3587 H   0  0  0  0  0  0
  -21.6655  -26.7426   22.1195 H   0  0  0  0  0  0
  -19.6970  -25.6289   21.1188 H   0  0  0  0  0  0
  -19.6732  -27.3207   20.6767 H   0  0  0  0  0  0
  -17.4214  -26.6623   21.3976 H   0  0  0  0  0  0
  -18.0319  -25.9981   22.8964 H   0  0  0  0  0  0
  -19.7938  -30.7192   24.2298 H   0  0  0  0  0  0
  -17.5023  -31.6256   24.5106 H   0  0  0  0  0  0
  -15.5362  -30.2971   23.7644 H   0  0  0  0  0  0
  -15.8642  -28.0797   22.7108 H   0  0  0  0  0  0
  -24.5952  -30.6848   25.7656 H   0  0  0  0  0  0
  -24.8698  -32.2668   26.4830 H   0  0  0  0  0  0
  -25.7947  -30.8768   27.0173 H   0  0  0  0  0  0
  -26.2841  -29.6778   24.1126 H   0  0  0  0  0  0
  -27.4113  -29.7261   25.4499 H   0  0  0  0  0  0
  -27.8629  -30.4375   23.9167 H   0  0  0  0  0  0
  -27.2848  -33.3697   26.1851 H   0  0  0  0  0  0
  -28.3963  -32.6539   25.0275 H   0  0  0  0  0  0
  -28.0597  -31.8411   26.5479 H   0  0  0  0  0  0
  -28.2571  -38.0140   24.7597 H   0  0  0  0  0  0
  -28.1118  -36.2685   24.6201 H   0  0  0  0  0  0
  -27.2277  -37.1349   25.8846 H   0  0  0  0  0  0
  -20.9379  -29.8708   21.6918 H   0  0  0  0  0  0
  -26.0171  -38.2862   24.1456 H   0  0  0  0  0  0
  -30.3067  -19.5493   18.5379 H   0  0  0  0  0  0
  -30.8850  -17.2002   19.0074 H   0  0  0  0  0  0
  -27.7511  -19.6447   21.9756 H   0  0  0  0  0  0
  -26.7058  -16.8930   24.3054 H   0  0  0  0  0  0
  -26.4253  -18.2763   23.1236 H   0  0  0  0  0  0
  -28.7154  -16.2514   23.2216 H   0  0  0  0  0  0
  -32.2113  -23.4298   19.9915 H   0  0  0  0  0  0
  -31.3843  -24.3854   21.2247 H   0  0  0  0  0  0
  -30.6967  -24.0151   18.3004 H   0  0  0  0  0  0
  -30.4746  -25.4546   19.2592 H   0  0  0  0  0  0
  -28.4120  -23.7464   18.6288 H   0  0  0  0  0  0
  -27.4339  -21.3556   20.2111 H   0  0  0  0  0  0
  -28.3518  -21.2838   18.7578 H   0  0  0  0  0  0
  -28.5044  -24.9271   21.4702 H   0  0  0  0  0  0
  -27.1165  -24.7224   20.4895 H   0  0  0  0  0  0
  -29.0558  -15.1958   21.5775 H   0  0  0  0  0  0
  1 25  1  0  0  0
  1 30  2  0  0  0
  1 86  1  0  0  0
  2  3  1  0  0  0
  2 25  1  0  0  0
  2 88  1  0  0  0
  2 89  1  0  0  0
  3  4  1  0  0  0
  3 90  1  0  0  0
  3 91  1  0  0  0
  4  5  1  0  0  0
  4 92  1  0  0  0
  4 93  1  0  0  0
  5  6  1  0  0  0
  5 26  1  0  0  0
  5 94  1  0  0  0
  6 25  1  0  0  0
  6 95  1  0  0  0
  6 96  1  0  0  0
  7  8  2  0  0  0
  7 26  1  0  0  0
  7 29  1  0  0  0
  8  9  1  0  0  0
  8 22  1  0  0  0
  9 10  1  0  0  0
  9 27  2  0  0  0
 10 11  2  0  0  0
 10 15  1  0  0  0
 11 12  1  0  0  0
 11 97  1  0  0  0
 12 13  2  0  0  0
 12 98  1  0  0  0
 13 14  1  0  0  0
 13 31  1  0  0  0
 14 15  2  0  0  0
 14 99  1  0  0  0
 15100  1  0  0  0
 16 17  2  0  0  0
 16 21  1  0  0  0
 16 31  1  0  0  0
 17 18  1  0  0  0
 17101  1  0  0  0
 18 19  2  0  0  0
 18102  1  0  0  0
 19 20  1  0  0  0
 19 24  1  0  0  0
 20 21  2  0  0  0
 20103  1  0  0  0
 21 23  1  0  0  0
 22 28  1  0  0  0
 22 32  2  0  0  0
 26 27  1  0  0  0
 28104  1  0  0  0
 28105  1  0  0  0
 29106  1  0  0  0
 29107  1  0  0  0
 33 34  1  0  0  0
 33 66  1  0  0  0
 33 70  2  0  0  0
 34 36  1  0  0  0
 34 59  1  0  0  0
 34108  1  0  0  0
 35 44  2  0  0  0
 35 45  1  0  0  0
 35 68  1  0  0  0
 36 56  1  0  0  0
 36109  1  0  0  0
 37 39  1  0  0  0
 37 47  1  0  0  0
 37 66  1  0  0  0
 37110  1  0  0  0
 38 43  2  0  0  0
 38 46  1  0  0  0
 38 47  1  0  0  0
 39 64  1  0  0  0
 39 67  2  0  0  0
 40 52  1  0  0  0
 40 53  2  0  0  0
 40 58  1  0  0  0
 41111  1  0  0  0
 41112  1  0  0  0
 41113  1  0  0  0
 41 48  1  0  0  0
 42 43  1  0  0  0
 42 66  1  0  0  0
 42114  1  0  0  0
 42115  1  0  0  0
 43 44  1  0  0  0
 44116  1  0  0  0
 45 46  2  0  0  0
 45117  1  0  0  0
 46118  1  0  0  0
 47119  1  0  0  0
 47120  1  0  0  0
 48 56  1  0  0  0
 48 65  1  0  0  0
 48121  1  0  0  0
 49 50  1  0  0  0
 49 53  1  0  0  0
 49 64  1  0  0  0
 49122  1  0  0  0
 50 51  1  0  0  0
 50123  1  0  0  0
 50124  1  0  0  0
 51 52  1  0  0  0
 51125  1  0  0  0
 51126  1  0  0  0
 52127  1  0  0  0
 52128  1  0  0  0
 53 54  1  0  0  0
 54 55  2  0  0  0
 54129  1  0  0  0
 55 57  1  0  0  0
 55130  1  0  0  0
 56 69  2  0  0  0
 57 58  2  0  0  0
 57131  1  0  0  0
 58132  1  0  0  0
 59 60  1  0  0  0
 59 61  1  0  0  0
 59 62  1  0  0  0
 60133  1  0  0  0
 60134  1  0  0  0
 60135  1  0  0  0
 61136  1  0  0  0
 61137  1  0  0  0
 61138  1  0  0  0
 62139  1  0  0  0
 62140  1  0  0  0
 62141  1  0  0  0
 63 65  1  0  0  0
 63142  1  0  0  0
 63143  1  0  0  0
 63144  1  0  0  0
 64145  1  0  0  0
 65146  1  0  0  0
 68 84  1  0  0  0
 71 72  2  0  0  0
 71 75  1  0  0  0
 71147  1  0  0  0
 72 76  1  0  0  0
 72148  1  0  0  0
 73 74  1  0  0  0
 73 75  2  0  0  0
 73149  1  0  0  0
 74 76  2  0  0  0
 74 79  1  0  0  0
 75 83  1  0  0  0
 76 86  1  0  0  0
 77 80  1  0  0  0
 77 85  1  0  0  0
 77 87  2  0  0  0
 78 79  2  0  0  0
 78150  1  0  0  0
 78151  1  0  0  0
 79152  1  0  0  0
 80 81  1  0  0  0
 80153  1  0  0  0
 80154  1  0  0  0
 81 82  1  0  0  0
 81155  1  0  0  0
 81156  1  0  0  0
 82 84  1  0  0  0
 82 85  1  0  0  0
 82157  1  0  0  0
 83 85  1  0  0  0
 83158  1  0  0  0
 83159  1  0  0  0
 84160  1  0  0  0
 84161  1  0  0  0
 86162  1  0  0  0
M  ISO  4   1 100  68 101  84 101  86 100
M  END
> <chiral flag>
0

> <version>
0

> <s_m_source_file>
/data/baiqing/PycharmProjects/Reinvent-master-3.2/result/LINK_invent/BTK/process_docking_weight1_custom_product_contain_oxygen_bond_distance_aromatic_linkinvent_7_9_3/rearranged_h_0119.sdf

> <i_m_source_file_index>
22

> <r_mmod_Potential_Energy-OPLS-2005>
115.900108337402

> <r_mmod_Stretch_Energy-OPLS-2005>
90.8149490356445

> <r_mmod_Bend_Energy-OPLS-2005>
178.450866699219

> <r_mmod_Torsional_Energy-OPLS-2005>
287.915557861328

> <r_mmod_Improper_Torsional_Energy-OPLS-2005>
5.38581657409668

> <r_mmod_Van_der_Waal_Energy-OPLS-2005>
139.768600463867

> <r_mmod_Electrostatic_Energy-OPLS-2005>
-399.545532226562

> <r_mmod_Solvation_Energy-OPLS-2005>
-231.837142944336

> <b_mmod_Minimization_Converged-OPLS-2005>
0

> <r_mmod_RMS_Derivative-OPLS-2005>
4.33021354675293

$$$$
22
                    3D
 Structure written by MMmdl.
159167  0  0  1  0            999 V2000
  -30.7049  -14.5649   20.4411 C   0  0  0  0  0  0
  -30.4134  -12.3385   19.4486 C   0  0  0  0  0  0
  -29.4982  -12.4838   18.2144 C   0  0  0  0  0  0
  -28.0202  -12.3228   18.6233 C   0  0  0  0  0  0
  -27.6390  -13.2098   19.8380 C   0  0  2  0  0  0
  -28.6899  -13.1194   20.9724 C   0  0  0  0  0  0
  -25.2490  -13.8156   20.5661 C   0  0  0  0  0  0
  -24.1766  -13.0426   20.9212 C   0  0  0  0  0  0
  -24.6372  -11.6896   20.8775 C   0  0  0  0  0  0
  -23.9052  -10.4291   21.0424 C   0  0  0  0  0  0
  -24.3591   -9.4218   21.9206 C   0  0  0  0  0  0
  -23.6292   -8.2246   22.0751 C   0  0  0  0  0  0
  -22.4302   -8.0285   21.3527 C   0  0  0  0  0  0
  -21.9926   -9.0256   20.4638 C   0  0  0  0  0  0
  -22.7238  -10.2145   20.3074 C   0  0  0  0  0  0
  -21.6853   -6.0752   22.5291 C   0  0  0  0  0  0
  -21.3991   -6.5642   23.8214 C   0  0  0  0  0  0
  -21.3657   -5.6803   24.9166 C   0  0  0  0  0  0
  -21.6040   -4.3066   24.7227 C   0  0  0  0  0  0
  -21.8818   -3.8164   23.4348 C   0  0  0  0  0  0
  -21.9163   -4.6975   22.3399 C   0  0  0  0  0  0
  -22.7794  -13.5212   21.1888 C   0  0  0  0  0  0
  -22.1633   -4.2178   21.0994 F   0  0  0  0  0  0
  -21.5640   -3.4546   25.7746 F   0  0  0  0  0  0
  -30.0208  -13.3823   20.4091 N   0  0  0  0  0  0
  -26.2899  -12.9321   20.3230 N   0  0  0  0  0  0
  -25.9286  -11.6488   20.5727 N   0  0  0  0  0  0
  -22.0447  -12.8191   22.0444 N   0  0  0  0  0  0
  -25.4258  -15.1872   20.4013 N   0  0  0  0  0  0
  -31.9192  -14.6016   20.2403 O   0  0  0  0  0  0
  -21.6633   -6.8913   21.4275 O   0  0  0  0  0  0
  -22.3491  -14.5566   20.6816 O   0  0  0  0  0  0
  -24.6092  -31.8707   23.2032 C   0  0  0  0  0  0
  -25.9028  -32.4810   23.8334 C   0  0  1  0  0  0
  -27.2510  -27.4463   20.1266 C   0  0  0  0  0  0
  -25.5896  -33.8605   24.2275 N   0  0  0  0  0  0
  -23.3952  -30.4908   21.5502 C   0  0  2  0  0  0
  -24.8496  -28.9506   20.1217 C   0  0  0  0  0  0
  -22.7350  -29.4663   22.5016 C   0  0  0  0  0  0
  -18.0250  -28.1350   22.8439 C   0  0  0  0  0  0
  -24.1490  -36.7302   23.2629 C   0  0  0  0  0  0
  -25.9158  -30.8512   21.3489 C   0  0  0  0  0  0
  -26.0007  -29.4791   20.7103 C   0  0  0  0  0  0
  -27.2009  -28.7353   20.7028 C   0  0  0  0  0  0
  -26.0770  -26.9229   19.5359 C   0  0  0  0  0  0
  -24.8787  -27.6714   19.5363 C   0  0  0  0  0  0
  -23.6033  -29.8096   20.1699 C   0  0  0  0  0  0
  -25.4096  -36.3076   24.0307 C   0  0  1  0  0  0
  -20.5824  -28.3657   23.1305 C   0  0  2  0  0  0
  -20.6751  -26.9395   22.5407 C   0  0  0  0  0  0
  -19.5752  -26.6364   21.5195 C   0  0  0  0  0  0
  -18.1926  -26.7875   22.1594 C   0  0  0  0  0  0
  -19.1486  -28.8813   23.2865 C   0  0  0  0  0  0
  -18.9460  -30.1421   23.8861 C   0  0  0  0  0  0
  -17.6472  -30.6564   24.0571 C   0  0  0  0  0  0
  -25.9051  -34.9453   23.5080 C   0  0  0  0  0  0
  -16.5355  -29.9056   23.6355 C   0  0  0  0  0  0
  -16.7246  -28.6493   23.0304 C   0  0  0  0  0  0
  -26.4457  -31.6549   25.0659 C   0  0  0  0  0  0
  -25.3709  -31.3667   26.1424 C   0  0  0  0  0  0
  -27.0308  -30.2977   24.6057 C   0  0  0  0  0  0
  -27.6022  -32.4251   25.7443 C   0  0  0  0  0  0
  -27.5554  -37.1785   24.8450 C   0  0  0  0  0  0
  -21.4091  -29.3010   22.3711 N   0  0  0  0  0  0
  -26.4252  -37.3768   23.9412 N   0  0  0  0  0  0
  -24.6576  -31.0823   22.0942 N   0  0  0  0  0  0
  -23.4119  -28.8210   23.3058 O   0  0  0  0  0  0
  -28.4656  -26.7815   20.1852 O   0  0  0  0  0  0
  -26.5628  -34.8901   22.4634 O   0  0  0  0  0  0
  -23.5282  -32.1454   23.7444 O   0  0  0  0  0  0
  -29.9412  -19.5383   20.3855 C   0  0  0  0  0  0
  -29.3044  -18.2102   18.4564 C   0  0  0  0  0  0
  -29.8667  -18.2711   19.7430 C   0  0  0  0  0  0
  -29.5079  -20.7295   19.7317 C   0  0  0  0  0  0
  -28.9694  -19.3808   17.7485 C   0  0  0  0  0  0
  -29.1072  -20.6519   18.3612 C   0  0  0  0  0  0
  -30.4851  -17.0205   20.2525 C   0  0  0  0  0  0
  -29.4801  -22.0157   20.4855 C   0  0  0  0  0  0
  -29.8987  -15.7929   20.3048 C   0  0  0  0  0  0
  -28.5082  -22.9520   20.3425 C   0  0  0  0  0  0
  -28.5437  -19.2135   16.2968 C   0  0  0  0  0  0
  -28.9264  -21.9078   17.4930 C   0  0  0  0  0  0
  -28.4377  -24.3649   20.9166 C   0  0  0  0  0  0
  -28.6079  -25.4125   19.7845 C   0  0  0  0  0  0
  -31.4603  -12.4141   19.1527 H   0  0  0  0  0  0
  -30.2886  -11.3525   19.8969 H   0  0  0  0  0  0
  -29.7677  -11.7412   17.4629 H   0  0  0  0  0  0
  -29.6494  -13.4546   17.7376 H   0  0  0  0  0  0
  -27.8587  -11.2720   18.8694 H   0  0  0  0  0  0
  -27.3734  -12.5454   17.7725 H   0  0  0  0  0  0
  -27.6261  -14.2251   19.4537 H   0  0  0  0  0  0
  -28.6835  -12.1247   21.4217 H   0  0  0  0  0  0
  -28.4561  -13.8196   21.7768 H   0  0  0  0  0  0
  -25.2747   -9.5668   22.4754 H   0  0  0  0  0  0
  -24.0007   -7.4616   22.7458 H   0  0  0  0  0  0
  -21.0866   -8.8738   19.8945 H   0  0  0  0  0  0
  -22.3703  -10.9649   19.6154 H   0  0  0  0  0  0
  -21.1984   -7.6160   23.9740 H   0  0  0  0  0  0
  -21.1482   -6.0525   25.9079 H   0  0  0  0  0  0
  -22.0604   -2.7643   23.2833 H   0  0  0  0  0  0
  -22.4046  -11.9813   22.4796 H   0  0  0  0  0  0
  -21.1061  -13.1188   22.2675 H   0  0  0  0  0  0
  -24.6739  -15.8533   20.5258 H   0  0  0  0  0  0
  -26.2873  -15.6242   20.0995 H   0  0  0  0  0  0
  -26.7114  -32.5612   23.1117 H   0  0  0  0  0  0
  -25.0020  -33.9772   25.0418 H   0  0  0  0  0  0
  -22.6798  -31.3043   21.4060 H   0  0  0  0  0  0
  -23.3737  -35.9661   23.3317 H   0  0  0  0  0  0
  -24.3554  -36.8927   22.2040 H   0  0  0  0  0  0
  -23.7312  -37.6516   23.6666 H   0  0  0  0  0  0
  -26.0111  -31.6124   20.5736 H   0  0  0  0  0  0
  -26.8012  -30.9139   21.9694 H   0  0  0  0  0  0
  -28.0961  -29.1471   21.1500 H   0  0  0  0  0  0
  -26.0588  -25.9449   19.0824 H   0  0  0  0  0  0
  -23.9892  -27.2441   19.0996 H   0  0  0  0  0  0
  -23.6990  -30.5834   19.4052 H   0  0  0  0  0  0
  -22.7297  -29.2218   19.8843 H   0  0  0  0  0  0
  -25.1283  -36.1867   25.0795 H   0  0  0  0  0  0
  -20.9902  -28.3258   24.1432 H   0  0  0  0  0  0
  -20.5637  -26.2283   23.3600 H   0  0  0  0  0  0
  -21.6632  -26.7418   22.1245 H   0  0  0  0  0  0
  -19.6936  -25.6275   21.1235 H   0  0  0  0  0  0
  -19.6696  -27.3187   20.6728 H   0  0  0  0  0  0
  -17.4196  -26.6616   21.3998 H   0  0  0  0  0  0
  -18.0315  -25.9971   22.8947 H   0  0  0  0  0  0
  -19.7954  -30.7265   24.2132 H   0  0  0  0  0  0
  -17.5062  -31.6232   24.5202 H   0  0  0  0  0  0
  -15.5369  -30.2991   23.7692 H   0  0  0  0  0  0
  -15.8642  -28.0895   22.6913 H   0  0  0  0  0  0
  -24.5933  -30.6940   25.7794 H   0  0  0  0  0  0
  -24.8851  -32.2841   26.4757 H   0  0  0  0  0  0
  -25.8028  -30.8946   27.0273 H   0  0  0  0  0  0
  -26.2894  -29.6733   24.1070 H   0  0  0  0  0  0
  -27.4062  -29.7175   25.4515 H   0  0  0  0  0  0
  -27.8684  -30.4277   23.9194 H   0  0  0  0  0  0
  -27.2640  -33.3565   26.1976 H   0  0  0  0  0  0
  -28.3862  -32.6782   25.0298 H   0  0  0  0  0  0
  -28.0682  -31.8435   26.5433 H   0  0  0  0  0  0
  -28.2529  -38.0118   24.7502 H   0  0  0  0  0  0
  -28.1077  -36.2636   24.6230 H   0  0  0  0  0  0
  -27.2288  -37.1397   25.8861 H   0  0  0  0  0  0
  -20.9261  -29.8728   21.6937 H   0  0  0  0  0  0
  -26.0127  -38.2819   24.1458 H   0  0  0  0  0  0
  -30.3519  -19.6021   21.3839 H   0  0  0  0  0  0
  -29.2395  -17.2578   17.9408 H   0  0  0  0  0  0
  -31.5450  -17.1088   20.4565 H   0  0  0  0  0  0
  -30.3202  -22.2146   21.1351 H   0  0  0  0  0  0
  -28.8389  -15.7499   20.1426 H   0  0  0  0  0  0
  -27.6649  -22.7161   19.7089 H   0  0  0  0  0  0
  -27.8401  -18.3868   16.2143 H   0  0  0  0  0  0
  -29.4101  -18.9765   15.6737 H   0  0  0  0  0  0
  -28.0453  -20.0876   15.8798 H   0  0  0  0  0  0
  -27.8847  -22.0802   17.2146 H   0  0  0  0  0  0
  -29.5065  -21.8098   16.5754 H   0  0  0  0  0  0
  -29.3184  -22.8171   17.9421 H   0  0  0  0  0  0
  -29.1692  -24.5073   21.7145 H   0  0  0  0  0  0
  -27.4528  -24.4826   21.3719 H   0  0  0  0  0  0
  -27.9790  -25.1687   18.9331 H   0  0  0  0  0  0
  -29.6267  -25.3224   19.4026 H   0  0  0  0  0  0
  1 25  1  0  0  0
  1 30  2  0  0  0
  1 79  1  0  0  0
  2  3  1  0  0  0
  2 25  1  0  0  0
  2 85  1  0  0  0
  2 86  1  0  0  0
  3  4  1  0  0  0
  3 87  1  0  0  0
  3 88  1  0  0  0
  4  5  1  0  0  0
  4 89  1  0  0  0
  4 90  1  0  0  0
  5  6  1  0  0  0
  5 26  1  0  0  0
  5 91  1  0  0  0
  6 25  1  0  0  0
  6 92  1  0  0  0
  6 93  1  0  0  0
  7  8  2  0  0  0
  7 26  1  0  0  0
  7 29  1  0  0  0
  8  9  1  0  0  0
  8 22  1  0  0  0
  9 10  1  0  0  0
  9 27  2  0  0  0
 10 11  2  0  0  0
 10 15  1  0  0  0
 11 12  1  0  0  0
 11 94  1  0  0  0
 12 13  2  0  0  0
 12 95  1  0  0  0
 13 14  1  0  0  0
 13 31  1  0  0  0
 14 15  2  0  0  0
 14 96  1  0  0  0
 15 97  1  0  0  0
 16 17  2  0  0  0
 16 21  1  0  0  0
 16 31  1  0  0  0
 17 18  1  0  0  0
 17 98  1  0  0  0
 18 19  2  0  0  0
 18 99  1  0  0  0
 19 20  1  0  0  0
 19 24  1  0  0  0
 20 21  2  0  0  0
 20100  1  0  0  0
 21 23  1  0  0  0
 22 28  1  0  0  0
 22 32  2  0  0  0
 26 27  1  0  0  0
 28101  1  0  0  0
 28102  1  0  0  0
 29103  1  0  0  0
 29104  1  0  0  0
 33 34  1  0  0  0
 33 66  1  0  0  0
 33 70  2  0  0  0
 34 36  1  0  0  0
 34 59  1  0  0  0
 34105  1  0  0  0
 35 44  2  0  0  0
 35 45  1  0  0  0
 35 68  1  0  0  0
 36 56  1  0  0  0
 36106  1  0  0  0
 37 39  1  0  0  0
 37 47  1  0  0  0
 37 66  1  0  0  0
 37107  1  0  0  0
 38 43  2  0  0  0
 38 46  1  0  0  0
 38 47  1  0  0  0
 39 64  1  0  0  0
 39 67  2  0  0  0
 40 52  1  0  0  0
 40 53  2  0  0  0
 40 58  1  0  0  0
 41108  1  0  0  0
 41109  1  0  0  0
 41110  1  0  0  0
 41 48  1  0  0  0
 42 43  1  0  0  0
 42 66  1  0  0  0
 42111  1  0  0  0
 42112  1  0  0  0
 43 44  1  0  0  0
 44113  1  0  0  0
 45 46  2  0  0  0
 45114  1  0  0  0
 46115  1  0  0  0
 47116  1  0  0  0
 47117  1  0  0  0
 48 56  1  0  0  0
 48 65  1  0  0  0
 48118  1  0  0  0
 49 50  1  0  0  0
 49 53  1  0  0  0
 49 64  1  0  0  0
 49119  1  0  0  0
 50 51  1  0  0  0
 50120  1  0  0  0
 50121  1  0  0  0
 51 52  1  0  0  0
 51122  1  0  0  0
 51123  1  0  0  0
 52124  1  0  0  0
 52125  1  0  0  0
 53 54  1  0  0  0
 54 55  2  0  0  0
 54126  1  0  0  0
 55 57  1  0  0  0
 55127  1  0  0  0
 56 69  2  0  0  0
 57 58  2  0  0  0
 57128  1  0  0  0
 58129  1  0  0  0
 59 60  1  0  0  0
 59 61  1  0  0  0
 59 62  1  0  0  0
 60130  1  0  0  0
 60131  1  0  0  0
 60132  1  0  0  0
 61133  1  0  0  0
 61134  1  0  0  0
 61135  1  0  0  0
 62136  1  0  0  0
 62137  1  0  0  0
 62138  1  0  0  0
 63 65  1  0  0  0
 63139  1  0  0  0
 63140  1  0  0  0
 63141  1  0  0  0
 64142  1  0  0  0
 65143  1  0  0  0
 68 84  1  0  0  0
 71 73  2  0  0  0
 71 74  1  0  0  0
 71144  1  0  0  0
 72 73  1  0  0  0
 72 75  2  0  0  0
 72145  1  0  0  0
 73 77  1  0  0  0
 74 76  2  0  0  0
 74 78  1  0  0  0
 75 76  1  0  0  0
 75 81  1  0  0  0
 76 82  1  0  0  0
 77 79  2  0  0  0
 77146  1  0  0  0
 78 80  2  0  0  0
 78147  1  0  0  0
 79148  1  0  0  0
 80 83  1  0  0  0
 80149  1  0  0  0
 81150  1  0  0  0
 81151  1  0  0  0
 81152  1  0  0  0
 82153  1  0  0  0
 82154  1  0  0  0
 82155  1  0  0  0
 83 84  1  0  0  0
 83156  1  0  0  0
 83157  1  0  0  0
 84158  1  0  0  0
 84159  1  0  0  0
M  ISO  4   1 100  68 101  79 100  84 101
M  END
> <chiral flag>
0

> <version>
0

> <s_m_source_file>
/data/baiqing/PycharmProjects/Reinvent-master-3.2/result/LINK_invent/BTK/process_docking_weight1_custom_product_contain_oxygen_bond_distance_aromatic_linkinvent_7_9_3/rearranged_h_0119.sdf

> <i_m_source_file_index>
23

> <r_mmod_Potential_Energy-OPLS-2005>
73.5213851928711

> <r_mmod_Stretch_Energy-OPLS-2005>
43.6394996643066

> <r_mmod_Bend_Energy-OPLS-2005>
116.68782043457

> <r_mmod_Torsional_Energy-OPLS-2005>
236.833770751953

> <r_mmod_Improper_Torsional_Energy-OPLS-2005>
16.5231895446777

> <r_mmod_Van_der_Waal_Energy-OPLS-2005>
161.582901000977

> <r_mmod_Electrostatic_Energy-OPLS-2005>
-345.924346923828

> <r_mmod_Solvation_Energy-OPLS-2005>
-189.894500732422

> <b_mmod_Minimization_Converged-OPLS-2005>
0

> <r_mmod_RMS_Derivative-OPLS-2005>
6.5845308303833

$$$$
23
                    3D
 Structure written by MMmdl.
160168  0  0  1  0            999 V2000
  -30.6548  -14.5459   20.5981 C   0  0  0  0  0  0
  -30.4398  -12.3584   19.4323 C   0  0  0  0  0  0
  -29.5107  -12.5247   18.2122 C   0  0  0  0  0  0
  -28.0289  -12.3675   18.6157 C   0  0  0  0  0  0
  -27.6608  -13.2070   19.8668 C   0  0  2  0  0  0
  -28.7006  -13.0004   20.9912 C   0  0  0  0  0  0
  -25.2605  -13.8160   20.5685 C   0  0  0  0  0  0
  -24.1851  -13.0447   20.9197 C   0  0  0  0  0  0
  -24.6390  -11.6916   20.8726 C   0  0  0  0  0  0
  -23.9052  -10.4310   21.0396 C   0  0  0  0  0  0
  -24.3598   -9.4223   21.9185 C   0  0  0  0  0  0
  -23.6271   -8.2262   22.0747 C   0  0  0  0  0  0
  -22.4256   -8.0308   21.3540 C   0  0  0  0  0  0
  -21.9888   -9.0280   20.4658 C   0  0  0  0  0  0
  -22.7222  -10.2144   20.3060 C   0  0  0  0  0  0
  -21.6852   -6.0746   22.5284 C   0  0  0  0  0  0
  -21.4022   -6.5642   23.8224 C   0  0  0  0  0  0
  -21.3656   -5.6791   24.9189 C   0  0  0  0  0  0
  -21.6033   -4.3052   24.7239 C   0  0  0  0  0  0
  -21.8819   -3.8157   23.4360 C   0  0  0  0  0  0
  -21.9198   -4.6975   22.3414 C   0  0  0  0  0  0
  -22.7876  -13.5272   21.1858 C   0  0  0  0  0  0
  -22.1663   -4.2167   21.0980 F   0  0  0  0  0  0
  -21.5606   -3.4533   25.7747 F   0  0  0  0  0  0
  -30.0236  -13.3434   20.4443 N   0  0  0  0  0  0
  -26.3016  -12.9320   20.3299 N   0  0  0  0  0  0
  -25.9308  -11.6481   20.5705 N   0  0  0  0  0  0
  -22.0454  -12.8309   22.0392 N   0  0  0  0  0  0
  -25.4359  -15.1886   20.4109 N   0  0  0  0  0  0
  -31.7969  -14.7521   20.1778 O   0  0  0  0  0  0
  -21.6632   -6.8888   21.4246 O   0  0  0  0  0  0
  -22.3594  -14.5581   20.6694 O   0  0  0  0  0  0
  -24.6193  -31.8672   23.2062 C   0  0  0  0  0  0
  -25.9081  -32.4824   23.8360 C   0  0  1  0  0  0
  -27.2303  -27.3755   20.1137 C   0  0  0  0  0  0
  -25.5942  -33.8615   24.2315 N   0  0  0  0  0  0
  -23.4092  -30.4885   21.5466 C   0  0  2  0  0  0
  -24.8582  -28.9535   20.1088 C   0  0  0  0  0  0
  -22.7434  -29.4657   22.4972 C   0  0  0  0  0  0
  -18.0285  -28.1421   22.8469 C   0  0  0  0  0  0
  -24.1478  -36.7265   23.2631 C   0  0  0  0  0  0
  -25.9415  -30.8158   21.3689 C   0  0  0  0  0  0
  -26.0200  -29.4457   20.7157 C   0  0  0  0  0  0
  -27.2039  -28.6625   20.7183 C   0  0  0  0  0  0
  -26.0514  -26.9300   19.4672 C   0  0  0  0  0  0
  -24.8740  -27.7003   19.4778 C   0  0  0  0  0  0
  -23.6216  -29.8231   20.1602 C   0  0  0  0  0  0
  -25.4107  -36.3092   24.0332 C   0  0  1  0  0  0
  -20.5879  -28.3695   23.1311 C   0  0  2  0  0  0
  -20.6784  -26.9433   22.5413 C   0  0  0  0  0  0
  -19.5776  -26.6409   21.5198 C   0  0  0  0  0  0
  -18.1937  -26.7962   22.1588 C   0  0  0  0  0  0
  -19.1524  -28.8870   23.2886 C   0  0  0  0  0  0
  -18.9468  -30.1457   23.8924 C   0  0  0  0  0  0
  -17.6471  -30.6612   24.0559 C   0  0  0  0  0  0
  -25.9043  -34.9476   23.5111 C   0  0  0  0  0  0
  -16.5359  -29.9105   23.6333 C   0  0  0  0  0  0
  -16.7264  -28.6520   23.0348 C   0  0  0  0  0  0
  -26.4502  -31.6633   25.0713 C   0  0  0  0  0  0
  -25.3751  -31.3793   26.1462 C   0  0  0  0  0  0
  -27.0317  -30.3063   24.6128 C   0  0  0  0  0  0
  -27.6093  -32.4331   25.7456 C   0  0  0  0  0  0
  -27.5583  -37.1777   24.8452 C   0  0  0  0  0  0
  -21.4161  -29.3050   22.3704 N   0  0  0  0  0  0
  -26.4278  -37.3800   23.9428 N   0  0  0  0  0  0
  -24.6744  -31.0717   22.1000 N   0  0  0  0  0  0
  -23.4174  -28.8200   23.3029 O   0  0  0  0  0  0
  -28.3828  -26.5951   20.1857 O   0  0  0  0  0  0
  -26.5559  -34.8934   22.4645 O   0  0  0  0  0  0
  -23.5376  -32.1459   23.7424 O   0  0  0  0  0  0
  -30.7137  -18.1814   23.5773 C   0  0  0  0  0  0
  -30.0202  -18.0367   20.8805 C   0  0  0  0  0  0
  -30.6142  -19.3836   22.8385 C   0  0  0  0  0  0
  -30.4993  -16.9195   22.9913 C   0  0  0  0  0  0
  -30.1875  -16.8249   21.6151 C   0  0  0  0  0  0
  -30.1862  -19.3262   21.4785 C   0  0  0  0  0  0
  -30.9417  -20.9015   24.8246 C   0  0  0  0  0  0
  -30.9969  -20.6471   23.5042 C   0  0  0  0  0  0
  -29.0655  -24.2532   20.8504 C   0  0  0  0  0  0
  -30.6056  -15.6788   23.8609 C   0  0  0  0  0  0
  -29.6234  -22.8920   20.3402 C   0  0  0  0  0  0
  -28.3250  -25.1758   19.8424 C   0  0  0  0  0  0
  -29.2010  -21.5877   21.0991 C   0  0  0  0  0  0
  -29.8542  -15.5416   21.0586 N   0  0  0  0  0  0
  -29.2295  -24.5995   22.0249 O   0  0  0  0  0  0
  -30.0217  -20.4610   20.6761 O   0  0  0  0  0  0
  -31.4831  -12.4831   19.1377 H   0  0  0  0  0  0
  -30.3574  -11.3484   19.8380 H   0  0  0  0  0  0
  -29.7679  -11.8004   17.4380 H   0  0  0  0  0  0
  -29.6714  -13.5096   17.7702 H   0  0  0  0  0  0
  -27.8458  -11.3118   18.8178 H   0  0  0  0  0  0
  -27.3865  -12.6357   17.7779 H   0  0  0  0  0  0
  -27.6980  -14.2523   19.5577 H   0  0  0  0  0  0
  -28.6981  -11.9610   21.3253 H   0  0  0  0  0  0
  -28.4446  -13.5848   21.8753 H   0  0  0  0  0  0
  -25.2719   -9.5707   22.4778 H   0  0  0  0  0  0
  -23.9994   -7.4639   22.7449 H   0  0  0  0  0  0
  -21.0817   -8.8815   19.8945 H   0  0  0  0  0  0
  -22.3689  -10.9693   19.6185 H   0  0  0  0  0  0
  -21.2007   -7.6140   23.9741 H   0  0  0  0  0  0
  -21.1455   -6.0506   25.9082 H   0  0  0  0  0  0
  -22.0585   -2.7617   23.2878 H   0  0  0  0  0  0
  -22.4001  -12.0001   22.4866 H   0  0  0  0  0  0
  -21.1053  -13.1391   22.2472 H   0  0  0  0  0  0
  -24.6734  -15.8484   20.5199 H   0  0  0  0  0  0
  -26.2822  -15.6200   20.0585 H   0  0  0  0  0  0
  -26.7148  -32.5518   23.1108 H   0  0  0  0  0  0
  -25.0210  -33.9777   25.0539 H   0  0  0  0  0  0
  -22.7015  -31.3071   21.4050 H   0  0  0  0  0  0
  -23.3787  -35.9545   23.3267 H   0  0  0  0  0  0
  -24.3572  -36.8901   22.2050 H   0  0  0  0  0  0
  -23.7182  -37.6447   23.6646 H   0  0  0  0  0  0
  -26.0613  -31.5833   20.6024 H   0  0  0  0  0  0
  -26.8262  -30.8691   21.9910 H   0  0  0  0  0  0
  -28.0932  -29.0331   21.2127 H   0  0  0  0  0  0
  -26.0016  -25.9879   18.9427 H   0  0  0  0  0  0
  -23.9860  -27.3265   18.9890 H   0  0  0  0  0  0
  -23.7330  -30.5951   19.3974 H   0  0  0  0  0  0
  -22.7465  -29.2433   19.8608 H   0  0  0  0  0  0
  -25.1291  -36.1939   25.0824 H   0  0  0  0  0  0
  -20.9944  -28.3263   24.1438 H   0  0  0  0  0  0
  -20.5706  -26.2286   23.3585 H   0  0  0  0  0  0
  -21.6668  -26.7497   22.1218 H   0  0  0  0  0  0
  -19.6934  -25.6314   21.1238 H   0  0  0  0  0  0
  -19.6727  -27.3203   20.6711 H   0  0  0  0  0  0
  -17.4216  -26.6696   21.3988 H   0  0  0  0  0  0
  -18.0334  -26.0125   22.8995 H   0  0  0  0  0  0
  -19.7945  -30.7251   24.2343 H   0  0  0  0  0  0
  -17.5038  -31.6300   24.5131 H   0  0  0  0  0  0
  -15.5370  -30.3008   23.7691 H   0  0  0  0  0  0
  -15.8646  -28.0827   22.7109 H   0  0  0  0  0  0
  -24.5880  -30.7196   25.7811 H   0  0  0  0  0  0
  -24.9000  -32.2980   26.4922 H   0  0  0  0  0  0
  -25.8102  -30.8950   27.0214 H   0  0  0  0  0  0
  -26.2863  -29.6832   24.1191 H   0  0  0  0  0  0
  -27.4093  -29.7331   25.4611 H   0  0  0  0  0  0
  -27.8693  -30.4380   23.9271 H   0  0  0  0  0  0
  -27.2768  -33.3656   26.2033 H   0  0  0  0  0  0
  -28.3902  -32.6867   25.0265 H   0  0  0  0  0  0
  -28.0757  -31.8451   26.5379 H   0  0  0  0  0  0
  -28.2599  -38.0091   24.7582 H   0  0  0  0  0  0
  -28.1099  -36.2641   24.6175 H   0  0  0  0  0  0
  -27.2303  -37.1305   25.8856 H   0  0  0  0  0  0
  -20.9345  -29.8715   21.6868 H   0  0  0  0  0  0
  -26.0165  -38.2858   24.1516 H   0  0  0  0  0  0
  -31.0022  -18.2200   24.6188 H   0  0  0  0  0  0
  -29.7416  -17.9788   19.8374 H   0  0  0  0  0  0
  -31.2868  -21.8493   25.2176 H   0  0  0  0  0  0
  -30.5564  -20.1911   25.5425 H   0  0  0  0  0  0
  -31.3957  -21.4205   22.8627 H   0  0  0  0  0  0
  -30.7263  -15.9366   24.9146 H   0  0  0  0  0  0
  -31.4632  -15.0747   23.5630 H   0  0  0  0  0  0
  -29.7038  -15.0747   23.7673 H   0  0  0  0  0  0
  -30.7075  -22.9752   20.4017 H   0  0  0  0  0  0
  -29.3910  -22.7934   19.2809 H   0  0  0  0  0  0
  -27.3101  -24.7880   19.8248 H   0  0  0  0  0  0
  -28.7496  -25.0341   18.8490 H   0  0  0  0  0  0
  -28.1647  -21.3555   20.8465 H   0  0  0  0  0  0
  -29.1953  -21.7599   22.1729 H   0  0  0  0  0  0
  -28.9105  -15.2383   21.2415 H   0  0  0  0  0  0
  1 25  1  0  0  0
  1 30  2  0  0  0
  1 84  1  0  0  0
  2  3  1  0  0  0
  2 25  1  0  0  0
  2 87  1  0  0  0
  2 88  1  0  0  0
  3  4  1  0  0  0
  3 89  1  0  0  0
  3 90  1  0  0  0
  4  5  1  0  0  0
  4 91  1  0  0  0
  4 92  1  0  0  0
  5  6  1  0  0  0
  5 26  1  0  0  0
  5 93  1  0  0  0
  6 25  1  0  0  0
  6 94  1  0  0  0
  6 95  1  0  0  0
  7  8  2  0  0  0
  7 26  1  0  0  0
  7 29  1  0  0  0
  8  9  1  0  0  0
  8 22  1  0  0  0
  9 10  1  0  0  0
  9 27  2  0  0  0
 10 11  2  0  0  0
 10 15  1  0  0  0
 11 12  1  0  0  0
 11 96  1  0  0  0
 12 13  2  0  0  0
 12 97  1  0  0  0
 13 14  1  0  0  0
 13 31  1  0  0  0
 14 15  2  0  0  0
 14 98  1  0  0  0
 15 99  1  0  0  0
 16 17  2  0  0  0
 16 21  1  0  0  0
 16 31  1  0  0  0
 17 18  1  0  0  0
 17100  1  0  0  0
 18 19  2  0  0  0
 18101  1  0  0  0
 19 20  1  0  0  0
 19 24  1  0  0  0
 20 21  2  0  0  0
 20102  1  0  0  0
 21 23  1  0  0  0
 22 28  1  0  0  0
 22 32  2  0  0  0
 26 27  1  0  0  0
 28103  1  0  0  0
 28104  1  0  0  0
 29105  1  0  0  0
 29106  1  0  0  0
 33 34  1  0  0  0
 33 66  1  0  0  0
 33 70  2  0  0  0
 34 36  1  0  0  0
 34 59  1  0  0  0
 34107  1  0  0  0
 35 44  2  0  0  0
 35 45  1  0  0  0
 35 68  1  0  0  0
 36 56  1  0  0  0
 36108  1  0  0  0
 37 39  1  0  0  0
 37 47  1  0  0  0
 37 66  1  0  0  0
 37109  1  0  0  0
 38 43  2  0  0  0
 38 46  1  0  0  0
 38 47  1  0  0  0
 39 64  1  0  0  0
 39 67  2  0  0  0
 40 52  1  0  0  0
 40 53  2  0  0  0
 40 58  1  0  0  0
 41110  1  0  0  0
 41111  1  0  0  0
 41112  1  0  0  0
 41 48  1  0  0  0
 42 43  1  0  0  0
 42 66  1  0  0  0
 42113  1  0  0  0
 42114  1  0  0  0
 43 44  1  0  0  0
 44115  1  0  0  0
 45 46  2  0  0  0
 45116  1  0  0  0
 46117  1  0  0  0
 47118  1  0  0  0
 47119  1  0  0  0
 48 56  1  0  0  0
 48 65  1  0  0  0
 48120  1  0  0  0
 49 50  1  0  0  0
 49 53  1  0  0  0
 49 64  1  0  0  0
 49121  1  0  0  0
 50 51  1  0  0  0
 50122  1  0  0  0
 50123  1  0  0  0
 51 52  1  0  0  0
 51124  1  0  0  0
 51125  1  0  0  0
 52126  1  0  0  0
 52127  1  0  0  0
 53 54  1  0  0  0
 54 55  2  0  0  0
 54128  1  0  0  0
 55 57  1  0  0  0
 55129  1  0  0  0
 56 69  2  0  0  0
 57 58  2  0  0  0
 57130  1  0  0  0
 58131  1  0  0  0
 59 60  1  0  0  0
 59 61  1  0  0  0
 59 62  1  0  0  0
 60132  1  0  0  0
 60133  1  0  0  0
 60134  1  0  0  0
 61135  1  0  0  0
 61136  1  0  0  0
 61137  1  0  0  0
 62138  1  0  0  0
 62139  1  0  0  0
 62140  1  0  0  0
 63 65  1  0  0  0
 63141  1  0  0  0
 63142  1  0  0  0
 63143  1  0  0  0
 64144  1  0  0  0
 65145  1  0  0  0
 68 82  1  0  0  0
 71 73  2  0  0  0
 71 74  1  0  0  0
 71146  1  0  0  0
 72 75  1  0  0  0
 72 76  2  0  0  0
 72147  1  0  0  0
 73 76  1  0  0  0
 73 78  1  0  0  0
 74 75  2  0  0  0
 74 80  1  0  0  0
 75 84  1  0  0  0
 76 86  1  0  0  0
 77 78  2  0  0  0
 77148  1  0  0  0
 77149  1  0  0  0
 78150  1  0  0  0
 79 81  1  0  0  0
 79 82  1  0  0  0
 79 85  2  0  0  0
 80151  1  0  0  0
 80152  1  0  0  0
 80153  1  0  0  0
 81 83  1  0  0  0
 81154  1  0  0  0
 81155  1  0  0  0
 82156  1  0  0  0
 82157  1  0  0  0
 83 86  1  0  0  0
 83158  1  0  0  0
 83159  1  0  0  0
 84160  1  0  0  0
M  ISO  4   1 100  68 101  82 101  84 100
M  END
> <chiral flag>
0

> <version>
0

> <s_m_source_file>
/data/baiqing/PycharmProjects/Reinvent-master-3.2/result/LINK_invent/BTK/process_docking_weight1_custom_product_contain_oxygen_bond_distance_aromatic_linkinvent_7_9_3/rearranged_h_0119.sdf

> <i_m_source_file_index>
24

> <r_mmod_Potential_Energy-OPLS-2005>
30.6357002258301

> <r_mmod_Stretch_Energy-OPLS-2005>
55.9049682617188

> <r_mmod_Bend_Energy-OPLS-2005>
123.675491333008

> <r_mmod_Torsional_Energy-OPLS-2005>
269.983428955078

> <r_mmod_Improper_Torsional_Energy-OPLS-2005>
6.603271484375

> <r_mmod_Van_der_Waal_Energy-OPLS-2005>
152.93310546875

> <r_mmod_Electrostatic_Energy-OPLS-2005>
-373.775817871094

> <r_mmod_Solvation_Energy-OPLS-2005>
-231.403472900391

> <b_mmod_Minimization_Converged-OPLS-2005>
0

> <r_mmod_RMS_Derivative-OPLS-2005>
4.06208801269531

$$$$
24
                    3D
 Structure written by MMmdl.
155163  0  0  1  0            999 V2000
  -30.6346  -14.6957   20.4472 C   0  0  0  0  0  0
  -30.4389  -12.4203   19.4565 C   0  0  0  0  0  0
  -29.5065  -12.4988   18.2271 C   0  0  0  0  0  0
  -28.0358  -12.3197   18.6520 C   0  0  0  0  0  0
  -27.6434  -13.2233   19.8505 C   0  0  2  0  0  0
  -28.6971  -13.1426   20.9811 C   0  0  0  0  0  0
  -25.2367  -13.8055   20.5593 C   0  0  0  0  0  0
  -24.1728  -13.0315   20.9215 C   0  0  0  0  0  0
  -24.6377  -11.6835   20.8768 C   0  0  0  0  0  0
  -23.9065  -10.4231   21.0412 C   0  0  0  0  0  0
  -24.3623   -9.4161   21.9196 C   0  0  0  0  0  0
  -23.6283   -8.2213   22.0772 C   0  0  0  0  0  0
  -22.4259   -8.0268   21.3553 C   0  0  0  0  0  0
  -21.9887   -9.0237   20.4650 C   0  0  0  0  0  0
  -22.7238  -10.2104   20.3059 C   0  0  0  0  0  0
  -21.6842   -6.0701   22.5270 C   0  0  0  0  0  0
  -21.4020   -6.5618   23.8203 C   0  0  0  0  0  0
  -21.3656   -5.6781   24.9163 C   0  0  0  0  0  0
  -21.6044   -4.3043   24.7226 C   0  0  0  0  0  0
  -21.8815   -3.8122   23.4354 C   0  0  0  0  0  0
  -21.9193   -4.6931   22.3400 C   0  0  0  0  0  0
  -22.7748  -13.5109   21.1859 C   0  0  0  0  0  0
  -22.1662   -4.2117   21.0977 F   0  0  0  0  0  0
  -21.5621   -3.4530   25.7745 F   0  0  0  0  0  0
  -30.0103  -13.4722   20.4004 N   0  0  0  0  0  0
  -26.2907  -12.9345   20.3264 N   0  0  0  0  0  0
  -25.9327  -11.6495   20.5802 N   0  0  0  0  0  0
  -22.0403  -12.8150   22.0447 N   0  0  0  0  0  0
  -25.3655  -15.1729   20.3854 N   0  0  0  0  0  0
  -31.8206  -14.8183   20.1337 O   0  0  0  0  0  0
  -21.6634   -6.8854   21.4232 O   0  0  0  0  0  0
  -22.3445  -14.5430   20.6720 O   0  0  0  0  0  0
  -24.6271  -31.8589   23.2022 C   0  0  0  0  0  0
  -25.9114  -32.4768   23.8348 C   0  0  1  0  0  0
  -27.2368  -27.3255   20.1079 C   0  0  0  0  0  0
  -25.5922  -33.8563   24.2283 N   0  0  0  0  0  0
  -23.4203  -30.4826   21.5436 C   0  0  2  0  0  0
  -24.8690  -28.9363   20.1117 C   0  0  0  0  0  0
  -22.7481  -29.4619   22.4935 C   0  0  0  0  0  0
  -18.0297  -28.1371   22.8479 C   0  0  0  0  0  0
  -24.1497  -36.7304   23.2645 C   0  0  0  0  0  0
  -25.9614  -30.7905   21.3734 C   0  0  0  0  0  0
  -26.0374  -29.4184   20.7149 C   0  0  0  0  0  0
  -27.2230  -28.6245   20.7053 C   0  0  0  0  0  0
  -26.0392  -26.8922   19.4905 C   0  0  0  0  0  0
  -24.8704  -27.6774   19.4930 C   0  0  0  0  0  0
  -23.6357  -29.8143   20.1596 C   0  0  0  0  0  0
  -25.4116  -36.3072   24.0336 C   0  0  1  0  0  0
  -20.5896  -28.3675   23.1275 C   0  0  2  0  0  0
  -20.6778  -26.9395   22.5404 C   0  0  0  0  0  0
  -19.5747  -26.6368   21.5213 C   0  0  0  0  0  0
  -18.1933  -26.7910   22.1627 C   0  0  0  0  0  0
  -19.1547  -28.8844   23.2876 C   0  0  0  0  0  0
  -18.9469  -30.1443   23.8904 C   0  0  0  0  0  0
  -17.6466  -30.6557   24.0570 C   0  0  0  0  0  0
  -25.9045  -34.9446   23.5113 C   0  0  0  0  0  0
  -16.5362  -29.9062   23.6319 C   0  0  0  0  0  0
  -16.7281  -28.6476   23.0346 C   0  0  0  0  0  0
  -26.4501  -31.6572   25.0718 C   0  0  0  0  0  0
  -25.3733  -31.3759   26.1461 C   0  0  0  0  0  0
  -27.0337  -30.2981   24.6186 C   0  0  0  0  0  0
  -27.6063  -32.4316   25.7474 C   0  0  0  0  0  0
  -27.5570  -37.1823   24.8478 C   0  0  0  0  0  0
  -21.4195  -29.3035   22.3673 N   0  0  0  0  0  0
  -26.4312  -37.3741   23.9378 N   0  0  0  0  0  0
  -24.6881  -31.0608   22.0971 N   0  0  0  0  0  0
  -23.4210  -28.8166   23.3016 O   0  0  0  0  0  0
  -28.3698  -26.4943   20.1367 O   0  0  0  0  0  0
  -26.5599  -34.8903   22.4673 O   0  0  0  0  0  0
  -23.5438  -32.1393   23.7349 O   0  0  0  0  0  0
  -28.8996  -19.4788   20.0631 C   0  0  0  0  0  0
  -31.1627  -17.9633   20.7306 C   0  0  0  0  0  0
  -28.8447  -18.0517   20.0991 C   0  0  0  0  0  0
  -30.0797  -20.2037   20.3636 C   0  0  0  0  0  0
  -29.9680  -17.2414   20.4698 C   0  0  0  0  0  0
  -31.2149  -19.3932   20.6747 C   0  0  0  0  0  0
  -29.2714  -22.5442   20.1814 C   0  0  0  0  0  0
  -29.4222  -24.1113   20.1797 C   0  0  0  0  0  0
  -27.4836  -17.0473   18.2076 C   0  0  0  0  0  0
  -27.5319  -17.4134   19.7018 C   0  0  0  0  0  0
  -28.1713  -25.0381   19.9251 C   0  0  0  0  0  0
  -30.2041  -21.6454   20.3561 N   0  0  0  0  0  0
  -29.8109  -15.7811   20.6334 N   0  0  0  0  0  0
  -30.5280  -24.6417   20.3545 O   0  0  0  0  0  0
  -32.3983  -19.9989   20.9431 F   0  0  0  0  0  0
  -31.4793  -12.5415   19.1483 H   0  0  0  0  0  0
  -30.3753  -11.4401   19.9307 H   0  0  0  0  0  0
  -29.7788  -11.7338   17.4984 H   0  0  0  0  0  0
  -29.6333  -13.4595   17.7241 H   0  0  0  0  0  0
  -27.9013  -11.2713   18.9247 H   0  0  0  0  0  0
  -27.3730  -12.5001   17.8053 H   0  0  0  0  0  0
  -27.6366  -14.2439   19.4696 H   0  0  0  0  0  0
  -28.7186  -12.1460   21.4218 H   0  0  0  0  0  0
  -28.4399  -13.8245   21.7938 H   0  0  0  0  0  0
  -25.2781   -9.5622   22.4754 H   0  0  0  0  0  0
  -23.9967   -7.4604   22.7511 H   0  0  0  0  0  0
  -21.0797   -8.8763   19.8980 H   0  0  0  0  0  0
  -22.3703  -10.9639   19.6164 H   0  0  0  0  0  0
  -21.2028   -7.6132   23.9681 H   0  0  0  0  0  0
  -21.1475   -6.0526   25.9063 H   0  0  0  0  0  0
  -22.0603   -2.7575   23.2876 H   0  0  0  0  0  0
  -22.4040  -11.9842   22.4876 H   0  0  0  0  0  0
  -21.1019  -13.1185   22.2634 H   0  0  0  0  0  0
  -24.5604  -15.7867   20.4655 H   0  0  0  0  0  0
  -26.1490  -15.6091   19.9223 H   0  0  0  0  0  0
  -26.7190  -32.5447   23.1103 H   0  0  0  0  0  0
  -25.0075  -33.9692   25.0433 H   0  0  0  0  0  0
  -22.7133  -31.3033   21.3989 H   0  0  0  0  0  0
  -23.3680  -35.9727   23.3435 H   0  0  0  0  0  0
  -24.3561  -36.8784   22.2033 H   0  0  0  0  0  0
  -23.7367  -37.6602   23.6565 H   0  0  0  0  0  0
  -26.0954  -31.5535   20.6056 H   0  0  0  0  0  0
  -26.8413  -30.8385   22.0027 H   0  0  0  0  0  0
  -28.1193  -28.9902   21.1865 H   0  0  0  0  0  0
  -25.9728  -25.9322   19.0006 H   0  0  0  0  0  0
  -23.9733  -27.3019   19.0187 H   0  0  0  0  0  0
  -23.7524  -30.5892   19.4014 H   0  0  0  0  0  0
  -22.7559  -29.2420   19.8591 H   0  0  0  0  0  0
  -25.1305  -36.1950   25.0831 H   0  0  0  0  0  0
  -20.9998  -28.3261   24.1396 H   0  0  0  0  0  0
  -20.5671  -26.2297   23.3613 H   0  0  0  0  0  0
  -21.6653  -26.7414   22.1211 H   0  0  0  0  0  0
  -19.6914  -25.6286   21.1228 H   0  0  0  0  0  0
  -19.6674  -27.3194   20.6757 H   0  0  0  0  0  0
  -17.4205  -26.6658   21.4033 H   0  0  0  0  0  0
  -18.0334  -26.0048   22.9014 H   0  0  0  0  0  0
  -19.7950  -30.7258   24.2280 H   0  0  0  0  0  0
  -17.5018  -31.6245   24.5162 H   0  0  0  0  0  0
  -15.5361  -30.2975   23.7616 H   0  0  0  0  0  0
  -15.8684  -28.0795   22.7065 H   0  0  0  0  0  0
  -24.5884  -30.7123   25.7821 H   0  0  0  0  0  0
  -24.8961  -32.2960   26.4847 H   0  0  0  0  0  0
  -25.8054  -30.8968   27.0250 H   0  0  0  0  0  0
  -26.2917  -29.6724   24.1212 H   0  0  0  0  0  0
  -27.4033  -29.7250   25.4695 H   0  0  0  0  0  0
  -27.8788  -30.4256   23.9420 H   0  0  0  0  0  0
  -27.2650  -33.3586   26.2087 H   0  0  0  0  0  0
  -28.3830  -32.6925   25.0276 H   0  0  0  0  0  0
  -28.0769  -31.8434   26.5355 H   0  0  0  0  0  0
  -28.2674  -38.0021   24.7360 H   0  0  0  0  0  0
  -28.0968  -36.2555   24.6499 H   0  0  0  0  0  0
  -27.2265  -37.1729   25.8875 H   0  0  0  0  0  0
  -20.9382  -29.8781   21.6897 H   0  0  0  0  0  0
  -26.0209  -38.2846   24.1249 H   0  0  0  0  0  0
  -27.9996  -20.0102   19.7904 H   0  0  0  0  0  0
  -32.0629  -17.4322   21.0014 H   0  0  0  0  0  0
  -28.2442  -22.2103   20.0193 H   0  0  0  0  0  0
  -26.5551  -16.5390   17.9475 H   0  0  0  0  0  0
  -28.3077  -16.3924   17.9223 H   0  0  0  0  0  0
  -27.5409  -17.9399   17.5827 H   0  0  0  0  0  0
  -26.6982  -18.0777   19.9404 H   0  0  0  0  0  0
  -27.4015  -16.5450   20.3346 H   0  0  0  0  0  0
  -27.3606  -24.6891   20.5642 H   0  0  0  0  0  0
  -27.8595  -24.8730   18.8935 H   0  0  0  0  0  0
  -28.8619  -15.4926   20.8043 H   0  0  0  0  0  0
  1 25  1  0  0  0
  1 30  2  0  0  0
  1 83  1  0  0  0
  2  3  1  0  0  0
  2 25  1  0  0  0
  2 86  1  0  0  0
  2 87  1  0  0  0
  3  4  1  0  0  0
  3 88  1  0  0  0
  3 89  1  0  0  0
  4  5  1  0  0  0
  4 90  1  0  0  0
  4 91  1  0  0  0
  5  6  1  0  0  0
  5 26  1  0  0  0
  5 92  1  0  0  0
  6 25  1  0  0  0
  6 93  1  0  0  0
  6 94  1  0  0  0
  7  8  2  0  0  0
  7 26  1  0  0  0
  7 29  1  0  0  0
  8  9  1  0  0  0
  8 22  1  0  0  0
  9 10  1  0  0  0
  9 27  2  0  0  0
 10 11  2  0  0  0
 10 15  1  0  0  0
 11 12  1  0  0  0
 11 95  1  0  0  0
 12 13  2  0  0  0
 12 96  1  0  0  0
 13 14  1  0  0  0
 13 31  1  0  0  0
 14 15  2  0  0  0
 14 97  1  0  0  0
 15 98  1  0  0  0
 16 17  2  0  0  0
 16 21  1  0  0  0
 16 31  1  0  0  0
 17 18  1  0  0  0
 17 99  1  0  0  0
 18 19  2  0  0  0
 18100  1  0  0  0
 19 20  1  0  0  0
 19 24  1  0  0  0
 20 21  2  0  0  0
 20101  1  0  0  0
 21 23  1  0  0  0
 22 28  1  0  0  0
 22 32  2  0  0  0
 26 27  1  0  0  0
 28102  1  0  0  0
 28103  1  0  0  0
 29104  1  0  0  0
 29105  1  0  0  0
 33 34  1  0  0  0
 33 66  1  0  0  0
 33 70  2  0  0  0
 34 36  1  0  0  0
 34 59  1  0  0  0
 34106  1  0  0  0
 35 44  2  0  0  0
 35 45  1  0  0  0
 35 68  1  0  0  0
 36 56  1  0  0  0
 36107  1  0  0  0
 37 39  1  0  0  0
 37 47  1  0  0  0
 37 66  1  0  0  0
 37108  1  0  0  0
 38 43  2  0  0  0
 38 46  1  0  0  0
 38 47  1  0  0  0
 39 64  1  0  0  0
 39 67  2  0  0  0
 40 52  1  0  0  0
 40 53  2  0  0  0
 40 58  1  0  0  0
 41109  1  0  0  0
 41110  1  0  0  0
 41111  1  0  0  0
 41 48  1  0  0  0
 42 43  1  0  0  0
 42 66  1  0  0  0
 42112  1  0  0  0
 42113  1  0  0  0
 43 44  1  0  0  0
 44114  1  0  0  0
 45 46  2  0  0  0
 45115  1  0  0  0
 46116  1  0  0  0
 47117  1  0  0  0
 47118  1  0  0  0
 48 56  1  0  0  0
 48 65  1  0  0  0
 48119  1  0  0  0
 49 50  1  0  0  0
 49 53  1  0  0  0
 49 64  1  0  0  0
 49120  1  0  0  0
 50 51  1  0  0  0
 50121  1  0  0  0
 50122  1  0  0  0
 51 52  1  0  0  0
 51123  1  0  0  0
 51124  1  0  0  0
 52125  1  0  0  0
 52126  1  0  0  0
 53 54  1  0  0  0
 54 55  2  0  0  0
 54127  1  0  0  0
 55 57  1  0  0  0
 55128  1  0  0  0
 56 69  2  0  0  0
 57 58  2  0  0  0
 57129  1  0  0  0
 58130  1  0  0  0
 59 60  1  0  0  0
 59 61  1  0  0  0
 59 62  1  0  0  0
 60131  1  0  0  0
 60132  1  0  0  0
 60133  1  0  0  0
 61134  1  0  0  0
 61135  1  0  0  0
 61136  1  0  0  0
 62137  1  0  0  0
 62138  1  0  0  0
 62139  1  0  0  0
 63 65  1  0  0  0
 63140  1  0  0  0
 63141  1  0  0  0
 63142  1  0  0  0
 64143  1  0  0  0
 65144  1  0  0  0
 68 81  1  0  0  0
 71 73  2  0  0  0
 71 74  1  0  0  0
 71145  1  0  0  0
 72 75  2  0  0  0
 72 76  1  0  0  0
 72146  1  0  0  0
 73 75  1  0  0  0
 73 80  1  0  0  0
 74 76  2  0  0  0
 74 82  1  0  0  0
 75 83  1  0  0  0
 76 85  1  0  0  0
 77 78  1  0  0  0
 77 82  2  0  0  0
 77147  1  0  0  0
 78 81  1  0  0  0
 78 84  2  0  0  0
 79 80  1  0  0  0
 79148  1  0  0  0
 79149  1  0  0  0
 79150  1  0  0  0
 80151  1  0  0  0
 80152  1  0  0  0
 81153  1  0  0  0
 81154  1  0  0  0
 83155  1  0  0  0
M  ISO  4   1 100  68 101  81 101  83 100
M  END
> <chiral flag>
0

> <version>
0

> <s_m_source_file>
/data/baiqing/PycharmProjects/Reinvent-master-3.2/result/LINK_invent/BTK/process_docking_weight1_custom_product_contain_oxygen_bond_distance_aromatic_linkinvent_7_9_3/rearranged_h_0119.sdf

> <i_m_source_file_index>
25

> <r_mmod_Potential_Energy-OPLS-2005>
124.501220703125

> <r_mmod_Stretch_Energy-OPLS-2005>
89.3266296386719

> <r_mmod_Bend_Energy-OPLS-2005>
146.280471801758

> <r_mmod_Torsional_Energy-OPLS-2005>
216.14582824707

> <r_mmod_Improper_Torsional_Energy-OPLS-2005>
6.35727119445801

> <r_mmod_Van_der_Waal_Energy-OPLS-2005>
142.726440429688

> <r_mmod_Electrostatic_Energy-OPLS-2005>
-284.669616699219

> <r_mmod_Solvation_Energy-OPLS-2005>
-251.049163818359

> <b_mmod_Minimization_Converged-OPLS-2005>
0

> <r_mmod_RMS_Derivative-OPLS-2005>
3.1108455657959

$$$$
25
                    3D
 Structure written by MMmdl.
157165  0  0  1  0            999 V2000
  -30.6450  -14.6508   20.4452 C   0  0  0  0  0  0
  -30.4234  -12.3859   19.4711 C   0  0  0  0  0  0
  -29.5065  -12.4823   18.2309 C   0  0  0  0  0  0
  -28.0282  -12.3198   18.6380 C   0  0  0  0  0  0
  -27.6386  -13.2184   19.8413 C   0  0  2  0  0  0
  -28.6793  -13.1356   20.9781 C   0  0  0  0  0  0
  -25.2503  -13.8168   20.5655 C   0  0  0  0  0  0
  -24.1787  -13.0424   20.9188 C   0  0  0  0  0  0
  -24.6369  -11.6898   20.8739 C   0  0  0  0  0  0
  -23.9047  -10.4288   21.0410 C   0  0  0  0  0  0
  -24.3609   -9.4203   21.9182 C   0  0  0  0  0  0
  -23.6289   -8.2234   22.0750 C   0  0  0  0  0  0
  -22.4267   -8.0283   21.3544 C   0  0  0  0  0  0
  -21.9899   -9.0255   20.4651 C   0  0  0  0  0  0
  -22.7223  -10.2128   20.3055 C   0  0  0  0  0  0
  -21.6844   -6.0740   22.5279 C   0  0  0  0  0  0
  -21.4009   -6.5643   23.8213 C   0  0  0  0  0  0
  -21.3659   -5.6786   24.9172 C   0  0  0  0  0  0
  -21.6048   -4.3054   24.7223 C   0  0  0  0  0  0
  -21.8817   -3.8145   23.4344 C   0  0  0  0  0  0
  -21.9188   -4.6965   22.3406 C   0  0  0  0  0  0
  -22.7819  -13.5225   21.1863 C   0  0  0  0  0  0
  -22.1656   -4.2148   21.0982 F   0  0  0  0  0  0
  -21.5637   -3.4539   25.7740 F   0  0  0  0  0  0
  -29.9981  -13.4425   20.4116 N   0  0  0  0  0  0
  -26.2909  -12.9341   20.3221 N   0  0  0  0  0  0
  -25.9292  -11.6498   20.5730 N   0  0  0  0  0  0
  -22.0475  -12.8225   22.0436 N   0  0  0  0  0  0
  -25.4237  -15.1874   20.4075 N   0  0  0  0  0  0
  -31.8483  -14.7038   20.1743 O   0  0  0  0  0  0
  -21.6634   -6.8875   21.4234 O   0  0  0  0  0  0
  -22.3508  -14.5541   20.6730 O   0  0  0  0  0  0
  -24.6211  -31.8629   23.2041 C   0  0  0  0  0  0
  -25.9080  -32.4796   23.8360 C   0  0  1  0  0  0
  -27.2419  -27.3619   20.1044 C   0  0  0  0  0  0
  -25.5927  -33.8595   24.2286 N   0  0  0  0  0  0
  -23.4121  -30.4842   21.5448 C   0  0  2  0  0  0
  -24.8605  -28.9409   20.1117 C   0  0  0  0  0  0
  -22.7437  -29.4641   22.4961 C   0  0  0  0  0  0
  -18.0276  -28.1386   22.8487 C   0  0  0  0  0  0
  -24.1485  -36.7291   23.2634 C   0  0  0  0  0  0
  -25.9468  -30.8082   21.3646 C   0  0  0  0  0  0
  -26.0239  -29.4359   20.7113 C   0  0  0  0  0  0
  -27.2101  -28.6539   20.7058 C   0  0  0  0  0  0
  -26.0479  -26.8994   19.5011 C   0  0  0  0  0  0
  -24.8716  -27.6745   19.5043 C   0  0  0  0  0  0
  -23.6250  -29.8146   20.1607 C   0  0  0  0  0  0
  -25.4104  -36.3084   24.0333 C   0  0  1  0  0  0
  -20.5870  -28.3682   23.1307 C   0  0  2  0  0  0
  -20.6759  -26.9407   22.5441 C   0  0  0  0  0  0
  -19.5760  -26.6384   21.5221 C   0  0  0  0  0  0
  -18.1924  -26.7941   22.1601 C   0  0  0  0  0  0
  -19.1527  -28.8850   23.2895 C   0  0  0  0  0  0
  -18.9453  -30.1448   23.8920 C   0  0  0  0  0  0
  -17.6455  -30.6587   24.0572 C   0  0  0  0  0  0
  -25.9057  -34.9460   23.5104 C   0  0  0  0  0  0
  -16.5345  -29.9094   23.6325 C   0  0  0  0  0  0
  -16.7264  -28.6509   23.0350 C   0  0  0  0  0  0
  -26.4487  -31.6607   25.0717 C   0  0  0  0  0  0
  -25.3752  -31.3770   26.1486 C   0  0  0  0  0  0
  -27.0260  -30.3020   24.6131 C   0  0  0  0  0  0
  -27.6107  -32.4299   25.7442 C   0  0  0  0  0  0
  -27.5586  -37.1772   24.8438 C   0  0  0  0  0  0
  -21.4158  -29.3036   22.3704 N   0  0  0  0  0  0
  -26.4264  -37.3794   23.9439 N   0  0  0  0  0  0
  -24.6786  -31.0677   22.0960 N   0  0  0  0  0  0
  -23.4181  -28.8191   23.3036 O   0  0  0  0  0  0
  -28.4041  -26.5861   20.1777 O   0  0  0  0  0  0
  -26.5621  -34.8932   22.4669 O   0  0  0  0  0  0
  -23.5386  -32.1410   23.7396 O   0  0  0  0  0  0
  -30.6281  -19.6160   20.8796 C   0  0  0  0  0  0
  -28.3249  -20.3547   19.5562 C   0  0  0  0  0  0
  -30.3417  -21.0063   20.6992 C   0  0  0  0  0  0
  -29.8293  -18.5604   20.3668 C   0  0  0  0  0  0
  -29.1755  -21.4078   19.9819 C   0  0  0  0  0  0
  -28.6222  -18.9707   19.7311 C   0  0  0  0  0  0
  -32.0791  -21.8020   22.3154 C   0  0  0  0  0  0
  -31.2922  -21.9944   21.2412 C   0  0  0  0  0  0
  -30.3813  -17.1433   20.4788 C   0  0  0  0  0  0
  -28.7786  -22.8211   19.5759 C   0  0  0  0  0  0
  -29.8146  -15.8930   20.5264 C   0  0  0  0  0  0
  -29.0100  -24.0684   20.0863 C   0  0  0  0  0  0
  -27.6384  -17.9705   19.1528 C   0  0  0  0  0  0
  -28.6158  -25.3916   19.3611 C   0  0  0  0  0  0
  -31.4689  -12.4822   19.1746 H   0  0  0  0  0  0
  -30.3406  -11.4062   19.9428 H   0  0  0  0  0  0
  -29.7788  -11.7154   17.5040 H   0  0  0  0  0  0
  -29.6498  -13.4427   17.7328 H   0  0  0  0  0  0
  -27.8744  -11.2718   18.8950 H   0  0  0  0  0  0
  -27.3751  -12.5205   17.7881 H   0  0  0  0  0  0
  -27.6337  -14.2365   19.4549 H   0  0  0  0  0  0
  -28.6863  -12.1412   21.4258 H   0  0  0  0  0  0
  -28.4287  -13.8267   21.7836 H   0  0  0  0  0  0
  -25.2766   -9.5683   22.4738 H   0  0  0  0  0  0
  -24.0004   -7.4623   22.7455 H   0  0  0  0  0  0
  -21.0829   -8.8767   19.8966 H   0  0  0  0  0  0
  -22.3686  -10.9663   19.6149 H   0  0  0  0  0  0
  -21.1994   -7.6144   23.9726 H   0  0  0  0  0  0
  -21.1486   -6.0515   25.9078 H   0  0  0  0  0  0
  -22.0600   -2.7607   23.2837 H   0  0  0  0  0  0
  -22.4073  -11.9874   22.4800 H   0  0  0  0  0  0
  -21.1109  -13.1276   22.2696 H   0  0  0  0  0  0
  -24.6615  -15.8468   20.5245 H   0  0  0  0  0  0
  -26.2815  -15.6220   20.0961 H   0  0  0  0  0  0
  -26.7152  -32.5480   23.1114 H   0  0  0  0  0  0
  -25.0081  -33.9770   25.0433 H   0  0  0  0  0  0
  -22.7027  -31.3020   21.4012 H   0  0  0  0  0  0
  -23.3783  -35.9582   23.3213 H   0  0  0  0  0  0
  -24.3599  -36.8997   22.2065 H   0  0  0  0  0  0
  -23.7181  -37.6440   23.6715 H   0  0  0  0  0  0
  -26.0645  -31.5718   20.5946 H   0  0  0  0  0  0
  -26.8309  -30.8634   21.9875 H   0  0  0  0  0  0
  -28.1017  -29.0349   21.1826 H   0  0  0  0  0  0
  -25.9773  -25.9222   19.0512 H   0  0  0  0  0  0
  -23.9736  -27.2808   19.0475 H   0  0  0  0  0  0
  -23.7386  -30.5881   19.4008 H   0  0  0  0  0  0
  -22.7471  -29.2387   19.8621 H   0  0  0  0  0  0
  -25.1277  -36.1911   25.0822 H   0  0  0  0  0  0
  -20.9956  -28.3260   24.1431 H   0  0  0  0  0  0
  -20.5617  -26.2310   23.3647 H   0  0  0  0  0  0
  -21.6640  -26.7430   22.1267 H   0  0  0  0  0  0
  -19.6923  -25.6290   21.1271 H   0  0  0  0  0  0
  -19.6717  -27.3183   20.6745 H   0  0  0  0  0  0
  -17.4211  -26.6712   21.3980 H   0  0  0  0  0  0
  -18.0294  -26.0067   22.8976 H   0  0  0  0  0  0
  -19.7923  -30.7255   24.2309 H   0  0  0  0  0  0
  -17.5007  -31.6270   24.5170 H   0  0  0  0  0  0
  -15.5348  -30.3008   23.7639 H   0  0  0  0  0  0
  -15.8657  -28.0835   22.7067 H   0  0  0  0  0  0
  -24.5874  -30.7177   25.7827 H   0  0  0  0  0  0
  -24.9022  -32.2956   26.4973 H   0  0  0  0  0  0
  -25.8099  -30.8888   27.0219 H   0  0  0  0  0  0
  -26.2766  -29.6805   24.1220 H   0  0  0  0  0  0
  -27.4004  -29.7263   25.4603 H   0  0  0  0  0  0
  -27.8640  -30.4277   23.9272 H   0  0  0  0  0  0
  -27.2798  -33.3630   26.2011 H   0  0  0  0  0  0
  -28.3915  -32.6796   25.0244 H   0  0  0  0  0  0
  -28.0776  -31.8410   26.5347 H   0  0  0  0  0  0
  -28.2556  -38.0121   24.7591 H   0  0  0  0  0  0
  -28.1131  -36.2673   24.6101 H   0  0  0  0  0  0
  -27.2351  -37.1216   25.8846 H   0  0  0  0  0  0
  -20.9329  -29.8751   21.6911 H   0  0  0  0  0  0
  -26.0138  -38.2841   24.1542 H   0  0  0  0  0  0
  -31.5455  -19.3398   21.3781 H   0  0  0  0  0  0
  -27.4200  -20.6223   19.0272 H   0  0  0  0  0  0
  -32.7765  -22.5621   22.6377 H   0  0  0  0  0  0
  -32.0449  -20.8913   22.8966 H   0  0  0  0  0  0
  -31.3831  -22.9273   20.7039 H   0  0  0  0  0  0
  -31.4632  -17.1491   20.4579 H   0  0  0  0  0  0
  -28.2382  -22.8332   18.6394 H   0  0  0  0  0  0
  -28.7412  -15.8182   20.5750 H   0  0  0  0  0  0
  -29.5352  -24.1868   21.0231 H   0  0  0  0  0  0
  -27.0020  -18.4386   18.3993 H   0  0  0  0  0  0
  -26.9904  -17.5887   19.9414 H   0  0  0  0  0  0
  -28.1446  -17.1387   18.6658 H   0  0  0  0  0  0
  -27.8478  -25.1979   18.6155 H   0  0  0  0  0  0
  -29.4917  -25.6445   18.7627 H   0  0  0  0  0  0
  1 25  1  0  0  0
  1 30  2  0  0  0
  1 81  1  0  0  0
  2  3  1  0  0  0
  2 25  1  0  0  0
  2 85  1  0  0  0
  2 86  1  0  0  0
  3  4  1  0  0  0
  3 87  1  0  0  0
  3 88  1  0  0  0
  4  5  1  0  0  0
  4 89  1  0  0  0
  4 90  1  0  0  0
  5  6  1  0  0  0
  5 26  1  0  0  0
  5 91  1  0  0  0
  6 25  1  0  0  0
  6 92  1  0  0  0
  6 93  1  0  0  0
  7  8  2  0  0  0
  7 26  1  0  0  0
  7 29  1  0  0  0
  8  9  1  0  0  0
  8 22  1  0  0  0
  9 10  1  0  0  0
  9 27  2  0  0  0
 10 11  2  0  0  0
 10 15  1  0  0  0
 11 12  1  0  0  0
 11 94  1  0  0  0
 12 13  2  0  0  0
 12 95  1  0  0  0
 13 14  1  0  0  0
 13 31  1  0  0  0
 14 15  2  0  0  0
 14 96  1  0  0  0
 15 97  1  0  0  0
 16 17  2  0  0  0
 16 21  1  0  0  0
 16 31  1  0  0  0
 17 18  1  0  0  0
 17 98  1  0  0  0
 18 19  2  0  0  0
 18 99  1  0  0  0
 19 20  1  0  0  0
 19 24  1  0  0  0
 20 21  2  0  0  0
 20100  1  0  0  0
 21 23  1  0  0  0
 22 28  1  0  0  0
 22 32  2  0  0  0
 26 27  1  0  0  0
 28101  1  0  0  0
 28102  1  0  0  0
 29103  1  0  0  0
 29104  1  0  0  0
 33 34  1  0  0  0
 33 66  1  0  0  0
 33 70  2  0  0  0
 34 36  1  0  0  0
 34 59  1  0  0  0
 34105  1  0  0  0
 35 44  2  0  0  0
 35 45  1  0  0  0
 35 68  1  0  0  0
 36 56  1  0  0  0
 36106  1  0  0  0
 37 39  1  0  0  0
 37 47  1  0  0  0
 37 66  1  0  0  0
 37107  1  0  0  0
 38 43  2  0  0  0
 38 46  1  0  0  0
 38 47  1  0  0  0
 39 64  1  0  0  0
 39 67  2  0  0  0
 40 52  1  0  0  0
 40 53  2  0  0  0
 40 58  1  0  0  0
 41108  1  0  0  0
 41109  1  0  0  0
 41110  1  0  0  0
 41 48  1  0  0  0
 42 43  1  0  0  0
 42 66  1  0  0  0
 42111  1  0  0  0
 42112  1  0  0  0
 43 44  1  0  0  0
 44113  1  0  0  0
 45 46  2  0  0  0
 45114  1  0  0  0
 46115  1  0  0  0
 47116  1  0  0  0
 47117  1  0  0  0
 48 56  1  0  0  0
 48 65  1  0  0  0
 48118  1  0  0  0
 49 50  1  0  0  0
 49 53  1  0  0  0
 49 64  1  0  0  0
 49119  1  0  0  0
 50 51  1  0  0  0
 50120  1  0  0  0
 50121  1  0  0  0
 51 52  1  0  0  0
 51122  1  0  0  0
 51123  1  0  0  0
 52124  1  0  0  0
 52125  1  0  0  0
 53 54  1  0  0  0
 54 55  2  0  0  0
 54126  1  0  0  0
 55 57  1  0  0  0
 55127  1  0  0  0
 56 69  2  0  0  0
 57 58  2  0  0  0
 57128  1  0  0  0
 58129  1  0  0  0
 59 60  1  0  0  0
 59 61  1  0  0  0
 59 62  1  0  0  0
 60130  1  0  0  0
 60131  1  0  0  0
 60132  1  0  0  0
 61133  1  0  0  0
 61134  1  0  0  0
 61135  1  0  0  0
 62136  1  0  0  0
 62137  1  0  0  0
 62138  1  0  0  0
 63 65  1  0  0  0
 63139  1  0  0  0
 63140  1  0  0  0
 63141  1  0  0  0
 64142  1  0  0  0
 65143  1  0  0  0
 68 84  1  0  0  0
 71 73  2  0  0  0
 71 74  1  0  0  0
 71144  1  0  0  0
 72 75  2  0  0  0
 72 76  1  0  0  0
 72145  1  0  0  0
 73 75  1  0  0  0
 73 78  1  0  0  0
 74 76  2  0  0  0
 74 79  1  0  0  0
 75 80  1  0  0  0
 76 83  1  0  0  0
 77 78  2  0  0  0
 77146  1  0  0  0
 77147  1  0  0  0
 78148  1  0  0  0
 79 81  2  0  0  0
 79149  1  0  0  0
 80 82  2  0  0  0
 80150  1  0  0  0
 81151  1  0  0  0
 82 84  1  0  0  0
 82152  1  0  0  0
 83153  1  0  0  0
 83154  1  0  0  0
 83155  1  0  0  0
 84156  1  0  0  0
 84157  1  0  0  0
M  ISO  4   1 100  68 101  81 100  84 101
M  END
> <chiral flag>
0

> <version>
0

> <s_m_source_file>
/data/baiqing/PycharmProjects/Reinvent-master-3.2/result/LINK_invent/BTK/process_docking_weight1_custom_product_contain_oxygen_bond_distance_aromatic_linkinvent_7_9_3/rearranged_h_0119.sdf

> <i_m_source_file_index>
26

> <r_mmod_Potential_Energy-OPLS-2005>
116.4208984375

> <r_mmod_Stretch_Energy-OPLS-2005>
69.8394470214844

> <r_mmod_Bend_Energy-OPLS-2005>
155.038909912109

> <r_mmod_Torsional_Energy-OPLS-2005>
212.555282592773

> <r_mmod_Improper_Torsional_Energy-OPLS-2005>
8.38028907775879

> <r_mmod_Van_der_Waal_Energy-OPLS-2005>
153.549087524414

> <r_mmod_Electrostatic_Energy-OPLS-2005>
-336.301147460938

> <r_mmod_Solvation_Energy-OPLS-2005>
-193.263366699219

> <b_mmod_Minimization_Converged-OPLS-2005>
0

> <r_mmod_RMS_Derivative-OPLS-2005>
2.19854092597961

$$$$
26
                    3D
 Structure written by MMmdl.
164172  0  0  1  0            999 V2000
  -30.7296  -14.3987   20.6780 C   0  0  0  0  0  0
  -30.4335  -12.3023   19.3925 C   0  0  0  0  0  0
  -29.4931  -12.5295   18.1919 C   0  0  0  0  0  0
  -28.0154  -12.3834   18.6063 C   0  0  0  0  0  0
  -27.6714  -13.1978   19.8795 C   0  0  2  0  0  0
  -28.7098  -12.9193   20.9876 C   0  0  0  0  0  0
  -25.2647  -13.8137   20.5689 C   0  0  0  0  0  0
  -24.1867  -13.0441   20.9144 C   0  0  0  0  0  0
  -24.6391  -11.6900   20.8702 C   0  0  0  0  0  0
  -23.9046  -10.4296   21.0372 C   0  0  0  0  0  0
  -24.3597   -9.4220   21.9158 C   0  0  0  0  0  0
  -23.6275   -8.2260   22.0751 C   0  0  0  0  0  0
  -22.4257   -8.0290   21.3553 C   0  0  0  0  0  0
  -21.9878   -9.0254   20.4650 C   0  0  0  0  0  0
  -22.7214  -10.2131   20.3039 C   0  0  0  0  0  0
  -21.6858   -6.0733   22.5279 C   0  0  0  0  0  0
  -21.4021   -6.5635   23.8214 C   0  0  0  0  0  0
  -21.3659   -5.6787   24.9172 C   0  0  0  0  0  0
  -21.6038   -4.3051   24.7227 C   0  0  0  0  0  0
  -21.8820   -3.8145   23.4347 C   0  0  0  0  0  0
  -21.9196   -4.6961   22.3398 C   0  0  0  0  0  0
  -22.7900  -13.5272   21.1813 C   0  0  0  0  0  0
  -22.1673   -4.2144   21.0978 F   0  0  0  0  0  0
  -21.5613   -3.4535   25.7741 F   0  0  0  0  0  0
  -30.0572  -13.2350   20.4656 N   0  0  0  0  0  0
  -26.3075  -12.9290   20.3363 N   0  0  0  0  0  0
  -25.9316  -11.6457   20.5721 N   0  0  0  0  0  0
  -22.0520  -12.8281   22.0369 N   0  0  0  0  0  0
  -25.4405  -15.1848   20.4158 N   0  0  0  0  0  0
  -31.7349  -14.7316   20.0426 O   0  0  0  0  0  0
  -21.6642   -6.8878   21.4244 O   0  0  0  0  0  0
  -22.3606  -14.5587   20.6669 O   0  0  0  0  0  0
  -24.6146  -31.8710   23.2136 C   0  0  0  0  0  0
  -25.9049  -32.4839   23.8416 C   0  0  1  0  0  0
  -27.2304  -27.4472   20.0745 C   0  0  0  0  0  0
  -25.5909  -33.8636   24.2355 N   0  0  0  0  0  0
  -23.3990  -30.4986   21.5559 C   0  0  2  0  0  0
  -24.8404  -28.9701   20.1165 C   0  0  0  0  0  0
  -22.7396  -29.4690   22.5016 C   0  0  0  0  0  0
  -18.0276  -28.1375   22.8494 C   0  0  0  0  0  0
  -24.1482  -36.7312   23.2635 C   0  0  0  0  0  0
  -25.9288  -30.8396   21.3640 C   0  0  0  0  0  0
  -26.0039  -29.4761   20.7083 C   0  0  0  0  0  0
  -27.1991  -28.7210   20.6872 C   0  0  0  0  0  0
  -26.0390  -26.9565   19.4839 C   0  0  0  0  0  0
  -24.8518  -27.7066   19.5071 C   0  0  0  0  0  0
  -23.6036  -29.8364   20.1692 C   0  0  0  0  0  0
  -25.4098  -36.3124   24.0348 C   0  0  1  0  0  0
  -20.5865  -28.3662   23.1322 C   0  0  2  0  0  0
  -20.6768  -26.9399   22.5414 C   0  0  0  0  0  0
  -19.5747  -26.6389   21.5204 C   0  0  0  0  0  0
  -18.1926  -26.7927   22.1614 C   0  0  0  0  0  0
  -19.1525  -28.8831   23.2909 C   0  0  0  0  0  0
  -18.9451  -30.1437   23.8923 C   0  0  0  0  0  0
  -17.6455  -30.6579   24.0569 C   0  0  0  0  0  0
  -25.9030  -34.9487   23.5146 C   0  0  0  0  0  0
  -16.5348  -29.9083   23.6324 C   0  0  0  0  0  0
  -16.7266  -28.6499   23.0348 C   0  0  0  0  0  0
  -26.4475  -31.6604   25.0731 C   0  0  0  0  0  0
  -25.3750  -31.3691   26.1486 C   0  0  0  0  0  0
  -27.0301  -30.3057   24.6073 C   0  0  0  0  0  0
  -27.6070  -32.4306   25.7480 C   0  0  0  0  0  0
  -27.5584  -37.1809   24.8461 C   0  0  0  0  0  0
  -21.4129  -29.3040   22.3735 N   0  0  0  0  0  0
  -26.4289  -37.3803   23.9416 N   0  0  0  0  0  0
  -24.6664  -31.0829   22.1031 N   0  0  0  0  0  0
  -23.4175  -28.8227   23.3049 O   0  0  0  0  0  0
  -28.4144  -26.7301   20.0703 O   0  0  0  0  0  0
  -26.5582  -34.8936   22.4702 O   0  0  0  0  0  0
  -23.5345  -32.1466   23.7539 O   0  0  0  0  0  0
  -29.1862  -18.2539   23.3555 C   0  0  0  0  0  0
  -30.7796  -17.5073   21.1684 C   0  0  0  0  0  0
  -29.8150  -19.2557   22.5919 C   0  0  0  0  0  0
  -29.3452  -16.8917   23.0467 C   0  0  0  0  0  0
  -30.1595  -16.5009   21.9572 C   0  0  0  0  0  0
  -30.5848  -18.8830   21.4577 C   0  0  0  0  0  0
  -28.5065  -21.1860   23.5028 C   0  0  0  0  0  0
  -29.6260  -20.6662   22.9695 C   0  0  0  0  0  0
  -28.6122  -15.8644   23.8954 C   0  0  0  0  0  0
  -29.4668  -23.0897   19.5649 C   0  0  0  0  0  0
  -29.6458  -24.5854   19.9114 C   0  0  0  0  0  0
  -30.6229  -22.1655   20.0011 C   0  0  0  0  0  0
  -28.3402  -25.3598   19.6653 C   0  0  0  0  0  0
  -30.2383  -20.6682   19.9156 C   0  0  0  0  0  0
  -30.2595  -15.0976   21.7225 N   0  0  0  0  0  0
  -31.1579  -19.8292   20.6293 O   0  0  0  0  0  0
  -31.4745  -12.4249   19.0877 H   0  0  0  0  0  0
  -30.3513  -11.2756   19.7514 H   0  0  0  0  0  0
  -29.7263  -11.8234   17.3931 H   0  0  0  0  0  0
  -29.6631  -13.5240   17.7778 H   0  0  0  0  0  0
  -27.8178  -11.3250   18.7806 H   0  0  0  0  0  0
  -27.3658  -12.6830   17.7830 H   0  0  0  0  0  0
  -27.7341  -14.2538   19.6162 H   0  0  0  0  0  0
  -28.6763  -11.8671   21.2736 H   0  0  0  0  0  0
  -28.4414  -13.4617   21.8937 H   0  0  0  0  0  0
  -25.2734   -9.5708   22.4736 H   0  0  0  0  0  0
  -23.9989   -7.4656   22.7473 H   0  0  0  0  0  0
  -21.0808   -8.8769   19.8957 H   0  0  0  0  0  0
  -22.3660  -10.9664   19.6154 H   0  0  0  0  0  0
  -21.2026   -7.6145   23.9716 H   0  0  0  0  0  0
  -21.1472   -6.0516   25.9072 H   0  0  0  0  0  0
  -22.0592   -2.7609   23.2849 H   0  0  0  0  0  0
  -22.4137  -11.9957   22.4778 H   0  0  0  0  0  0
  -21.1141  -13.1331   22.2554 H   0  0  0  0  0  0
  -24.6822  -15.8460   20.5409 H   0  0  0  0  0  0
  -26.3075  -15.6240   20.1314 H   0  0  0  0  0  0
  -26.7122  -32.5549   23.1181 H   0  0  0  0  0  0
  -25.0086  -33.9799   25.0519 H   0  0  0  0  0  0
  -22.6878  -31.3165   21.4221 H   0  0  0  0  0  0
  -23.3753  -35.9636   23.3297 H   0  0  0  0  0  0
  -24.3591  -36.8918   22.2050 H   0  0  0  0  0  0
  -23.7222  -37.6515   23.6638 H   0  0  0  0  0  0
  -26.0399  -31.6082   20.5980 H   0  0  0  0  0  0
  -26.8181  -30.8919   21.9801 H   0  0  0  0  0  0
  -28.0978  -29.1120   21.1433 H   0  0  0  0  0  0
  -25.9923  -25.9972   18.9915 H   0  0  0  0  0  0
  -23.9565  -27.3082   19.0504 H   0  0  0  0  0  0
  -23.7121  -30.6146   19.4129 H   0  0  0  0  0  0
  -22.7249  -29.2606   19.8717 H   0  0  0  0  0  0
  -25.1269  -36.1997   25.0841 H   0  0  0  0  0  0
  -20.9963  -28.3228   24.1439 H   0  0  0  0  0  0
  -20.5664  -26.2267   23.3597 H   0  0  0  0  0  0
  -21.6643  -26.7447   22.1217 H   0  0  0  0  0  0
  -19.6911  -25.6303   21.1222 H   0  0  0  0  0  0
  -19.6690  -27.3207   20.6741 H   0  0  0  0  0  0
  -17.4198  -26.6689   21.4012 H   0  0  0  0  0  0
  -18.0321  -26.0059   22.8998 H   0  0  0  0  0  0
  -19.7924  -30.7246   24.2309 H   0  0  0  0  0  0
  -17.5008  -31.6265   24.5161 H   0  0  0  0  0  0
  -15.5350  -30.2989   23.7635 H   0  0  0  0  0  0
  -15.8667  -28.0819   22.7057 H   0  0  0  0  0  0
  -24.5919  -30.7044   25.7818 H   0  0  0  0  0  0
  -24.8943  -32.2839   26.4967 H   0  0  0  0  0  0
  -25.8116  -30.8836   27.0224 H   0  0  0  0  0  0
  -26.2834  -29.6821   24.1143 H   0  0  0  0  0  0
  -27.4115  -29.7285   25.4505 H   0  0  0  0  0  0
  -27.8649  -30.4398   23.9189 H   0  0  0  0  0  0
  -27.2716  -33.3595   26.2101 H   0  0  0  0  0  0
  -28.3850  -32.6878   25.0279 H   0  0  0  0  0  0
  -28.0771  -31.8399   26.5352 H   0  0  0  0  0  0
  -28.2599  -38.0111   24.7533 H   0  0  0  0  0  0
  -28.1089  -36.2652   24.6252 H   0  0  0  0  0  0
  -27.2319  -37.1420   25.8868 H   0  0  0  0  0  0
  -20.9277  -29.8765   21.6969 H   0  0  0  0  0  0
  -26.0187  -38.2884   24.1423 H   0  0  0  0  0  0
  -28.5839  -18.5331   24.2084 H   0  0  0  0  0  0
  -31.3882  -17.2415   20.3165 H   0  0  0  0  0  0
  -28.4545  -22.2322   23.7705 H   0  0  0  0  0  0
  -27.6239  -20.5862   23.6743 H   0  0  0  0  0  0
  -30.4779  -21.3129   22.8272 H   0  0  0  0  0  0
  -28.1362  -16.3291   24.7599 H   0  0  0  0  0  0
  -29.2942  -15.0991   24.2670 H   0  0  0  0  0  0
  -27.8286  -15.3833   23.3089 H   0  0  0  0  0  0
  -29.2935  -22.9791   18.4931 H   0  0  0  0  0  0
  -28.5550  -22.7414   20.0509 H   0  0  0  0  0  0
  -30.4537  -25.0190   19.3217 H   0  0  0  0  0  0
  -29.9284  -24.6929   20.9598 H   0  0  0  0  0  0
  -30.8993  -22.4178   21.0229 H   0  0  0  0  0  0
  -31.5089  -22.3579   19.3954 H   0  0  0  0  0  0
  -27.5458  -24.8655   20.2279 H   0  0  0  0  0  0
  -28.0871  -25.2998   18.6054 H   0  0  0  0  0  0
  -30.2289  -20.3540   18.8716 H   0  0  0  0  0  0
  -29.2144  -20.5299   20.2659 H   0  0  0  0  0  0
  -29.6402  -14.5463   22.2944 H   0  0  0  0  0  0
  1 25  1  0  0  0
  1 30  2  0  0  0
  1 85  1  0  0  0
  2  3  1  0  0  0
  2 25  1  0  0  0
  2 87  1  0  0  0
  2 88  1  0  0  0
  3  4  1  0  0  0
  3 89  1  0  0  0
  3 90  1  0  0  0
  4  5  1  0  0  0
  4 91  1  0  0  0
  4 92  1  0  0  0
  5  6  1  0  0  0
  5 26  1  0  0  0
  5 93  1  0  0  0
  6 25  1  0  0  0
  6 94  1  0  0  0
  6 95  1  0  0  0
  7  8  2  0  0  0
  7 26  1  0  0  0
  7 29  1  0  0  0
  8  9  1  0  0  0
  8 22  1  0  0  0
  9 10  1  0  0  0
  9 27  2  0  0  0
 10 11  2  0  0  0
 10 15  1  0  0  0
 11 12  1  0  0  0
 11 96  1  0  0  0
 12 13  2  0  0  0
 12 97  1  0  0  0
 13 14  1  0  0  0
 13 31  1  0  0  0
 14 15  2  0  0  0
 14 98  1  0  0  0
 15 99  1  0  0  0
 16 17  2  0  0  0
 16 21  1  0  0  0
 16 31  1  0  0  0
 17 18  1  0  0  0
 17100  1  0  0  0
 18 19  2  0  0  0
 18101  1  0  0  0
 19 20  1  0  0  0
 19 24  1  0  0  0
 20 21  2  0  0  0
 20102  1  0  0  0
 21 23  1  0  0  0
 22 28  1  0  0  0
 22 32  2  0  0  0
 26 27  1  0  0  0
 28103  1  0  0  0
 28104  1  0  0  0
 29105  1  0  0  0
 29106  1  0  0  0
 33 34  1  0  0  0
 33 66  1  0  0  0
 33 70  2  0  0  0
 34 36  1  0  0  0
 34 59  1  0  0  0
 34107  1  0  0  0
 35 44  2  0  0  0
 35 45  1  0  0  0
 35 68  1  0  0  0
 36 56  1  0  0  0
 36108  1  0  0  0
 37 39  1  0  0  0
 37 47  1  0  0  0
 37 66  1  0  0  0
 37109  1  0  0  0
 38 43  2  0  0  0
 38 46  1  0  0  0
 38 47  1  0  0  0
 39 64  1  0  0  0
 39 67  2  0  0  0
 40 52  1  0  0  0
 40 53  2  0  0  0
 40 58  1  0  0  0
 41110  1  0  0  0
 41111  1  0  0  0
 41112  1  0  0  0
 41 48  1  0  0  0
 42 43  1  0  0  0
 42 66  1  0  0  0
 42113  1  0  0  0
 42114  1  0  0  0
 43 44  1  0  0  0
 44115  1  0  0  0
 45 46  2  0  0  0
 45116  1  0  0  0
 46117  1  0  0  0
 47118  1  0  0  0
 47119  1  0  0  0
 48 56  1  0  0  0
 48 65  1  0  0  0
 48120  1  0  0  0
 49 50  1  0  0  0
 49 53  1  0  0  0
 49 64  1  0  0  0
 49121  1  0  0  0
 50 51  1  0  0  0
 50122  1  0  0  0
 50123  1  0  0  0
 51 52  1  0  0  0
 51124  1  0  0  0
 51125  1  0  0  0
 52126  1  0  0  0
 52127  1  0  0  0
 53 54  1  0  0  0
 54 55  2  0  0  0
 54128  1  0  0  0
 55 57  1  0  0  0
 55129  1  0  0  0
 56 69  2  0  0  0
 57 58  2  0  0  0
 57130  1  0  0  0
 58131  1  0  0  0
 59 60  1  0  0  0
 59 61  1  0  0  0
 59 62  1  0  0  0
 60132  1  0  0  0
 60133  1  0  0  0
 60134  1  0  0  0
 61135  1  0  0  0
 61136  1  0  0  0
 61137  1  0  0  0
 62138  1  0  0  0
 62139  1  0  0  0
 62140  1  0  0  0
 63 65  1  0  0  0
 63141  1  0  0  0
 63142  1  0  0  0
 63143  1  0  0  0
 64144  1  0  0  0
 65145  1  0  0  0
 68 83  1  0  0  0
 71 73  2  0  0  0
 71 74  1  0  0  0
 71146  1  0  0  0
 72 75  1  0  0  0
 72 76  2  0  0  0
 72147  1  0  0  0
 73 76  1  0  0  0
 73 78  1  0  0  0
 74 75  2  0  0  0
 74 79  1  0  0  0
 75 85  1  0  0  0
 76 86  1  0  0  0
 77 78  2  0  0  0
 77148  1  0  0  0
 77149  1  0  0  0
 78150  1  0  0  0
 79151  1  0  0  0
 79152  1  0  0  0
 79153  1  0  0  0
 80 81  1  0  0  0
 80 82  1  0  0  0
 80154  1  0  0  0
 80155  1  0  0  0
 81 83  1  0  0  0
 81156  1  0  0  0
 81157  1  0  0  0
 82 84  1  0  0  0
 82158  1  0  0  0
 82159  1  0  0  0
 83160  1  0  0  0
 83161  1  0  0  0
 84 86  1  0  0  0
 84162  1  0  0  0
 84163  1  0  0  0
 85164  1  0  0  0
M  ISO  4   1 100  68 101  83 101  85 100
M  END
> <chiral flag>
0

> <version>
0

> <s_m_source_file>
/data/baiqing/PycharmProjects/Reinvent-master-3.2/result/LINK_invent/BTK/process_docking_weight1_custom_product_contain_oxygen_bond_distance_aromatic_linkinvent_7_9_3/rearranged_h_0119.sdf

> <i_m_source_file_index>
27

> <r_mmod_Potential_Energy-OPLS-2005>
-15.4479351043701

> <r_mmod_Stretch_Energy-OPLS-2005>
37.448616027832

> <r_mmod_Bend_Energy-OPLS-2005>
104.902313232422

> <r_mmod_Torsional_Energy-OPLS-2005>
244.976348876953

> <r_mmod_Improper_Torsional_Energy-OPLS-2005>
3.78088092803955

> <r_mmod_Van_der_Waal_Energy-OPLS-2005>
164.281845092773

> <r_mmod_Electrostatic_Energy-OPLS-2005>
-374.638214111328

> <r_mmod_Solvation_Energy-OPLS-2005>
-205.353454589844

> <b_mmod_Minimization_Converged-OPLS-2005>
0

> <r_mmod_RMS_Derivative-OPLS-2005>
1.71276068687439

$$$$
27
                    3D
 Structure written by MMmdl.
158166  0  0  1  0            999 V2000
  -30.6506  -14.5621   20.5543 C   0  0  0  0  0  0
  -30.4419  -12.3628   19.4285 C   0  0  0  0  0  0
  -29.5010  -12.5214   18.2113 C   0  0  0  0  0  0
  -28.0194  -12.3638   18.6160 C   0  0  0  0  0  0
  -27.6605  -13.1905   19.8780 C   0  0  2  0  0  0
  -28.7078  -12.9324   20.9843 C   0  0  0  0  0  0
  -25.2615  -13.8115   20.5716 C   0  0  0  0  0  0
  -24.1827  -13.0425   20.9144 C   0  0  0  0  0  0
  -24.6368  -11.6879   20.8721 C   0  0  0  0  0  0
  -23.9035  -10.4284   21.0406 C   0  0  0  0  0  0
  -24.3592   -9.4207   21.9192 C   0  0  0  0  0  0
  -23.6276   -8.2235   22.0761 C   0  0  0  0  0  0
  -22.4262   -8.0276   21.3540 C   0  0  0  0  0  0
  -21.9896   -9.0244   20.4634 C   0  0  0  0  0  0
  -22.7221  -10.2122   20.3046 C   0  0  0  0  0  0
  -21.6846   -6.0737   22.5287 C   0  0  0  0  0  0
  -21.4013   -6.5642   23.8221 C   0  0  0  0  0  0
  -21.3649   -5.6790   24.9178 C   0  0  0  0  0  0
  -21.6041   -4.3056   24.7223 C   0  0  0  0  0  0
  -21.8821   -3.8152   23.4347 C   0  0  0  0  0  0
  -21.9194   -4.6968   22.3407 C   0  0  0  0  0  0
  -22.7855  -13.5237   21.1836 C   0  0  0  0  0  0
  -22.1665   -4.2159   21.0981 F   0  0  0  0  0  0
  -21.5618   -3.4539   25.7732 F   0  0  0  0  0  0
  -30.0194  -13.3422   20.4497 N   0  0  0  0  0  0
  -26.3020  -12.9243   20.3397 N   0  0  0  0  0  0
  -25.9285  -11.6418   20.5746 N   0  0  0  0  0  0
  -22.0486  -12.8214   22.0365 N   0  0  0  0  0  0
  -25.4467  -15.1825   20.4252 N   0  0  0  0  0  0
  -31.7960  -14.7239   20.1160 O   0  0  0  0  0  0
  -21.6628   -6.8879   21.4246 O   0  0  0  0  0  0
  -22.3548  -14.5556   20.6707 O   0  0  0  0  0  0
  -24.6188  -31.8652   23.2052 C   0  0  0  0  0  0
  -25.9072  -32.4812   23.8349 C   0  0  1  0  0  0
  -27.2378  -27.3987   20.1062 C   0  0  0  0  0  0
  -25.5889  -33.8604   24.2292 N   0  0  0  0  0  0
  -23.4082  -30.4830   21.5505 C   0  0  2  0  0  0
  -24.8554  -28.9394   20.1195 C   0  0  0  0  0  0
  -22.7434  -29.4612   22.5007 C   0  0  0  0  0  0
  -18.0272  -28.1348   22.8480 C   0  0  0  0  0  0
  -24.1488  -36.7294   23.2638 C   0  0  0  0  0  0
  -25.9376  -30.8211   21.3588 C   0  0  0  0  0  0
  -26.0181  -29.4465   20.7162 C   0  0  0  0  0  0
  -27.2137  -28.6841   20.7064 C   0  0  0  0  0  0
  -26.0594  -26.9124   19.5053 C   0  0  0  0  0  0
  -24.8723  -27.6718   19.5103 C   0  0  0  0  0  0
  -23.6178  -29.8095   20.1672 C   0  0  0  0  0  0
  -25.4108  -36.3095   24.0327 C   0  0  1  0  0  0
  -20.5859  -28.3637   23.1307 C   0  0  2  0  0  0
  -20.6768  -26.9373   22.5394 C   0  0  0  0  0  0
  -19.5746  -26.6379   21.5184 C   0  0  0  0  0  0
  -18.1919  -26.7900   22.1596 C   0  0  0  0  0  0
  -19.1518  -28.8807   23.2895 C   0  0  0  0  0  0
  -18.9453  -30.1413   23.8902 C   0  0  0  0  0  0
  -17.6459  -30.6557   24.0546 C   0  0  0  0  0  0
  -25.9031  -34.9465   23.5102 C   0  0  0  0  0  0
  -16.5346  -29.9058   23.6320 C   0  0  0  0  0  0
  -16.7264  -28.6475   23.0340 C   0  0  0  0  0  0
  -26.4488  -31.6580   25.0682 C   0  0  0  0  0  0
  -25.3743  -31.3654   26.1420 C   0  0  0  0  0  0
  -27.0320  -30.3034   24.6013 C   0  0  0  0  0  0
  -27.6057  -32.4288   25.7465 C   0  0  0  0  0  0
  -27.5580  -37.1811   24.8467 C   0  0  0  0  0  0
  -21.4154  -29.3008   22.3740 N   0  0  0  0  0  0
  -26.4293  -37.3783   23.9414 N   0  0  0  0  0  0
  -24.6743  -31.0709   22.0978 N   0  0  0  0  0  0
  -23.4193  -28.8168   23.3074 O   0  0  0  0  0  0
  -28.3883  -26.6317   20.0433 O   0  0  0  0  0  0
  -26.5615  -34.8923   22.4675 O   0  0  0  0  0  0
  -23.5370  -32.1407   23.7428 O   0  0  0  0  0  0
  -31.6047  -17.4351   21.8277 C   0  0  0  0  0  0
  -31.4783  -19.8247   21.3330 C   0  0  0  0  0  0
  -30.4821  -17.1753   21.0111 C   0  0  0  0  0  0
  -29.8935  -18.2813   20.3027 C   0  0  0  0  0  0
  -30.3707  -19.6141   20.4890 C   0  0  0  0  0  0
  -32.1027  -18.7423   21.9804 C   0  0  0  0  0  0
  -29.8468  -15.8067   21.0788 C   0  0  0  0  0  0
  -28.7290  -18.0589   19.3464 C   0  0  0  0  0  0
  -28.1451  -24.1222   20.6434 C   0  0  0  0  0  0
  -29.2855  -23.1386   20.2039 C   0  0  0  0  0  0
  -28.5296  -25.5922   21.0375 C   0  0  0  0  0  0
  -29.0343  -21.6353   20.5734 C   0  0  0  0  0  0
  -28.6720  -15.7841   21.5517 N   0  0  0  0  0  0
  -29.8230  -20.6966   19.8126 O   0  0  0  0  0  0
  -33.1733  -18.9629   22.7792 F   0  0  0  0  0  0
  -31.4800  -12.4980   19.1194 H   0  0  0  0  0  0
  -30.3904  -11.3476   19.8259 H   0  0  0  0  0  0
  -29.7563  -11.7929   17.4417 H   0  0  0  0  0  0
  -29.6501  -13.5050   17.7623 H   0  0  0  0  0  0
  -27.8362  -11.3061   18.8052 H   0  0  0  0  0  0
  -27.3670  -12.6390   17.7869 H   0  0  0  0  0  0
  -27.7059  -14.2389   19.5868 H   0  0  0  0  0  0
  -28.7227  -11.8687   21.2271 H   0  0  0  0  0  0
  -28.4546  -13.4012   21.9326 H   0  0  0  0  0  0
  -25.2733   -9.5690   22.4766 H   0  0  0  0  0  0
  -23.9991   -7.4629   22.7480 H   0  0  0  0  0  0
  -21.0831   -8.8759   19.8924 H   0  0  0  0  0  0
  -22.3699  -10.9657   19.6138 H   0  0  0  0  0  0
  -21.2011   -7.6151   23.9728 H   0  0  0  0  0  0
  -21.1460   -6.0517   25.9080 H   0  0  0  0  0  0
  -22.0609   -2.7616   23.2841 H   0  0  0  0  0  0
  -22.4072  -11.9838   22.4699 H   0  0  0  0  0  0
  -21.1097  -13.1234   22.2566 H   0  0  0  0  0  0
  -24.7214  -15.8601   20.6307 H   0  0  0  0  0  0
  -26.3717  -15.5923   20.3489 H   0  0  0  0  0  0
  -26.7156  -32.5504   23.1113 H   0  0  0  0  0  0
  -25.0086  -33.9740   25.0476 H   0  0  0  0  0  0
  -22.6988  -31.2994   21.4093 H   0  0  0  0  0  0
  -23.3746  -35.9631   23.3294 H   0  0  0  0  0  0
  -24.3591  -36.8917   22.2054 H   0  0  0  0  0  0
  -23.7234  -37.6490   23.6659 H   0  0  0  0  0  0
  -26.0394  -31.5788   20.5802 H   0  0  0  0  0  0
  -26.8294  -30.8895   21.9704 H   0  0  0  0  0  0
  -28.1152  -29.0750   21.1583 H   0  0  0  0  0  0
  -26.0619  -25.9436   19.0266 H   0  0  0  0  0  0
  -23.9816  -27.2748   19.0426 H   0  0  0  0  0  0
  -23.7256  -30.5812   19.4048 H   0  0  0  0  0  0
  -22.7420  -29.2287   19.8750 H   0  0  0  0  0  0
  -25.1288  -36.1955   25.0815 H   0  0  0  0  0  0
  -20.9949  -28.3190   24.1433 H   0  0  0  0  0  0
  -20.5653  -26.2230   23.3569 H   0  0  0  0  0  0
  -21.6639  -26.7416   22.1183 H   0  0  0  0  0  0
  -19.6901  -25.6309   21.1166 H   0  0  0  0  0  0
  -19.6674  -27.3216   20.6737 H   0  0  0  0  0  0
  -17.4188  -26.6639   21.4000 H   0  0  0  0  0  0
  -18.0339  -26.0020   22.8974 H   0  0  0  0  0  0
  -19.7936  -30.7214   24.2276 H   0  0  0  0  0  0
  -17.5021  -31.6237   24.5148 H   0  0  0  0  0  0
  -15.5342  -30.2963   23.7639 H   0  0  0  0  0  0
  -15.8668  -28.0794   22.7062 H   0  0  0  0  0  0
  -24.5934  -30.6981   25.7738 H   0  0  0  0  0  0
  -24.8903  -32.2800   26.4866 H   0  0  0  0  0  0
  -25.8100  -30.8821   27.0175 H   0  0  0  0  0  0
  -26.2841  -29.6790   24.1109 H   0  0  0  0  0  0
  -27.4185  -29.7261   25.4419 H   0  0  0  0  0  0
  -27.8631  -30.4379   23.9080 H   0  0  0  0  0  0
  -27.2690  -33.3611   26.2006 H   0  0  0  0  0  0
  -28.3911  -32.6795   25.0322 H   0  0  0  0  0  0
  -28.0668  -31.8408   26.5413 H   0  0  0  0  0  0
  -28.2586  -38.0124   24.7536 H   0  0  0  0  0  0
  -28.1081  -36.2645   24.6274 H   0  0  0  0  0  0
  -27.2283  -37.1445   25.8867 H   0  0  0  0  0  0
  -20.9326  -29.8761   21.6975 H   0  0  0  0  0  0
  -26.0161  -38.2854   24.1416 H   0  0  0  0  0  0
  -32.0690  -16.6320   22.3828 H   0  0  0  0  0  0
  -31.8670  -20.8235   21.4701 H   0  0  0  0  0  0
  -28.8757  -17.1513   18.7592 H   0  0  0  0  0  0
  -28.6219  -18.8811   18.6383 H   0  0  0  0  0  0
  -27.7937  -17.9715   19.8989 H   0  0  0  0  0  0
  -27.6921  -23.6858   21.5342 H   0  0  0  0  0  0
  -27.3475  -24.1207   19.9008 H   0  0  0  0  0  0
  -30.2346  -23.4428   20.6480 H   0  0  0  0  0  0
  -29.4182  -23.2302   19.1258 H   0  0  0  0  0  0
  -29.5622  -25.6108   21.3859 H   0  0  0  0  0  0
  -27.9402  -25.8745   21.9126 H   0  0  0  0  0  0
  -27.9904  -21.3893   20.3767 H   0  0  0  0  0  0
  -29.1761  -21.4917   21.6457 H   0  0  0  0  0  0
  -28.3862  -16.7166   21.8217 H   0  0  0  0  0  0
  1 25  1  0  0  0
  1 30  2  0  0  0
  1 77  1  0  0  0
  2  3  1  0  0  0
  2 25  1  0  0  0
  2 86  1  0  0  0
  2 87  1  0  0  0
  3  4  1  0  0  0
  3 88  1  0  0  0
  3 89  1  0  0  0
  4  5  1  0  0  0
  4 90  1  0  0  0
  4 91  1  0  0  0
  5  6  1  0  0  0
  5 26  1  0  0  0
  5 92  1  0  0  0
  6 25  1  0  0  0
  6 93  1  0  0  0
  6 94  1  0  0  0
  7  8  2  0  0  0
  7 26  1  0  0  0
  7 29  1  0  0  0
  8  9  1  0  0  0
  8 22  1  0  0  0
  9 10  1  0  0  0
  9 27  2  0  0  0
 10 11  2  0  0  0
 10 15  1  0  0  0
 11 12  1  0  0  0
 11 95  1  0  0  0
 12 13  2  0  0  0
 12 96  1  0  0  0
 13 14  1  0  0  0
 13 31  1  0  0  0
 14 15  2  0  0  0
 14 97  1  0  0  0
 15 98  1  0  0  0
 16 17  2  0  0  0
 16 21  1  0  0  0
 16 31  1  0  0  0
 17 18  1  0  0  0
 17 99  1  0  0  0
 18 19  2  0  0  0
 18100  1  0  0  0
 19 20  1  0  0  0
 19 24  1  0  0  0
 20 21  2  0  0  0
 20101  1  0  0  0
 21 23  1  0  0  0
 22 28  1  0  0  0
 22 32  2  0  0  0
 26 27  1  0  0  0
 28102  1  0  0  0
 28103  1  0  0  0
 29104  1  0  0  0
 29105  1  0  0  0
 33 34  1  0  0  0
 33 66  1  0  0  0
 33 70  2  0  0  0
 34 36  1  0  0  0
 34 59  1  0  0  0
 34106  1  0  0  0
 35 44  2  0  0  0
 35 45  1  0  0  0
 35 68  1  0  0  0
 36 56  1  0  0  0
 36107  1  0  0  0
 37 39  1  0  0  0
 37 47  1  0  0  0
 37 66  1  0  0  0
 37108  1  0  0  0
 38 43  2  0  0  0
 38 46  1  0  0  0
 38 47  1  0  0  0
 39 64  1  0  0  0
 39 67  2  0  0  0
 40 52  1  0  0  0
 40 53  2  0  0  0
 40 58  1  0  0  0
 41109  1  0  0  0
 41110  1  0  0  0
 41111  1  0  0  0
 41 48  1  0  0  0
 42 43  1  0  0  0
 42 66  1  0  0  0
 42112  1  0  0  0
 42113  1  0  0  0
 43 44  1  0  0  0
 44114  1  0  0  0
 45 46  2  0  0  0
 45115  1  0  0  0
 46116  1  0  0  0
 47117  1  0  0  0
 47118  1  0  0  0
 48 56  1  0  0  0
 48 65  1  0  0  0
 48119  1  0  0  0
 49 50  1  0  0  0
 49 53  1  0  0  0
 49 64  1  0  0  0
 49120  1  0  0  0
 50 51  1  0  0  0
 50121  1  0  0  0
 50122  1  0  0  0
 51 52  1  0  0  0
 51123  1  0  0  0
 51124  1  0  0  0
 52125  1  0  0  0
 52126  1  0  0  0
 53 54  1  0  0  0
 54 55  2  0  0  0
 54127  1  0  0  0
 55 57  1  0  0  0
 55128  1  0  0  0
 56 69  2  0  0  0
 57 58  2  0  0  0
 57129  1  0  0  0
 58130  1  0  0  0
 59 60  1  0  0  0
 59 61  1  0  0  0
 59 62  1  0  0  0
 60131  1  0  0  0
 60132  1  0  0  0
 60133  1  0  0  0
 61134  1  0  0  0
 61135  1  0  0  0
 61136  1  0  0  0
 62137  1  0  0  0
 62138  1  0  0  0
 62139  1  0  0  0
 63 65  1  0  0  0
 63140  1  0  0  0
 63141  1  0  0  0
 63142  1  0  0  0
 64143  1  0  0  0
 65144  1  0  0  0
 68 81  1  0  0  0
 71 73  2  0  0  0
 71 76  1  0  0  0
 71145  1  0  0  0
 72 75  1  0  0  0
 72 76  2  0  0  0
 72146  1  0  0  0
 73 74  1  0  0  0
 73 77  1  0  0  0
 74 75  2  0  0  0
 74 78  1  0  0  0
 75 84  1  0  0  0
 76 85  1  0  0  0
 77 83  2  0  0  0
 78147  1  0  0  0
 78148  1  0  0  0
 78149  1  0  0  0
 79 80  1  0  0  0
 79 81  1  0  0  0
 79150  1  0  0  0
 79151  1  0  0  0
 80 82  1  0  0  0
 80152  1  0  0  0
 80153  1  0  0  0
 81154  1  0  0  0
 81155  1  0  0  0
 82 84  1  0  0  0
 82156  1  0  0  0
 82157  1  0  0  0
 83158  1  0  0  0
M  ISO  4   1 100  68 101  77 100  81 101
M  END
> <chiral flag>
0

> <version>
0

> <s_m_source_file>
/data/baiqing/PycharmProjects/Reinvent-master-3.2/result/LINK_invent/BTK/process_docking_weight1_custom_product_contain_oxygen_bond_distance_aromatic_linkinvent_7_9_3/rearranged_h_0119.sdf

> <i_m_source_file_index>
28

> <r_mmod_Potential_Energy-OPLS-2005>
171.830703735352

> <r_mmod_Stretch_Energy-OPLS-2005>
59.8070220947266

> <r_mmod_Bend_Energy-OPLS-2005>
126.511589050293

> <r_mmod_Torsional_Energy-OPLS-2005>
265.57177734375

> <r_mmod_Improper_Torsional_Energy-OPLS-2005>
4.91312265396118

> <r_mmod_Van_der_Waal_Energy-OPLS-2005>
154.61506652832

> <r_mmod_Electrostatic_Energy-OPLS-2005>
-273.053466796875

> <r_mmod_Solvation_Energy-OPLS-2005>
-187.482498168945

> <b_mmod_Minimization_Converged-OPLS-2005>
0

> <r_mmod_RMS_Derivative-OPLS-2005>
2.1964111328125

$$$$
28
                    3D
 Structure written by MMmdl.
154162  0  0  1  0            999 V2000
  -30.6635  -14.6485   20.4608 C   0  0  0  0  0  0
  -30.4170  -12.3843   19.4847 C   0  0  0  0  0  0
  -29.5099  -12.4964   18.2406 C   0  0  0  0  0  0
  -28.0308  -12.3432   18.6412 C   0  0  0  0  0  0
  -27.6467  -13.2312   19.8554 C   0  0  2  0  0  0
  -28.6846  -13.1350   20.9940 C   0  0  0  0  0  0
  -25.2533  -13.8209   20.5702 C   0  0  0  0  0  0
  -24.1811  -13.0454   20.9187 C   0  0  0  0  0  0
  -24.6391  -11.6929   20.8726 C   0  0  0  0  0  0
  -23.9060  -10.4305   21.0393 C   0  0  0  0  0  0
  -24.3614   -9.4223   21.9175 C   0  0  0  0  0  0
  -23.6294   -8.2255   22.0748 C   0  0  0  0  0  0
  -22.4276   -8.0283   21.3540 C   0  0  0  0  0  0
  -21.9899   -9.0254   20.4647 C   0  0  0  0  0  0
  -22.7222  -10.2138   20.3053 C   0  0  0  0  0  0
  -21.6859   -6.0732   22.5273 C   0  0  0  0  0  0
  -21.4017   -6.5634   23.8206 C   0  0  0  0  0  0
  -21.3664   -5.6791   24.9170 C   0  0  0  0  0  0
  -21.6048   -4.3054   24.7221 C   0  0  0  0  0  0
  -21.8821   -3.8142   23.4343 C   0  0  0  0  0  0
  -21.9194   -4.6959   22.3398 C   0  0  0  0  0  0
  -22.7834  -13.5235   21.1854 C   0  0  0  0  0  0
  -22.1665   -4.2147   21.0975 F   0  0  0  0  0  0
  -21.5627   -3.4536   25.7733 F   0  0  0  0  0  0
  -30.0043  -13.4441   20.4318 N   0  0  0  0  0  0
  -26.2958  -12.9416   20.3281 N   0  0  0  0  0  0
  -25.9325  -11.6557   20.5739 N   0  0  0  0  0  0
  -22.0479  -12.8232   22.0420 N   0  0  0  0  0  0
  -25.4253  -15.1932   20.4165 N   0  0  0  0  0  0
  -31.8434  -14.6966   20.1005 O   0  0  0  0  0  0
  -21.6646   -6.8877   21.4238 O   0  0  0  0  0  0
  -22.3515  -14.5535   20.6699 O   0  0  0  0  0  0
  -24.6251  -31.8589   23.2023 C   0  0  0  0  0  0
  -25.9101  -32.4771   23.8347 C   0  0  1  0  0  0
  -27.2232  -27.3193   20.1088 C   0  0  0  0  0  0
  -25.5914  -33.8571   24.2274 N   0  0  0  0  0  0
  -23.4178  -30.4825   21.5450 C   0  0  2  0  0  0
  -24.8621  -28.9360   20.1096 C   0  0  0  0  0  0
  -22.7464  -29.4613   22.4937 C   0  0  0  0  0  0
  -18.0284  -28.1383   22.8479 C   0  0  0  0  0  0
  -24.1488  -36.7299   23.2638 C   0  0  0  0  0  0
  -25.9581  -30.7887   21.3731 C   0  0  0  0  0  0
  -26.0294  -29.4159   20.7148 C   0  0  0  0  0  0
  -27.2083  -28.6156   20.7101 C   0  0  0  0  0  0
  -26.0256  -26.8806   19.4992 C   0  0  0  0  0  0
  -24.8614  -27.6728   19.4970 C   0  0  0  0  0  0
  -23.6309  -29.8173   20.1594 C   0  0  0  0  0  0
  -25.4110  -36.3080   24.0328 C   0  0  1  0  0  0
  -20.5881  -28.3682   23.1288 C   0  0  2  0  0  0
  -20.6769  -26.9403   22.5419 C   0  0  0  0  0  0
  -19.5752  -26.6376   21.5212 C   0  0  0  0  0  0
  -18.1927  -26.7927   22.1615 C   0  0  0  0  0  0
  -19.1535  -28.8851   23.2878 C   0  0  0  0  0  0
  -18.9457  -30.1451   23.8895 C   0  0  0  0  0  0
  -17.6455  -30.6582   24.0563 C   0  0  0  0  0  0
  -25.9041  -34.9445   23.5103 C   0  0  0  0  0  0
  -16.5348  -29.9078   23.6329 C   0  0  0  0  0  0
  -16.7271  -28.6501   23.0343 C   0  0  0  0  0  0
  -26.4487  -31.6586   25.0722 C   0  0  0  0  0  0
  -25.3730  -31.3750   26.1467 C   0  0  0  0  0  0
  -27.0314  -30.2999   24.6188 C   0  0  0  0  0  0
  -27.6054  -32.4320   25.7481 C   0  0  0  0  0  0
  -27.5584  -37.1795   24.8456 C   0  0  0  0  0  0
  -21.4179  -29.3033   22.3682 N   0  0  0  0  0  0
  -26.4290  -37.3775   23.9406 N   0  0  0  0  0  0
  -24.6858  -31.0605   22.0969 N   0  0  0  0  0  0
  -23.4192  -28.8148   23.3011 O   0  0  0  0  0  0
  -28.3620  -26.5038   20.1786 O   0  0  0  0  0  0
  -26.5616  -34.8915   22.4671 O   0  0  0  0  0  0
  -23.5418  -32.1390   23.7359 O   0  0  0  0  0  0
  -29.7802  -19.2230   18.8530 C   0  0  0  0  0  0
  -29.5189  -20.6119   18.7747 C   0  0  0  0  0  0
  -29.3787  -19.2816   21.2066 C   0  0  0  0  0  0
  -29.7541  -18.5106   20.0712 C   0  0  0  0  0  0
  -29.1362  -20.7083   21.1547 C   0  0  0  0  0  0
  -29.2157  -21.4204   19.8990 C   0  0  0  0  0  0
  -30.1968  -17.0516   20.0362 C   0  0  0  0  0  0
  -29.9105  -15.9105   20.7508 C   0  0  0  0  0  0
  -28.5044  -23.8452   20.0932 C   0  0  0  0  0  0
  -28.9379  -21.3900   22.4710 C   0  0  0  0  0  0
  -28.1763  -20.6228   23.5466 C   0  0  0  0  0  0
  -28.5095  -25.2622   19.3909 C   0  0  0  0  0  0
  -29.1185  -22.8259   19.5621 N   0  0  0  0  0  0
  -29.3604  -22.5171   22.7417 O   0  0  0  0  0  0
  -31.4654  -12.4593   19.1922 H   0  0  0  0  0  0
  -30.3130  -11.4018   19.9480 H   0  0  0  0  0  0
  -29.7785  -11.7352   17.5072 H   0  0  0  0  0  0
  -29.6655  -13.4611   17.7554 H   0  0  0  0  0  0
  -27.8644  -11.2932   18.8839 H   0  0  0  0  0  0
  -27.3840  -12.5642   17.7915 H   0  0  0  0  0  0
  -27.6557  -14.2601   19.4943 H   0  0  0  0  0  0
  -28.6885  -12.1345   21.4299 H   0  0  0  0  0  0
  -28.4310  -13.8147   21.8081 H   0  0  0  0  0  0
  -25.2758   -9.5703   22.4751 H   0  0  0  0  0  0
  -24.0006   -7.4644   22.7464 H   0  0  0  0  0  0
  -21.0825   -8.8765   19.8954 H   0  0  0  0  0  0
  -22.3664  -10.9674   19.6165 H   0  0  0  0  0  0
  -21.2011   -7.6142   23.9709 H   0  0  0  0  0  0
  -21.1487   -6.0520   25.9073 H   0  0  0  0  0  0
  -22.0595   -2.7603   23.2848 H   0  0  0  0  0  0
  -22.4095  -11.9908   22.4837 H   0  0  0  0  0  0
  -21.1094  -13.1259   22.2617 H   0  0  0  0  0  0
  -24.6636  -15.8520   20.5340 H   0  0  0  0  0  0
  -26.2882  -15.6325   20.1193 H   0  0  0  0  0  0
  -26.7166  -32.5437   23.1091 H   0  0  0  0  0  0
  -25.0059  -33.9710   25.0419 H   0  0  0  0  0  0
  -22.7115  -31.3030   21.4035 H   0  0  0  0  0  0
  -23.3747  -35.9633   23.3290 H   0  0  0  0  0  0
  -24.3584  -36.8933   22.2054 H   0  0  0  0  0  0
  -23.7243  -37.6497   23.6672 H   0  0  0  0  0  0
  -26.0907  -31.5516   20.6048 H   0  0  0  0  0  0
  -26.8378  -30.8355   22.0032 H   0  0  0  0  0  0
  -28.1045  -28.9785   21.1940 H   0  0  0  0  0  0
  -25.9431  -25.9041   19.0489 H   0  0  0  0  0  0
  -23.9608  -27.2936   19.0335 H   0  0  0  0  0  0
  -23.7503  -30.5939   19.4032 H   0  0  0  0  0  0
  -22.7501  -29.2475   19.8580 H   0  0  0  0  0  0
  -25.1289  -36.1930   25.0823 H   0  0  0  0  0  0
  -20.9973  -28.3260   24.1408 H   0  0  0  0  0  0
  -20.5655  -26.2289   23.3619 H   0  0  0  0  0  0
  -21.6642  -26.7422   22.1225 H   0  0  0  0  0  0
  -19.6908  -25.6285   21.1244 H   0  0  0  0  0  0
  -19.6695  -27.3185   20.6741 H   0  0  0  0  0  0
  -17.4200  -26.6679   21.4015 H   0  0  0  0  0  0
  -18.0318  -26.0070   22.9011 H   0  0  0  0  0  0
  -19.7931  -30.7271   24.2262 H   0  0  0  0  0  0
  -17.5008  -31.6261   24.5162 H   0  0  0  0  0  0
  -15.5348  -30.2972   23.7657 H   0  0  0  0  0  0
  -15.8673  -28.0817   22.7053 H   0  0  0  0  0  0
  -24.5866  -30.7137   25.7815 H   0  0  0  0  0  0
  -24.8973  -32.2934   26.4917 H   0  0  0  0  0  0
  -25.8056  -30.8905   27.0230 H   0  0  0  0  0  0
  -26.2882  -29.6757   24.1215 H   0  0  0  0  0  0
  -27.3997  -29.7253   25.4698 H   0  0  0  0  0  0
  -27.8765  -30.4266   23.9417 H   0  0  0  0  0  0
  -27.2662  -33.3609   26.2081 H   0  0  0  0  0  0
  -28.3844  -32.6899   25.0296 H   0  0  0  0  0  0
  -28.0747  -31.8439   26.5379 H   0  0  0  0  0  0
  -28.2595  -38.0099   24.7510 H   0  0  0  0  0  0
  -28.1085  -36.2630   24.6264 H   0  0  0  0  0  0
  -27.2310  -37.1430   25.8862 H   0  0  0  0  0  0
  -20.9349  -29.8771   21.6910 H   0  0  0  0  0  0
  -26.0173  -38.2849   24.1411 H   0  0  0  0  0  0
  -30.0462  -18.7030   17.9431 H   0  0  0  0  0  0
  -29.5956  -21.0776   17.8013 H   0  0  0  0  0  0
  -29.3660  -18.7697   22.1587 H   0  0  0  0  0  0
  -30.9481  -16.9092   19.2694 H   0  0  0  0  0  0
  -29.1650  -15.9355   21.5308 H   0  0  0  0  0  0
  -27.9198  -23.7826   21.0141 H   0  0  0  0  0  0
  -27.3864  -20.0180   23.1024 H   0  0  0  0  0  0
  -27.7220  -21.3151   24.2548 H   0  0  0  0  0  0
  -28.8548  -19.9692   24.0942 H   0  0  0  0  0  0
  -27.8412  -25.2279   18.5325 H   0  0  0  0  0  0
  -29.4921  -25.3604   18.9286 H   0  0  0  0  0  0
  1 25  1  0  0  0
  1 30  2  0  0  0
  1 78  1  0  0  0
  2  3  1  0  0  0
  2 25  1  0  0  0
  2 85  1  0  0  0
  2 86  1  0  0  0
  3  4  1  0  0  0
  3 87  1  0  0  0
  3 88  1  0  0  0
  4  5  1  0  0  0
  4 89  1  0  0  0
  4 90  1  0  0  0
  5  6  1  0  0  0
  5 26  1  0  0  0
  5 91  1  0  0  0
  6 25  1  0  0  0
  6 92  1  0  0  0
  6 93  1  0  0  0
  7  8  2  0  0  0
  7 26  1  0  0  0
  7 29  1  0  0  0
  8  9  1  0  0  0
  8 22  1  0  0  0
  9 10  1  0  0  0
  9 27  2  0  0  0
 10 11  2  0  0  0
 10 15  1  0  0  0
 11 12  1  0  0  0
 11 94  1  0  0  0
 12 13  2  0  0  0
 12 95  1  0  0  0
 13 14  1  0  0  0
 13 31  1  0  0  0
 14 15  2  0  0  0
 14 96  1  0  0  0
 15 97  1  0  0  0
 16 17  2  0  0  0
 16 21  1  0  0  0
 16 31  1  0  0  0
 17 18  1  0  0  0
 17 98  1  0  0  0
 18 19  2  0  0  0
 18 99  1  0  0  0
 19 20  1  0  0  0
 19 24  1  0  0  0
 20 21  2  0  0  0
 20100  1  0  0  0
 21 23  1  0  0  0
 22 28  1  0  0  0
 22 32  2  0  0  0
 26 27  1  0  0  0
 28101  1  0  0  0
 28102  1  0  0  0
 29103  1  0  0  0
 29104  1  0  0  0
 33 34  1  0  0  0
 33 66  1  0  0  0
 33 70  2  0  0  0
 34 36  1  0  0  0
 34 59  1  0  0  0
 34105  1  0  0  0
 35 44  2  0  0  0
 35 45  1  0  0  0
 35 68  1  0  0  0
 36 56  1  0  0  0
 36106  1  0  0  0
 37 39  1  0  0  0
 37 47  1  0  0  0
 37 66  1  0  0  0
 37107  1  0  0  0
 38 43  2  0  0  0
 38 46  1  0  0  0
 38 47  1  0  0  0
 39 64  1  0  0  0
 39 67  2  0  0  0
 40 52  1  0  0  0
 40 53  2  0  0  0
 40 58  1  0  0  0
 41108  1  0  0  0
 41109  1  0  0  0
 41110  1  0  0  0
 41 48  1  0  0  0
 42 43  1  0  0  0
 42 66  1  0  0  0
 42111  1  0  0  0
 42112  1  0  0  0
 43 44  1  0  0  0
 44113  1  0  0  0
 45 46  2  0  0  0
 45114  1  0  0  0
 46115  1  0  0  0
 47116  1  0  0  0
 47117  1  0  0  0
 48 56  1  0  0  0
 48 65  1  0  0  0
 48118  1  0  0  0
 49 50  1  0  0  0
 49 53  1  0  0  0
 49 64  1  0  0  0
 49119  1  0  0  0
 50 51  1  0  0  0
 50120  1  0  0  0
 50121  1  0  0  0
 51 52  1  0  0  0
 51122  1  0  0  0
 51123  1  0  0  0
 52124  1  0  0  0
 52125  1  0  0  0
 53 54  1  0  0  0
 54 55  2  0  0  0
 54126  1  0  0  0
 55 57  1  0  0  0
 55127  1  0  0  0
 56 69  2  0  0  0
 57 58  2  0  0  0
 57128  1  0  0  0
 58129  1  0  0  0
 59 60  1  0  0  0
 59 61  1  0  0  0
 59 62  1  0  0  0
 60130  1  0  0  0
 60131  1  0  0  0
 60132  1  0  0  0
 61133  1  0  0  0
 61134  1  0  0  0
 61135  1  0  0  0
 62136  1  0  0  0
 62137  1  0  0  0
 62138  1  0  0  0
 63 65  1  0  0  0
 63139  1  0  0  0
 63140  1  0  0  0
 63141  1  0  0  0
 64142  1  0  0  0
 65143  1  0  0  0
 68 82  1  0  0  0
 71 72  2  0  0  0
 71 74  1  0  0  0
 71144  1  0  0  0
 72 76  1  0  0  0
 72145  1  0  0  0
 73 74  2  0  0  0
 73 75  1  0  0  0
 73146  1  0  0  0
 74 77  1  0  0  0
 75 76  2  0  0  0
 75 80  1  0  0  0
 76 83  1  0  0  0
 77 78  2  0  0  0
 77147  1  0  0  0
 78148  1  0  0  0
 79 82  1  0  0  0
 79 83  2  0  0  0
 79149  1  0  0  0
 80 81  1  0  0  0
 80 84  2  0  0  0
 81150  1  0  0  0
 81151  1  0  0  0
 81152  1  0  0  0
 82153  1  0  0  0
 82154  1  0  0  0
M  ISO  4   1 100  68 101  78 100  82 101
M  END
> <chiral flag>
0

> <version>
0

> <s_m_source_file>
/data/baiqing/PycharmProjects/Reinvent-master-3.2/result/LINK_invent/BTK/process_docking_weight1_custom_product_contain_oxygen_bond_distance_aromatic_linkinvent_7_9_3/rearranged_h_0119.sdf

> <i_m_source_file_index>
29

> <r_mmod_Potential_Energy-OPLS-2005>
192.740524291992

> <r_mmod_Stretch_Energy-OPLS-2005>
85.6842651367188

> <r_mmod_Bend_Energy-OPLS-2005>
206.620681762695

> <r_mmod_Torsional_Energy-OPLS-2005>
227.352340698242

> <r_mmod_Improper_Torsional_Energy-OPLS-2005>
4.86193370819092

> <r_mmod_Van_der_Waal_Energy-OPLS-2005>
151.825759887695

> <r_mmod_Electrostatic_Energy-OPLS-2005>
-322.396087646484

> <r_mmod_Solvation_Energy-OPLS-2005>
-212.252197265625

> <b_mmod_Minimization_Converged-OPLS-2005>
0

> <r_mmod_RMS_Derivative-OPLS-2005>
1.01695728302002

$$$$
29
                    3D
 Structure written by MMmdl.
162170  0  0  1  0            999 V2000
  -30.6710  -14.5595   20.4818 C   0  0  0  0  0  0
  -30.4262  -12.3292   19.4565 C   0  0  0  0  0  0
  -29.5094  -12.4946   18.2237 C   0  0  0  0  0  0
  -28.0268  -12.3520   18.6251 C   0  0  0  0  0  0
  -27.6569  -13.2108   19.8637 C   0  0  2  0  0  0
  -28.6999  -13.0327   20.9920 C   0  0  0  0  0  0
  -25.2589  -13.8152   20.5686 C   0  0  0  0  0  0
  -24.1832  -13.0439   20.9163 C   0  0  0  0  0  0
  -24.6393  -11.6909   20.8707 C   0  0  0  0  0  0
  -23.9051  -10.4297   21.0400 C   0  0  0  0  0  0
  -24.3598   -9.4214   21.9183 C   0  0  0  0  0  0
  -23.6264   -8.2251   22.0760 C   0  0  0  0  0  0
  -22.4248   -8.0278   21.3541 C   0  0  0  0  0  0
  -21.9879   -9.0258   20.4654 C   0  0  0  0  0  0
  -22.7216  -10.2139   20.3047 C   0  0  0  0  0  0
  -21.6852   -6.0712   22.5279 C   0  0  0  0  0  0
  -21.4029   -6.5625   23.8214 C   0  0  0  0  0  0
  -21.3660   -5.6778   24.9173 C   0  0  0  0  0  0
  -21.6043   -4.3042   24.7217 C   0  0  0  0  0  0
  -21.8807   -3.8131   23.4350 C   0  0  0  0  0  0
  -21.9207   -4.6945   22.3409 C   0  0  0  0  0  0
  -22.7862  -13.5256   21.1831 C   0  0  0  0  0  0
  -22.1656   -4.2137   21.0977 F   0  0  0  0  0  0
  -21.5625   -3.4526   25.7737 F   0  0  0  0  0  0
  -30.0254  -13.3524   20.4382 N   0  0  0  0  0  0
  -26.3008  -12.9327   20.3286 N   0  0  0  0  0  0
  -25.9309  -11.6491   20.5693 N   0  0  0  0  0  0
  -22.0496  -12.8262   22.0387 N   0  0  0  0  0  0
  -25.4304  -15.1876   20.4154 N   0  0  0  0  0  0
  -31.8384  -14.6691   20.0999 O   0  0  0  0  0  0
  -21.6632   -6.8861   21.4239 O   0  0  0  0  0  0
  -22.3544  -14.5561   20.6684 O   0  0  0  0  0  0
  -24.6175  -31.8650   23.2053 C   0  0  0  0  0  0
  -25.9051  -32.4803   23.8365 C   0  0  1  0  0  0
  -27.2445  -27.3947   20.0880 C   0  0  0  0  0  0
  -25.5891  -33.8602   24.2304 N   0  0  0  0  0  0
  -23.4070  -30.4852   21.5483 C   0  0  2  0  0  0
  -24.8529  -28.9428   20.1139 C   0  0  0  0  0  0
  -22.7424  -29.4639   22.4994 C   0  0  0  0  0  0
  -18.0270  -28.1381   22.8485 C   0  0  0  0  0  0
  -24.1478  -36.7291   23.2638 C   0  0  0  0  0  0
  -25.9381  -30.8146   21.3653 C   0  0  0  0  0  0
  -26.0126  -29.4443   20.7141 C   0  0  0  0  0  0
  -27.2024  -28.6744   20.7017 C   0  0  0  0  0  0
  -26.0558  -26.9133   19.4920 C   0  0  0  0  0  0
  -24.8714  -27.6769   19.5031 C   0  0  0  0  0  0
  -23.6162  -29.8139   20.1638 C   0  0  0  0  0  0
  -25.4101  -36.3103   24.0337 C   0  0  1  0  0  0
  -20.5864  -28.3665   23.1321 C   0  0  2  0  0  0
  -20.6761  -26.9400   22.5426 C   0  0  0  0  0  0
  -19.5746  -26.6389   21.5217 C   0  0  0  0  0  0
  -18.1921  -26.7927   22.1625 C   0  0  0  0  0  0
  -19.1525  -28.8841   23.2897 C   0  0  0  0  0  0
  -18.9454  -30.1443   23.8907 C   0  0  0  0  0  0
  -17.6459  -30.6581   24.0570 C   0  0  0  0  0  0
  -25.9037  -34.9469   23.5126 C   0  0  0  0  0  0
  -16.5345  -29.9085   23.6326 C   0  0  0  0  0  0
  -16.7263  -28.6510   23.0334 C   0  0  0  0  0  0
  -26.4470  -31.6589   25.0703 C   0  0  0  0  0  0
  -25.3730  -31.3690   26.1447 C   0  0  0  0  0  0
  -27.0302  -30.3028   24.6093 C   0  0  0  0  0  0
  -27.6055  -32.4302   25.7466 C   0  0  0  0  0  0
  -27.5578  -37.1792   24.8467 C   0  0  0  0  0  0
  -21.4154  -29.3021   22.3727 N   0  0  0  0  0  0
  -26.4283  -37.3793   23.9424 N   0  0  0  0  0  0
  -24.6726  -31.0710   22.0977 N   0  0  0  0  0  0
  -23.4182  -28.8202   23.3068 O   0  0  0  0  0  0
  -28.4442  -26.6888   20.1326 O   0  0  0  0  0  0
  -26.5618  -34.8933   22.4700 O   0  0  0  0  0  0
  -23.5358  -32.1434   23.7412 O   0  0  0  0  0  0
  -28.3898  -18.2680   21.6990 C   0  0  0  0  0  0
  -29.7816  -19.5194   20.1475 C   0  0  0  0  0  0
  -27.9725  -20.6484   21.3201 C   0  0  0  0  0  0
  -29.4687  -18.2793   20.7875 C   0  0  0  0  0  0
  -27.6613  -19.4410   21.9766 C   0  0  0  0  0  0
  -29.0320  -20.7111   20.3923 C   0  0  0  0  0  0
  -30.2228  -17.0150   20.4989 C   0  0  0  0  0  0
  -29.8445  -15.7408   20.8117 C   0  0  0  0  0  0
  -26.5625  -19.4168   23.0177 C   0  0  0  0  0  0
  -30.2658  -25.3301   19.7067 C   0  0  0  0  0  0
  -28.5730  -25.6596   17.9128 C   0  0  0  0  0  0
  -28.0625  -24.1569   20.0170 C   0  0  0  0  0  0
  -28.3022  -22.7751   19.2992 C   0  0  0  0  0  0
  -28.7559  -25.4486   19.4336 C   0  0  0  0  0  0
  -29.3694  -21.9126   19.7720 O   0  0  0  0  0  0
  -31.4756  -12.4082   19.1687 H   0  0  0  0  0  0
  -30.3147  -11.3333   19.8860 H   0  0  0  0  0  0
  -29.7674  -11.7598   17.4603 H   0  0  0  0  0  0
  -29.6741  -13.4722   17.7685 H   0  0  0  0  0  0
  -27.8497  -11.2989   18.8469 H   0  0  0  0  0  0
  -27.3807  -12.6021   17.7830 H   0  0  0  0  0  0
  -27.6872  -14.2504   19.5375 H   0  0  0  0  0  0
  -28.6908  -12.0041   21.3576 H   0  0  0  0  0  0
  -28.4574  -13.6370   21.8653 H   0  0  0  0  0  0
  -25.2740   -9.5690   22.4756 H   0  0  0  0  0  0
  -23.9982   -7.4645   22.7480 H   0  0  0  0  0  0
  -21.0803   -8.8768   19.8964 H   0  0  0  0  0  0
  -22.3669  -10.9663   19.6149 H   0  0  0  0  0  0
  -21.2024   -7.6139   23.9705 H   0  0  0  0  0  0
  -21.1480   -6.0512   25.9077 H   0  0  0  0  0  0
  -22.0591   -2.7593   23.2850 H   0  0  0  0  0  0
  -22.4097  -11.9924   22.4778 H   0  0  0  0  0  0
  -21.1138  -13.1318   22.2619 H   0  0  0  0  0  0
  -24.6646  -15.8395   20.5411 H   0  0  0  0  0  0
  -26.2802  -15.6328   20.0943 H   0  0  0  0  0  0
  -26.7120  -32.5505   23.1126 H   0  0  0  0  0  0
  -25.0029  -33.9765   25.0441 H   0  0  0  0  0  0
  -22.6969  -31.3026   21.4072 H   0  0  0  0  0  0
  -23.3753  -35.9610   23.3306 H   0  0  0  0  0  0
  -24.3567  -36.8901   22.2051 H   0  0  0  0  0  0
  -23.7220  -37.6488   23.6653 H   0  0  0  0  0  0
  -26.0557  -31.5751   20.5920 H   0  0  0  0  0  0
  -26.8246  -30.8696   21.9852 H   0  0  0  0  0  0
  -28.0972  -29.0587   21.1721 H   0  0  0  0  0  0
  -26.0093  -25.9462   19.0210 H   0  0  0  0  0  0
  -23.9774  -27.2827   19.0399 H   0  0  0  0  0  0
  -23.7264  -30.5880   19.4035 H   0  0  0  0  0  0
  -22.7389  -29.2350   19.8703 H   0  0  0  0  0  0
  -25.1277  -36.1955   25.0826 H   0  0  0  0  0  0
  -20.9946  -28.3225   24.1447 H   0  0  0  0  0  0
  -20.5665  -26.2265   23.3605 H   0  0  0  0  0  0
  -21.6632  -26.7444   22.1219 H   0  0  0  0  0  0
  -19.6905  -25.6307   21.1228 H   0  0  0  0  0  0
  -19.6686  -27.3216   20.6761 H   0  0  0  0  0  0
  -17.4188  -26.6670   21.4026 H   0  0  0  0  0  0
  -18.0324  -26.0073   22.9030 H   0  0  0  0  0  0
  -19.7926  -30.7261   24.2284 H   0  0  0  0  0  0
  -17.5009  -31.6260   24.5181 H   0  0  0  0  0  0
  -15.5347  -30.2994   23.7650 H   0  0  0  0  0  0
  -15.8658  -28.0846   22.7028 H   0  0  0  0  0  0
  -24.5917  -30.7026   25.7779 H   0  0  0  0  0  0
  -24.8901  -32.2834   26.4897 H   0  0  0  0  0  0
  -25.8075  -30.8861   27.0208 H   0  0  0  0  0  0
  -26.2844  -29.6787   24.1153 H   0  0  0  0  0  0
  -27.4080  -29.7267   25.4552 H   0  0  0  0  0  0
  -27.8680  -30.4347   23.9240 H   0  0  0  0  0  0
  -27.2695  -33.3610   26.2050 H   0  0  0  0  0  0
  -28.3856  -32.6840   25.0276 H   0  0  0  0  0  0
  -28.0731  -31.8414   26.5371 H   0  0  0  0  0  0
  -28.2591  -38.0096   24.7537 H   0  0  0  0  0  0
  -28.1079  -36.2630   24.6258 H   0  0  0  0  0  0
  -27.2303  -37.1402   25.8871 H   0  0  0  0  0  0
  -20.9318  -29.8715   21.6923 H   0  0  0  0  0  0
  -26.0167  -38.2864   24.1444 H   0  0  0  0  0  0
  -28.1230  -17.3630   22.2257 H   0  0  0  0  0  0
  -30.6059  -19.5574   19.4490 H   0  0  0  0  0  0
  -27.4055  -21.5382   21.5555 H   0  0  0  0  0  0
  -31.1707  -17.1545   19.9941 H   0  0  0  0  0  0
  -28.8967  -15.6034   21.3004 H   0  0  0  0  0  0
  -26.2622  -18.3977   23.2645 H   0  0  0  0  0  0
  -25.6819  -19.9557   22.6680 H   0  0  0  0  0  0
  -26.9166  -19.8902   23.9338 H   0  0  0  0  0  0
  -30.6990  -24.4558   19.2188 H   0  0  0  0  0  0
  -30.4714  -25.2457   20.7747 H   0  0  0  0  0  0
  -30.8056  -26.2054   19.3431 H   0  0  0  0  0  0
  -29.1022  -24.9041   17.3329 H   0  0  0  0  0  0
  -28.9805  -26.6243   17.6065 H   0  0  0  0  0  0
  -27.5360  -25.6252   17.5872 H   0  0  0  0  0  0
  -28.2953  -24.0531   21.0777 H   0  0  0  0  0  0
  -26.9866  -24.3183   19.9979 H   0  0  0  0  0  0
  -28.4981  -22.9471   18.2425 H   0  0  0  0  0  0
  -27.3596  -22.2257   19.2898 H   0  0  0  0  0  0
  1 25  1  0  0  0
  1 30  2  0  0  0
  1 78  1  0  0  0
  2  3  1  0  0  0
  2 25  1  0  0  0
  2 86  1  0  0  0
  2 87  1  0  0  0
  3  4  1  0  0  0
  3 88  1  0  0  0
  3 89  1  0  0  0
  4  5  1  0  0  0
  4 90  1  0  0  0
  4 91  1  0  0  0
  5  6  1  0  0  0
  5 26  1  0  0  0
  5 92  1  0  0  0
  6 25  1  0  0  0
  6 93  1  0  0  0
  6 94  1  0  0  0
  7  8  2  0  0  0
  7 26  1  0  0  0
  7 29  1  0  0  0
  8  9  1  0  0  0
  8 22  1  0  0  0
  9 10  1  0  0  0
  9 27  2  0  0  0
 10 11  2  0  0  0
 10 15  1  0  0  0
 11 12  1  0  0  0
 11 95  1  0  0  0
 12 13  2  0  0  0
 12 96  1  0  0  0
 13 14  1  0  0  0
 13 31  1  0  0  0
 14 15  2  0  0  0
 14 97  1  0  0  0
 15 98  1  0  0  0
 16 17  2  0  0  0
 16 21  1  0  0  0
 16 31  1  0  0  0
 17 18  1  0  0  0
 17 99  1  0  0  0
 18 19  2  0  0  0
 18100  1  0  0  0
 19 20  1  0  0  0
 19 24  1  0  0  0
 20 21  2  0  0  0
 20101  1  0  0  0
 21 23  1  0  0  0
 22 28  1  0  0  0
 22 32  2  0  0  0
 26 27  1  0  0  0
 28102  1  0  0  0
 28103  1  0  0  0
 29104  1  0  0  0
 29105  1  0  0  0
 33 34  1  0  0  0
 33 66  1  0  0  0
 33 70  2  0  0  0
 34 36  1  0  0  0
 34 59  1  0  0  0
 34106  1  0  0  0
 35 44  2  0  0  0
 35 45  1  0  0  0
 35 68  1  0  0  0
 36 56  1  0  0  0
 36107  1  0  0  0
 37 39  1  0  0  0
 37 47  1  0  0  0
 37 66  1  0  0  0
 37108  1  0  0  0
 38 43  2  0  0  0
 38 46  1  0  0  0
 38 47  1  0  0  0
 39 64  1  0  0  0
 39 67  2  0  0  0
 40 52  1  0  0  0
 40 53  2  0  0  0
 40 58  1  0  0  0
 41109  1  0  0  0
 41110  1  0  0  0
 41111  1  0  0  0
 41 48  1  0  0  0
 42 43  1  0  0  0
 42 66  1  0  0  0
 42112  1  0  0  0
 42113  1  0  0  0
 43 44  1  0  0  0
 44114  1  0  0  0
 45 46  2  0  0  0
 45115  1  0  0  0
 46116  1  0  0  0
 47117  1  0  0  0
 47118  1  0  0  0
 48 56  1  0  0  0
 48 65  1  0  0  0
 48119  1  0  0  0
 49 50  1  0  0  0
 49 53  1  0  0  0
 49 64  1  0  0  0
 49120  1  0  0  0
 50 51  1  0  0  0
 50121  1  0  0  0
 50122  1  0  0  0
 51 52  1  0  0  0
 51123  1  0  0  0
 51124  1  0  0  0
 52125  1  0  0  0
 52126  1  0  0  0
 53 54  1  0  0  0
 54 55  2  0  0  0
 54127  1  0  0  0
 55 57  1  0  0  0
 55128  1  0  0  0
 56 69  2  0  0  0
 57 58  2  0  0  0
 57129  1  0  0  0
 58130  1  0  0  0
 59 60  1  0  0  0
 59 61  1  0  0  0
 59 62  1  0  0  0
 60131  1  0  0  0
 60132  1  0  0  0
 60133  1  0  0  0
 61134  1  0  0  0
 61135  1  0  0  0
 61136  1  0  0  0
 62137  1  0  0  0
 62138  1  0  0  0
 62139  1  0  0  0
 63 65  1  0  0  0
 63140  1  0  0  0
 63141  1  0  0  0
 63142  1  0  0  0
 64143  1  0  0  0
 65144  1  0  0  0
 68 84  1  0  0  0
 71 74  2  0  0  0
 71 75  1  0  0  0
 71145  1  0  0  0
 72 74  1  0  0  0
 72 76  2  0  0  0
 72146  1  0  0  0
 73 75  2  0  0  0
 73 76  1  0  0  0
 73147  1  0  0  0
 74 77  1  0  0  0
 75 79  1  0  0  0
 76 85  1  0  0  0
 77 78  2  0  0  0
 77148  1  0  0  0
 78149  1  0  0  0
 79150  1  0  0  0
 79151  1  0  0  0
 79152  1  0  0  0
 80153  1  0  0  0
 80154  1  0  0  0
 80155  1  0  0  0
 80 84  1  0  0  0
 81 84  1  0  0  0
 81156  1  0  0  0
 81157  1  0  0  0
 81158  1  0  0  0
 82 83  1  0  0  0
 82 84  1  0  0  0
 82159  1  0  0  0
 82160  1  0  0  0
 83 85  1  0  0  0
 83161  1  0  0  0
 83162  1  0  0  0
M  ISO  4   1 100  68 101  78 100  84 101
M  END
> <chiral flag>
0

> <version>
0

> <s_m_source_file>
/data/baiqing/PycharmProjects/Reinvent-master-3.2/result/LINK_invent/BTK/process_docking_weight1_custom_product_contain_oxygen_bond_distance_aromatic_linkinvent_7_9_3/rearranged_h_0119.sdf

> <i_m_source_file_index>
30

> <r_mmod_Potential_Energy-OPLS-2005>
39.3122138977051

> <r_mmod_Stretch_Energy-OPLS-2005>
55.6463508605957

> <r_mmod_Bend_Energy-OPLS-2005>
144.067413330078

> <r_mmod_Torsional_Energy-OPLS-2005>
194.698165893555

> <r_mmod_Improper_Torsional_Energy-OPLS-2005>
4.35170316696167

> <r_mmod_Van_der_Waal_Energy-OPLS-2005>
155.008605957031

> <r_mmod_Electrostatic_Energy-OPLS-2005>
-348.825439453125

> <r_mmod_Solvation_Energy-OPLS-2005>
-190.227081298828

> <b_mmod_Minimization_Converged-OPLS-2005>
0

> <r_mmod_RMS_Derivative-OPLS-2005>
2.65805745124817

$$$$
30
                    3D
 Structure written by MMmdl.
158167  0  0  1  0            999 V2000
  -30.6983  -14.4570   20.5641 C   0  0  0  0  0  0
  -30.4230  -12.2947   19.4213 C   0  0  0  0  0  0
  -29.4949  -12.5064   18.2065 C   0  0  0  0  0  0
  -28.0148  -12.3729   18.6171 C   0  0  0  0  0  0
  -27.6642  -13.2059   19.8792 C   0  0  2  0  0  0
  -28.7050  -12.9727   20.9983 C   0  0  0  0  0  0
  -25.2595  -13.8165   20.5689 C   0  0  0  0  0  0
  -24.1843  -13.0442   20.9175 C   0  0  0  0  0  0
  -24.6397  -11.6907   20.8737 C   0  0  0  0  0  0
  -23.9061  -10.4294   21.0403 C   0  0  0  0  0  0
  -24.3612   -9.4210   21.9182 C   0  0  0  0  0  0
  -23.6290   -8.2244   22.0750 C   0  0  0  0  0  0
  -22.4271   -8.0283   21.3543 C   0  0  0  0  0  0
  -21.9906   -9.0257   20.4645 C   0  0  0  0  0  0
  -22.7233  -10.2136   20.3054 C   0  0  0  0  0  0
  -21.6853   -6.0734   22.5277 C   0  0  0  0  0  0
  -21.4014   -6.5637   23.8211 C   0  0  0  0  0  0
  -21.3662   -5.6790   24.9174 C   0  0  0  0  0  0
  -21.6041   -4.3052   24.7224 C   0  0  0  0  0  0
  -21.8821   -3.8144   23.4346 C   0  0  0  0  0  0
  -21.9193   -4.6961   22.3402 C   0  0  0  0  0  0
  -22.7865  -13.5240   21.1841 C   0  0  0  0  0  0
  -22.1662   -4.2147   21.0980 F   0  0  0  0  0  0
  -21.5630   -3.4537   25.7738 F   0  0  0  0  0  0
  -30.0395  -13.2732   20.4504 N   0  0  0  0  0  0
  -26.3038  -12.9332   20.3387 N   0  0  0  0  0  0
  -25.9326  -11.6490   20.5772 N   0  0  0  0  0  0
  -22.0506  -12.8235   22.0397 N   0  0  0  0  0  0
  -25.4323  -15.1885   20.4107 N   0  0  0  0  0  0
  -31.8261  -14.6382   20.0952 O   0  0  0  0  0  0
  -21.6639   -6.8877   21.4238 O   0  0  0  0  0  0
  -22.3555  -14.5552   20.6694 O   0  0  0  0  0  0
  -24.6109  -31.8692   23.2101 C   0  0  0  0  0  0
  -25.9010  -32.4831   23.8397 C   0  0  1  0  0  0
  -27.2417  -27.4576   20.0974 C   0  0  0  0  0  0
  -25.5876  -33.8628   24.2336 N   0  0  0  0  0  0
  -23.3987  -30.4919   21.5494 C   0  0  2  0  0  0
  -24.8484  -28.9586   20.1147 C   0  0  0  0  0  0
  -22.7397  -29.4663   22.4989 C   0  0  0  0  0  0
  -18.0274  -28.1378   22.8495 C   0  0  0  0  0  0
  -24.1490  -36.7318   23.2639 C   0  0  0  0  0  0
  -25.9238  -30.8436   21.3581 C   0  0  0  0  0  0
  -26.0045  -29.4777   20.7116 C   0  0  0  0  0  0
  -27.2048  -28.7355   20.7037 C   0  0  0  0  0  0
  -26.0742  -26.9505   19.4946 C   0  0  0  0  0  0
  -24.8763  -27.6914   19.5041 C   0  0  0  0  0  0
  -23.6069  -29.8202   20.1645 C   0  0  0  0  0  0
  -25.4106  -36.3119   24.0347 C   0  0  1  0  0  0
  -20.5864  -28.3655   23.1330 C   0  0  2  0  0  0
  -20.6765  -26.9394   22.5425 C   0  0  0  0  0  0
  -19.5745  -26.6387   21.5218 C   0  0  0  0  0  0
  -18.1922  -26.7924   22.1627 C   0  0  0  0  0  0
  -19.1526  -28.8832   23.2910 C   0  0  0  0  0  0
  -18.9452  -30.1440   23.8916 C   0  0  0  0  0  0
  -17.6456  -30.6585   24.0566 C   0  0  0  0  0  0
  -25.9034  -34.9483   23.5144 C   0  0  0  0  0  0
  -16.5345  -29.9090   23.6327 C   0  0  0  0  0  0
  -16.7265  -28.6507   23.0346 C   0  0  0  0  0  0
  -26.4448  -31.6602   25.0714 C   0  0  0  0  0  0
  -25.3722  -31.3704   26.1472 C   0  0  0  0  0  0
  -27.0281  -30.3057   24.6050 C   0  0  0  0  0  0
  -27.6032  -32.4310   25.7471 C   0  0  0  0  0  0
  -27.5586  -37.1806   24.8462 C   0  0  0  0  0  0
  -21.4129  -29.3026   22.3734 N   0  0  0  0  0  0
  -26.4291  -37.3803   23.9419 N   0  0  0  0  0  0
  -24.6628  -31.0819   22.0980 N   0  0  0  0  0  0
  -23.4186  -28.8208   23.3021 O   0  0  0  0  0  0
  -28.3752  -26.6798   20.0658 O   0  0  0  0  0  0
  -26.5598  -34.8930   22.4706 O   0  0  0  0  0  0
  -23.5311  -32.1419   23.7520 O   0  0  0  0  0  0
  -30.8066  -18.9147   20.1650 C   0  0  0  0  0  0
  -31.0867  -17.5205   20.2807 C   0  0  0  0  0  0
  -29.5956  -19.2718   20.6959 C   0  0  0  0  0  0
  -30.0881  -16.7932   20.8927 C   0  0  0  0  0  0
  -29.2817  -25.1381   21.6677 C   0  0  0  0  0  0
  -28.9482  -26.3827   21.2732 C   0  0  0  0  0  0
  -29.8172  -24.7974   23.0243 C   0  0  0  0  0  0
  -29.0625  -23.8247   20.9412 C   0  0  0  0  0  0
  -29.0779  -23.4960   23.3323 C   0  0  0  0  0  0
  -28.9755  -20.6422   20.7353 C   0  0  0  0  0  0
  -29.4918  -21.5176   21.8966 C   0  0  0  0  0  0
  -29.9815  -15.4526   21.1220 N   0  0  0  0  0  0
  -28.8034  -22.8336   22.0279 N   0  3  2  0  0  0
  -28.7990  -17.8744   21.3835 S   0  0  0  0  0  0
  -31.4679  -12.3914   19.1191 H   0  0  0  0  0  0
  -30.3199  -11.2810   19.8116 H   0  0  0  0  0  0
  -29.7311  -11.7868   17.4213 H   0  0  0  0  0  0
  -29.6685  -13.4945   17.7769 H   0  0  0  0  0  0
  -27.8169  -11.3170   18.8045 H   0  0  0  0  0  0
  -27.3670  -12.6593   17.7876 H   0  0  0  0  0  0
  -27.7127  -14.2561   19.5906 H   0  0  0  0  0  0
  -28.6748  -11.9345   21.3318 H   0  0  0  0  0  0
  -28.4688  -13.5654   21.8829 H   0  0  0  0  0  0
  -25.2759   -9.5685   22.4756 H   0  0  0  0  0  0
  -24.0000   -7.4634   22.7470 H   0  0  0  0  0  0
  -21.0837   -8.8778   19.8955 H   0  0  0  0  0  0
  -22.3694  -10.9675   19.6166 H   0  0  0  0  0  0
  -21.2006   -7.6145   23.9713 H   0  0  0  0  0  0
  -21.1483   -6.0521   25.9076 H   0  0  0  0  0  0
  -22.0598   -2.7606   23.2847 H   0  0  0  0  0  0
  -22.4112  -11.9893   22.4785 H   0  0  0  0  0  0
  -21.1128  -13.1267   22.2603 H   0  0  0  0  0  0
  -24.6654  -15.8438   20.5173 H   0  0  0  0  0  0
  -26.2869  -15.6283   20.0925 H   0  0  0  0  0  0
  -26.7081  -32.5562   23.1168 H   0  0  0  0  0  0
  -25.0029  -33.9791   25.0480 H   0  0  0  0  0  0
  -22.6861  -31.3071   21.4082 H   0  0  0  0  0  0
  -23.3752  -35.9653   23.3315 H   0  0  0  0  0  0
  -24.3586  -36.8916   22.2051 H   0  0  0  0  0  0
  -23.7239  -37.6530   23.6634 H   0  0  0  0  0  0
  -26.0286  -31.6071   20.5858 H   0  0  0  0  0  0
  -26.8147  -30.9042   21.9709 H   0  0  0  0  0  0
  -28.0967  -29.1459   21.1560 H   0  0  0  0  0  0
  -26.0944  -25.9764   19.0260 H   0  0  0  0  0  0
  -23.9872  -27.2848   19.0412 H   0  0  0  0  0  0
  -23.7080  -30.5917   19.4005 H   0  0  0  0  0  0
  -22.7335  -29.2346   19.8736 H   0  0  0  0  0  0
  -25.1279  -36.1988   25.0842 H   0  0  0  0  0  0
  -20.9963  -28.3215   24.1447 H   0  0  0  0  0  0
  -20.5673  -26.2256   23.3606 H   0  0  0  0  0  0
  -21.6633  -26.7442   22.1207 H   0  0  0  0  0  0
  -19.6905  -25.6305   21.1230 H   0  0  0  0  0  0
  -19.6687  -27.3214   20.6762 H   0  0  0  0  0  0
  -17.4195  -26.6682   21.4028 H   0  0  0  0  0  0
  -18.0311  -26.0066   22.9022 H   0  0  0  0  0  0
  -19.7929  -30.7254   24.2291 H   0  0  0  0  0  0
  -17.5014  -31.6267   24.5163 H   0  0  0  0  0  0
  -15.5349  -30.3000   23.7638 H   0  0  0  0  0  0
  -15.8665  -28.0838   22.7041 H   0  0  0  0  0  0
  -24.5884  -30.7058   25.7816 H   0  0  0  0  0  0
  -24.8916  -32.2861   26.4929 H   0  0  0  0  0  0
  -25.8078  -30.8866   27.0223 H   0  0  0  0  0  0
  -26.2820  -29.6834   24.1088 H   0  0  0  0  0  0
  -27.4076  -29.7267   25.4482 H   0  0  0  0  0  0
  -27.8639  -30.4419   23.9182 H   0  0  0  0  0  0
  -27.2649  -33.3588   26.2097 H   0  0  0  0  0  0
  -28.3805  -32.6904   25.0276 H   0  0  0  0  0  0
  -28.0730  -31.8400   26.5345 H   0  0  0  0  0  0
  -28.2596  -38.0115   24.7541 H   0  0  0  0  0  0
  -28.1097  -36.2649   24.6248 H   0  0  0  0  0  0
  -27.2311  -37.1410   25.8868 H   0  0  0  0  0  0
  -20.9278  -29.8752   21.6966 H   0  0  0  0  0  0
  -26.0192  -38.2887   24.1430 H   0  0  0  0  0  0
  -31.4994  -19.5969   19.6915 H   0  0  0  0  0  0
  -32.0087  -17.1145   19.8896 H   0  0  0  0  0  0
  -29.1037  -27.2544   21.8936 H   0  0  0  0  0  0
  -29.6398  -25.5783   23.7652 H   0  0  0  0  0  0
  -30.8907  -24.6209   22.9505 H   0  0  0  0  0  0
  -29.9719  -23.5724   20.3945 H   0  0  0  0  0  0
  -28.2369  -23.8816   20.2312 H   0  0  0  0  0  0
  -28.1175  -23.7228   23.7974 H   0  0  0  0  0  0
  -29.6324  -22.8738   24.0359 H   0  0  0  0  0  0
  -27.8922  -20.5387   20.8089 H   0  0  0  0  0  0
  -29.1597  -21.1459   19.7857 H   0  0  0  0  0  0
  -30.5676  -21.6726   21.8056 H   0  0  0  0  0  0
  -29.3412  -20.9586   22.8216 H   0  0  0  0  0  0
  -29.1182  -15.1509   21.5482 H   0  0  0  0  0  0
  -27.8125  -22.6433   22.0278 H   0  0  0  0  0  0
  1 25  1  0  0  0
  1 30  2  0  0  0
  1 82  1  0  0  0
  2  3  1  0  0  0
  2 25  1  0  0  0
  2 85  1  0  0  0
  2 86  1  0  0  0
  3  4  1  0  0  0
  3 87  1  0  0  0
  3 88  1  0  0  0
  4  5  1  0  0  0
  4 89  1  0  0  0
  4 90  1  0  0  0
  5  6  1  0  0  0
  5 26  1  0  0  0
  5 91  1  0  0  0
  6 25  1  0  0  0
  6 92  1  0  0  0
  6 93  1  0  0  0
  7  8  2  0  0  0
  7 26  1  0  0  0
  7 29  1  0  0  0
  8  9  1  0  0  0
  8 22  1  0  0  0
  9 10  1  0  0  0
  9 27  2  0  0  0
 10 11  2  0  0  0
 10 15  1  0  0  0
 11 12  1  0  0  0
 11 94  1  0  0  0
 12 13  2  0  0  0
 12 95  1  0  0  0
 13 14  1  0  0  0
 13 31  1  0  0  0
 14 15  2  0  0  0
 14 96  1  0  0  0
 15 97  1  0  0  0
 16 17  2  0  0  0
 16 21  1  0  0  0
 16 31  1  0  0  0
 17 18  1  0  0  0
 17 98  1  0  0  0
 18 19  2  0  0  0
 18 99  1  0  0  0
 19 20  1  0  0  0
 19 24  1  0  0  0
 20 21  2  0  0  0
 20100  1  0  0  0
 21 23  1  0  0  0
 22 28  1  0  0  0
 22 32  2  0  0  0
 26 27  1  0  0  0
 28101  1  0  0  0
 28102  1  0  0  0
 29103  1  0  0  0
 29104  1  0  0  0
 33 34  1  0  0  0
 33 66  1  0  0  0
 33 70  2  0  0  0
 34 36  1  0  0  0
 34 59  1  0  0  0
 34105  1  0  0  0
 35 44  2  0  0  0
 35 45  1  0  0  0
 35 68  1  0  0  0
 36 56  1  0  0  0
 36106  1  0  0  0
 37 39  1  0  0  0
 37 47  1  0  0  0
 37 66  1  0  0  0
 37107  1  0  0  0
 38 43  2  0  0  0
 38 46  1  0  0  0
 38 47  1  0  0  0
 39 64  1  0  0  0
 39 67  2  0  0  0
 40 52  1  0  0  0
 40 53  2  0  0  0
 40 58  1  0  0  0
 41108  1  0  0  0
 41109  1  0  0  0
 41110  1  0  0  0
 41 48  1  0  0  0
 42 43  1  0  0  0
 42 66  1  0  0  0
 42111  1  0  0  0
 42112  1  0  0  0
 43 44  1  0  0  0
 44113  1  0  0  0
 45 46  2  0  0  0
 45114  1  0  0  0
 46115  1  0  0  0
 47116  1  0  0  0
 47117  1  0  0  0
 48 56  1  0  0  0
 48 65  1  0  0  0
 48118  1  0  0  0
 49 50  1  0  0  0
 49 53  1  0  0  0
 49 64  1  0  0  0
 49119  1  0  0  0
 50 51  1  0  0  0
 50120  1  0  0  0
 50121  1  0  0  0
 51 52  1  0  0  0
 51122  1  0  0  0
 51123  1  0  0  0
 52124  1  0  0  0
 52125  1  0  0  0
 53 54  1  0  0  0
 54 55  2  0  0  0
 54126  1  0  0  0
 55 57  1  0  0  0
 55127  1  0  0  0
 56 69  2  0  0  0
 57 58  2  0  0  0
 57128  1  0  0  0
 58129  1  0  0  0
 59 60  1  0  0  0
 59 61  1  0  0  0
 59 62  1  0  0  0
 60130  1  0  0  0
 60131  1  0  0  0
 60132  1  0  0  0
 61133  1  0  0  0
 61134  1  0  0  0
 61135  1  0  0  0
 62136  1  0  0  0
 62137  1  0  0  0
 62138  1  0  0  0
 63 65  1  0  0  0
 63139  1  0  0  0
 63140  1  0  0  0
 63141  1  0  0  0
 64142  1  0  0  0
 65143  1  0  0  0
 68 76  1  0  0  0
 71 72  1  0  0  0
 71 73  2  0  0  0
 71144  1  0  0  0
 72 74  2  0  0  0
 72145  1  0  0  0
 73 80  1  0  0  0
 73 84  1  0  0  0
 74 82  1  0  0  0
 74 84  1  0  0  0
 75 76  2  0  0  0
 75 77  1  0  0  0
 75 78  1  0  0  0
 76146  1  0  0  0
 77 79  1  0  0  0
 77147  1  0  0  0
 77148  1  0  0  0
 78 83  1  0  0  0
 78149  1  0  0  0
 78150  1  0  0  0
 79 83  1  0  0  0
 79151  1  0  0  0
 79152  1  0  0  0
 80 81  1  0  0  0
 80153  1  0  0  0
 80154  1  0  0  0
 81155  1  0  0  0
 81156  1  0  0  0
 81 83  1  0  0  0
 82157  1  0  0  0
 83158  1  0  0  0
M  CHG  1  83   1
M  ISO  4   1 100  68 101  76 101  82 100
M  END
> <chiral flag>
0

> <version>
0

> <s_m_source_file>
/data/baiqing/PycharmProjects/Reinvent-master-3.2/result/LINK_invent/BTK/process_docking_weight1_custom_product_contain_oxygen_bond_distance_aromatic_linkinvent_7_9_3/rearranged_h_0119.sdf

> <i_m_source_file_index>
31

> <r_mmod_Potential_Energy-OPLS-2005>
-157.475662231445

> <r_mmod_Stretch_Energy-OPLS-2005>
33.3095855712891

> <r_mmod_Bend_Energy-OPLS-2005>
128.033767700195

> <r_mmod_Torsional_Energy-OPLS-2005>
242.886077880859

> <r_mmod_Improper_Torsional_Energy-OPLS-2005>
3.8325891494751

> <r_mmod_Van_der_Waal_Energy-OPLS-2005>
124.866409301758

> <r_mmod_Electrostatic_Energy-OPLS-2005>
-270.795654296875

> <r_mmod_Solvation_Energy-OPLS-2005>
-429.952026367188

> <b_mmod_Minimization_Converged-OPLS-2005>
0

> <r_mmod_RMS_Derivative-OPLS-2005>
0.926879048347473

$$$$
31
                    3D
 Structure written by MMmdl.
155163  0  0  1  0            999 V2000
  -30.7398  -14.6135   20.3732 C   0  0  0  0  0  0
  -30.4162  -12.3722   19.4271 C   0  0  0  0  0  0
  -29.5094  -12.5176   18.1900 C   0  0  0  0  0  0
  -28.0368  -12.3439   18.6117 C   0  0  0  0  0  0
  -27.6395  -13.2511   19.8110 C   0  0  2  0  0  0
  -28.6977  -13.2206   20.9348 C   0  0  0  0  0  0
  -25.2508  -13.8207   20.5625 C   0  0  0  0  0  0
  -24.1832  -13.0424   20.9169 C   0  0  0  0  0  0
  -24.6482  -11.6925   20.8708 C   0  0  0  0  0  0
  -23.9132  -10.4274   21.0358 C   0  0  0  0  0  0
  -24.3656   -9.4201   21.9155 C   0  0  0  0  0  0
  -23.6309   -8.2242   22.0750 C   0  0  0  0  0  0
  -22.4294   -8.0280   21.3519 C   0  0  0  0  0  0
  -21.9954   -9.0265   20.4630 C   0  0  0  0  0  0
  -22.7305  -10.2121   20.3035 C   0  0  0  0  0  0
  -21.6861   -6.0743   22.5273 C   0  0  0  0  0  0
  -21.4017   -6.5640   23.8205 C   0  0  0  0  0  0
  -21.3673   -5.6790   24.9180 C   0  0  0  0  0  0
  -21.6050   -4.3053   24.7210 C   0  0  0  0  0  0
  -21.8799   -3.8141   23.4327 C   0  0  0  0  0  0
  -21.9160   -4.6960   22.3403 C   0  0  0  0  0  0
  -22.7818  -13.5166   21.1791 C   0  0  0  0  0  0
  -22.1619   -4.2142   21.0966 F   0  0  0  0  0  0
  -21.5645   -3.4544   25.7727 F   0  0  0  0  0  0
  -30.0171  -13.4541   20.3418 N   0  0  0  0  0  0
  -26.2962  -12.9491   20.3085 N   0  0  0  0  0  0
  -25.9408  -11.6594   20.5619 N   0  0  0  0  0  0
  -22.0420  -12.8266   22.0411 N   0  0  0  0  0  0
  -25.4091  -15.1960   20.4108 N   0  0  0  0  0  0
  -31.9651  -14.5713   20.4314 O   0  0  0  0  0  0
  -21.6650   -6.8894   21.4225 O   0  0  0  0  0  0
  -22.3498  -14.5393   20.6523 O   0  0  0  0  0  0
  -24.6193  -31.8579   23.2026 C   0  0  0  0  0  0
  -25.9054  -32.4783   23.8343 C   0  0  1  0  0  0
  -27.2617  -27.3771   20.0976 C   0  0  0  0  0  0
  -25.5836  -33.8571   24.2230 N   0  0  0  0  0  0
  -23.4137  -30.4759   21.5431 C   0  0  2  0  0  0
  -24.8694  -28.9322   20.1145 C   0  0  0  0  0  0
  -22.7436  -29.4585   22.4952 C   0  0  0  0  0  0
  -18.0239  -28.1404   22.8483 C   0  0  0  0  0  0
  -24.1486  -36.7336   23.2654 C   0  0  0  0  0  0
  -25.9468  -30.8118   21.3608 C   0  0  0  0  0  0
  -26.0320  -29.4379   20.7109 C   0  0  0  0  0  0
  -27.2282  -28.6698   20.6911 C   0  0  0  0  0  0
  -26.0735  -26.9004   19.4997 C   0  0  0  0  0  0
  -24.8901  -27.6652   19.5027 C   0  0  0  0  0  0
  -23.6260  -29.7925   20.1655 C   0  0  0  0  0  0
  -25.4105  -36.3085   24.0315 C   0  0  1  0  0  0
  -20.5846  -28.3653   23.1346 C   0  0  2  0  0  0
  -20.6745  -26.9383   22.5443 C   0  0  0  0  0  0
  -19.5749  -26.6382   21.5233 C   0  0  0  0  0  0
  -18.1912  -26.7935   22.1633 C   0  0  0  0  0  0
  -19.1505  -28.8843   23.2901 C   0  0  0  0  0  0
  -18.9420  -30.1456   23.8907 C   0  0  0  0  0  0
  -17.6437  -30.6608   24.0569 C   0  0  0  0  0  0
  -25.9035  -34.9450   23.5088 C   0  0  0  0  0  0
  -16.5312  -29.9121   23.6343 C   0  0  0  0  0  0
  -16.7233  -28.6542   23.0327 C   0  0  0  0  0  0
  -26.4448  -31.6605   25.0718 C   0  0  0  0  0  0
  -25.3688  -31.3747   26.1462 C   0  0  0  0  0  0
  -27.0282  -30.3025   24.6179 C   0  0  0  0  0  0
  -27.5998  -32.4335   25.7503 C   0  0  0  0  0  0
  -27.5543  -37.1833   24.8444 C   0  0  0  0  0  0
  -21.4148  -29.2994   22.3707 N   0  0  0  0  0  0
  -26.4287  -37.3764   23.9374 N   0  0  0  0  0  0
  -24.6785  -31.0634   22.0938 N   0  0  0  0  0  0
  -23.4181  -28.8112   23.3009 O   0  0  0  0  0  0
  -28.4396  -26.6320   20.0450 O   0  0  0  0  0  0
  -26.5637  -34.8920   22.4676 O   0  0  0  0  0  0
  -23.5370  -32.1298   23.7414 O   0  0  0  0  0  0
  -31.6275  -20.5788   17.6939 C   0  0  0  0  0  0
  -32.0329  -19.2943   17.3060 C   0  0  0  0  0  0
  -30.3067  -19.6325   19.5046 C   0  0  0  0  0  0
  -30.7470  -20.7923   18.7780 C   0  0  0  0  0  0
  -30.7547  -18.3031   19.1586 C   0  0  0  0  0  0
  -31.6093  -18.1573   18.0265 C   0  0  0  0  0  0
  -30.4051  -22.2547   18.9770 C   0  0  0  0  0  0
  -30.6547  -17.0730   20.0347 C   0  0  0  0  0  0
  -29.4348  -22.9436   19.6368 C   0  0  0  0  0  0
  -30.1728  -15.8237   19.7285 C   0  0  0  0  0  0
  -29.3499  -24.4265   19.5834 C   0  0  0  0  0  0
  -28.4211  -25.2385   20.1622 C   0  0  0  0  0  0
  -33.4316  -16.7319   17.3756 C   0  0  0  0  0  0
  -32.0422  -16.8939   17.6708 O   0  0  0  0  0  0
  -31.4696  -12.4362   19.1464 H   0  0  0  0  0  0
  -30.2795  -11.3934   19.8912 H   0  0  0  0  0  0
  -29.7894  -11.7948   17.4206 H   0  0  0  0  0  0
  -29.6557  -13.5031   17.7406 H   0  0  0  0  0  0
  -27.8976  -11.2971   18.8791 H   0  0  0  0  0  0
  -27.3770  -12.5319   17.7635 H   0  0  0  0  0  0
  -27.6154  -14.2679   19.4216 H   0  0  0  0  0  0
  -28.6825  -12.2715   21.4682 H   0  0  0  0  0  0
  -28.4800  -13.9972   21.6680 H   0  0  0  0  0  0
  -25.2804   -9.5696   22.4736 H   0  0  0  0  0  0
  -24.0004   -7.4663   22.7515 H   0  0  0  0  0  0
  -21.0863   -8.8812   19.8975 H   0  0  0  0  0  0
  -22.3767  -10.9656   19.6135 H   0  0  0  0  0  0
  -21.2041   -7.6158   23.9717 H   0  0  0  0  0  0
  -21.1511   -6.0530   25.9088 H   0  0  0  0  0  0
  -22.0561   -2.7599   23.2828 H   0  0  0  0  0  0
  -22.4011  -12.0085   22.5118 H   0  0  0  0  0  0
  -21.0982  -13.1275   22.2296 H   0  0  0  0  0  0
  -24.6368  -15.8419   20.5450 H   0  0  0  0  0  0
  -26.2698  -15.6545   20.1388 H   0  0  0  0  0  0
  -26.7110  -32.5478   23.1091 H   0  0  0  0  0  0
  -24.9786  -33.9696   25.0235 H   0  0  0  0  0  0
  -22.7029  -31.2906   21.3913 H   0  0  0  0  0  0
  -23.3693  -35.9738   23.3393 H   0  0  0  0  0  0
  -24.3495  -36.8916   22.2042 H   0  0  0  0  0  0
  -23.7373  -37.6609   23.6646 H   0  0  0  0  0  0
  -26.0539  -31.5731   20.5866 H   0  0  0  0  0  0
  -26.8366  -30.8744   21.9746 H   0  0  0  0  0  0
  -28.1300  -29.0660   21.1329 H   0  0  0  0  0  0
  -26.0635  -25.9296   19.0204 H   0  0  0  0  0  0
  -23.9975  -27.2765   19.0286 H   0  0  0  0  0  0
  -23.7087  -30.5515   19.3880 H   0  0  0  0  0  0
  -22.7612  -29.1864   19.8921 H   0  0  0  0  0  0
  -25.1318  -36.1912   25.0816 H   0  0  0  0  0  0
  -20.9920  -28.3212   24.1485 H   0  0  0  0  0  0
  -20.5672  -26.2225   23.3601 H   0  0  0  0  0  0
  -21.6604  -26.7436   22.1221 H   0  0  0  0  0  0
  -19.6912  -25.6297   21.1248 H   0  0  0  0  0  0
  -19.6765  -27.3205   20.6778 H   0  0  0  0  0  0
  -17.4190  -26.6662   21.4021 H   0  0  0  0  0  0
  -18.0311  -26.0094   22.9042 H   0  0  0  0  0  0
  -19.7885  -30.7265   24.2304 H   0  0  0  0  0  0
  -17.4985  -31.6297   24.5159 H   0  0  0  0  0  0
  -15.5333  -30.3037   23.7696 H   0  0  0  0  0  0
  -15.8591  -28.0917   22.7020 H   0  0  0  0  0  0
  -24.5779  -30.7209   25.7756 H   0  0  0  0  0  0
  -24.8985  -32.2941   26.4963 H   0  0  0  0  0  0
  -25.7998  -30.8806   27.0183 H   0  0  0  0  0  0
  -26.2838  -29.6802   24.1191 H   0  0  0  0  0  0
  -27.3924  -29.7280   25.4708 H   0  0  0  0  0  0
  -27.8731  -30.4287   23.9410 H   0  0  0  0  0  0
  -27.2560  -33.3577   26.2152 H   0  0  0  0  0  0
  -28.3790  -32.6998   25.0348 H   0  0  0  0  0  0
  -28.0697  -31.8427   26.5383 H   0  0  0  0  0  0
  -28.2626  -38.0056   24.7353 H   0  0  0  0  0  0
  -28.0971  -36.2577   24.6436 H   0  0  0  0  0  0
  -27.2212  -37.1678   25.8837 H   0  0  0  0  0  0
  -20.9286  -29.8648   21.6873 H   0  0  0  0  0  0
  -26.0170  -38.2858   24.1305 H   0  0  0  0  0  0
  -32.0223  -21.4106   17.1211 H   0  0  0  0  0  0
  -32.6885  -19.2148   16.4496 H   0  0  0  0  0  0
  -29.6691  -19.7707   20.3651 H   0  0  0  0  0  0
  -31.1006  -22.9061   18.4613 H   0  0  0  0  0  0
  -31.2223  -17.1737   20.9494 H   0  0  0  0  0  0
  -28.6919  -22.3973   20.1994 H   0  0  0  0  0  0
  -29.5208  -15.6962   18.8776 H   0  0  0  0  0  0
  -30.1084  -24.9314   19.0015 H   0  0  0  0  0  0
  -27.6021  -24.8777   20.7689 H   0  0  0  0  0  0
  -33.6292  -15.7010   17.0794 H   0  0  0  0  0  0
  -34.0412  -16.9293   18.2584 H   0  0  0  0  0  0
  -33.7853  -17.3555   16.5554 H   0  0  0  0  0  0
  1 25  1  0  0  0
  1 30  2  0  0  0
  1 80  1  0  0  0
  2  3  1  0  0  0
  2 25  1  0  0  0
  2 85  1  0  0  0
  2 86  1  0  0  0
  3  4  1  0  0  0
  3 87  1  0  0  0
  3 88  1  0  0  0
  4  5  1  0  0  0
  4 89  1  0  0  0
  4 90  1  0  0  0
  5  6  1  0  0  0
  5 26  1  0  0  0
  5 91  1  0  0  0
  6 25  1  0  0  0
  6 92  1  0  0  0
  6 93  1  0  0  0
  7  8  2  0  0  0
  7 26  1  0  0  0
  7 29  1  0  0  0
  8  9  1  0  0  0
  8 22  1  0  0  0
  9 10  1  0  0  0
  9 27  2  0  0  0
 10 11  2  0  0  0
 10 15  1  0  0  0
 11 12  1  0  0  0
 11 94  1  0  0  0
 12 13  2  0  0  0
 12 95  1  0  0  0
 13 14  1  0  0  0
 13 31  1  0  0  0
 14 15  2  0  0  0
 14 96  1  0  0  0
 15 97  1  0  0  0
 16 17  2  0  0  0
 16 21  1  0  0  0
 16 31  1  0  0  0
 17 18  1  0  0  0
 17 98  1  0  0  0
 18 19  2  0  0  0
 18 99  1  0  0  0
 19 20  1  0  0  0
 19 24  1  0  0  0
 20 21  2  0  0  0
 20100  1  0  0  0
 21 23  1  0  0  0
 22 28  1  0  0  0
 22 32  2  0  0  0
 26 27  1  0  0  0
 28101  1  0  0  0
 28102  1  0  0  0
 29103  1  0  0  0
 29104  1  0  0  0
 33 34  1  0  0  0
 33 66  1  0  0  0
 33 70  2  0  0  0
 34 36  1  0  0  0
 34 59  1  0  0  0
 34105  1  0  0  0
 35 44  2  0  0  0
 35 45  1  0  0  0
 35 68  1  0  0  0
 36 56  1  0  0  0
 36106  1  0  0  0
 37 39  1  0  0  0
 37 47  1  0  0  0
 37 66  1  0  0  0
 37107  1  0  0  0
 38 43  2  0  0  0
 38 46  1  0  0  0
 38 47  1  0  0  0
 39 64  1  0  0  0
 39 67  2  0  0  0
 40 52  1  0  0  0
 40 53  2  0  0  0
 40 58  1  0  0  0
 41108  1  0  0  0
 41109  1  0  0  0
 41110  1  0  0  0
 41 48  1  0  0  0
 42 43  1  0  0  0
 42 66  1  0  0  0
 42111  1  0  0  0
 42112  1  0  0  0
 43 44  1  0  0  0
 44113  1  0  0  0
 45 46  2  0  0  0
 45114  1  0  0  0
 46115  1  0  0  0
 47116  1  0  0  0
 47117  1  0  0  0
 48 56  1  0  0  0
 48 65  1  0  0  0
 48118  1  0  0  0
 49 50  1  0  0  0
 49 53  1  0  0  0
 49 64  1  0  0  0
 49119  1  0  0  0
 50 51  1  0  0  0
 50120  1  0  0  0
 50121  1  0  0  0
 51 52  1  0  0  0
 51122  1  0  0  0
 51123  1  0  0  0
 52124  1  0  0  0
 52125  1  0  0  0
 53 54  1  0  0  0
 54 55  2  0  0  0
 54126  1  0  0  0
 55 57  1  0  0  0
 55127  1  0  0  0
 56 69  2  0  0  0
 57 58  2  0  0  0
 57128  1  0  0  0
 58129  1  0  0  0
 59 60  1  0  0  0
 59 61  1  0  0  0
 59 62  1  0  0  0
 60130  1  0  0  0
 60131  1  0  0  0
 60132  1  0  0  0
 61133  1  0  0  0
 61134  1  0  0  0
 61135  1  0  0  0
 62136  1  0  0  0
 62137  1  0  0  0
 62138  1  0  0  0
 63 65  1  0  0  0
 63139  1  0  0  0
 63140  1  0  0  0
 63141  1  0  0  0
 64142  1  0  0  0
 65143  1  0  0  0
 68 82  1  0  0  0
 71 72  2  0  0  0
 71 74  1  0  0  0
 71144  1  0  0  0
 72 76  1  0  0  0
 72145  1  0  0  0
 73 74  2  0  0  0
 73 75  1  0  0  0
 73146  1  0  0  0
 74 77  1  0  0  0
 75 76  2  0  0  0
 75 78  1  0  0  0
 76 84  1  0  0  0
 77 79  2  0  0  0
 77147  1  0  0  0
 78 80  2  0  0  0
 78148  1  0  0  0
 79 81  1  0  0  0
 79149  1  0  0  0
 80150  1  0  0  0
 81 82  2  0  0  0
 81151  1  0  0  0
 82152  1  0  0  0
 83 84  1  0  0  0
 83153  1  0  0  0
 83154  1  0  0  0
 83155  1  0  0  0
M  ISO  4   1 100  68 101  80 100  82 101
M  END
> <chiral flag>
0

> <version>
0

> <s_m_source_file>
/data/baiqing/PycharmProjects/Reinvent-master-3.2/result/LINK_invent/BTK/process_docking_weight1_custom_product_contain_oxygen_bond_distance_aromatic_linkinvent_7_9_3/rearranged_h_0119.sdf

> <i_m_source_file_index>
32

> <r_mmod_Potential_Energy-OPLS-2005>
224.133285522461

> <r_mmod_Stretch_Energy-OPLS-2005>
65.0292358398438

> <r_mmod_Bend_Energy-OPLS-2005>
150.352676391602

> <r_mmod_Torsional_Energy-OPLS-2005>
291.361541748047

> <r_mmod_Improper_Torsional_Energy-OPLS-2005>
32.000659942627

> <r_mmod_Van_der_Waal_Energy-OPLS-2005>
142.893051147461

> <r_mmod_Electrostatic_Energy-OPLS-2005>
-326.837432861328

> <r_mmod_Solvation_Energy-OPLS-2005>
-194.501602172852

> <b_mmod_Minimization_Converged-OPLS-2005>
0

> <r_mmod_RMS_Derivative-OPLS-2005>
6.85401725769043

$$$$
32
                    3D
 Structure written by MMmdl.
157166  0  0  1  0            999 V2000
  -30.5966  -14.7409   20.4777 C   0  0  0  0  0  0
  -30.4468  -12.4494   19.4670 C   0  0  0  0  0  0
  -29.5085  -12.4938   18.2391 C   0  0  0  0  0  0
  -28.0364  -12.3211   18.6596 C   0  0  0  0  0  0
  -27.6499  -13.2198   19.8614 C   0  0  2  0  0  0
  -28.6974  -13.1275   20.9918 C   0  0  0  0  0  0
  -25.2561  -13.8172   20.5749 C   0  0  0  0  0  0
  -24.1832  -13.0432   20.9246 C   0  0  0  0  0  0
  -24.6416  -11.6906   20.8782 C   0  0  0  0  0  0
  -23.9077  -10.4289   21.0433 C   0  0  0  0  0  0
  -24.3633   -9.4185   21.9192 C   0  0  0  0  0  0
  -23.6297   -8.2221   22.0760 C   0  0  0  0  0  0
  -22.4264   -8.0283   21.3549 C   0  0  0  0  0  0
  -21.9902   -9.0270   20.4658 C   0  0  0  0  0  0
  -22.7250  -10.2139   20.3078 C   0  0  0  0  0  0
  -21.6839   -6.0739   22.5281 C   0  0  0  0  0  0
  -21.4010   -6.5646   23.8215 C   0  0  0  0  0  0
  -21.3654   -5.6812   24.9181 C   0  0  0  0  0  0
  -21.6037   -4.3074   24.7233 C   0  0  0  0  0  0
  -21.8819   -3.8161   23.4352 C   0  0  0  0  0  0
  -21.9201   -4.6974   22.3407 C   0  0  0  0  0  0
  -22.7853  -13.5223   21.1889 C   0  0  0  0  0  0
  -22.1671   -4.2157   21.0989 F   0  0  0  0  0  0
  -21.5623   -3.4553   25.7740 F   0  0  0  0  0  0
  -30.0034  -13.4955   20.4180 N   0  0  0  0  0  0
  -26.2988  -12.9357   20.3352 N   0  0  0  0  0  0
  -25.9347  -11.6505   20.5807 N   0  0  0  0  0  0
  -22.0518  -12.8218   22.0454 N   0  0  0  0  0  0
  -25.4284  -15.1892   20.4160 N   0  0  0  0  0  0
  -31.7702  -14.8879   20.1251 O   0  0  0  0  0  0
  -21.6627   -6.8878   21.4232 O   0  0  0  0  0  0
  -22.3534  -14.5526   20.6743 O   0  0  0  0  0  0
  -24.6314  -31.8559   23.1976 C   0  0  0  0  0  0
  -25.9152  -32.4765   23.8331 C   0  0  1  0  0  0
  -27.2333  -27.2694   20.1385 C   0  0  0  0  0  0
  -25.5942  -33.8564   24.2275 N   0  0  0  0  0  0
  -23.4296  -30.4741   21.5426 C   0  0  2  0  0  0
  -24.8814  -28.9133   20.1231 C   0  0  0  0  0  0
  -22.7512  -29.4607   22.4951 C   0  0  0  0  0  0
  -18.0292  -28.1362   22.8471 C   0  0  0  0  0  0
  -24.1508  -36.7287   23.2630 C   0  0  0  0  0  0
  -25.9751  -30.7699   21.3765 C   0  0  0  0  0  0
  -26.0537  -29.3877   20.7307 C   0  0  0  0  0  0
  -27.2340  -28.5754   20.7355 C   0  0  0  0  0  0
  -26.0444  -26.8596   19.5052 C   0  0  0  0  0  0
  -24.8811  -27.6536   19.5024 C   0  0  0  0  0  0
  -23.6528  -29.8021   20.1625 C   0  0  0  0  0  0
  -25.4122  -36.3084   24.0337 C   0  0  1  0  0  0
  -20.5900  -28.3698   23.1259 C   0  0  2  0  0  0
  -20.6787  -26.9408   22.5393 C   0  0  0  0  0  0
  -19.5772  -26.6391   21.5183 C   0  0  0  0  0  0
  -18.1953  -26.7915   22.1593 C   0  0  0  0  0  0
  -19.1543  -28.8842   23.2872 C   0  0  0  0  0  0
  -18.9453  -30.1431   23.8907 C   0  0  0  0  0  0
  -17.6455  -30.6569   24.0552 C   0  0  0  0  0  0
  -25.9050  -34.9441   23.5105 C   0  0  0  0  0  0
  -16.5354  -29.9060   23.6302 C   0  0  0  0  0  0
  -16.7277  -28.6470   23.0338 C   0  0  0  0  0  0
  -26.4515  -31.6553   25.0709 C   0  0  0  0  0  0
  -25.3753  -31.3668   26.1442 C   0  0  0  0  0  0
  -27.0348  -30.2981   24.6140 C   0  0  0  0  0  0
  -27.6116  -32.4246   25.7464 C   0  0  0  0  0  0
  -27.5592  -37.1793   24.8466 C   0  0  0  0  0  0
  -21.4225  -29.3073   22.3698 N   0  0  0  0  0  0
  -26.4307  -37.3772   23.9409 N   0  0  0  0  0  0
  -24.6982  -31.0515   22.0966 N   0  0  0  0  0  0
  -23.4218  -28.8153   23.3051 O   0  0  0  0  0  0
  -28.3033  -26.3529   20.0881 O   0  0  0  0  0  0
  -26.5624  -34.8913   22.4678 O   0  0  0  0  0  0
  -23.5468  -32.1379   23.7258 O   0  0  0  0  0  0
  -28.6620  -19.5245   20.8898 C   0  0  0  0  0  0
  -30.9969  -19.5090   20.4224 C   0  0  0  0  0  0
  -28.6809  -18.0849   20.9066 C   0  0  0  0  0  0
  -31.0202  -18.0707   20.4339 C   0  0  0  0  0  0
  -29.8275  -20.3050   20.6651 C   0  0  0  0  0  0
  -29.8533  -17.2957   20.6908 C   0  0  0  0  0  0
  -28.7959  -24.1103   21.3085 C   0  0  0  0  0  0
  -28.5167  -25.4723   21.1682 C   0  0  0  0  0  0
  -29.0850  -23.6183   22.7230 C   0  0  0  0  0  0
  -28.9025  -22.8501   20.3385 C   0  0  0  0  0  0
  -30.4936  -22.9920   22.8392 C   0  0  0  0  0  0
  -30.9978  -22.3024   21.5501 C   0  0  0  0  0  0
  -29.8855  -21.7627   20.7645 N   0  0  0  0  0  0
  -29.7633  -15.8097   20.7686 N   0  0  0  0  0  0
  -31.4800  -12.5973   19.1483 H   0  0  0  0  0  0
  -30.4195  -11.4648   19.9398 H   0  0  0  0  0  0
  -29.7849  -11.7050   17.5384 H   0  0  0  0  0  0
  -29.6302  -13.4370   17.7074 H   0  0  0  0  0  0
  -27.8986  -11.2737   18.9315 H   0  0  0  0  0  0
  -27.3691  -12.5067   17.8142 H   0  0  0  0  0  0
  -27.6570  -14.2430   19.4887 H   0  0  0  0  0  0
  -28.7287  -12.1181   21.4079 H   0  0  0  0  0  0
  -28.4282  -13.7786   21.8226 H   0  0  0  0  0  0
  -25.2776   -9.5649   22.4769 H   0  0  0  0  0  0
  -24.0015   -7.4602   22.7463 H   0  0  0  0  0  0
  -21.0837   -8.8809   19.8956 H   0  0  0  0  0  0
  -22.3721  -10.9705   19.6218 H   0  0  0  0  0  0
  -21.1989   -7.6156   23.9721 H   0  0  0  0  0  0
  -21.1470   -6.0535   25.9082 H   0  0  0  0  0  0
  -22.0596   -2.7619   23.2853 H   0  0  0  0  0  0
  -22.4162  -11.9872   22.4819 H   0  0  0  0  0  0
  -21.1148  -13.1233   22.2687 H   0  0  0  0  0  0
  -24.6614  -15.8426   20.5323 H   0  0  0  0  0  0
  -26.2625  -15.6226   20.0412 H   0  0  0  0  0  0
  -26.7238  -32.5449   23.1086 H   0  0  0  0  0  0
  -25.0146  -33.9711   25.0455 H   0  0  0  0  0  0
  -22.7265  -31.2950   21.3920 H   0  0  0  0  0  0
  -23.3775  -35.9615   23.3286 H   0  0  0  0  0  0
  -24.3603  -36.8909   22.2046 H   0  0  0  0  0  0
  -23.7254  -37.6488   23.6642 H   0  0  0  0  0  0
  -26.1032  -31.5256   20.5998 H   0  0  0  0  0  0
  -26.8571  -30.8339   22.0010 H   0  0  0  0  0  0
  -28.1356  -28.9363   21.2113 H   0  0  0  0  0  0
  -26.0166  -25.8935   19.0209 H   0  0  0  0  0  0
  -23.9846  -27.2837   19.0229 H   0  0  0  0  0  0
  -23.7802  -30.5764   19.4047 H   0  0  0  0  0  0
  -22.7717  -29.2354   19.8586 H   0  0  0  0  0  0
  -25.1288  -36.1942   25.0830 H   0  0  0  0  0  0
  -20.9963  -28.3256   24.1391 H   0  0  0  0  0  0
  -20.5636  -26.2304   23.3599 H   0  0  0  0  0  0
  -21.6656  -26.7426   22.1197 H   0  0  0  0  0  0
  -19.6936  -25.6310   21.1187 H   0  0  0  0  0  0
  -19.6680  -27.3223   20.6732 H   0  0  0  0  0  0
  -17.4204  -26.6646   21.4015 H   0  0  0  0  0  0
  -18.0365  -26.0049   22.8982 H   0  0  0  0  0  0
  -19.7929  -30.7236   24.2287 H   0  0  0  0  0  0
  -17.5002  -31.6234   24.5173 H   0  0  0  0  0  0
  -15.5342  -30.2961   23.7603 H   0  0  0  0  0  0
  -15.8688  -28.0779   22.7048 H   0  0  0  0  0  0
  -24.5982  -30.6945   25.7766 H   0  0  0  0  0  0
  -24.8869  -32.2813   26.4827 H   0  0  0  0  0  0
  -25.8096  -30.8895   27.0239 H   0  0  0  0  0  0
  -26.2904  -29.6733   24.1198 H   0  0  0  0  0  0
  -27.4103  -29.7224   25.4604 H   0  0  0  0  0  0
  -27.8753  -30.4275   23.9322 H   0  0  0  0  0  0
  -27.2806  -33.3579   26.2018 H   0  0  0  0  0  0
  -28.3940  -32.6725   25.0280 H   0  0  0  0  0  0
  -28.0773  -31.8365   26.5381 H   0  0  0  0  0  0
  -28.2597  -38.0100   24.7521 H   0  0  0  0  0  0
  -28.1107  -36.2631   24.6283 H   0  0  0  0  0  0
  -27.2319  -37.1430   25.8874 H   0  0  0  0  0  0
  -20.9409  -29.8816   21.6923 H   0  0  0  0  0  0
  -26.0199  -38.2861   24.1384 H   0  0  0  0  0  0
  -27.7296  -20.0276   21.0990 H   0  0  0  0  0  0
  -31.9313  -20.0138   20.2220 H   0  0  0  0  0  0
  -27.7451  -17.5838   21.1079 H   0  0  0  0  0  0
  -31.9612  -17.5699   20.2525 H   0  0  0  0  0  0
  -28.5085  -26.0700   22.0694 H   0  0  0  0  0  0
  -28.3368  -22.8638   22.9697 H   0  0  0  0  0  0
  -28.9702  -24.4044   23.4702 H   0  0  0  0  0  0
  -29.1371  -23.1929   19.3293 H   0  0  0  0  0  0
  -27.9109  -22.3989   20.2838 H   0  0  0  0  0  0
  -30.4992  -22.2842   23.6683 H   0  0  0  0  0  0
  -31.2084  -23.7707   23.1140 H   0  0  0  0  0  0
  -31.7438  -21.5523   21.8153 H   0  0  0  0  0  0
  -31.5191  -23.0301   20.9248 H   0  0  0  0  0  0
  -28.8444  -15.4772   21.0210 H   0  0  0  0  0  0
  1 25  1  0  0  0
  1 30  2  0  0  0
  1 84  1  0  0  0
  2  3  1  0  0  0
  2 25  1  0  0  0
  2 85  1  0  0  0
  2 86  1  0  0  0
  3  4  1  0  0  0
  3 87  1  0  0  0
  3 88  1  0  0  0
  4  5  1  0  0  0
  4 89  1  0  0  0
  4 90  1  0  0  0
  5  6  1  0  0  0
  5 26  1  0  0  0
  5 91  1  0  0  0
  6 25  1  0  0  0
  6 92  1  0  0  0
  6 93  1  0  0  0
  7  8  2  0  0  0
  7 26  1  0  0  0
  7 29  1  0  0  0
  8  9  1  0  0  0
  8 22  1  0  0  0
  9 10  1  0  0  0
  9 27  2  0  0  0
 10 11  2  0  0  0
 10 15  1  0  0  0
 11 12  1  0  0  0
 11 94  1  0  0  0
 12 13  2  0  0  0
 12 95  1  0  0  0
 13 14  1  0  0  0
 13 31  1  0  0  0
 14 15  2  0  0  0
 14 96  1  0  0  0
 15 97  1  0  0  0
 16 17  2  0  0  0
 16 21  1  0  0  0
 16 31  1  0  0  0
 17 18  1  0  0  0
 17 98  1  0  0  0
 18 19  2  0  0  0
 18 99  1  0  0  0
 19 20  1  0  0  0
 19 24  1  0  0  0
 20 21  2  0  0  0
 20100  1  0  0  0
 21 23  1  0  0  0
 22 28  1  0  0  0
 22 32  2  0  0  0
 26 27  1  0  0  0
 28101  1  0  0  0
 28102  1  0  0  0
 29103  1  0  0  0
 29104  1  0  0  0
 33 34  1  0  0  0
 33 66  1  0  0  0
 33 70  2  0  0  0
 34 36  1  0  0  0
 34 59  1  0  0  0
 34105  1  0  0  0
 35 44  2  0  0  0
 35 45  1  0  0  0
 35 68  1  0  0  0
 36 56  1  0  0  0
 36106  1  0  0  0
 37 39  1  0  0  0
 37 47  1  0  0  0
 37 66  1  0  0  0
 37107  1  0  0  0
 38 43  2  0  0  0
 38 46  1  0  0  0
 38 47  1  0  0  0
 39 64  1  0  0  0
 39 67  2  0  0  0
 40 52  1  0  0  0
 40 53  2  0  0  0
 40 58  1  0  0  0
 41108  1  0  0  0
 41109  1  0  0  0
 41110  1  0  0  0
 41 48  1  0  0  0
 42 43  1  0  0  0
 42 66  1  0  0  0
 42111  1  0  0  0
 42112  1  0  0  0
 43 44  1  0  0  0
 44113  1  0  0  0
 45 46  2  0  0  0
 45114  1  0  0  0
 46115  1  0  0  0
 47116  1  0  0  0
 47117  1  0  0  0
 48 56  1  0  0  0
 48 65  1  0  0  0
 48118  1  0  0  0
 49 50  1  0  0  0
 49 53  1  0  0  0
 49 64  1  0  0  0
 49119  1  0  0  0
 50 51  1  0  0  0
 50120  1  0  0  0
 50121  1  0  0  0
 51 52  1  0  0  0
 51122  1  0  0  0
 51123  1  0  0  0
 52124  1  0  0  0
 52125  1  0  0  0
 53 54  1  0  0  0
 54 55  2  0  0  0
 54126  1  0  0  0
 55 57  1  0  0  0
 55127  1  0  0  0
 56 69  2  0  0  0
 57 58  2  0  0  0
 57128  1  0  0  0
 58129  1  0  0  0
 59 60  1  0  0  0
 59 61  1  0  0  0
 59 62  1  0  0  0
 60130  1  0  0  0
 60131  1  0  0  0
 60132  1  0  0  0
 61133  1  0  0  0
 61134  1  0  0  0
 61135  1  0  0  0
 62136  1  0  0  0
 62137  1  0  0  0
 62138  1  0  0  0
 63 65  1  0  0  0
 63139  1  0  0  0
 63140  1  0  0  0
 63141  1  0  0  0
 64142  1  0  0  0
 65143  1  0  0  0
 68 78  1  0  0  0
 71 73  2  0  0  0
 71 75  1  0  0  0
 71144  1  0  0  0
 72 74  1  0  0  0
 72 75  2  0  0  0
 72145  1  0  0  0
 73 76  1  0  0  0
 73146  1  0  0  0
 74 76  2  0  0  0
 74147  1  0  0  0
 75 83  1  0  0  0
 76 84  1  0  0  0
 77 78  2  0  0  0
 77 79  1  0  0  0
 77 80  1  0  0  0
 78148  1  0  0  0
 79 81  1  0  0  0
 79149  1  0  0  0
 79150  1  0  0  0
 80 83  1  0  0  0
 80151  1  0  0  0
 80152  1  0  0  0
 81 82  1  0  0  0
 81153  1  0  0  0
 81154  1  0  0  0
 82 83  1  0  0  0
 82155  1  0  0  0
 82156  1  0  0  0
 84157  1  0  0  0
M  ISO  4   1 100  68 101  78 101  84 100
M  END
> <chiral flag>
0

> <version>
0

> <s_m_source_file>
/data/baiqing/PycharmProjects/Reinvent-master-3.2/result/LINK_invent/BTK/process_docking_weight1_custom_product_contain_oxygen_bond_distance_aromatic_linkinvent_7_9_3/rearranged_h_0119.sdf

> <i_m_source_file_index>
33

> <r_mmod_Potential_Energy-OPLS-2005>
216.693862915039

> <r_mmod_Stretch_Energy-OPLS-2005>
114.338745117188

> <r_mmod_Bend_Energy-OPLS-2005>
224.201187133789

> <r_mmod_Torsional_Energy-OPLS-2005>
254.039398193359

> <r_mmod_Improper_Torsional_Energy-OPLS-2005>
4.66177606582642

> <r_mmod_Van_der_Waal_Energy-OPLS-2005>
143.522186279297

> <r_mmod_Electrostatic_Energy-OPLS-2005>
-388.539001464844

> <r_mmod_Solvation_Energy-OPLS-2005>
-216.92839050293

> <b_mmod_Minimization_Converged-OPLS-2005>
0

> <r_mmod_RMS_Derivative-OPLS-2005>
3.52224564552307

$$$$
33
                    3D
 Structure written by MMmdl.
161169  0  0  1  0            999 V2000
  -30.6318  -14.5373   20.5839 C   0  0  0  0  0  0
  -30.4361  -12.3344   19.4355 C   0  0  0  0  0  0
  -29.4988  -12.4830   18.2187 C   0  0  0  0  0  0
  -28.0262  -12.3194   18.6308 C   0  0  0  0  0  0
  -27.6564  -13.1929   19.8564 C   0  0  2  0  0  0
  -28.6948  -13.0058   20.9842 C   0  0  0  0  0  0
  -25.2609  -13.8114   20.5653 C   0  0  0  0  0  0
  -24.1849  -13.0436   20.9136 C   0  0  0  0  0  0
  -24.6371  -11.6888   20.8679 C   0  0  0  0  0  0
  -23.9042  -10.4295   21.0350 C   0  0  0  0  0  0
  -24.3590   -9.4239   21.9132 C   0  0  0  0  0  0
  -23.6279   -8.2285   22.0730 C   0  0  0  0  0  0
  -22.4261   -8.0281   21.3537 C   0  0  0  0  0  0
  -21.9894   -9.0239   20.4635 C   0  0  0  0  0  0
  -22.7204  -10.2127   20.3027 C   0  0  0  0  0  0
  -21.6859   -6.0756   22.5291 C   0  0  0  0  0  0
  -21.4021   -6.5655   23.8229 C   0  0  0  0  0  0
  -21.3659   -5.6779   24.9165 C   0  0  0  0  0  0
  -21.6031   -4.3048   24.7194 C   0  0  0  0  0  0
  -21.8832   -3.8173   23.4315 C   0  0  0  0  0  0
  -21.9204   -4.6987   22.3391 C   0  0  0  0  0  0
  -22.7889  -13.5239   21.1867 C   0  0  0  0  0  0
  -22.1665   -4.2189   21.0969 F   0  0  0  0  0  0
  -21.5611   -3.4547   25.7712 F   0  0  0  0  0  0
  -30.0239  -13.3259   20.4429 N   0  0  0  0  0  0
  -26.3005  -12.9254   20.3251 N   0  0  0  0  0  0
  -25.9288  -11.6441   20.5665 N   0  0  0  0  0  0
  -22.0519  -12.8222   22.0397 N   0  0  0  0  0  0
  -25.4435  -15.1837   20.4139 N   0  0  0  0  0  0
  -31.7682  -14.7431   20.1429 O   0  0  0  0  0  0
  -21.6631   -6.8891   21.4243 O   0  0  0  0  0  0
  -22.3576  -14.5551   20.6709 O   0  0  0  0  0  0
  -24.6172  -31.8639   23.2102 C   0  0  0  0  0  0
  -25.9047  -32.4782   23.8386 C   0  0  1  0  0  0
  -27.2408  -27.4098   20.0978 C   0  0  0  0  0  0
  -25.5883  -33.8581   24.2307 N   0  0  0  0  0  0
  -23.4065  -30.4909   21.5502 C   0  0  2  0  0  0
  -24.8553  -28.9519   20.1162 C   0  0  0  0  0  0
  -22.7393  -29.4687   22.4987 C   0  0  0  0  0  0
  -18.0265  -28.1352   22.8501 C   0  0  0  0  0  0
  -24.1504  -36.7324   23.2647 C   0  0  0  0  0  0
  -25.9413  -30.8227   21.3695 C   0  0  0  0  0  0
  -26.0188  -29.4564   20.7103 C   0  0  0  0  0  0
  -27.2163  -28.6965   20.6967 C   0  0  0  0  0  0
  -26.0621  -26.9346   19.4844 C   0  0  0  0  0  0
  -24.8718  -27.6877   19.5018 C   0  0  0  0  0  0
  -23.6156  -29.8218   20.1666 C   0  0  0  0  0  0
  -25.4108  -36.3086   24.0342 C   0  0  1  0  0  0
  -20.5858  -28.3655   23.1299 C   0  0  2  0  0  0
  -20.6760  -26.9381   22.5412 C   0  0  0  0  0  0
  -19.5730  -26.6364   21.5215 C   0  0  0  0  0  0
  -18.1907  -26.7900   22.1636 C   0  0  0  0  0  0
  -19.1511  -28.8806   23.2909 C   0  0  0  0  0  0
  -18.9459  -30.1427   23.8896 C   0  0  0  0  0  0
  -17.6462  -30.6558   24.0561 C   0  0  0  0  0  0
  -25.9027  -34.9448   23.5119 C   0  0  0  0  0  0
  -16.5352  -29.9056   23.6330 C   0  0  0  0  0  0
  -16.7261  -28.6480   23.0335 C   0  0  0  0  0  0
  -26.4453  -31.6567   25.0730 C   0  0  0  0  0  0
  -25.3738  -31.3700   26.1498 C   0  0  0  0  0  0
  -27.0266  -30.2997   24.6139 C   0  0  0  0  0  0
  -27.5971  -32.4322   25.7494 C   0  0  0  0  0  0
  -27.5578  -37.1816   24.8457 C   0  0  0  0  0  0
  -21.4119  -29.3037   22.3717 N   0  0  0  0  0  0
  -26.4291  -37.3778   23.9395 N   0  0  0  0  0  0
  -24.6736  -31.0718   22.1019 N   0  0  0  0  0  0
  -23.4160  -28.8216   23.3024 O   0  0  0  0  0  0
  -28.3830  -26.6245   20.0975 O   0  0  0  0  0  0
  -26.5607  -34.8910   22.4693 O   0  0  0  0  0  0
  -23.5360  -32.1387   23.7495 O   0  0  0  0  0  0
  -31.1724  -20.6107   18.5201 C   0  0  0  0  0  0
  -30.7553  -21.8174   19.1083 C   0  0  0  0  0  0
  -30.6370  -19.3812   18.9491 C   0  0  0  0  0  0
  -29.3106  -20.5638   20.6219 C   0  0  0  0  0  0
  -29.7490  -21.8303   20.1070 C   0  0  0  0  0  0
  -29.7863  -19.3304   20.0790 C   0  0  0  0  0  0
  -28.9160  -24.1144   19.9707 C   0  0  0  0  0  0
  -30.9338  -18.1469   18.1165 C   0  0  0  0  0  0
  -28.2907  -20.5216   21.7538 C   0  0  0  0  0  0
  -29.0756  -24.3059   18.4663 C   0  0  0  0  0  0
  -28.2369  -25.3033   20.6959 C   0  0  0  0  0  0
  -29.8021  -15.7159   21.1891 C   0  0  0  0  0  0
  -30.3442  -17.1771   21.0624 C   0  0  0  0  0  0
  -29.2207  -23.0442   20.6339 N   0  0  0  0  0  0
  -29.3428  -18.1098   20.5804 O   0  0  0  0  0  0
  -31.4748  -12.4686   19.1288 H   0  0  0  0  0  0
  -30.3615  -11.3290   19.8558 H   0  0  0  0  0  0
  -29.7543  -11.7469   17.4579 H   0  0  0  0  0  0
  -29.6507  -13.4629   17.7626 H   0  0  0  0  0  0
  -27.8641  -11.2678   18.8717 H   0  0  0  0  0  0
  -27.3676  -12.5313   17.7932 H   0  0  0  0  0  0
  -27.6756  -14.2230   19.5063 H   0  0  0  0  0  0
  -28.6846  -11.9772   21.3502 H   0  0  0  0  0  0
  -28.4350  -13.6163   21.8475 H   0  0  0  0  0  0
  -25.2721   -9.5722   22.4705 H   0  0  0  0  0  0
  -23.9992   -7.4680   22.7454 H   0  0  0  0  0  0
  -21.0838   -8.8723   19.8922 H   0  0  0  0  0  0
  -22.3623  -10.9643   19.6144 H   0  0  0  0  0  0
  -21.2007   -7.6167   23.9726 H   0  0  0  0  0  0
  -21.1454   -6.0512   25.9058 H   0  0  0  0  0  0
  -22.0609   -2.7642   23.2795 H   0  0  0  0  0  0
  -22.4112  -11.9859   22.4730 H   0  0  0  0  0  0
  -21.1138  -13.1258   22.2628 H   0  0  0  0  0  0
  -24.6902  -15.8551   20.5274 H   0  0  0  0  0  0
  -26.3063  -15.6113   20.0995 H   0  0  0  0  0  0
  -26.7133  -32.5485   23.1151 H   0  0  0  0  0  0
  -24.9992  -33.9688   25.0431 H   0  0  0  0  0  0
  -22.7021  -31.3159   21.4133 H   0  0  0  0  0  0
  -23.3726  -35.9697   23.3306 H   0  0  0  0  0  0
  -24.3660  -36.8943   22.2072 H   0  0  0  0  0  0
  -23.7281  -37.6543   23.6669 H   0  0  0  0  0  0
  -26.0699  -31.5965   20.6106 H   0  0  0  0  0  0
  -26.8220  -30.8617   21.9974 H   0  0  0  0  0  0
  -28.1103  -29.0852   21.1652 H   0  0  0  0  0  0
  -26.0671  -25.9718   18.9944 H   0  0  0  0  0  0
  -23.9811  -27.2858   19.0383 H   0  0  0  0  0  0
  -23.7235  -30.6000   19.4102 H   0  0  0  0  0  0
  -22.7356  -29.2473   19.8690 H   0  0  0  0  0  0
  -25.1294  -36.1949   25.0842 H   0  0  0  0  0  0
  -20.9983  -28.3218   24.1414 H   0  0  0  0  0  0
  -20.5617  -26.2265   23.3611 H   0  0  0  0  0  0
  -21.6623  -26.7377   22.1224 H   0  0  0  0  0  0
  -19.6867  -25.6278   21.1211 H   0  0  0  0  0  0
  -19.6637  -27.3197   20.6772 H   0  0  0  0  0  0
  -17.4170  -26.6646   21.4058 H   0  0  0  0  0  0
  -18.0313  -26.0030   22.9027 H   0  0  0  0  0  0
  -19.7937  -30.7247   24.2242 H   0  0  0  0  0  0
  -17.5013  -31.6240   24.5148 H   0  0  0  0  0  0
  -15.5340  -30.2944   23.7647 H   0  0  0  0  0  0
  -15.8690  -28.0810   22.7009 H   0  0  0  0  0  0
  -24.5857  -30.7092   25.7911 H   0  0  0  0  0  0
  -24.8983  -32.2869   26.4986 H   0  0  0  0  0  0
  -25.8100  -30.8860   27.0253 H   0  0  0  0  0  0
  -26.2840  -29.6769   24.1151 H   0  0  0  0  0  0
  -27.3987  -29.7187   25.4601 H   0  0  0  0  0  0
  -27.8704  -30.4294   23.9348 H   0  0  0  0  0  0
  -27.2510  -33.3577   26.2119 H   0  0  0  0  0  0
  -28.3742  -32.6977   25.0313 H   0  0  0  0  0  0
  -28.0715  -31.8457   26.5372 H   0  0  0  0  0  0
  -28.2574  -38.0136   24.7489 H   0  0  0  0  0  0
  -28.1079  -36.2637   24.6277 H   0  0  0  0  0  0
  -27.2315  -37.1504   25.8876 H   0  0  0  0  0  0
  -20.9251  -29.8812   21.7015 H   0  0  0  0  0  0
  -26.0156  -38.2865   24.1352 H   0  0  0  0  0  0
  -31.8778  -20.6236   17.7010 H   0  0  0  0  0  0
  -31.1925  -22.7332   18.7389 H   0  0  0  0  0  0
  -30.9394  -18.4091   17.0594 H   0  0  0  0  0  0
  -30.1607  -17.3843   18.2430 H   0  0  0  0  0  0
  -31.9003  -17.7199   18.3823 H   0  0  0  0  0  0
  -28.3555  -19.5960   22.3266 H   0  0  0  0  0  0
  -27.2835  -20.6009   21.3472 H   0  0  0  0  0  0
  -28.4300  -21.3484   22.4485 H   0  0  0  0  0  0
  -30.0875  -24.6316   18.2273 H   0  0  0  0  0  0
  -28.8561  -23.3864   17.9244 H   0  0  0  0  0  0
  -28.3887  -25.0638   18.0957 H   0  0  0  0  0  0
  -28.6323  -25.3563   21.7117 H   0  0  0  0  0  0
  -27.1871  -25.0347   20.8234 H   0  0  0  0  0  0
  -28.8172  -15.7012   20.7253 H   0  0  0  0  0  0
  -29.6229  -15.4998   22.2398 H   0  0  0  0  0  0
  -30.6166  -17.5227   22.0594 H   0  0  0  0  0  0
  -31.2707  -17.2127   20.4963 H   0  0  0  0  0  0
  1 25  1  0  0  0
  1 30  2  0  0  0
  1 82  1  0  0  0
  2  3  1  0  0  0
  2 25  1  0  0  0
  2 86  1  0  0  0
  2 87  1  0  0  0
  3  4  1  0  0  0
  3 88  1  0  0  0
  3 89  1  0  0  0
  4  5  1  0  0  0
  4 90  1  0  0  0
  4 91  1  0  0  0
  5  6  1  0  0  0
  5 26  1  0  0  0
  5 92  1  0  0  0
  6 25  1  0  0  0
  6 93  1  0  0  0
  6 94  1  0  0  0
  7  8  2  0  0  0
  7 26  1  0  0  0
  7 29  1  0  0  0
  8  9  1  0  0  0
  8 22  1  0  0  0
  9 10  1  0  0  0
  9 27  2  0  0  0
 10 11  2  0  0  0
 10 15  1  0  0  0
 11 12  1  0  0  0
 11 95  1  0  0  0
 12 13  2  0  0  0
 12 96  1  0  0  0
 13 14  1  0  0  0
 13 31  1  0  0  0
 14 15  2  0  0  0
 14 97  1  0  0  0
 15 98  1  0  0  0
 16 17  2  0  0  0
 16 21  1  0  0  0
 16 31  1  0  0  0
 17 18  1  0  0  0
 17 99  1  0  0  0
 18 19  2  0  0  0
 18100  1  0  0  0
 19 20  1  0  0  0
 19 24  1  0  0  0
 20 21  2  0  0  0
 20101  1  0  0  0
 21 23  1  0  0  0
 22 28  1  0  0  0
 22 32  2  0  0  0
 26 27  1  0  0  0
 28102  1  0  0  0
 28103  1  0  0  0
 29104  1  0  0  0
 29105  1  0  0  0
 33 34  1  0  0  0
 33 66  1  0  0  0
 33 70  2  0  0  0
 34 36  1  0  0  0
 34 59  1  0  0  0
 34106  1  0  0  0
 35 44  2  0  0  0
 35 45  1  0  0  0
 35 68  1  0  0  0
 36 56  1  0  0  0
 36107  1  0  0  0
 37 39  1  0  0  0
 37 47  1  0  0  0
 37 66  1  0  0  0
 37108  1  0  0  0
 38 43  2  0  0  0
 38 46  1  0  0  0
 38 47  1  0  0  0
 39 64  1  0  0  0
 39 67  2  0  0  0
 40 52  1  0  0  0
 40 53  2  0  0  0
 40 58  1  0  0  0
 41109  1  0  0  0
 41110  1  0  0  0
 41111  1  0  0  0
 41 48  1  0  0  0
 42 43  1  0  0  0
 42 66  1  0  0  0
 42112  1  0  0  0
 42113  1  0  0  0
 43 44  1  0  0  0
 44114  1  0  0  0
 45 46  2  0  0  0
 45115  1  0  0  0
 46116  1  0  0  0
 47117  1  0  0  0
 47118  1  0  0  0
 48 56  1  0  0  0
 48 65  1  0  0  0
 48119  1  0  0  0
 49 50  1  0  0  0
 49 53  1  0  0  0
 49 64  1  0  0  0
 49120  1  0  0  0
 50 51  1  0  0  0
 50121  1  0  0  0
 50122  1  0  0  0
 51 52  1  0  0  0
 51123  1  0  0  0
 51124  1  0  0  0
 52125  1  0  0  0
 52126  1  0  0  0
 53 54  1  0  0  0
 54 55  2  0  0  0
 54127  1  0  0  0
 55 57  1  0  0  0
 55128  1  0  0  0
 56 69  2  0  0  0
 57 58  2  0  0  0
 57129  1  0  0  0
 58130  1  0  0  0
 59 60  1  0  0  0
 59 61  1  0  0  0
 59 62  1  0  0  0
 60131  1  0  0  0
 60132  1  0  0  0
 60133  1  0  0  0
 61134  1  0  0  0
 61135  1  0  0  0
 61136  1  0  0  0
 62137  1  0  0  0
 62138  1  0  0  0
 62139  1  0  0  0
 63 65  1  0  0  0
 63140  1  0  0  0
 63141  1  0  0  0
 63142  1  0  0  0
 64143  1  0  0  0
 65144  1  0  0  0
 68 81  1  0  0  0
 71 72  2  0  0  0
 71 73  1  0  0  0
 71145  1  0  0  0
 72 75  1  0  0  0
 72146  1  0  0  0
 73 76  2  0  0  0
 73 78  1  0  0  0
 74 75  2  0  0  0
 74 76  1  0  0  0
 74 79  1  0  0  0
 75 84  1  0  0  0
 76 85  1  0  0  0
 77 80  1  0  0  0
 77 81  1  0  0  0
 77 84  2  0  0  0
 78147  1  0  0  0
 78148  1  0  0  0
 78149  1  0  0  0
 79150  1  0  0  0
 79151  1  0  0  0
 79152  1  0  0  0
 80153  1  0  0  0
 80154  1  0  0  0
 80155  1  0  0  0
 81156  1  0  0  0
 81157  1  0  0  0
 82 83  1  0  0  0
 82158  1  0  0  0
 82159  1  0  0  0
 83 85  1  0  0  0
 83160  1  0  0  0
 83161  1  0  0  0
M  ISO  4   1 100  68 101  81 101  82 100
M  END
> <chiral flag>
0

> <version>
0

> <s_m_source_file>
/data/baiqing/PycharmProjects/Reinvent-master-3.2/result/LINK_invent/BTK/process_docking_weight1_custom_product_contain_oxygen_bond_distance_aromatic_linkinvent_7_9_3/rearranged_h_0119.sdf

> <i_m_source_file_index>
34

> <r_mmod_Potential_Energy-OPLS-2005>
7.5136399269104

> <r_mmod_Stretch_Energy-OPLS-2005>
53.9237518310547

> <r_mmod_Bend_Energy-OPLS-2005>
117.244041442871

> <r_mmod_Torsional_Energy-OPLS-2005>
232.829437255859

> <r_mmod_Improper_Torsional_Energy-OPLS-2005>
3.87143015861511

> <r_mmod_Van_der_Waal_Energy-OPLS-2005>
163.474716186523

> <r_mmod_Electrostatic_Energy-OPLS-2005>
-390.212799072266

> <r_mmod_Solvation_Energy-OPLS-2005>
-194.605010986328

> <b_mmod_Minimization_Converged-OPLS-2005>
0

> <r_mmod_RMS_Derivative-OPLS-2005>
5.86332130432129

$$$$
34
                    3D
 Structure written by MMmdl.
152160  0  0  1  0            999 V2000
  -30.7080  -14.5425   20.6264 C   0  0  0  0  0  0
  -30.4297  -12.3639   19.4488 C   0  0  0  0  0  0
  -29.4987  -12.5113   18.2252 C   0  0  0  0  0  0
  -28.0263  -12.3536   18.6404 C   0  0  0  0  0  0
  -27.6623  -13.2116   19.8783 C   0  0  2  0  0  0
  -28.7006  -13.0359   21.0103 C   0  0  0  0  0  0
  -25.2600  -13.8154   20.5663 C   0  0  0  0  0  0
  -24.1844  -13.0434   20.9203 C   0  0  0  0  0  0
  -24.6411  -11.6907   20.8738 C   0  0  0  0  0  0
  -23.9069  -10.4294   21.0393 C   0  0  0  0  0  0
  -24.3603   -9.4233   21.9202 C   0  0  0  0  0  0
  -23.6289   -8.2252   22.0761 C   0  0  0  0  0  0
  -22.4271   -8.0287   21.3536 C   0  0  0  0  0  0
  -21.9934   -9.0246   20.4626 C   0  0  0  0  0  0
  -22.7257  -10.2131   20.3043 C   0  0  0  0  0  0
  -21.6855   -6.0743   22.5277 C   0  0  0  0  0  0
  -21.4012   -6.5648   23.8207 C   0  0  0  0  0  0
  -21.3657   -5.6796   24.9166 C   0  0  0  0  0  0
  -21.6034   -4.3057   24.7228 C   0  0  0  0  0  0
  -21.8811   -3.8159   23.4349 C   0  0  0  0  0  0
  -21.9192   -4.6969   22.3408 C   0  0  0  0  0  0
  -22.7856  -13.5242   21.1823 C   0  0  0  0  0  0
  -22.1678   -4.2165   21.0982 F   0  0  0  0  0  0
  -21.5614   -3.4536   25.7735 F   0  0  0  0  0  0
  -30.0296  -13.3609   20.4678 N   0  0  0  0  0  0
  -26.3028  -12.9344   20.3351 N   0  0  0  0  0  0
  -25.9339  -11.6503   20.5776 N   0  0  0  0  0  0
  -22.0499  -12.8206   22.0364 N   0  0  0  0  0  0
  -25.4363  -15.1892   20.4114 N   0  0  0  0  0  0
  -31.8162  -14.7267   20.1119 O   0  0  0  0  0  0
  -21.6640   -6.8886   21.4236 O   0  0  0  0  0  0
  -22.3521  -14.5551   20.6697 O   0  0  0  0  0  0
  -24.6205  -31.8669   23.2073 C   0  0  0  0  0  0
  -25.9094  -32.4810   23.8407 C   0  0  1  0  0  0
  -27.2148  -27.3632   20.1606 C   0  0  0  0  0  0
  -25.5912  -33.8616   24.2326 N   0  0  0  0  0  0
  -23.4126  -30.4884   21.5473 C   0  0  2  0  0  0
  -24.8636  -28.9484   20.1172 C   0  0  0  0  0  0
  -22.7459  -29.4656   22.4952 C   0  0  0  0  0  0
  -18.0280  -28.1380   22.8507 C   0  0  0  0  0  0
  -24.1488  -36.7299   23.2637 C   0  0  0  0  0  0
  -25.9494  -30.8104   21.3801 C   0  0  0  0  0  0
  -26.0236  -29.4408   20.7314 C   0  0  0  0  0  0
  -27.2063  -28.6539   20.7558 C   0  0  0  0  0  0
  -26.0474  -26.9075   19.5194 C   0  0  0  0  0  0
  -24.8755  -27.6850   19.5019 C   0  0  0  0  0  0
  -23.6314  -29.8258   20.1608 C   0  0  0  0  0  0
  -25.4107  -36.3109   24.0333 C   0  0  1  0  0  0
  -20.5887  -28.3691   23.1289 C   0  0  2  0  0  0
  -20.6769  -26.9419   22.5414 C   0  0  0  0  0  0
  -19.5754  -26.6385   21.5210 C   0  0  0  0  0  0
  -18.1933  -26.7916   22.1630 C   0  0  0  0  0  0
  -19.1535  -28.8847   23.2893 C   0  0  0  0  0  0
  -18.9455  -30.1447   23.8911 C   0  0  0  0  0  0
  -17.6462  -30.6589   24.0564 C   0  0  0  0  0  0
  -25.9042  -34.9470   23.5130 C   0  0  0  0  0  0
  -16.5348  -29.9104   23.6334 C   0  0  0  0  0  0
  -16.7266  -28.6513   23.0360 C   0  0  0  0  0  0
  -26.4482  -31.6607   25.0765 C   0  0  0  0  0  0
  -25.3731  -31.3744   26.1493 C   0  0  0  0  0  0
  -27.0328  -30.3029   24.6224 C   0  0  0  0  0  0
  -27.6042  -32.4351   25.7518 C   0  0  0  0  0  0
  -27.5584  -37.1807   24.8458 C   0  0  0  0  0  0
  -21.4165  -29.3037   22.3699 N   0  0  0  0  0  0
  -26.4303  -37.3783   23.9393 N   0  0  0  0  0  0
  -24.6774  -31.0743   22.0999 N   0  0  0  0  0  0
  -23.4184  -28.8187   23.3034 O   0  0  0  0  0  0
  -28.3092  -26.5107   20.1574 O   0  0  0  0  0  0
  -26.5614  -34.8925   22.4704 O   0  0  0  0  0  0
  -23.5357  -32.1471   23.7407 O   0  0  0  0  0  0
  -29.7051  -19.4731   21.6074 C   0  0  0  0  0  0
  -27.3932  -20.0506   22.0719 C   0  0  0  0  0  0
  -28.0612  -17.6986   21.8603 C   0  0  0  0  0  0
  -28.7176  -20.4840   21.8414 C   0  0  0  0  0  0
  -29.3973  -18.0707   21.6054 C   0  0  0  0  0  0
  -27.0677  -18.6769   22.0879 C   0  0  0  0  0  0
  -29.0319  -21.9509   22.0083 C   0  0  0  0  0  0
  -28.4595  -23.0349   21.4015 C   0  0  0  0  0  0
  -28.6804  -24.4489   21.8364 C   0  0  0  0  0  0
  -28.5265  -25.7007   21.2693 C   0  0  0  0  0  0
  -30.4843  -16.9896   21.3232 C   0  0  0  0  0  0
  -30.0685  -15.5562   21.2772 N   0  0  0  0  0  0
  -25.7920  -18.2932   22.3390 F   0  0  0  0  0  0
  -31.4713  -12.4712   19.1415 H   0  0  0  0  0  0
  -30.3487  -11.3580   19.8657 H   0  0  0  0  0  0
  -29.7573  -11.7757   17.4630 H   0  0  0  0  0  0
  -29.6499  -13.4855   17.7593 H   0  0  0  0  0  0
  -27.8596  -11.2983   18.8625 H   0  0  0  0  0  0
  -27.3669  -12.5866   17.8063 H   0  0  0  0  0  0
  -27.6944  -14.2537   19.5575 H   0  0  0  0  0  0
  -28.7012  -12.0084   21.3775 H   0  0  0  0  0  0
  -28.4410  -13.6578   21.8668 H   0  0  0  0  0  0
  -25.2754   -9.5709   22.4781 H   0  0  0  0  0  0
  -23.9979   -7.4657   22.7509 H   0  0  0  0  0  0
  -21.0882   -8.8759   19.8932 H   0  0  0  0  0  0
  -22.3741  -10.9633   19.6124 H   0  0  0  0  0  0
  -21.2000   -7.6157   23.9717 H   0  0  0  0  0  0
  -21.1500   -6.0533   25.9063 H   0  0  0  0  0  0
  -22.0602   -2.7627   23.2837 H   0  0  0  0  0  0
  -22.4100  -11.9818   22.4685 H   0  0  0  0  0  0
  -21.1097  -13.1176   22.2521 H   0  0  0  0  0  0
  -24.6851  -15.8519   20.5656 H   0  0  0  0  0  0
  -26.2897  -15.6272   20.0829 H   0  0  0  0  0  0
  -26.7161  -32.5486   23.1146 H   0  0  0  0  0  0
  -25.0015  -33.9758   25.0442 H   0  0  0  0  0  0
  -22.7028  -31.3054   21.4062 H   0  0  0  0  0  0
  -23.3757  -35.9629   23.3311 H   0  0  0  0  0  0
  -24.3590  -36.8919   22.2055 H   0  0  0  0  0  0
  -23.7229  -37.6493   23.6659 H   0  0  0  0  0  0
  -26.0863  -31.5763   20.6183 H   0  0  0  0  0  0
  -26.8251  -30.8488   22.0175 H   0  0  0  0  0  0
  -28.0991  -29.0263   21.2386 H   0  0  0  0  0  0
  -26.0485  -25.9319   19.0493 H   0  0  0  0  0  0
  -23.9873  -27.3027   19.0172 H   0  0  0  0  0  0
  -23.7512  -30.6059   19.4074 H   0  0  0  0  0  0
  -22.7510  -29.2586   19.8547 H   0  0  0  0  0  0
  -25.1288  -36.1977   25.0827 H   0  0  0  0  0  0
  -20.9956  -28.3248   24.1415 H   0  0  0  0  0  0
  -20.5653  -26.2309   23.3610 H   0  0  0  0  0  0
  -21.6639  -26.7455   22.1216 H   0  0  0  0  0  0
  -19.6931  -25.6289   21.1264 H   0  0  0  0  0  0
  -19.6672  -27.3184   20.6724 H   0  0  0  0  0  0
  -17.4194  -26.6658   21.4042 H   0  0  0  0  0  0
  -18.0342  -26.0044   22.9012 H   0  0  0  0  0  0
  -19.7925  -30.7263   24.2277 H   0  0  0  0  0  0
  -17.5015  -31.6258   24.5165 H   0  0  0  0  0  0
  -15.5354  -30.3005   23.7633 H   0  0  0  0  0  0
  -15.8657  -28.0819   22.7076 H   0  0  0  0  0  0
  -24.5881  -30.7114   25.7826 H   0  0  0  0  0  0
  -24.8939  -32.2905   26.4960 H   0  0  0  0  0  0
  -25.8049  -30.8894   27.0250 H   0  0  0  0  0  0
  -26.2915  -29.6760   24.1235 H   0  0  0  0  0  0
  -27.3993  -29.7283   25.4741 H   0  0  0  0  0  0
  -27.8788  -30.4297   23.9456 H   0  0  0  0  0  0
  -27.2640  -33.3613   26.2147 H   0  0  0  0  0  0
  -28.3789  -32.6992   25.0314 H   0  0  0  0  0  0
  -28.0769  -31.8471   26.5381 H   0  0  0  0  0  0
  -28.2599  -38.0107   24.7501 H   0  0  0  0  0  0
  -28.1085  -36.2636   24.6293 H   0  0  0  0  0  0
  -27.2299  -37.1460   25.8861 H   0  0  0  0  0  0
  -20.9354  -29.8753   21.6897 H   0  0  0  0  0  0
  -26.0194  -38.2863   24.1402 H   0  0  0  0  0  0
  -30.7290  -19.7827   21.4439 H   0  0  0  0  0  0
  -26.6148  -20.7702   22.2904 H   0  0  0  0  0  0
  -27.7722  -16.6592   21.8874 H   0  0  0  0  0  0
  -29.7590  -22.1429   22.7878 H   0  0  0  0  0  0
  -27.7494  -22.8511   20.6105 H   0  0  0  0  0  0
  -28.9923  -24.5240   22.8701 H   0  0  0  0  0  0
  -28.1898  -25.0278   20.5044 H   0  0  0  0  0  0
  -31.2851  -17.0908   22.0598 H   0  0  0  0  0  0
  -30.9347  -17.2558   20.3648 H   0  0  0  0  0  0
  -29.2157  -15.3084   21.7567 H   0  0  0  0  0  0
  1 25  1  0  0  0
  1 30  2  0  0  0
  1 82  1  0  0  0
  2  3  1  0  0  0
  2 25  1  0  0  0
  2 84  1  0  0  0
  2 85  1  0  0  0
  3  4  1  0  0  0
  3 86  1  0  0  0
  3 87  1  0  0  0
  4  5  1  0  0  0
  4 88  1  0  0  0
  4 89  1  0  0  0
  5  6  1  0  0  0
  5 26  1  0  0  0
  5 90  1  0  0  0
  6 25  1  0  0  0
  6 91  1  0  0  0
  6 92  1  0  0  0
  7  8  2  0  0  0
  7 26  1  0  0  0
  7 29  1  0  0  0
  8  9  1  0  0  0
  8 22  1  0  0  0
  9 10  1  0  0  0
  9 27  2  0  0  0
 10 11  2  0  0  0
 10 15  1  0  0  0
 11 12  1  0  0  0
 11 93  1  0  0  0
 12 13  2  0  0  0
 12 94  1  0  0  0
 13 14  1  0  0  0
 13 31  1  0  0  0
 14 15  2  0  0  0
 14 95  1  0  0  0
 15 96  1  0  0  0
 16 17  2  0  0  0
 16 21  1  0  0  0
 16 31  1  0  0  0
 17 18  1  0  0  0
 17 97  1  0  0  0
 18 19  2  0  0  0
 18 98  1  0  0  0
 19 20  1  0  0  0
 19 24  1  0  0  0
 20 21  2  0  0  0
 20 99  1  0  0  0
 21 23  1  0  0  0
 22 28  1  0  0  0
 22 32  2  0  0  0
 26 27  1  0  0  0
 28100  1  0  0  0
 28101  1  0  0  0
 29102  1  0  0  0
 29103  1  0  0  0
 33 34  1  0  0  0
 33 66  1  0  0  0
 33 70  2  0  0  0
 34 36  1  0  0  0
 34 59  1  0  0  0
 34104  1  0  0  0
 35 44  2  0  0  0
 35 45  1  0  0  0
 35 68  1  0  0  0
 36 56  1  0  0  0
 36105  1  0  0  0
 37 39  1  0  0  0
 37 47  1  0  0  0
 37 66  1  0  0  0
 37106  1  0  0  0
 38 43  2  0  0  0
 38 46  1  0  0  0
 38 47  1  0  0  0
 39 64  1  0  0  0
 39 67  2  0  0  0
 40 52  1  0  0  0
 40 53  2  0  0  0
 40 58  1  0  0  0
 41107  1  0  0  0
 41108  1  0  0  0
 41109  1  0  0  0
 41 48  1  0  0  0
 42 43  1  0  0  0
 42 66  1  0  0  0
 42110  1  0  0  0
 42111  1  0  0  0
 43 44  1  0  0  0
 44112  1  0  0  0
 45 46  2  0  0  0
 45113  1  0  0  0
 46114  1  0  0  0
 47115  1  0  0  0
 47116  1  0  0  0
 48 56  1  0  0  0
 48 65  1  0  0  0
 48117  1  0  0  0
 49 50  1  0  0  0
 49 53  1  0  0  0
 49 64  1  0  0  0
 49118  1  0  0  0
 50 51  1  0  0  0
 50119  1  0  0  0
 50120  1  0  0  0
 51 52  1  0  0  0
 51121  1  0  0  0
 51122  1  0  0  0
 52123  1  0  0  0
 52124  1  0  0  0
 53 54  1  0  0  0
 54 55  2  0  0  0
 54125  1  0  0  0
 55 57  1  0  0  0
 55126  1  0  0  0
 56 69  2  0  0  0
 57 58  2  0  0  0
 57127  1  0  0  0
 58128  1  0  0  0
 59 60  1  0  0  0
 59 61  1  0  0  0
 59 62  1  0  0  0
 60129  1  0  0  0
 60130  1  0  0  0
 60131  1  0  0  0
 61132  1  0  0  0
 61133  1  0  0  0
 61134  1  0  0  0
 62135  1  0  0  0
 62136  1  0  0  0
 62137  1  0  0  0
 63 65  1  0  0  0
 63138  1  0  0  0
 63139  1  0  0  0
 63140  1  0  0  0
 64141  1  0  0  0
 65142  1  0  0  0
 68 80  1  0  0  0
 71 74  2  0  0  0
 71 75  1  0  0  0
 71143  1  0  0  0
 72 74  1  0  0  0
 72 76  2  0  0  0
 72144  1  0  0  0
 73 75  2  0  0  0
 73 76  1  0  0  0
 73145  1  0  0  0
 74 77  1  0  0  0
 75 81  1  0  0  0
 76 83  1  0  0  0
 77 78  2  0  0  0
 77146  1  0  0  0
 78 79  1  0  0  0
 78147  1  0  0  0
 79 80  2  0  0  0
 79148  1  0  0  0
 80149  1  0  0  0
 81 82  1  0  0  0
 81150  1  0  0  0
 81151  1  0  0  0
 82152  1  0  0  0
M  ISO  4   1 100  68 101  80 101  82 100
M  END
> <chiral flag>
0

> <version>
0

> <s_m_source_file>
/data/baiqing/PycharmProjects/Reinvent-master-3.2/result/LINK_invent/BTK/process_docking_weight1_custom_product_contain_oxygen_bond_distance_aromatic_linkinvent_7_9_3/rearranged_h_0119.sdf

> <i_m_source_file_index>
35

> <r_mmod_Potential_Energy-OPLS-2005>
271.083648681641

> <r_mmod_Stretch_Energy-OPLS-2005>
62.4194297790527

> <r_mmod_Bend_Energy-OPLS-2005>
383.806488037109

> <r_mmod_Torsional_Energy-OPLS-2005>
241.569610595703

> <r_mmod_Improper_Torsional_Energy-OPLS-2005>
6.97022581100464

> <r_mmod_Van_der_Waal_Energy-OPLS-2005>
145.20768737793

> <r_mmod_Electrostatic_Energy-OPLS-2005>
-402.432525634766

> <r_mmod_Solvation_Energy-OPLS-2005>
-195.513809204102

> <b_mmod_Minimization_Converged-OPLS-2005>
0

> <r_mmod_RMS_Derivative-OPLS-2005>
6.86472606658936

$$$$
35
                    3D
 Structure written by MMmdl.
157165  0  0  1  0            999 V2000
  -30.6808  -14.5171   20.4799 C   0  0  0  0  0  0
  -30.4202  -12.2996   19.4266 C   0  0  0  0  0  0
  -29.4968  -12.4732   18.2032 C   0  0  0  0  0  0
  -28.0138  -12.3418   18.6087 C   0  0  0  0  0  0
  -27.6536  -13.2050   19.8479 C   0  0  2  0  0  0
  -28.7025  -13.0384   20.9727 C   0  0  0  0  0  0
  -25.2579  -13.8162   20.5662 C   0  0  0  0  0  0
  -24.1858  -13.0463   20.9233 C   0  0  0  0  0  0
  -24.6408  -11.6916   20.8754 C   0  0  0  0  0  0
  -23.9063  -10.4312   21.0393 C   0  0  0  0  0  0
  -24.3614   -9.4219   21.9153 C   0  0  0  0  0  0
  -23.6313   -8.2239   22.0722 C   0  0  0  0  0  0
  -22.4283   -8.0278   21.3527 C   0  0  0  0  0  0
  -21.9920   -9.0246   20.4613 C   0  0  0  0  0  0
  -22.7242  -10.2137   20.3036 C   0  0  0  0  0  0
  -21.6848   -6.0752   22.5291 C   0  0  0  0  0  0
  -21.4007   -6.5654   23.8228 C   0  0  0  0  0  0
  -21.3666   -5.6794   24.9183 C   0  0  0  0  0  0
  -21.6054   -4.3059   24.7225 C   0  0  0  0  0  0
  -21.8821   -3.8159   23.4348 C   0  0  0  0  0  0
  -21.9204   -4.6981   22.3411 C   0  0  0  0  0  0
  -22.7864  -13.5243   21.1866 C   0  0  0  0  0  0
  -22.1665   -4.2175   21.0977 F   0  0  0  0  0  0
  -21.5631   -3.4538   25.7731 F   0  0  0  0  0  0
  -30.0245  -13.3249   20.3997 N   0  0  0  0  0  0
  -26.2983  -12.9328   20.3223 N   0  0  0  0  0  0
  -25.9321  -11.6500   20.5723 N   0  0  0  0  0  0
  -22.0503  -12.8235   22.0404 N   0  0  0  0  0  0
  -25.4288  -15.1887   20.4014 N   0  0  0  0  0  0
  -31.8610  -14.6398   20.1476 O   0  0  0  0  0  0
  -21.6644   -6.8883   21.4239 O   0  0  0  0  0  0
  -22.3549  -14.5555   20.6705 O   0  0  0  0  0  0
  -24.6183  -31.8598   23.1946 C   0  0  0  0  0  0
  -25.9044  -32.4755   23.8271 C   0  0  1  0  0  0
  -27.2805  -27.4034   20.0901 C   0  0  0  0  0  0
  -25.5845  -33.8542   24.2232 N   0  0  0  0  0  0
  -23.4120  -30.4746   21.5342 C   0  0  2  0  0  0
  -24.8711  -28.9243   20.1110 C   0  0  0  0  0  0
  -22.7425  -29.4596   22.4895 C   0  0  0  0  0  0
  -18.0275  -28.1349   22.8470 C   0  0  0  0  0  0
  -24.1498  -36.7301   23.2654 C   0  0  0  0  0  0
  -25.9427  -30.8171   21.3459 C   0  0  0  0  0  0
  -26.0271  -29.4437   20.7029 C   0  0  0  0  0  0
  -27.2263  -28.6900   20.6878 C   0  0  0  0  0  0
  -26.0967  -26.8955   19.5075 C   0  0  0  0  0  0
  -24.9029  -27.6505   19.5118 C   0  0  0  0  0  0
  -23.6259  -29.7864   20.1566 C   0  0  0  0  0  0
  -25.4122  -36.3064   24.0356 C   0  0  1  0  0  0
  -20.5875  -28.3630   23.1281 C   0  0  2  0  0  0
  -20.6765  -26.9335   22.5426 C   0  0  0  0  0  0
  -19.5744  -26.6340   21.5221 C   0  0  0  0  0  0
  -18.1904  -26.7882   22.1617 C   0  0  0  0  0  0
  -19.1525  -28.8805   23.2868 C   0  0  0  0  0  0
  -18.9467  -30.1414   23.8855 C   0  0  0  0  0  0
  -17.6465  -30.6554   24.0533 C   0  0  0  0  0  0
  -25.9059  -34.9431   23.5129 C   0  0  0  0  0  0
  -16.5350  -29.9072   23.6322 C   0  0  0  0  0  0
  -16.7261  -28.6510   23.0317 C   0  0  0  0  0  0
  -26.4472  -31.6548   25.0593 C   0  0  0  0  0  0
  -25.3756  -31.3655   26.1357 C   0  0  0  0  0  0
  -27.0338  -30.3007   24.5956 C   0  0  0  0  0  0
  -27.6009  -32.4318   25.7335 C   0  0  0  0  0  0
  -27.5578  -37.1801   24.8465 C   0  0  0  0  0  0
  -21.4142  -29.3001   22.3674 N   0  0  0  0  0  0
  -26.4291  -37.3772   23.9430 N   0  0  0  0  0  0
  -24.6755  -31.0678   22.0840 N   0  0  0  0  0  0
  -23.4188  -28.8147   23.2948 O   0  0  0  0  0  0
  -28.4910  -26.7168   20.1152 O   0  0  0  0  0  0
  -26.5657  -34.8899   22.4705 O   0  0  0  0  0  0
  -23.5380  -32.1336   23.7360 O   0  0  0  0  0  0
  -30.7359  -19.7754   21.1183 C   0  0  0  0  0  0
  -29.2089  -17.9683   20.5739 C   0  0  0  0  0  0
  -31.4895  -17.4432   21.2145 C   0  0  0  0  0  0
  -29.4467  -19.3681   20.7188 C   0  0  0  0  0  0
  -31.7456  -18.8222   21.3790 C   0  0  0  0  0  0
  -30.2139  -16.9909   20.8089 C   0  0  0  0  0  0
  -28.3154  -20.3098   20.4523 C   0  0  0  0  0  0
  -28.1688  -21.6456   20.2237 C   0  0  0  0  0  0
  -33.1145  -19.2773   21.8429 C   0  0  0  0  0  0
  -29.1441  -22.8240   20.0715 C   0  0  0  0  0  0
  -28.5574  -24.2167   20.5162 C   0  0  0  0  0  0
  -28.7015  -25.4110   19.5168 C   0  0  0  0  0  0
  -29.8792  -15.5914   20.6836 N   0  0  0  0  0  0
  -31.4657  -12.3848   19.1271 H   0  0  0  0  0  0
  -30.3151  -11.3033   19.8635 H   0  0  0  0  0  0
  -29.7433  -11.7365   17.4374 H   0  0  0  0  0  0
  -29.6645  -13.4529   17.7540 H   0  0  0  0  0  0
  -27.8159  -11.2903   18.8186 H   0  0  0  0  0  0
  -27.3748  -12.6072   17.7646 H   0  0  0  0  0  0
  -27.6809  -14.2382   19.5005 H   0  0  0  0  0  0
  -28.6831  -12.0238   21.3757 H   0  0  0  0  0  0
  -28.4802  -13.7010   21.8100 H   0  0  0  0  0  0
  -25.2757   -9.5732   22.4720 H   0  0  0  0  0  0
  -24.0049   -7.4650   22.7453 H   0  0  0  0  0  0
  -21.0854   -8.8780   19.8916 H   0  0  0  0  0  0
  -22.3694  -10.9678   19.6150 H   0  0  0  0  0  0
  -21.1973   -7.6149   23.9752 H   0  0  0  0  0  0
  -21.1474   -6.0502   25.9095 H   0  0  0  0  0  0
  -22.0587   -2.7627   23.2840 H   0  0  0  0  0  0
  -22.4110  -11.9901   22.4804 H   0  0  0  0  0  0
  -21.1085  -13.1189   22.2543 H   0  0  0  0  0  0
  -24.6638  -15.8421   20.5318 H   0  0  0  0  0  0
  -26.2501  -15.6219   20.0018 H   0  0  0  0  0  0
  -26.7109  -32.5443   23.1025 H   0  0  0  0  0  0
  -24.9753  -33.9637   25.0210 H   0  0  0  0  0  0
  -22.7056  -31.2925   21.3820 H   0  0  0  0  0  0
  -23.3719  -35.9665   23.3302 H   0  0  0  0  0  0
  -24.3537  -36.8933   22.2055 H   0  0  0  0  0  0
  -23.7330  -37.6541   23.6678 H   0  0  0  0  0  0
  -26.0559  -31.5720   20.5651 H   0  0  0  0  0  0
  -26.8318  -30.8766   21.9628 H   0  0  0  0  0  0
  -28.1199  -29.0941   21.1439 H   0  0  0  0  0  0
  -26.0776  -25.9127   19.0585 H   0  0  0  0  0  0
  -24.0138  -27.2316   19.0619 H   0  0  0  0  0  0
  -23.7230  -30.5538   19.3865 H   0  0  0  0  0  0
  -22.7583  -29.1871   19.8690 H   0  0  0  0  0  0
  -25.1310  -36.1884   25.0857 H   0  0  0  0  0  0
  -20.9960  -28.3196   24.1410 H   0  0  0  0  0  0
  -20.5686  -26.2199   23.3616 H   0  0  0  0  0  0
  -21.6624  -26.7349   22.1192 H   0  0  0  0  0  0
  -19.6887  -25.6276   21.1199 H   0  0  0  0  0  0
  -19.6701  -27.3182   20.6776 H   0  0  0  0  0  0
  -17.4188  -26.6618   21.4001 H   0  0  0  0  0  0
  -18.0288  -26.0031   22.9021 H   0  0  0  0  0  0
  -19.7964  -30.7221   24.2190 H   0  0  0  0  0  0
  -17.5056  -31.6244   24.5119 H   0  0  0  0  0  0
  -15.5362  -30.2968   23.7704 H   0  0  0  0  0  0
  -15.8642  -28.0856   22.7004 H   0  0  0  0  0  0
  -24.5902  -30.7032   25.7724 H   0  0  0  0  0  0
  -24.8951  -32.2791   26.4843 H   0  0  0  0  0  0
  -25.8123  -30.8809   27.0091 H   0  0  0  0  0  0
  -26.2886  -29.6679   24.1131 H   0  0  0  0  0  0
  -27.4266  -29.7324   25.4390 H   0  0  0  0  0  0
  -27.8604  -30.4303   23.8956 H   0  0  0  0  0  0
  -27.2584  -33.3629   26.1859 H   0  0  0  0  0  0
  -28.3792  -32.6874   25.0146 H   0  0  0  0  0  0
  -28.0669  -31.8476   26.5271 H   0  0  0  0  0  0
  -28.2599  -38.0095   24.7495 H   0  0  0  0  0  0
  -28.1067  -36.2618   24.6296 H   0  0  0  0  0  0
  -27.2256  -37.1460   25.8856 H   0  0  0  0  0  0
  -20.9317  -29.8695   21.6857 H   0  0  0  0  0  0
  -26.0157  -38.2839   24.1448 H   0  0  0  0  0  0
  -30.9561  -20.8197   21.2691 H   0  0  0  0  0  0
  -28.2294  -17.6351   20.2687 H   0  0  0  0  0  0
  -32.2841  -16.7415   21.4230 H   0  0  0  0  0  0
  -27.3666  -19.7887   20.4531 H   0  0  0  0  0  0
  -27.1406  -21.9479   20.0815 H   0  0  0  0  0  0
  -33.0921  -20.3082   22.2022 H   0  0  0  0  0  0
  -33.8217  -19.2164   21.0157 H   0  0  0  0  0  0
  -33.4792  -18.6501   22.6571 H   0  0  0  0  0  0
  -30.0692  -22.6258   20.6058 H   0  0  0  0  0  0
  -29.4055  -22.8759   19.0140 H   0  0  0  0  0  0
  -29.0491  -24.4954   21.4495 H   0  0  0  0  0  0
  -27.4989  -24.1226   20.7558 H   0  0  0  0  0  0
  -29.7331  -25.4181   19.1575 H   0  0  0  0  0  0
  -28.1099  -25.2581   18.6161 H   0  0  0  0  0  0
  -28.8954  -15.3714   20.6940 H   0  0  0  0  0  0
  1 25  1  0  0  0
  1 30  2  0  0  0
  1 83  1  0  0  0
  2  3  1  0  0  0
  2 25  1  0  0  0
  2 84  1  0  0  0
  2 85  1  0  0  0
  3  4  1  0  0  0
  3 86  1  0  0  0
  3 87  1  0  0  0
  4  5  1  0  0  0
  4 88  1  0  0  0
  4 89  1  0  0  0
  5  6  1  0  0  0
  5 26  1  0  0  0
  5 90  1  0  0  0
  6 25  1  0  0  0
  6 91  1  0  0  0
  6 92  1  0  0  0
  7  8  2  0  0  0
  7 26  1  0  0  0
  7 29  1  0  0  0
  8  9  1  0  0  0
  8 22  1  0  0  0
  9 10  1  0  0  0
  9 27  2  0  0  0
 10 11  2  0  0  0
 10 15  1  0  0  0
 11 12  1  0  0  0
 11 93  1  0  0  0
 12 13  2  0  0  0
 12 94  1  0  0  0
 13 14  1  0  0  0
 13 31  1  0  0  0
 14 15  2  0  0  0
 14 95  1  0  0  0
 15 96  1  0  0  0
 16 17  2  0  0  0
 16 21  1  0  0  0
 16 31  1  0  0  0
 17 18  1  0  0  0
 17 97  1  0  0  0
 18 19  2  0  0  0
 18 98  1  0  0  0
 19 20  1  0  0  0
 19 24  1  0  0  0
 20 21  2  0  0  0
 20 99  1  0  0  0
 21 23  1  0  0  0
 22 28  1  0  0  0
 22 32  2  0  0  0
 26 27  1  0  0  0
 28100  1  0  0  0
 28101  1  0  0  0
 29102  1  0  0  0
 29103  1  0  0  0
 33 34  1  0  0  0
 33 66  1  0  0  0
 33 70  2  0  0  0
 34 36  1  0  0  0
 34 59  1  0  0  0
 34104  1  0  0  0
 35 44  2  0  0  0
 35 45  1  0  0  0
 35 68  1  0  0  0
 36 56  1  0  0  0
 36105  1  0  0  0
 37 39  1  0  0  0
 37 47  1  0  0  0
 37 66  1  0  0  0
 37106  1  0  0  0
 38 43  2  0  0  0
 38 46  1  0  0  0
 38 47  1  0  0  0
 39 64  1  0  0  0
 39 67  2  0  0  0
 40 52  1  0  0  0
 40 53  2  0  0  0
 40 58  1  0  0  0
 41107  1  0  0  0
 41108  1  0  0  0
 41109  1  0  0  0
 41 48  1  0  0  0
 42 43  1  0  0  0
 42 66  1  0  0  0
 42110  1  0  0  0
 42111  1  0  0  0
 43 44  1  0  0  0
 44112  1  0  0  0
 45 46  2  0  0  0
 45113  1  0  0  0
 46114  1  0  0  0
 47115  1  0  0  0
 47116  1  0  0  0
 48 56  1  0  0  0
 48 65  1  0  0  0
 48117  1  0  0  0
 49 50  1  0  0  0
 49 53  1  0  0  0
 49 64  1  0  0  0
 49118  1  0  0  0
 50 51  1  0  0  0
 50119  1  0  0  0
 50120  1  0  0  0
 51 52  1  0  0  0
 51121  1  0  0  0
 51122  1  0  0  0
 52123  1  0  0  0
 52124  1  0  0  0
 53 54  1  0  0  0
 54 55  2  0  0  0
 54125  1  0  0  0
 55 57  1  0  0  0
 55126  1  0  0  0
 56 69  2  0  0  0
 57 58  2  0  0  0
 57127  1  0  0  0
 58128  1  0  0  0
 59 60  1  0  0  0
 59 61  1  0  0  0
 59 62  1  0  0  0
 60129  1  0  0  0
 60130  1  0  0  0
 60131  1  0  0  0
 61132  1  0  0  0
 61133  1  0  0  0
 61134  1  0  0  0
 62135  1  0  0  0
 62136  1  0  0  0
 62137  1  0  0  0
 63 65  1  0  0  0
 63138  1  0  0  0
 63139  1  0  0  0
 63140  1  0  0  0
 64141  1  0  0  0
 65142  1  0  0  0
 68 82  1  0  0  0
 71 74  2  0  0  0
 71 75  1  0  0  0
 71143  1  0  0  0
 72 74  1  0  0  0
 72 76  2  0  0  0
 72144  1  0  0  0
 73 75  2  0  0  0
 73 76  1  0  0  0
 73145  1  0  0  0
 74 77  1  0  0  0
 75 79  1  0  0  0
 76 83  1  0  0  0
 77 78  2  0  0  0
 77146  1  0  0  0
 78 80  1  0  0  0
 78147  1  0  0  0
 79148  1  0  0  0
 79149  1  0  0  0
 79150  1  0  0  0
 80 81  1  0  0  0
 80151  1  0  0  0
 80152  1  0  0  0
 81 82  1  0  0  0
 81153  1  0  0  0
 81154  1  0  0  0
 82155  1  0  0  0
 82156  1  0  0  0
 83157  1  0  0  0
M  ISO  4   1 100  68 101  82 101  83 100
M  END
> <chiral flag>
0

> <version>
0

> <s_m_source_file>
/data/baiqing/PycharmProjects/Reinvent-master-3.2/result/LINK_invent/BTK/process_docking_weight1_custom_product_contain_oxygen_bond_distance_aromatic_linkinvent_7_9_3/rearranged_h_0119.sdf

> <i_m_source_file_index>
36

> <r_mmod_Potential_Energy-OPLS-2005>
45.8922233581543

> <r_mmod_Stretch_Energy-OPLS-2005>
49.5810089111328

> <r_mmod_Bend_Energy-OPLS-2005>
146.673873901367

> <r_mmod_Torsional_Energy-OPLS-2005>
220.816741943359

> <r_mmod_Improper_Torsional_Energy-OPLS-2005>
6.86763572692871

> <r_mmod_Van_der_Waal_Energy-OPLS-2005>
146.279846191406

> <r_mmod_Electrostatic_Energy-OPLS-2005>
-344.738891601562

> <r_mmod_Solvation_Energy-OPLS-2005>
-203.217987060547

> <b_mmod_Minimization_Converged-OPLS-2005>
0

> <r_mmod_RMS_Derivative-OPLS-2005>
4.87523412704468

$$$$
36
                    3D
 Structure written by MMmdl.
154162  0  0  1  0            999 V2000
  -30.5066  -15.0804   20.3993 C   0  0  0  0  0  0
  -30.4405  -12.6658   19.5405 C   0  0  0  0  0  0
  -29.5389  -12.5513   18.2869 C   0  0  0  0  0  0
  -28.0731  -12.3167   18.6936 C   0  0  0  0  0  0
  -27.6283  -13.2637   19.8381 C   0  0  2  0  0  0
  -28.6602  -13.3472   20.9833 C   0  0  0  0  0  0
  -25.2464  -13.8245   20.5721 C   0  0  0  0  0  0
  -24.1784  -13.0455   20.9206 C   0  0  0  0  0  0
  -24.6413  -11.6940   20.8726 C   0  0  0  0  0  0
  -23.9094  -10.4305   21.0383 C   0  0  0  0  0  0
  -24.3633   -9.4222   21.9175 C   0  0  0  0  0  0
  -23.6302   -8.2258   22.0757 C   0  0  0  0  0  0
  -22.4283   -8.0292   21.3547 C   0  0  0  0  0  0
  -21.9918   -9.0263   20.4648 C   0  0  0  0  0  0
  -22.7254  -10.2141   20.3053 C   0  0  0  0  0  0
  -21.6855   -6.0743   22.5274 C   0  0  0  0  0  0
  -21.4016   -6.5644   23.8210 C   0  0  0  0  0  0
  -21.3661   -5.6794   24.9169 C   0  0  0  0  0  0
  -21.6047   -4.3058   24.7216 C   0  0  0  0  0  0
  -21.8821   -3.8151   23.4336 C   0  0  0  0  0  0
  -21.9192   -4.6969   22.3395 C   0  0  0  0  0  0
  -22.7800  -13.5216   21.1855 C   0  0  0  0  0  0
  -22.1658   -4.2157   21.0971 F   0  0  0  0  0  0
  -21.5624   -3.4541   25.7725 F   0  0  0  0  0  0
  -29.9327  -13.7911   20.3977 N   0  0  0  0  0  0
  -26.2893  -12.9505   20.3235 N   0  0  0  0  0  0
  -25.9357  -11.6619   20.5723 N   0  0  0  0  0  0
  -22.0451  -12.8216   22.0416 N   0  0  0  0  0  0
  -25.4138  -15.1977   20.4187 N   0  0  0  0  0  0
  -31.6915  -15.0972   20.0439 O   0  0  0  0  0  0
  -21.6647   -6.8887   21.4242 O   0  0  0  0  0  0
  -22.3482  -14.5514   20.6687 O   0  0  0  0  0  0
  -24.6524  -31.8348   23.1817 C   0  0  0  0  0  0
  -25.9257  -32.4651   23.8237 C   0  0  1  0  0  0
  -27.2233  -27.0508   20.1624 C   0  0  0  0  0  0
  -25.5967  -33.8460   24.2153 N   0  0  0  0  0  0
  -23.4622  -30.4516   21.5259 C   0  0  2  0  0  0
  -24.9173  -28.8670   20.1017 C   0  0  0  0  0  0
  -22.7620  -29.4495   22.4799 C   0  0  0  0  0  0
  -18.0319  -28.1397   22.8469 C   0  0  0  0  0  0
  -24.1489  -36.7232   23.2644 C   0  0  0  0  0  0
  -26.0233  -30.6813   21.3947 C   0  0  0  0  0  0
  -26.0946  -29.2848   20.7348 C   0  0  0  0  0  0
  -27.2425  -28.3912   20.7537 C   0  0  0  0  0  0
  -26.0196  -26.7581   19.4817 C   0  0  0  0  0  0
  -24.8981  -27.6206   19.4568 C   0  0  0  0  0  0
  -23.6951  -29.7768   20.1464 C   0  0  0  0  0  0
  -25.4127  -36.3009   24.0314 C   0  0  1  0  0  0
  -20.5937  -28.3734   23.1198 C   0  0  2  0  0  0
  -20.6795  -26.9420   22.5400 C   0  0  0  0  0  0
  -19.5763  -26.6355   21.5220 C   0  0  0  0  0  0
  -18.1947  -26.7926   22.1636 C   0  0  0  0  0  0
  -19.1580  -28.8888   23.2821 C   0  0  0  0  0  0
  -18.9492  -30.1481   23.8855 C   0  0  0  0  0  0
  -17.6489  -30.6592   24.0561 C   0  0  0  0  0  0
  -25.9080  -34.9383   23.5047 C   0  0  0  0  0  0
  -16.5380  -29.9082   23.6339 C   0  0  0  0  0  0
  -16.7305  -28.6504   23.0352 C   0  0  0  0  0  0
  -26.4554  -31.6549   25.0712 C   0  0  0  0  0  0
  -25.3713  -31.3760   26.1390 C   0  0  0  0  0  0
  -27.0441  -30.2934   24.6357 C   0  0  0  0  0  0
  -27.6063  -32.4342   25.7500 C   0  0  0  0  0  0
  -27.5574  -37.1775   24.8466 C   0  0  0  0  0  0
  -21.4300  -29.3048   22.3559 N   0  0  0  0  0  0
  -26.4281  -37.3732   23.9413 N   0  0  0  0  0  0
  -24.7327  -31.0127   22.0887 N   0  0  0  0  0  0
  -23.4216  -28.8048   23.2992 O   0  0  0  0  0  0
  -28.2047  -25.9751   20.3299 O   0  0  0  0  0  0
  -26.5668  -34.8893   22.4628 O   0  0  0  0  0  0
  -23.5620  -32.1259   23.6986 O   0  0  0  0  0  0
  -28.6655  -22.0253   21.8079 C   0  0  0  0  0  0
  -28.7796  -20.8717   22.6231 C   0  0  0  0  0  0
  -29.2088  -20.5611   19.9631 C   0  0  0  0  0  0
  -28.8343  -21.9643   20.4148 C   0  0  0  0  0  0
  -29.3894  -19.3002   20.7759 C   0  0  0  0  0  0
  -29.1035  -19.5662   22.1480 C   0  0  0  0  0  0
  -27.3425  -22.8431   17.3968 C   0  0  0  0  0  0
  -29.9196  -17.7902   20.3440 C   0  0  0  0  0  0
  -28.4597  -22.8158   18.1442 C   0  0  0  0  0  0
  -29.7339  -16.4166   20.7651 C   0  0  0  0  0  0
  -28.2669  -24.7396   19.5174 C   0  0  0  0  0  0
  -28.5288  -23.3006   19.5147 C   0  0  0  0  0  0
  -29.1828  -18.4631   23.1913 C   0  0  0  0  0  0
  -31.4753  -12.8181   19.2317 H   0  0  0  0  0  0
  -30.4426  -11.7284   20.0998 H   0  0  0  0  0  0
  -29.8832  -11.7406   17.6435 H   0  0  0  0  0  0
  -29.6190  -13.4664   17.6979 H   0  0  0  0  0  0
  -27.9831  -11.2790   19.0171 H   0  0  0  0  0  0
  -27.4150  -12.4208   17.8302 H   0  0  0  0  0  0
  -27.5785  -14.2566   19.3892 H   0  0  0  0  0  0
  -28.7698  -12.3870   21.4899 H   0  0  0  0  0  0
  -28.3278  -14.0548   21.7427 H   0  0  0  0  0  0
  -25.2774   -9.5698   22.4759 H   0  0  0  0  0  0
  -24.0002   -7.4657   22.7491 H   0  0  0  0  0  0
  -21.0845   -8.8787   19.8957 H   0  0  0  0  0  0
  -22.3708  -10.9678   19.6166 H   0  0  0  0  0  0
  -21.2015   -7.6153   23.9711 H   0  0  0  0  0  0
  -21.1477   -6.0523   25.9070 H   0  0  0  0  0  0
  -22.0598   -2.7613   23.2833 H   0  0  0  0  0  0
  -22.4066  -11.9883   22.4816 H   0  0  0  0  0  0
  -21.1065  -13.1237   22.2611 H   0  0  0  0  0  0
  -24.6492  -15.8514   20.5452 H   0  0  0  0  0  0
  -26.2676  -15.6422   20.1046 H   0  0  0  0  0  0
  -26.7327  -32.5237   23.0959 H   0  0  0  0  0  0
  -25.0105  -33.9557   25.0298 H   0  0  0  0  0  0
  -22.7701  -31.2810   21.3657 H   0  0  0  0  0  0
  -23.3762  -35.9550   23.3283 H   0  0  0  0  0  0
  -24.3565  -36.8887   22.2060 H   0  0  0  0  0  0
  -23.7228  -37.6414   23.6697 H   0  0  0  0  0  0
  -26.1890  -31.4304   20.6194 H   0  0  0  0  0  0
  -26.8893  -30.7340   22.0430 H   0  0  0  0  0  0
  -28.1271  -28.6956   21.2961 H   0  0  0  0  0  0
  -25.8975  -25.7911   19.0164 H   0  0  0  0  0  0
  -23.9984  -27.2929   18.9539 H   0  0  0  0  0  0
  -23.8356  -30.5504   19.3901 H   0  0  0  0  0  0
  -22.8082  -29.2214   19.8352 H   0  0  0  0  0  0
  -25.1320  -36.1824   25.0806 H   0  0  0  0  0  0
  -21.0035  -28.3345   24.1317 H   0  0  0  0  0  0
  -20.5682  -26.2360   23.3643 H   0  0  0  0  0  0
  -21.6667  -26.7396   22.1223 H   0  0  0  0  0  0
  -19.6922  -25.6249   21.1281 H   0  0  0  0  0  0
  -19.6690  -27.3134   20.6724 H   0  0  0  0  0  0
  -17.4212  -26.6670   21.4042 H   0  0  0  0  0  0
  -18.0330  -26.0081   22.9047 H   0  0  0  0  0  0
  -19.7967  -30.7312   24.2200 H   0  0  0  0  0  0
  -17.5038  -31.6263   24.5179 H   0  0  0  0  0  0
  -15.5380  -30.2977   23.7688 H   0  0  0  0  0  0
  -15.8699  -28.0825   22.7082 H   0  0  0  0  0  0
  -24.5909  -30.7092   25.7704 H   0  0  0  0  0  0
  -24.8886  -32.2945   26.4731 H   0  0  0  0  0  0
  -25.7977  -30.8985   27.0218 H   0  0  0  0  0  0
  -26.3086  -29.6632   24.1345 H   0  0  0  0  0  0
  -27.3998  -29.7268   25.4972 H   0  0  0  0  0  0
  -27.9013  -30.4149   23.9734 H   0  0  0  0  0  0
  -27.2646  -33.3678   26.1980 H   0  0  0  0  0  0
  -28.3920  -32.6850   25.0361 H   0  0  0  0  0  0
  -28.0680  -31.8533   26.5492 H   0  0  0  0  0  0
  -28.2587  -38.0079   24.7523 H   0  0  0  0  0  0
  -28.1079  -36.2608   24.6289 H   0  0  0  0  0  0
  -27.2286  -37.1413   25.8868 H   0  0  0  0  0  0
  -20.9520  -29.8778   21.6745 H   0  0  0  0  0  0
  -26.0141  -38.2793   24.1427 H   0  0  0  0  0  0
  -28.3993  -22.9679   22.2665 H   0  0  0  0  0  0
  -28.6058  -21.0097   23.6818 H   0  0  0  0  0  0
  -29.3779  -20.4325   18.9045 H   0  0  0  0  0  0
  -27.3444  -22.4755   16.3806 H   0  0  0  0  0  0
  -26.4109  -23.2289   17.7864 H   0  0  0  0  0  0
  -30.6820  -17.8703   19.5814 H   0  0  0  0  0  0
  -29.3620  -22.4207   17.6973 H   0  0  0  0  0  0
  -28.9618  -16.2705   21.5027 H   0  0  0  0  0  0
  -28.0847  -25.1220   18.5216 H   0  0  0  0  0  0
  -30.1354  -17.9353   23.1357 H   0  0  0  0  0  0
  -28.3673  -17.7535   23.0531 H   0  0  0  0  0  0
  -29.0905  -18.8562   24.2044 H   0  0  0  0  0  0
  1 25  1  0  0  0
  1 30  2  0  0  0
  1 80  1  0  0  0
  2  3  1  0  0  0
  2 25  1  0  0  0
  2 84  1  0  0  0
  2 85  1  0  0  0
  3  4  1  0  0  0
  3 86  1  0  0  0
  3 87  1  0  0  0
  4  5  1  0  0  0
  4 88  1  0  0  0
  4 89  1  0  0  0
  5  6  1  0  0  0
  5 26  1  0  0  0
  5 90  1  0  0  0
  6 25  1  0  0  0
  6 91  1  0  0  0
  6 92  1  0  0  0
  7  8  2  0  0  0
  7 26  1  0  0  0
  7 29  1  0  0  0
  8  9  1  0  0  0
  8 22  1  0  0  0
  9 10  1  0  0  0
  9 27  2  0  0  0
 10 11  2  0  0  0
 10 15  1  0  0  0
 11 12  1  0  0  0
 11 93  1  0  0  0
 12 13  2  0  0  0
 12 94  1  0  0  0
 13 14  1  0  0  0
 13 31  1  0  0  0
 14 15  2  0  0  0
 14 95  1  0  0  0
 15 96  1  0  0  0
 16 17  2  0  0  0
 16 21  1  0  0  0
 16 31  1  0  0  0
 17 18  1  0  0  0
 17 97  1  0  0  0
 18 19  2  0  0  0
 18 98  1  0  0  0
 19 20  1  0  0  0
 19 24  1  0  0  0
 20 21  2  0  0  0
 20 99  1  0  0  0
 21 23  1  0  0  0
 22 28  1  0  0  0
 22 32  2  0  0  0
 26 27  1  0  0  0
 28100  1  0  0  0
 28101  1  0  0  0
 29102  1  0  0  0
 29103  1  0  0  0
 33 34  1  0  0  0
 33 66  1  0  0  0
 33 70  2  0  0  0
 34 36  1  0  0  0
 34 59  1  0  0  0
 34104  1  0  0  0
 35 44  2  0  0  0
 35 45  1  0  0  0
 35 68  1  0  0  0
 36 56  1  0  0  0
 36105  1  0  0  0
 37 39  1  0  0  0
 37 47  1  0  0  0
 37 66  1  0  0  0
 37106  1  0  0  0
 38 43  2  0  0  0
 38 46  1  0  0  0
 38 47  1  0  0  0
 39 64  1  0  0  0
 39 67  2  0  0  0
 40 52  1  0  0  0
 40 53  2  0  0  0
 40 58  1  0  0  0
 41107  1  0  0  0
 41108  1  0  0  0
 41109  1  0  0  0
 41 48  1  0  0  0
 42 43  1  0  0  0
 42 66  1  0  0  0
 42110  1  0  0  0
 42111  1  0  0  0
 43 44  1  0  0  0
 44112  1  0  0  0
 45 46  2  0  0  0
 45113  1  0  0  0
 46114  1  0  0  0
 47115  1  0  0  0
 47116  1  0  0  0
 48 56  1  0  0  0
 48 65  1  0  0  0
 48117  1  0  0  0
 49 50  1  0  0  0
 49 53  1  0  0  0
 49 64  1  0  0  0
 49118  1  0  0  0
 50 51  1  0  0  0
 50119  1  0  0  0
 50120  1  0  0  0
 51 52  1  0  0  0
 51121  1  0  0  0
 51122  1  0  0  0
 52123  1  0  0  0
 52124  1  0  0  0
 53 54  1  0  0  0
 54 55  2  0  0  0
 54125  1  0  0  0
 55 57  1  0  0  0
 55126  1  0  0  0
 56 69  2  0  0  0
 57 58  2  0  0  0
 57127  1  0  0  0
 58128  1  0  0  0
 59 60  1  0  0  0
 59 61  1  0  0  0
 59 62  1  0  0  0
 60129  1  0  0  0
 60130  1  0  0  0
 60131  1  0  0  0
 61132  1  0  0  0
 61133  1  0  0  0
 61134  1  0  0  0
 62135  1  0  0  0
 62136  1  0  0  0
 62137  1  0  0  0
 63 65  1  0  0  0
 63138  1  0  0  0
 63139  1  0  0  0
 63140  1  0  0  0
 64141  1  0  0  0
 65142  1  0  0  0
 68 81  1  0  0  0
 71 72  2  0  0  0
 71 74  1  0  0  0
 71143  1  0  0  0
 72 76  1  0  0  0
 72144  1  0  0  0
 73 74  2  0  0  0
 73 75  1  0  0  0
 73145  1  0  0  0
 74 82  1  0  0  0
 75 76  2  0  0  0
 75 78  1  0  0  0
 76 83  1  0  0  0
 77 79  2  0  0  0
 77146  1  0  0  0
 77147  1  0  0  0
 78 80  2  0  0  0
 78148  1  0  0  0
 79 82  1  0  0  0
 79149  1  0  0  0
 80150  1  0  0  0
 81 82  2  0  0  0
 81151  1  0  0  0
 83152  1  0  0  0
 83153  1  0  0  0
 83154  1  0  0  0
M  ISO  4   1 100  68 101  80 100  81 101
M  END
> <chiral flag>
0

> <version>
0

> <s_m_source_file>
/data/baiqing/PycharmProjects/Reinvent-master-3.2/result/LINK_invent/BTK/process_docking_weight1_custom_product_contain_oxygen_bond_distance_aromatic_linkinvent_7_9_3/rearranged_h_0119.sdf

> <i_m_source_file_index>
37

> <r_mmod_Potential_Energy-OPLS-2005>
879.838562011719

> <r_mmod_Stretch_Energy-OPLS-2005>
357.926910400391

> <r_mmod_Bend_Energy-OPLS-2005>
388.782958984375

> <r_mmod_Torsional_Energy-OPLS-2005>
211.890380859375

> <r_mmod_Improper_Torsional_Energy-OPLS-2005>
4.38751173019409

> <r_mmod_Van_der_Waal_Energy-OPLS-2005>
142.71337890625

> <r_mmod_Electrostatic_Energy-OPLS-2005>
-330.287872314453

> <r_mmod_Solvation_Energy-OPLS-2005>
-191.518005371094

> <b_mmod_Minimization_Converged-OPLS-2005>
0

> <r_mmod_RMS_Derivative-OPLS-2005>
1.17386817932129

$$$$
37
                    3D
 Structure written by MMmdl.
159167  0  0  1  0            999 V2000
  -30.6172  -14.6974   20.4806 C   0  0  0  0  0  0
  -30.4404  -12.4252   19.4621 C   0  0  0  0  0  0
  -29.5106  -12.5053   18.2303 C   0  0  0  0  0  0
  -28.0353  -12.3332   18.6434 C   0  0  0  0  0  0
  -27.6467  -13.2173   19.8575 C   0  0  2  0  0  0
  -28.6954  -13.1157   20.9890 C   0  0  0  0  0  0
  -25.2440  -13.7918   20.5589 C   0  0  0  0  0  0
  -24.1766  -13.0248   20.9230 C   0  0  0  0  0  0
  -24.6405  -11.6767   20.8796 C   0  0  0  0  0  0
  -23.9076  -10.4188   21.0436 C   0  0  0  0  0  0
  -24.3618   -9.4114   21.9216 C   0  0  0  0  0  0
  -23.6275   -8.2170   22.0774 C   0  0  0  0  0  0
  -22.4260   -8.0242   21.3551 C   0  0  0  0  0  0
  -21.9903   -9.0217   20.4651 C   0  0  0  0  0  0
  -22.7255  -10.2075   20.3067 C   0  0  0  0  0  0
  -21.6830   -6.0722   22.5285 C   0  0  0  0  0  0
  -21.3997   -6.5631   23.8218 C   0  0  0  0  0  0
  -21.3655   -5.6786   24.9184 C   0  0  0  0  0  0
  -21.6042   -4.3050   24.7232 C   0  0  0  0  0  0
  -21.8820   -3.8139   23.4353 C   0  0  0  0  0  0
  -21.9184   -4.6953   22.3409 C   0  0  0  0  0  0
  -22.7804  -13.5105   21.1876 C   0  0  0  0  0  0
  -22.1657   -4.2143   21.0986 F   0  0  0  0  0  0
  -21.5630   -3.4534   25.7745 F   0  0  0  0  0  0
  -30.0060  -13.4666   20.4178 N   0  0  0  0  0  0
  -26.2959  -12.9226   20.3302 N   0  0  0  0  0  0
  -25.9350  -11.6385   20.5811 N   0  0  0  0  0  0
  -22.0428  -12.8149   22.0451 N   0  0  0  0  0  0
  -25.3870  -15.1518   20.3731 N   0  0  0  0  0  0
  -31.7924  -14.8306   20.1263 O   0  0  0  0  0  0
  -21.6607   -6.8857   21.4247 O   0  0  0  0  0  0
  -22.3529  -14.5435   20.6725 O   0  0  0  0  0  0
  -24.6259  -31.8583   23.2014 C   0  0  0  0  0  0
  -25.9099  -32.4772   23.8346 C   0  0  1  0  0  0
  -27.2405  -27.3250   20.1169 C   0  0  0  0  0  0
  -25.5922  -33.8571   24.2281 N   0  0  0  0  0  0
  -23.4200  -30.4812   21.5431 C   0  0  2  0  0  0
  -24.8694  -28.9332   20.1124 C   0  0  0  0  0  0
  -22.7474  -29.4615   22.4928 C   0  0  0  0  0  0
  -18.0293  -28.1376   22.8484 C   0  0  0  0  0  0
  -24.1487  -36.7289   23.2640 C   0  0  0  0  0  0
  -25.9601  -30.7917   21.3701 C   0  0  0  0  0  0
  -26.0369  -29.4183   20.7146 C   0  0  0  0  0  0
  -27.2234  -28.6271   20.7047 C   0  0  0  0  0  0
  -26.0451  -26.8866   19.4997 C   0  0  0  0  0  0
  -24.8751  -27.6719   19.4961 C   0  0  0  0  0  0
  -23.6359  -29.8129   20.1593 C   0  0  0  0  0  0
  -25.4111  -36.3076   24.0336 C   0  0  1  0  0  0
  -20.5889  -28.3669   23.1285 C   0  0  2  0  0  0
  -20.6779  -26.9390   22.5407 C   0  0  0  0  0  0
  -19.5759  -26.6373   21.5204 C   0  0  0  0  0  0
  -18.1939  -26.7923   22.1615 C   0  0  0  0  0  0
  -19.1545  -28.8840   23.2882 C   0  0  0  0  0  0
  -18.9469  -30.1447   23.8887 C   0  0  0  0  0  0
  -17.6470  -30.6579   24.0560 C   0  0  0  0  0  0
  -25.9046  -34.9446   23.5107 C   0  0  0  0  0  0
  -16.5358  -29.9077   23.6332 C   0  0  0  0  0  0
  -16.7280  -28.6498   23.0343 C   0  0  0  0  0  0
  -26.4494  -31.6579   25.0712 C   0  0  0  0  0  0
  -25.3740  -31.3714   26.1446 C   0  0  0  0  0  0
  -27.0337  -30.3012   24.6141 C   0  0  0  0  0  0
  -27.6053  -32.4306   25.7489 C   0  0  0  0  0  0
  -27.5577  -37.1800   24.8469 C   0  0  0  0  0  0
  -21.4189  -29.3032   22.3682 N   0  0  0  0  0  0
  -26.4288  -37.3768   23.9414 N   0  0  0  0  0  0
  -24.6874  -31.0606   22.0954 N   0  0  0  0  0  0
  -23.4205  -28.8152   23.2997 O   0  0  0  0  0  0
  -28.3796  -26.5010   20.1575 O   0  0  0  0  0  0
  -26.5610  -34.8919   22.4670 O   0  0  0  0  0  0
  -23.5426  -32.1369   23.7360 O   0  0  0  0  0  0
  -28.9126  -19.5296   20.8180 C   0  0  0  0  0  0
  -31.1477  -17.9287   20.3580 C   0  0  0  0  0  0
  -28.8136  -18.1075   20.8838 C   0  0  0  0  0  0
  -31.2315  -19.3595   20.2707 C   0  0  0  0  0  0
  -30.1052  -20.2111   20.4912 C   0  0  0  0  0  0
  -29.9389  -17.2429   20.6657 C   0  0  0  0  0  0
  -29.2640  -22.5269   20.3521 C   0  0  0  0  0  0
  -32.5777  -19.9821   19.9398 C   0  0  0  0  0  0
  -26.4248  -17.9969   20.0769 C   0  0  0  0  0  0
  -27.4197  -17.5860   21.1818 C   0  0  0  0  0  0
  -29.4620  -24.0954   20.3621 C   0  0  0  0  0  0
  -28.2113  -25.0318   20.0526 C   0  0  0  0  0  0
  -30.2274  -21.6499   20.4293 N   0  0  0  0  0  0
  -29.8026  -15.7716   20.7725 N   0  0  0  0  0  0
  -31.4802  -12.5539   19.1569 H   0  0  0  0  0  0
  -30.3852  -11.4382   19.9249 H   0  0  0  0  0  0
  -29.7845  -11.7415   17.5011 H   0  0  0  0  0  0
  -29.6422  -13.4663   17.7307 H   0  0  0  0  0  0
  -27.8854  -11.2820   18.8920 H   0  0  0  0  0  0
  -27.3782  -12.5405   17.7980 H   0  0  0  0  0  0
  -27.6466  -14.2459   19.4970 H   0  0  0  0  0  0
  -28.7218  -12.1047   21.3988 H   0  0  0  0  0  0
  -28.4337  -13.7694   21.8224 H   0  0  0  0  0  0
  -25.2761   -9.5580   22.4794 H   0  0  0  0  0  0
  -23.9965   -7.4554   22.7493 H   0  0  0  0  0  0
  -21.0834   -8.8751   19.8956 H   0  0  0  0  0  0
  -22.3742  -10.9625   19.6174 H   0  0  0  0  0  0
  -21.1988   -7.6138   23.9722 H   0  0  0  0  0  0
  -21.1478   -6.0518   25.9087 H   0  0  0  0  0  0
  -22.0606   -2.7602   23.2854 H   0  0  0  0  0  0
  -22.4012  -11.9795   22.4837 H   0  0  0  0  0  0
  -21.1059  -13.1219   22.2659 H   0  0  0  0  0  0
  -24.5886  -15.7712   20.4469 H   0  0  0  0  0  0
  -26.1936  -15.5927   19.9545 H   0  0  0  0  0  0
  -26.7161  -32.5440   23.1089 H   0  0  0  0  0  0
  -25.0087  -33.9709   25.0439 H   0  0  0  0  0  0
  -22.7144  -31.3020   21.3988 H   0  0  0  0  0  0
  -23.3751  -35.9619   23.3301 H   0  0  0  0  0  0
  -24.3587  -36.8906   22.2056 H   0  0  0  0  0  0
  -23.7246  -37.6496   23.6656 H   0  0  0  0  0  0
  -26.0909  -31.5547   20.6016 H   0  0  0  0  0  0
  -26.8415  -30.8417   21.9972 H   0  0  0  0  0  0
  -28.1198  -29.0001   21.1796 H   0  0  0  0  0  0
  -25.9888  -25.9230   19.0166 H   0  0  0  0  0  0
  -23.9805  -27.2938   19.0208 H   0  0  0  0  0  0
  -23.7546  -30.5884   19.4015 H   0  0  0  0  0  0
  -22.7565  -29.2413   19.8569 H   0  0  0  0  0  0
  -25.1293  -36.1923   25.0832 H   0  0  0  0  0  0
  -20.9987  -28.3227   24.1401 H   0  0  0  0  0  0
  -20.5664  -26.2272   23.3602 H   0  0  0  0  0  0
  -21.6650  -26.7408   22.1203 H   0  0  0  0  0  0
  -19.6917  -25.6283   21.1229 H   0  0  0  0  0  0
  -19.6704  -27.3192   20.6738 H   0  0  0  0  0  0
  -17.4206  -26.6663   21.4017 H   0  0  0  0  0  0
  -18.0343  -26.0072   22.9017 H   0  0  0  0  0  0
  -19.7942  -30.7274   24.2239 H   0  0  0  0  0  0
  -17.5022  -31.6258   24.5162 H   0  0  0  0  0  0
  -15.5359  -30.2975   23.7667 H   0  0  0  0  0  0
  -15.8680  -28.0826   22.7041 H   0  0  0  0  0  0
  -24.5922  -30.7049   25.7792 H   0  0  0  0  0  0
  -24.8922  -32.2877   26.4863 H   0  0  0  0  0  0
  -25.8080  -30.8911   27.0222 H   0  0  0  0  0  0
  -26.2901  -29.6762   24.1180 H   0  0  0  0  0  0
  -27.4083  -29.7259   25.4619 H   0  0  0  0  0  0
  -27.8747  -30.4330   23.9330 H   0  0  0  0  0  0
  -27.2666  -33.3611   26.2056 H   0  0  0  0  0  0
  -28.3872  -32.6849   25.0321 H   0  0  0  0  0  0
  -28.0699  -31.8428   26.5414 H   0  0  0  0  0  0
  -28.2591  -38.0097   24.7504 H   0  0  0  0  0  0
  -28.1074  -36.2628   24.6300 H   0  0  0  0  0  0
  -27.2298  -37.1455   25.8873 H   0  0  0  0  0  0
  -20.9362  -29.8774   21.6914 H   0  0  0  0  0  0
  -26.0170  -38.2845   24.1409 H   0  0  0  0  0  0
  -28.0267  -20.1087   21.0330 H   0  0  0  0  0  0
  -32.0452  -17.3532   20.1842 H   0  0  0  0  0  0
  -28.2160  -22.2240   20.2807 H   0  0  0  0  0  0
  -33.3528  -19.2286   19.8001 H   0  0  0  0  0  0
  -32.8961  -20.6440   20.7457 H   0  0  0  0  0  0
  -32.5096  -20.5684   19.0229 H   0  0  0  0  0  0
  -25.4033  -17.7329   20.3457 H   0  0  0  0  0  0
  -26.6674  -17.5146   19.1293 H   0  0  0  0  0  0
  -26.4134  -19.0712   19.8993 H   0  0  0  0  0  0
  -27.0953  -18.0082   22.1337 H   0  0  0  0  0  0
  -27.4209  -16.5091   21.3293 H   0  0  0  0  0  0
  -30.2547  -24.3356   19.6537 H   0  0  0  0  0  0
  -29.8535  -24.3635   21.3430 H   0  0  0  0  0  0
  -27.4021  -24.7391   20.7243 H   0  0  0  0  0  0
  -27.8756  -24.7977   19.0419 H   0  0  0  0  0  0
  -28.8775  -15.4689   21.0327 H   0  0  0  0  0  0
  1 25  1  0  0  0
  1 30  2  0  0  0
  1 84  1  0  0  0
  2  3  1  0  0  0
  2 25  1  0  0  0
  2 85  1  0  0  0
  2 86  1  0  0  0
  3  4  1  0  0  0
  3 87  1  0  0  0
  3 88  1  0  0  0
  4  5  1  0  0  0
  4 89  1  0  0  0
  4 90  1  0  0  0
  5  6  1  0  0  0
  5 26  1  0  0  0
  5 91  1  0  0  0
  6 25  1  0  0  0
  6 92  1  0  0  0
  6 93  1  0  0  0
  7  8  2  0  0  0
  7 26  1  0  0  0
  7 29  1  0  0  0
  8  9  1  0  0  0
  8 22  1  0  0  0
  9 10  1  0  0  0
  9 27  2  0  0  0
 10 11  2  0  0  0
 10 15  1  0  0  0
 11 12  1  0  0  0
 11 94  1  0  0  0
 12 13  2  0  0  0
 12 95  1  0  0  0
 13 14  1  0  0  0
 13 31  1  0  0  0
 14 15  2  0  0  0
 14 96  1  0  0  0
 15 97  1  0  0  0
 16 17  2  0  0  0
 16 21  1  0  0  0
 16 31  1  0  0  0
 17 18  1  0  0  0
 17 98  1  0  0  0
 18 19  2  0  0  0
 18 99  1  0  0  0
 19 20  1  0  0  0
 19 24  1  0  0  0
 20 21  2  0  0  0
 20100  1  0  0  0
 21 23  1  0  0  0
 22 28  1  0  0  0
 22 32  2  0  0  0
 26 27  1  0  0  0
 28101  1  0  0  0
 28102  1  0  0  0
 29103  1  0  0  0
 29104  1  0  0  0
 33 34  1  0  0  0
 33 66  1  0  0  0
 33 70  2  0  0  0
 34 36  1  0  0  0
 34 59  1  0  0  0
 34105  1  0  0  0
 35 44  2  0  0  0
 35 45  1  0  0  0
 35 68  1  0  0  0
 36 56  1  0  0  0
 36106  1  0  0  0
 37 39  1  0  0  0
 37 47  1  0  0  0
 37 66  1  0  0  0
 37107  1  0  0  0
 38 43  2  0  0  0
 38 46  1  0  0  0
 38 47  1  0  0  0
 39 64  1  0  0  0
 39 67  2  0  0  0
 40 52  1  0  0  0
 40 53  2  0  0  0
 40 58  1  0  0  0
 41108  1  0  0  0
 41109  1  0  0  0
 41110  1  0  0  0
 41 48  1  0  0  0
 42 43  1  0  0  0
 42 66  1  0  0  0
 42111  1  0  0  0
 42112  1  0  0  0
 43 44  1  0  0  0
 44113  1  0  0  0
 45 46  2  0  0  0
 45114  1  0  0  0
 46115  1  0  0  0
 47116  1  0  0  0
 47117  1  0  0  0
 48 56  1  0  0  0
 48 65  1  0  0  0
 48118  1  0  0  0
 49 50  1  0  0  0
 49 53  1  0  0  0
 49 64  1  0  0  0
 49119  1  0  0  0
 50 51  1  0  0  0
 50120  1  0  0  0
 50121  1  0  0  0
 51 52  1  0  0  0
 51122  1  0  0  0
 51123  1  0  0  0
 52124  1  0  0  0
 52125  1  0  0  0
 53 54  1  0  0  0
 54 55  2  0  0  0
 54126  1  0  0  0
 55 57  1  0  0  0
 55127  1  0  0  0
 56 69  2  0  0  0
 57 58  2  0  0  0
 57128  1  0  0  0
 58129  1  0  0  0
 59 60  1  0  0  0
 59 61  1  0  0  0
 59 62  1  0  0  0
 60130  1  0  0  0
 60131  1  0  0  0
 60132  1  0  0  0
 61133  1  0  0  0
 61134  1  0  0  0
 61135  1  0  0  0
 62136  1  0  0  0
 62137  1  0  0  0
 62138  1  0  0  0
 63 65  1  0  0  0
 63139  1  0  0  0
 63140  1  0  0  0
 63141  1  0  0  0
 64142  1  0  0  0
 65143  1  0  0  0
 68 82  1  0  0  0
 71 73  2  0  0  0
 71 75  1  0  0  0
 71144  1  0  0  0
 72 74  1  0  0  0
 72 76  2  0  0  0
 72145  1  0  0  0
 73 76  1  0  0  0
 73 80  1  0  0  0
 74 75  2  0  0  0
 74 78  1  0  0  0
 75 83  1  0  0  0
 76 84  1  0  0  0
 77 81  1  0  0  0
 77 83  2  0  0  0
 77146  1  0  0  0
 78147  1  0  0  0
 78148  1  0  0  0
 78149  1  0  0  0
 79 80  1  0  0  0
 79150  1  0  0  0
 79151  1  0  0  0
 79152  1  0  0  0
 80153  1  0  0  0
 80154  1  0  0  0
 81 82  1  0  0  0
 81155  1  0  0  0
 81156  1  0  0  0
 82157  1  0  0  0
 82158  1  0  0  0
 84159  1  0  0  0
M  ISO  4   1 100  68 101  82 101  84 100
M  END
> <chiral flag>
0

> <version>
0

> <s_m_source_file>
/data/baiqing/PycharmProjects/Reinvent-master-3.2/result/LINK_invent/BTK/process_docking_weight1_custom_product_contain_oxygen_bond_distance_aromatic_linkinvent_7_9_3/rearranged_h_0119.sdf

> <i_m_source_file_index>
38

> <r_mmod_Potential_Energy-OPLS-2005>
34.8491325378418

> <r_mmod_Stretch_Energy-OPLS-2005>
89.2878341674805

> <r_mmod_Bend_Energy-OPLS-2005>
152.061553955078

> <r_mmod_Torsional_Energy-OPLS-2005>
209.246612548828

> <r_mmod_Improper_Torsional_Energy-OPLS-2005>
4.78695869445801

> <r_mmod_Van_der_Waal_Energy-OPLS-2005>
153.726470947266

> <r_mmod_Electrostatic_Energy-OPLS-2005>
-423.184631347656

> <r_mmod_Solvation_Energy-OPLS-2005>
-208.38752746582

> <b_mmod_Minimization_Converged-OPLS-2005>
0

> <r_mmod_RMS_Derivative-OPLS-2005>
1.04836106300354

$$$$
38
                    3D
 Structure written by MMmdl.
162170  0  0  1  0            999 V2000
  -30.7008  -14.4699   20.6294 C   0  0  0  0  0  0
  -30.4319  -12.3337   19.4123 C   0  0  0  0  0  0
  -29.4959  -12.5538   18.2010 C   0  0  0  0  0  0
  -28.0118  -12.3997   18.5996 C   0  0  0  0  0  0
  -27.6605  -13.1841   19.8908 C   0  0  2  0  0  0
  -28.7030  -12.8870   20.9857 C   0  0  0  0  0  0
  -25.2596  -13.8084   20.5729 C   0  0  0  0  0  0
  -24.1818  -13.0377   20.9168 C   0  0  0  0  0  0
  -24.6351  -11.6844   20.8709 C   0  0  0  0  0  0
  -23.9026  -10.4248   21.0397 C   0  0  0  0  0  0
  -24.3598   -9.4178   21.9176 C   0  0  0  0  0  0
  -23.6271   -8.2223   22.0754 C   0  0  0  0  0  0
  -22.4258   -8.0269   21.3547 C   0  0  0  0  0  0
  -21.9890   -9.0228   20.4644 C   0  0  0  0  0  0
  -22.7207  -10.2103   20.3043 C   0  0  0  0  0  0
  -21.6840   -6.0735   22.5280 C   0  0  0  0  0  0
  -21.4009   -6.5640   23.8211 C   0  0  0  0  0  0
  -21.3650   -5.6796   24.9175 C   0  0  0  0  0  0
  -21.6045   -4.3056   24.7222 C   0  0  0  0  0  0
  -21.8817   -3.8150   23.4337 C   0  0  0  0  0  0
  -21.9191   -4.6965   22.3402 C   0  0  0  0  0  0
  -22.7852  -13.5210   21.1835 C   0  0  0  0  0  0
  -22.1669   -4.2156   21.0978 F   0  0  0  0  0  0
  -21.5614   -3.4535   25.7728 F   0  0  0  0  0  0
  -30.0330  -13.2785   20.4750 N   0  0  0  0  0  0
  -26.3010  -12.9199   20.3428 N   0  0  0  0  0  0
  -25.9264  -11.6377   20.5731 N   0  0  0  0  0  0
  -22.0517  -12.8189   22.0394 N   0  0  0  0  0  0
  -25.4316  -15.1815   20.4235 N   0  0  0  0  0  0
  -31.7789  -14.6930   20.0664 O   0  0  0  0  0  0
  -21.6616   -6.8874   21.4251 O   0  0  0  0  0  0
  -22.3550  -14.5532   20.6706 O   0  0  0  0  0  0
  -24.6148  -31.8691   23.2105 C   0  0  0  0  0  0
  -25.9058  -32.4826   23.8400 C   0  0  1  0  0  0
  -27.2488  -27.4508   20.1072 C   0  0  0  0  0  0
  -25.5924  -33.8630   24.2335 N   0  0  0  0  0  0
  -23.4044  -30.4879   21.5500 C   0  0  2  0  0  0
  -24.8555  -28.9491   20.1201 C   0  0  0  0  0  0
  -22.7435  -29.4650   22.5014 C   0  0  0  0  0  0
  -18.0277  -28.1373   22.8487 C   0  0  0  0  0  0
  -24.1485  -36.7289   23.2641 C   0  0  0  0  0  0
  -25.9290  -30.8366   21.3656 C   0  0  0  0  0  0
  -26.0112  -29.4705   20.7171 C   0  0  0  0  0  0
  -27.2116  -28.7271   20.7103 C   0  0  0  0  0  0
  -26.0806  -26.9340   19.5094 C   0  0  0  0  0  0
  -24.8839  -27.6777   19.5154 C   0  0  0  0  0  0
  -23.6152  -29.8154   20.1668 C   0  0  0  0  0  0
  -25.4120  -36.3112   24.0333 C   0  0  1  0  0  0
  -20.5857  -28.3669   23.1313 C   0  0  2  0  0  0
  -20.6784  -26.9409   22.5423 C   0  0  0  0  0  0
  -19.5762  -26.6364   21.5227 C   0  0  0  0  0  0
  -18.1926  -26.7913   22.1617 C   0  0  0  0  0  0
  -19.1519  -28.8841   23.2893 C   0  0  0  0  0  0
  -18.9457  -30.1440   23.8909 C   0  0  0  0  0  0
  -17.6467  -30.6591   24.0541 C   0  0  0  0  0  0
  -25.9033  -34.9479   23.5125 C   0  0  0  0  0  0
  -16.5360  -29.9086   23.6319 C   0  0  0  0  0  0
  -16.7268  -28.6495   23.0349 C   0  0  0  0  0  0
  -26.4498  -31.6606   25.0726 C   0  0  0  0  0  0
  -25.3760  -31.3690   26.1475 C   0  0  0  0  0  0
  -27.0369  -30.3061   24.6096 C   0  0  0  0  0  0
  -27.6059  -32.4351   25.7510 C   0  0  0  0  0  0
  -27.5592  -37.1816   24.8471 C   0  0  0  0  0  0
  -21.4161  -29.3016   22.3729 N   0  0  0  0  0  0
  -26.4313  -37.3802   23.9406 N   0  0  0  0  0  0
  -24.6670  -31.0788   22.1005 N   0  0  0  0  0  0
  -23.4198  -28.8222   23.3095 O   0  0  0  0  0  0
  -28.4192  -26.7335   20.0602 O   0  0  0  0  0  0
  -26.5584  -34.8931   22.4687 O   0  0  0  0  0  0
  -23.5344  -32.1471   23.7481 O   0  0  0  0  0  0
  -30.8055  -17.8905   22.0331 C   0  0  0  0  0  0
  -30.9593  -19.2676   21.8020 C   0  0  0  0  0  0
  -30.2867  -17.0221   21.0452 C   0  0  0  0  0  0
  -30.1477  -18.9820   19.5173 C   0  0  0  0  0  0
  -29.9516  -17.5853   19.7702 C   0  0  0  0  0  0
  -30.6089  -19.8291   20.5649 C   0  0  0  0  0  0
  -30.7499  -20.4104   17.5395 C   0  0  0  0  0  0
  -29.9396  -19.5336   18.1568 C   0  0  0  0  0  0
  -30.0504  -15.5927   21.4755 C   0  0  0  0  0  0
  -29.3749  -16.7062   18.6608 C   0  0  0  0  0  0
  -28.4914  -24.2921   20.4340 C   0  0  0  0  0  0
  -29.7150  -23.3978   20.7462 C   0  0  0  0  0  0
  -28.5561  -25.7088   21.0490 C   0  0  0  0  0  0
  -29.5110  -21.9251   20.3315 C   0  0  0  0  0  0
  -29.4063  -15.3964   22.5507 N   0  0  0  0  0  0
  -30.7385  -21.1974   20.4404 O   0  0  0  0  0  0
  -31.4733  -12.4542   19.1095 H   0  0  0  0  0  0
  -30.3558  -11.3056   19.7703 H   0  0  0  0  0  0
  -29.7423  -11.8554   17.3998 H   0  0  0  0  0  0
  -29.6575  -13.5527   17.7907 H   0  0  0  0  0  0
  -27.8134  -11.3382   18.7493 H   0  0  0  0  0  0
  -27.3664  -12.7189   17.7796 H   0  0  0  0  0  0
  -27.7055  -14.2399   19.6595 H   0  0  0  0  0  0
  -28.7029  -11.8158   21.1972 H   0  0  0  0  0  0
  -28.4094  -13.3216   21.9345 H   0  0  0  0  0  0
  -25.2753   -9.5645   22.4726 H   0  0  0  0  0  0
  -23.9978   -7.4619   22.7464 H   0  0  0  0  0  0
  -21.0825   -8.8737   19.8938 H   0  0  0  0  0  0
  -22.3679  -10.9642   19.6135 H   0  0  0  0  0  0
  -21.2015   -7.6151   23.9710 H   0  0  0  0  0  0
  -21.1474   -6.0532   25.9075 H   0  0  0  0  0  0
  -22.0611   -2.7615   23.2834 H   0  0  0  0  0  0
  -22.4163  -11.9848   22.4753 H   0  0  0  0  0  0
  -21.1139  -13.1198   22.2634 H   0  0  0  0  0  0
  -24.6718  -15.8367   20.5716 H   0  0  0  0  0  0
  -26.3041  -15.6358   20.1865 H   0  0  0  0  0  0
  -26.7150  -32.5534   23.1171 H   0  0  0  0  0  0
  -25.0187  -33.9802   25.0560 H   0  0  0  0  0  0
  -22.6910  -31.3020   21.4098 H   0  0  0  0  0  0
  -23.3765  -35.9604   23.3312 H   0  0  0  0  0  0
  -24.3576  -36.8876   22.2046 H   0  0  0  0  0  0
  -23.7211  -37.6487   23.6656 H   0  0  0  0  0  0
  -26.0460  -31.6054   20.6002 H   0  0  0  0  0  0
  -26.8140  -30.8863   21.9888 H   0  0  0  0  0  0
  -28.1056  -29.1278   21.1678 H   0  0  0  0  0  0
  -26.1025  -25.9630   19.0347 H   0  0  0  0  0  0
  -23.9976  -27.2655   19.0520 H   0  0  0  0  0  0
  -23.7251  -30.5907   19.4071 H   0  0  0  0  0  0
  -22.7402  -29.2338   19.8719 H   0  0  0  0  0  0
  -25.1290  -36.1993   25.0821 H   0  0  0  0  0  0
  -20.9941  -28.3255   24.1437 H   0  0  0  0  0  0
  -20.5699  -26.2287   23.3625 H   0  0  0  0  0  0
  -21.6661  -26.7475   22.1213 H   0  0  0  0  0  0
  -19.6935  -25.6274   21.1265 H   0  0  0  0  0  0
  -19.6686  -27.3167   20.6752 H   0  0  0  0  0  0
  -17.4209  -26.6656   21.4003 H   0  0  0  0  0  0
  -18.0303  -26.0049   22.8997 H   0  0  0  0  0  0
  -19.7939  -30.7228   24.2288 H   0  0  0  0  0  0
  -17.5031  -31.6259   24.5163 H   0  0  0  0  0  0
  -15.5358  -30.2992   23.7637 H   0  0  0  0  0  0
  -15.8659  -28.0811   22.7076 H   0  0  0  0  0  0
  -24.5899  -30.7083   25.7801 H   0  0  0  0  0  0
  -24.8999  -32.2835   26.5019 H   0  0  0  0  0  0
  -25.8096  -30.8783   27.0197 H   0  0  0  0  0  0
  -26.2919  -29.6773   24.1201 H   0  0  0  0  0  0
  -27.4213  -29.7342   25.4558 H   0  0  0  0  0  0
  -27.8719  -30.4392   23.9214 H   0  0  0  0  0  0
  -27.2659  -33.3636   26.2141 H   0  0  0  0  0  0
  -28.3873  -32.6953   25.0346 H   0  0  0  0  0  0
  -28.0763  -31.8451   26.5395 H   0  0  0  0  0  0
  -28.2624  -38.0094   24.7550 H   0  0  0  0  0  0
  -28.1057  -36.2637   24.6282 H   0  0  0  0  0  0
  -27.2304  -37.1456   25.8864 H   0  0  0  0  0  0
  -20.9372  -29.8688   21.6870 H   0  0  0  0  0  0
  -26.0183  -38.2878   24.1397 H   0  0  0  0  0  0
  -31.0705  -17.5046   23.0078 H   0  0  0  0  0  0
  -31.3351  -19.9024   22.5913 H   0  0  0  0  0  0
  -30.5195  -20.7747   16.5483 H   0  0  0  0  0  0
  -31.6528  -20.7760   18.0098 H   0  0  0  0  0  0
  -29.0515  -19.2293   17.6239 H   0  0  0  0  0  0
  -28.8093  -15.8777   19.0615 H   0  0  0  0  0  0
  -30.1680  -16.3061   18.0285 H   0  0  0  0  0  0
  -28.6580  -17.2244   18.0292 H   0  0  0  0  0  0
  -27.5884  -23.7987   20.7982 H   0  0  0  0  0  0
  -28.3733  -24.3661   19.3526 H   0  0  0  0  0  0
  -29.9443  -23.4337   21.8116 H   0  0  0  0  0  0
  -30.5891  -23.8040   20.2362 H   0  0  0  0  0  0
  -29.5142  -25.8618   21.5470 H   0  0  0  0  0  0
  -27.8039  -25.8026   21.8368 H   0  0  0  0  0  0
  -29.1433  -21.8884   19.3072 H   0  0  0  0  0  0
  -28.7411  -21.4742   20.9616 H   0  0  0  0  0  0
  -29.0935  -16.2727   22.9521 H   0  0  0  0  0  0
  1 25  1  0  0  0
  1 30  2  0  0  0
  1 79  1  0  0  0
  2  3  1  0  0  0
  2 25  1  0  0  0
  2 87  1  0  0  0
  2 88  1  0  0  0
  3  4  1  0  0  0
  3 89  1  0  0  0
  3 90  1  0  0  0
  4  5  1  0  0  0
  4 91  1  0  0  0
  4 92  1  0  0  0
  5  6  1  0  0  0
  5 26  1  0  0  0
  5 93  1  0  0  0
  6 25  1  0  0  0
  6 94  1  0  0  0
  6 95  1  0  0  0
  7  8  2  0  0  0
  7 26  1  0  0  0
  7 29  1  0  0  0
  8  9  1  0  0  0
  8 22  1  0  0  0
  9 10  1  0  0  0
  9 27  2  0  0  0
 10 11  2  0  0  0
 10 15  1  0  0  0
 11 12  1  0  0  0
 11 96  1  0  0  0
 12 13  2  0  0  0
 12 97  1  0  0  0
 13 14  1  0  0  0
 13 31  1  0  0  0
 14 15  2  0  0  0
 14 98  1  0  0  0
 15 99  1  0  0  0
 16 17  2  0  0  0
 16 21  1  0  0  0
 16 31  1  0  0  0
 17 18  1  0  0  0
 17100  1  0  0  0
 18 19  2  0  0  0
 18101  1  0  0  0
 19 20  1  0  0  0
 19 24  1  0  0  0
 20 21  2  0  0  0
 20102  1  0  0  0
 21 23  1  0  0  0
 22 28  1  0  0  0
 22 32  2  0  0  0
 26 27  1  0  0  0
 28103  1  0  0  0
 28104  1  0  0  0
 29105  1  0  0  0
 29106  1  0  0  0
 33 34  1  0  0  0
 33 66  1  0  0  0
 33 70  2  0  0  0
 34 36  1  0  0  0
 34 59  1  0  0  0
 34107  1  0  0  0
 35 44  2  0  0  0
 35 45  1  0  0  0
 35 68  1  0  0  0
 36 56  1  0  0  0
 36108  1  0  0  0
 37 39  1  0  0  0
 37 47  1  0  0  0
 37 66  1  0  0  0
 37109  1  0  0  0
 38 43  2  0  0  0
 38 46  1  0  0  0
 38 47  1  0  0  0
 39 64  1  0  0  0
 39 67  2  0  0  0
 40 52  1  0  0  0
 40 53  2  0  0  0
 40 58  1  0  0  0
 41110  1  0  0  0
 41111  1  0  0  0
 41112  1  0  0  0
 41 48  1  0  0  0
 42 43  1  0  0  0
 42 66  1  0  0  0
 42113  1  0  0  0
 42114  1  0  0  0
 43 44  1  0  0  0
 44115  1  0  0  0
 45 46  2  0  0  0
 45116  1  0  0  0
 46117  1  0  0  0
 47118  1  0  0  0
 47119  1  0  0  0
 48 56  1  0  0  0
 48 65  1  0  0  0
 48120  1  0  0  0
 49 50  1  0  0  0
 49 53  1  0  0  0
 49 64  1  0  0  0
 49121  1  0  0  0
 50 51  1  0  0  0
 50122  1  0  0  0
 50123  1  0  0  0
 51 52  1  0  0  0
 51124  1  0  0  0
 51125  1  0  0  0
 52126  1  0  0  0
 52127  1  0  0  0
 53 54  1  0  0  0
 54 55  2  0  0  0
 54128  1  0  0  0
 55 57  1  0  0  0
 55129  1  0  0  0
 56 69  2  0  0  0
 57 58  2  0  0  0
 57130  1  0  0  0
 58131  1  0  0  0
 59 60  1  0  0  0
 59 61  1  0  0  0
 59 62  1  0  0  0
 60132  1  0  0  0
 60133  1  0  0  0
 60134  1  0  0  0
 61135  1  0  0  0
 61136  1  0  0  0
 61137  1  0  0  0
 62138  1  0  0  0
 62139  1  0  0  0
 62140  1  0  0  0
 63 65  1  0  0  0
 63141  1  0  0  0
 63142  1  0  0  0
 63143  1  0  0  0
 64144  1  0  0  0
 65145  1  0  0  0
 68 83  1  0  0  0
 71 72  2  0  0  0
 71 73  1  0  0  0
 71146  1  0  0  0
 72 76  1  0  0  0
 72147  1  0  0  0
 73 75  2  0  0  0
 73 79  1  0  0  0
 74 75  1  0  0  0
 74 76  2  0  0  0
 74 78  1  0  0  0
 75 80  1  0  0  0
 76 86  1  0  0  0
 77 78  2  0  0  0
 77148  1  0  0  0
 77149  1  0  0  0
 78150  1  0  0  0
 79 85  2  0  0  0
 80151  1  0  0  0
 80152  1  0  0  0
 80153  1  0  0  0
 81 82  1  0  0  0
 81 83  1  0  0  0
 81154  1  0  0  0
 81155  1  0  0  0
 82 84  1  0  0  0
 82156  1  0  0  0
 82157  1  0  0  0
 83158  1  0  0  0
 83159  1  0  0  0
 84 86  1  0  0  0
 84160  1  0  0  0
 84161  1  0  0  0
 85162  1  0  0  0
M  ISO  4   1 100  68 101  79 100  83 101
M  END
> <chiral flag>
0

> <version>
0

> <s_m_source_file>
/data/baiqing/PycharmProjects/Reinvent-master-3.2/result/LINK_invent/BTK/process_docking_weight1_custom_product_contain_oxygen_bond_distance_aromatic_linkinvent_7_9_3/rearranged_h_0119.sdf

> <i_m_source_file_index>
39

> <r_mmod_Potential_Energy-OPLS-2005>
204.471466064453

> <r_mmod_Stretch_Energy-OPLS-2005>
48.4685134887695

> <r_mmod_Bend_Energy-OPLS-2005>
112.057411193848

> <r_mmod_Torsional_Energy-OPLS-2005>
281.052337646484

> <r_mmod_Improper_Torsional_Energy-OPLS-2005>
3.05158424377441

> <r_mmod_Van_der_Waal_Energy-OPLS-2005>
165.985717773438

> <r_mmod_Electrostatic_Energy-OPLS-2005>
-223.05403137207

> <r_mmod_Solvation_Energy-OPLS-2005>
-193.518478393555

> <b_mmod_Minimization_Converged-OPLS-2005>
0

> <r_mmod_RMS_Derivative-OPLS-2005>
2.71040606498718

$$$$
39
                    3D
 Structure written by MMmdl.
154162  0  0  1  0            999 V2000
  -30.6694  -14.4562   20.6039 C   0  0  0  0  0  0
  -30.4360  -12.3092   19.4014 C   0  0  0  0  0  0
  -29.4932  -12.5149   18.1963 C   0  0  0  0  0  0
  -28.0135  -12.3700   18.6107 C   0  0  0  0  0  0
  -27.6644  -13.1937   19.8784 C   0  0  2  0  0  0
  -28.7060  -12.9273   20.9881 C   0  0  0  0  0  0
  -25.2607  -13.8131   20.5678 C   0  0  0  0  0  0
  -24.1844  -13.0433   20.9181 C   0  0  0  0  0  0
  -24.6379  -11.6893   20.8736 C   0  0  0  0  0  0
  -23.9042  -10.4290   21.0406 C   0  0  0  0  0  0
  -24.3601   -9.4208   21.9183 C   0  0  0  0  0  0
  -23.6286   -8.2240   22.0751 C   0  0  0  0  0  0
  -22.4268   -8.0274   21.3541 C   0  0  0  0  0  0
  -21.9897   -9.0246   20.4644 C   0  0  0  0  0  0
  -22.7216  -10.2131   20.3055 C   0  0  0  0  0  0
  -21.6845   -6.0729   22.5277 C   0  0  0  0  0  0
  -21.4006   -6.5634   23.8211 C   0  0  0  0  0  0
  -21.3663   -5.6791   24.9176 C   0  0  0  0  0  0
  -21.6049   -4.3054   24.7226 C   0  0  0  0  0  0
  -21.8818   -3.8142   23.4347 C   0  0  0  0  0  0
  -21.9191   -4.6958   22.3402 C   0  0  0  0  0  0
  -22.7868  -13.5242   21.1847 C   0  0  0  0  0  0
  -22.1664   -4.2144   21.0980 F   0  0  0  0  0  0
  -21.5636   -3.4541   25.7740 F   0  0  0  0  0  0
  -30.0384  -13.2614   20.4469 N   0  0  0  0  0  0
  -26.3029  -12.9273   20.3366 N   0  0  0  0  0  0
  -25.9297  -11.6448   20.5755 N   0  0  0  0  0  0
  -22.0504  -12.8239   22.0403 N   0  0  0  0  0  0
  -25.4348  -15.1849   20.4082 N   0  0  0  0  0  0
  -31.7863  -14.7048   20.1359 O   0  0  0  0  0  0
  -21.6634   -6.8870   21.4239 O   0  0  0  0  0  0
  -22.3560  -14.5552   20.6695 O   0  0  0  0  0  0
  -24.6128  -31.8695   23.2101 C   0  0  0  0  0  0
  -25.9025  -32.4833   23.8399 C   0  0  1  0  0  0
  -27.2404  -27.4508   20.0984 C   0  0  0  0  0  0
  -25.5883  -33.8630   24.2330 N   0  0  0  0  0  0
  -23.4012  -30.4919   21.5500 C   0  0  2  0  0  0
  -24.8504  -28.9534   20.1218 C   0  0  0  0  0  0
  -22.7398  -29.4671   22.4992 C   0  0  0  0  0  0
  -18.0270  -28.1382   22.8501 C   0  0  0  0  0  0
  -24.1481  -36.7321   23.2635 C   0  0  0  0  0  0
  -25.9280  -30.8397   21.3610 C   0  0  0  0  0  0
  -26.0090  -29.4717   20.7158 C   0  0  0  0  0  0
  -27.2102  -28.7271   20.7020 C   0  0  0  0  0  0
  -26.0681  -26.9373   19.5090 C   0  0  0  0  0  0
  -24.8726  -27.6825   19.5183 C   0  0  0  0  0  0
  -23.6113  -29.8195   20.1666 C   0  0  0  0  0  0
  -25.4103  -36.3122   24.0339 C   0  0  1  0  0  0
  -20.5861  -28.3671   23.1325 C   0  0  2  0  0  0
  -20.6757  -26.9408   22.5424 C   0  0  0  0  0  0
  -19.5736  -26.6394   21.5219 C   0  0  0  0  0  0
  -18.1916  -26.7929   22.1631 C   0  0  0  0  0  0
  -19.1519  -28.8841   23.2914 C   0  0  0  0  0  0
  -18.9449  -30.1446   23.8927 C   0  0  0  0  0  0
  -17.6454  -30.6589   24.0573 C   0  0  0  0  0  0
  -25.9034  -34.9484   23.5136 C   0  0  0  0  0  0
  -16.5346  -29.9096   23.6322 C   0  0  0  0  0  0
  -16.7261  -28.6508   23.0352 C   0  0  0  0  0  0
  -26.4458  -31.6607   25.0719 C   0  0  0  0  0  0
  -25.3727  -31.3708   26.1467 C   0  0  0  0  0  0
  -27.0290  -30.3054   24.6084 C   0  0  0  0  0  0
  -27.6042  -32.4320   25.7479 C   0  0  0  0  0  0
  -27.5590  -37.1801   24.8454 C   0  0  0  0  0  0
  -21.4128  -29.3039   22.3729 N   0  0  0  0  0  0
  -26.4287  -37.3811   23.9422 N   0  0  0  0  0  0
  -24.6655  -31.0810   22.0994 N   0  0  0  0  0  0
  -23.4172  -28.8217   23.3036 O   0  0  0  0  0  0
  -28.4002  -26.7194   20.0261 O   0  0  0  0  0  0
  -26.5606  -34.8935   22.4703 O   0  0  0  0  0  0
  -23.5322  -32.1440   23.7501 O   0  0  0  0  0  0
  -29.0288  -18.9826   20.8378 C   0  0  0  0  0  0
  -29.0242  -17.5830   20.6693 C   0  0  0  0  0  0
  -31.0837  -17.4187   21.9502 C   0  0  0  0  0  0
  -30.0221  -19.6171   21.6177 C   0  0  0  0  0  0
  -31.0759  -18.8210   22.1454 C   0  0  0  0  0  0
  -30.0433  -16.7904   21.2357 C   0  0  0  0  0  0
  -29.9419  -21.0726   21.8953 C   0  0  0  0  0  0
  -29.3340  -22.0196   21.1440 C   0  0  0  0  0  0
  -28.9960  -24.4744   20.5921 C   0  0  0  0  0  0
  -28.5573  -25.7047   20.9354 C   0  0  0  0  0  0
  -29.2344  -23.4244   21.6065 C   0  0  0  0  0  0
  -32.1952  -19.4440   22.9633 C   0  0  0  0  0  0
  -29.9035  -15.3793   21.2109 N   0  0  0  0  0  0
  -29.3461  -23.7113   22.8037 O   0  0  0  0  0  0
  -31.4756  -12.4409   19.0962 H   0  0  0  0  0  0
  -30.3620  -11.2879   19.7780 H   0  0  0  0  0  0
  -29.7308  -11.8013   17.4062 H   0  0  0  0  0  0
  -29.6549  -13.5059   17.7690 H   0  0  0  0  0  0
  -27.8211  -11.3122   18.7940 H   0  0  0  0  0  0
  -27.3608  -12.6557   17.7851 H   0  0  0  0  0  0
  -27.7201  -14.2465   19.6020 H   0  0  0  0  0  0
  -28.6863  -11.8745   21.2748 H   0  0  0  0  0  0
  -28.4598  -13.4696   21.9024 H   0  0  0  0  0  0
  -25.2747   -9.5695   22.4753 H   0  0  0  0  0  0
  -24.0001   -7.4633   22.7470 H   0  0  0  0  0  0
  -21.0826   -8.8758   19.8951 H   0  0  0  0  0  0
  -22.3667  -10.9668   19.6164 H   0  0  0  0  0  0
  -21.1987   -7.6140   23.9713 H   0  0  0  0  0  0
  -21.1493   -6.0520   25.9082 H   0  0  0  0  0  0
  -22.0593   -2.7606   23.2847 H   0  0  0  0  0  0
  -22.4105  -11.9891   22.4788 H   0  0  0  0  0  0
  -21.1128  -13.1272   22.2620 H   0  0  0  0  0  0
  -24.6692  -15.8412   20.5173 H   0  0  0  0  0  0
  -26.2859  -15.6214   20.0791 H   0  0  0  0  0  0
  -26.7098  -32.5564   23.1171 H   0  0  0  0  0  0
  -24.9996  -33.9791   25.0449 H   0  0  0  0  0  0
  -22.6890  -31.3078   21.4091 H   0  0  0  0  0  0
  -23.3748  -35.9648   23.3287 H   0  0  0  0  0  0
  -24.3578  -36.8950   22.2052 H   0  0  0  0  0  0
  -23.7225  -37.6517   23.6661 H   0  0  0  0  0  0
  -26.0345  -31.6034   20.5894 H   0  0  0  0  0  0
  -26.8173  -30.8990   21.9760 H   0  0  0  0  0  0
  -28.1108  -29.1278   21.1459 H   0  0  0  0  0  0
  -26.0880  -25.9654   19.0367 H   0  0  0  0  0  0
  -23.9821  -27.2765   19.0582 H   0  0  0  0  0  0
  -23.7192  -30.5911   19.4033 H   0  0  0  0  0  0
  -22.7361  -29.2375   19.8730 H   0  0  0  0  0  0
  -25.1271  -36.1984   25.0831 H   0  0  0  0  0  0
  -20.9966  -28.3245   24.1443 H   0  0  0  0  0  0
  -20.5665  -26.2278   23.3610 H   0  0  0  0  0  0
  -21.6630  -26.7460   22.1223 H   0  0  0  0  0  0
  -19.6895  -25.6310   21.1232 H   0  0  0  0  0  0
  -19.6667  -27.3213   20.6756 H   0  0  0  0  0  0
  -17.4189  -26.6692   21.4028 H   0  0  0  0  0  0
  -18.0308  -26.0070   22.9024 H   0  0  0  0  0  0
  -19.7928  -30.7252   24.2311 H   0  0  0  0  0  0
  -17.5015  -31.6268   24.5175 H   0  0  0  0  0  0
  -15.5348  -30.3015   23.7625 H   0  0  0  0  0  0
  -15.8659  -28.0837   22.7058 H   0  0  0  0  0  0
  -24.5894  -30.7064   25.7801 H   0  0  0  0  0  0
  -24.8913  -32.2858   26.4926 H   0  0  0  0  0  0
  -25.8077  -30.8867   27.0221 H   0  0  0  0  0  0
  -26.2831  -29.6817   24.1144 H   0  0  0  0  0  0
  -27.4074  -29.7289   25.4538 H   0  0  0  0  0  0
  -27.8658  -30.4377   23.9222 H   0  0  0  0  0  0
  -27.2673  -33.3617   26.2076 H   0  0  0  0  0  0
  -28.3835  -32.6884   25.0290 H   0  0  0  0  0  0
  -28.0726  -31.8430   26.5374 H   0  0  0  0  0  0
  -28.2580  -38.0130   24.7572 H   0  0  0  0  0  0
  -28.1119  -36.2670   24.6195 H   0  0  0  0  0  0
  -27.2321  -37.1352   25.8858 H   0  0  0  0  0  0
  -20.9279  -29.8765   21.6963 H   0  0  0  0  0  0
  -26.0178  -38.2882   24.1464 H   0  0  0  0  0  0
  -28.2159  -19.5559   20.4157 H   0  0  0  0  0  0
  -28.2118  -17.1235   20.1244 H   0  0  0  0  0  0
  -31.8611  -16.8164   22.4002 H   0  0  0  0  0  0
  -30.3857  -21.3850   22.8306 H   0  0  0  0  0  0
  -28.8890  -21.7729   20.1913 H   0  0  0  0  0  0
  -29.2007  -24.2362   19.5588 H   0  0  0  0  0  0
  -28.3136  -26.0070   21.9458 H   0  0  0  0  0  0
  -33.0151  -18.7419   23.1162 H   0  0  0  0  0  0
  -31.8264  -19.7464   23.9436 H   0  0  0  0  0  0
  -32.6046  -20.3206   22.4606 H   0  0  0  0  0  0
  -28.9904  -15.0299   21.4578 H   0  0  0  0  0  0
  1 25  1  0  0  0
  1 30  2  0  0  0
  1 83  1  0  0  0
  2  3  1  0  0  0
  2 25  1  0  0  0
  2 85  1  0  0  0
  2 86  1  0  0  0
  3  4  1  0  0  0
  3 87  1  0  0  0
  3 88  1  0  0  0
  4  5  1  0  0  0
  4 89  1  0  0  0
  4 90  1  0  0  0
  5  6  1  0  0  0
  5 26  1  0  0  0
  5 91  1  0  0  0
  6 25  1  0  0  0
  6 92  1  0  0  0
  6 93  1  0  0  0
  7  8  2  0  0  0
  7 26  1  0  0  0
  7 29  1  0  0  0
  8  9  1  0  0  0
  8 22  1  0  0  0
  9 10  1  0  0  0
  9 27  2  0  0  0
 10 11  2  0  0  0
 10 15  1  0  0  0
 11 12  1  0  0  0
 11 94  1  0  0  0
 12 13  2  0  0  0
 12 95  1  0  0  0
 13 14  1  0  0  0
 13 31  1  0  0  0
 14 15  2  0  0  0
 14 96  1  0  0  0
 15 97  1  0  0  0
 16 17  2  0  0  0
 16 21  1  0  0  0
 16 31  1  0  0  0
 17 18  1  0  0  0
 17 98  1  0  0  0
 18 19  2  0  0  0
 18 99  1  0  0  0
 19 20  1  0  0  0
 19 24  1  0  0  0
 20 21  2  0  0  0
 20100  1  0  0  0
 21 23  1  0  0  0
 22 28  1  0  0  0
 22 32  2  0  0  0
 26 27  1  0  0  0
 28101  1  0  0  0
 28102  1  0  0  0
 29103  1  0  0  0
 29104  1  0  0  0
 33 34  1  0  0  0
 33 66  1  0  0  0
 33 70  2  0  0  0
 34 36  1  0  0  0
 34 59  1  0  0  0
 34105  1  0  0  0
 35 44  2  0  0  0
 35 45  1  0  0  0
 35 68  1  0  0  0
 36 56  1  0  0  0
 36106  1  0  0  0
 37 39  1  0  0  0
 37 47  1  0  0  0
 37 66  1  0  0  0
 37107  1  0  0  0
 38 43  2  0  0  0
 38 46  1  0  0  0
 38 47  1  0  0  0
 39 64  1  0  0  0
 39 67  2  0  0  0
 40 52  1  0  0  0
 40 53  2  0  0  0
 40 58  1  0  0  0
 41108  1  0  0  0
 41109  1  0  0  0
 41110  1  0  0  0
 41 48  1  0  0  0
 42 43  1  0  0  0
 42 66  1  0  0  0
 42111  1  0  0  0
 42112  1  0  0  0
 43 44  1  0  0  0
 44113  1  0  0  0
 45 46  2  0  0  0
 45114  1  0  0  0
 46115  1  0  0  0
 47116  1  0  0  0
 47117  1  0  0  0
 48 56  1  0  0  0
 48 65  1  0  0  0
 48118  1  0  0  0
 49 50  1  0  0  0
 49 53  1  0  0  0
 49 64  1  0  0  0
 49119  1  0  0  0
 50 51  1  0  0  0
 50120  1  0  0  0
 50121  1  0  0  0
 51 52  1  0  0  0
 51122  1  0  0  0
 51123  1  0  0  0
 52124  1  0  0  0
 52125  1  0  0  0
 53 54  1  0  0  0
 54 55  2  0  0  0
 54126  1  0  0  0
 55 57  1  0  0  0
 55127  1  0  0  0
 56 69  2  0  0  0
 57 58  2  0  0  0
 57128  1  0  0  0
 58129  1  0  0  0
 59 60  1  0  0  0
 59 61  1  0  0  0
 59 62  1  0  0  0
 60130  1  0  0  0
 60131  1  0  0  0
 60132  1  0  0  0
 61133  1  0  0  0
 61134  1  0  0  0
 61135  1  0  0  0
 62136  1  0  0  0
 62137  1  0  0  0
 62138  1  0  0  0
 63 65  1  0  0  0
 63139  1  0  0  0
 63140  1  0  0  0
 63141  1  0  0  0
 64142  1  0  0  0
 65143  1  0  0  0
 68 80  1  0  0  0
 71 72  2  0  0  0
 71 74  1  0  0  0
 71144  1  0  0  0
 72 76  1  0  0  0
 72145  1  0  0  0
 73 75  1  0  0  0
 73 76  2  0  0  0
 73146  1  0  0  0
 74 75  2  0  0  0
 74 77  1  0  0  0
 75 82  1  0  0  0
 76 83  1  0  0  0
 77 78  2  0  0  0
 77147  1  0  0  0
 78 81  1  0  0  0
 78148  1  0  0  0
 79 80  2  0  0  0
 79 81  1  0  0  0
 79149  1  0  0  0
 80150  1  0  0  0
 81 84  2  0  0  0
 82151  1  0  0  0
 82152  1  0  0  0
 82153  1  0  0  0
 83154  1  0  0  0
M  ISO  4   1 100  68 101  80 101  83 100
M  END
> <chiral flag>
0

> <version>
0

> <s_m_source_file>
/data/baiqing/PycharmProjects/Reinvent-master-3.2/result/LINK_invent/BTK/process_docking_weight1_custom_product_contain_oxygen_bond_distance_aromatic_linkinvent_7_9_3/rearranged_h_0119.sdf

> <i_m_source_file_index>
40

> <r_mmod_Potential_Energy-OPLS-2005>
-65.1988830566406

> <r_mmod_Stretch_Energy-OPLS-2005>
34.886043548584

> <r_mmod_Bend_Energy-OPLS-2005>
91.675163269043

> <r_mmod_Torsional_Energy-OPLS-2005>
253.997451782227

> <r_mmod_Improper_Torsional_Energy-OPLS-2005>
5.01918840408325

> <r_mmod_Van_der_Waal_Energy-OPLS-2005>
153.023376464844

> <r_mmod_Electrostatic_Energy-OPLS-2005>
-395.640075683594

> <r_mmod_Solvation_Energy-OPLS-2005>
-218.430114746094

> <b_mmod_Minimization_Converged-OPLS-2005>
0

> <r_mmod_RMS_Derivative-OPLS-2005>
0.707387506961823

$$$$
40
                    3D
 Structure written by MMmdl.
158166  0  0  1  0            999 V2000
  -30.7489  -14.4907   20.5312 C   0  0  0  0  0  0
  -30.4026  -12.3098   19.4472 C   0  0  0  0  0  0
  -29.4886  -12.4987   18.2211 C   0  0  0  0  0  0
  -28.0100  -12.3650   18.6273 C   0  0  0  0  0  0
  -27.6525  -13.2233   19.8711 C   0  0  2  0  0  0
  -28.6956  -13.0721   21.0048 C   0  0  0  0  0  0
  -25.2505  -13.8180   20.5730 C   0  0  0  0  0  0
  -24.1796  -13.0405   20.9230 C   0  0  0  0  0  0
  -24.6393  -11.6894   20.8753 C   0  0  0  0  0  0
  -23.9071  -10.4272   21.0367 C   0  0  0  0  0  0
  -24.3608   -9.4203   21.9167 C   0  0  0  0  0  0
  -23.6293   -8.2229   22.0741 C   0  0  0  0  0  0
  -22.4288   -8.0244   21.3511 C   0  0  0  0  0  0
  -21.9906   -9.0227   20.4628 C   0  0  0  0  0  0
  -22.7223  -10.2112   20.3043 C   0  0  0  0  0  0
  -21.6857   -6.0707   22.5277 C   0  0  0  0  0  0
  -21.3994   -6.5614   23.8208 C   0  0  0  0  0  0
  -21.3670   -5.6772   24.9180 C   0  0  0  0  0  0
  -21.6070   -4.3042   24.7235 C   0  0  0  0  0  0
  -21.8814   -3.8123   23.4358 C   0  0  0  0  0  0
  -21.9188   -4.6930   22.3408 C   0  0  0  0  0  0
  -22.7793  -13.5166   21.1874 C   0  0  0  0  0  0
  -22.1656   -4.2110   21.0985 F   0  0  0  0  0  0
  -21.5667   -3.4540   25.7759 F   0  0  0  0  0  0
  -30.0308  -13.3340   20.4407 N   0  0  0  0  0  0
  -26.2968  -12.9408   20.3375 N   0  0  0  0  0  0
  -25.9332  -11.6547   20.5791 N   0  0  0  0  0  0
  -22.0443  -12.8158   22.0431 N   0  0  0  0  0  0
  -25.4123  -15.1900   20.4134 N   0  0  0  0  0  0
  -31.8963  -14.5544   20.0866 O   0  0  0  0  0  0
  -21.6642   -6.8844   21.4234 O   0  0  0  0  0  0
  -22.3464  -14.5471   20.6720 O   0  0  0  0  0  0
  -24.6166  -31.8651   23.2064 C   0  0  0  0  0  0
  -25.9037  -32.4807   23.8380 C   0  0  1  0  0  0
  -27.2399  -27.4202   20.1085 C   0  0  0  0  0  0
  -25.5890  -33.8612   24.2307 N   0  0  0  0  0  0
  -23.4081  -30.4853   21.5443 C   0  0  2  0  0  0
  -24.8578  -28.9412   20.1192 C   0  0  0  0  0  0
  -22.7432  -29.4645   22.4972 C   0  0  0  0  0  0
  -18.0267  -28.1401   22.8494 C   0  0  0  0  0  0
  -24.1490  -36.7311   23.2638 C   0  0  0  0  0  0
  -25.9377  -30.8267   21.3613 C   0  0  0  0  0  0
  -26.0172  -29.4586   20.7112 C   0  0  0  0  0  0
  -27.2169  -28.7084   20.6924 C   0  0  0  0  0  0
  -26.0632  -26.9138   19.5168 C   0  0  0  0  0  0
  -24.8746  -27.6702   19.5187 C   0  0  0  0  0  0
  -23.6168  -29.8041   20.1647 C   0  0  0  0  0  0
  -25.4118  -36.3109   24.0335 C   0  0  1  0  0  0
  -20.5870  -28.3681   23.1312 C   0  0  2  0  0  0
  -20.6753  -26.9407   22.5476 C   0  0  0  0  0  0
  -19.5739  -26.6409   21.5235 C   0  0  0  0  0  0
  -18.1920  -26.7914   22.1686 C   0  0  0  0  0  0
  -19.1524  -28.8845   23.2918 C   0  0  0  0  0  0
  -18.9443  -30.1411   23.8995 C   0  0  0  0  0  0
  -17.6455  -30.6583   24.0586 C   0  0  0  0  0  0
  -25.9050  -34.9471   23.5118 C   0  0  0  0  0  0
  -16.5347  -29.9115   23.6313 C   0  0  0  0  0  0
  -16.7245  -28.6531   23.0327 C   0  0  0  0  0  0
  -26.4474  -31.6598   25.0719 C   0  0  0  0  0  0
  -25.3736  -31.3711   26.1461 C   0  0  0  0  0  0
  -27.0313  -30.3034   24.6115 C   0  0  0  0  0  0
  -27.6042  -32.4323   25.7482 C   0  0  0  0  0  0
  -27.5582  -37.1808   24.8462 C   0  0  0  0  0  0
  -21.4136  -29.3075   22.3737 N   0  0  0  0  0  0
  -26.4309  -37.3778   23.9396 N   0  0  0  0  0  0
  -24.6712  -31.0763   22.0950 N   0  0  0  0  0  0
  -23.4187  -28.8138   23.2976 O   0  0  0  0  0  0
  -28.3914  -26.6620   20.1111 O   0  0  0  0  0  0
  -26.5610  -34.8921   22.4689 O   0  0  0  0  0  0
  -23.5341  -32.1374   23.7475 O   0  0  0  0  0  0
  -32.1242  -18.7110   20.2566 C   0  0  0  0  0  0
  -31.7812  -17.3856   20.5429 C   0  0  0  0  0  0
  -31.1303  -19.6921   20.1642 C   0  0  0  0  0  0
  -29.4137  -18.0054   20.6931 C   0  0  0  0  0  0
  -30.4325  -16.9894   20.7330 C   0  0  0  0  0  0
  -29.7701  -19.3688   20.3777 C   0  0  0  0  0  0
  -26.8817  -18.3292   21.0443 C   0  0  0  0  0  0
  -28.0086  -17.5917   20.9880 C   0  0  0  0  0  0
  -28.5565  -24.1709   19.7623 C   0  0  0  0  0  0
  -28.5453  -22.7914   20.4829 C   0  0  0  0  0  0
  -28.2749  -25.3579   20.7207 C   0  0  0  0  0  0
  -28.9513  -21.5859   19.5998 C   0  0  0  0  0  0
  -30.1046  -15.5942   20.9826 N   0  0  0  0  0  0
  -28.7962  -20.3577   20.3396 O   0  0  0  0  0  0
  -31.4472  -12.3774   19.1383 H   0  0  0  0  0  0
  -30.2845  -11.3120   19.8721 H   0  0  0  0  0  0
  -29.7293  -11.7650   17.4502 H   0  0  0  0  0  0
  -29.6658  -13.4789   17.7780 H   0  0  0  0  0  0
  -27.8147  -11.3114   18.8302 H   0  0  0  0  0  0
  -27.3632  -12.6348   17.7904 H   0  0  0  0  0  0
  -27.6799  -14.2628   19.5409 H   0  0  0  0  0  0
  -28.6641  -12.0712   21.4368 H   0  0  0  0  0  0
  -28.4643  -13.7528   21.8254 H   0  0  0  0  0  0
  -25.2742   -9.5687   22.4763 H   0  0  0  0  0  0
  -24.0001   -7.4616   22.7456 H   0  0  0  0  0  0
  -21.0845   -8.8731   19.8935 H   0  0  0  0  0  0
  -22.3660  -10.9651   19.6178 H   0  0  0  0  0  0
  -21.1954   -7.6116   23.9702 H   0  0  0  0  0  0
  -21.1515   -6.0502   25.9082 H   0  0  0  0  0  0
  -22.0586   -2.7582   23.2872 H   0  0  0  0  0  0
  -22.4060  -11.9855   22.4878 H   0  0  0  0  0  0
  -21.1038  -13.1145   22.2611 H   0  0  0  0  0  0
  -24.6428  -15.8333   20.5591 H   0  0  0  0  0  0
  -26.2467  -15.6465   20.0706 H   0  0  0  0  0  0
  -26.7119  -32.5500   23.1147 H   0  0  0  0  0  0
  -25.0061  -33.9764   25.0462 H   0  0  0  0  0  0
  -22.6971  -31.3028   21.3963 H   0  0  0  0  0  0
  -23.3748  -35.9642   23.3316 H   0  0  0  0  0  0
  -24.3581  -36.8900   22.2046 H   0  0  0  0  0  0
  -23.7250  -37.6525   23.6644 H   0  0  0  0  0  0
  -26.0604  -31.5891   20.5905 H   0  0  0  0  0  0
  -26.8212  -30.8800   21.9839 H   0  0  0  0  0  0
  -28.1177  -29.1037   21.1411 H   0  0  0  0  0  0
  -26.0665  -25.9323   19.0641 H   0  0  0  0  0  0
  -23.9804  -27.2620   19.0683 H   0  0  0  0  0  0
  -23.7241  -30.5660   19.3931 H   0  0  0  0  0  0
  -22.7445  -29.2146   19.8755 H   0  0  0  0  0  0
  -25.1298  -36.1968   25.0825 H   0  0  0  0  0  0
  -20.9977  -28.3273   24.1419 H   0  0  0  0  0  0
  -20.5534  -26.2323   23.3659 H   0  0  0  0  0  0
  -21.6639  -26.7375   22.1348 H   0  0  0  0  0  0
  -19.6936  -25.6381   21.1127 H   0  0  0  0  0  0
  -19.6681  -27.3309   20.6864 H   0  0  0  0  0  0
  -17.4136  -26.6542   21.4178 H   0  0  0  0  0  0
  -18.0452  -26.0160   22.9212 H   0  0  0  0  0  0
  -19.7902  -30.7201   24.2460 H   0  0  0  0  0  0
  -17.5061  -31.6247   24.5211 H   0  0  0  0  0  0
  -15.5374  -30.3098   23.7620 H   0  0  0  0  0  0
  -15.8646  -28.0854   22.7022 H   0  0  0  0  0  0
  -24.5901  -30.7072   25.7782 H   0  0  0  0  0  0
  -24.8956  -32.2879   26.4927 H   0  0  0  0  0  0
  -25.8096  -30.8855   27.0200 H   0  0  0  0  0  0
  -26.2875  -29.6786   24.1160 H   0  0  0  0  0  0
  -27.4049  -29.7285   25.4598 H   0  0  0  0  0  0
  -27.8720  -30.4322   23.9298 H   0  0  0  0  0  0
  -27.2650  -33.3595   26.2108 H   0  0  0  0  0  0
  -28.3841  -32.6917   25.0313 H   0  0  0  0  0  0
  -28.0734  -31.8421   26.5352 H   0  0  0  0  0  0
  -28.2616  -38.0088   24.7509 H   0  0  0  0  0  0
  -28.1070  -36.2627   24.6310 H   0  0  0  0  0  0
  -27.2303  -37.1484   25.8864 H   0  0  0  0  0  0
  -20.9275  -29.8847   21.7012 H   0  0  0  0  0  0
  -26.0209  -38.2861   24.1363 H   0  0  0  0  0  0
  -33.1646  -18.9727   20.1209 H   0  0  0  0  0  0
  -32.6024  -16.6910   20.6213 H   0  0  0  0  0  0
  -31.4679  -20.6973   19.9679 H   0  0  0  0  0  0
  -26.8359  -19.3909   20.8709 H   0  0  0  0  0  0
  -25.9390  -17.8551   21.2797 H   0  0  0  0  0  0
  -27.8505  -16.5479   21.1989 H   0  0  0  0  0  0
  -29.5259  -24.3256   19.2901 H   0  0  0  0  0  0
  -27.8279  -24.1607   18.9534 H   0  0  0  0  0  0
  -27.5474  -22.6155   20.8872 H   0  0  0  0  0  0
  -29.2120  -22.8276   21.3468 H   0  0  0  0  0  0
  -29.0117  -25.3244   21.5224 H   0  0  0  0  0  0
  -27.3014  -25.2206   21.1984 H   0  0  0  0  0  0
  -29.9328  -21.7580   19.1677 H   0  0  0  0  0  0
  -28.2806  -21.5270   18.7426 H   0  0  0  0  0  0
  -29.1773  -15.4128   21.3368 H   0  0  0  0  0  0
  1 25  1  0  0  0
  1 30  2  0  0  0
  1 83  1  0  0  0
  2  3  1  0  0  0
  2 25  1  0  0  0
  2 85  1  0  0  0
  2 86  1  0  0  0
  3  4  1  0  0  0
  3 87  1  0  0  0
  3 88  1  0  0  0
  4  5  1  0  0  0
  4 89  1  0  0  0
  4 90  1  0  0  0
  5  6  1  0  0  0
  5 26  1  0  0  0
  5 91  1  0  0  0
  6 25  1  0  0  0
  6 92  1  0  0  0
  6 93  1  0  0  0
  7  8  2  0  0  0
  7 26  1  0  0  0
  7 29  1  0  0  0
  8  9  1  0  0  0
  8 22  1  0  0  0
  9 10  1  0  0  0
  9 27  2  0  0  0
 10 11  2  0  0  0
 10 15  1  0  0  0
 11 12  1  0  0  0
 11 94  1  0  0  0
 12 13  2  0  0  0
 12 95  1  0  0  0
 13 14  1  0  0  0
 13 31  1  0  0  0
 14 15  2  0  0  0
 14 96  1  0  0  0
 15 97  1  0  0  0
 16 17  2  0  0  0
 16 21  1  0  0  0
 16 31  1  0  0  0
 17 18  1  0  0  0
 17 98  1  0  0  0
 18 19  2  0  0  0
 18 99  1  0  0  0
 19 20  1  0  0  0
 19 24  1  0  0  0
 20 21  2  0  0  0
 20100  1  0  0  0
 21 23  1  0  0  0
 22 28  1  0  0  0
 22 32  2  0  0  0
 26 27  1  0  0  0
 28101  1  0  0  0
 28102  1  0  0  0
 29103  1  0  0  0
 29104  1  0  0  0
 33 34  1  0  0  0
 33 66  1  0  0  0
 33 70  2  0  0  0
 34 36  1  0  0  0
 34 59  1  0  0  0
 34105  1  0  0  0
 35 44  2  0  0  0
 35 45  1  0  0  0
 35 68  1  0  0  0
 36 56  1  0  0  0
 36106  1  0  0  0
 37 39  1  0  0  0
 37 47  1  0  0  0
 37 66  1  0  0  0
 37107  1  0  0  0
 38 43  2  0  0  0
 38 46  1  0  0  0
 38 47  1  0  0  0
 39 64  1  0  0  0
 39 67  2  0  0  0
 40 52  1  0  0  0
 40 53  2  0  0  0
 40 58  1  0  0  0
 41108  1  0  0  0
 41109  1  0  0  0
 41110  1  0  0  0
 41 48  1  0  0  0
 42 43  1  0  0  0
 42 66  1  0  0  0
 42111  1  0  0  0
 42112  1  0  0  0
 43 44  1  0  0  0
 44113  1  0  0  0
 45 46  2  0  0  0
 45114  1  0  0  0
 46115  1  0  0  0
 47116  1  0  0  0
 47117  1  0  0  0
 48 56  1  0  0  0
 48 65  1  0  0  0
 48118  1  0  0  0
 49 50  1  0  0  0
 49 53  1  0  0  0
 49 64  1  0  0  0
 49119  1  0  0  0
 50 51  1  0  0  0
 50120  1  0  0  0
 50121  1  0  0  0
 51 52  1  0  0  0
 51122  1  0  0  0
 51123  1  0  0  0
 52124  1  0  0  0
 52125  1  0  0  0
 53 54  1  0  0  0
 54 55  2  0  0  0
 54126  1  0  0  0
 55 57  1  0  0  0
 55127  1  0  0  0
 56 69  2  0  0  0
 57 58  2  0  0  0
 57128  1  0  0  0
 58129  1  0  0  0
 59 60  1  0  0  0
 59 61  1  0  0  0
 59 62  1  0  0  0
 60130  1  0  0  0
 60131  1  0  0  0
 60132  1  0  0  0
 61133  1  0  0  0
 61134  1  0  0  0
 61135  1  0  0  0
 62136  1  0  0  0
 62137  1  0  0  0
 62138  1  0  0  0
 63 65  1  0  0  0
 63139  1  0  0  0
 63140  1  0  0  0
 63141  1  0  0  0
 64142  1  0  0  0
 65143  1  0  0  0
 68 81  1  0  0  0
 71 72  2  0  0  0
 71 73  1  0  0  0
 71144  1  0  0  0
 72 75  1  0  0  0
 72145  1  0  0  0
 73 76  2  0  0  0
 73146  1  0  0  0
 74 75  2  0  0  0
 74 76  1  0  0  0
 74 78  1  0  0  0
 75 83  1  0  0  0
 76 84  1  0  0  0
 77 78  2  0  0  0
 77147  1  0  0  0
 77148  1  0  0  0
 78149  1  0  0  0
 79 80  1  0  0  0
 79 81  1  0  0  0
 79150  1  0  0  0
 79151  1  0  0  0
 80 82  1  0  0  0
 80152  1  0  0  0
 80153  1  0  0  0
 81154  1  0  0  0
 81155  1  0  0  0
 82 84  1  0  0  0
 82156  1  0  0  0
 82157  1  0  0  0
 83158  1  0  0  0
M  ISO  4   1 100  68 101  81 101  83 100
M  END
> <chiral flag>
0

> <version>
0

> <s_m_source_file>
/data/baiqing/PycharmProjects/Reinvent-master-3.2/result/LINK_invent/BTK/process_docking_weight1_custom_product_contain_oxygen_bond_distance_aromatic_linkinvent_7_9_3/rearranged_h_0119.sdf

> <i_m_source_file_index>
41

> <r_mmod_Potential_Energy-OPLS-2005>
34.0363731384277

> <r_mmod_Stretch_Energy-OPLS-2005>
51.2002067565918

> <r_mmod_Bend_Energy-OPLS-2005>
118.388977050781

> <r_mmod_Torsional_Energy-OPLS-2005>
237.606842041016

> <r_mmod_Improper_Torsional_Energy-OPLS-2005>
4.0794620513916

> <r_mmod_Van_der_Waal_Energy-OPLS-2005>
169.073837280273

> <r_mmod_Electrostatic_Energy-OPLS-2005>
-365.187622070312

> <r_mmod_Solvation_Energy-OPLS-2005>
-200.808868408203

> <b_mmod_Minimization_Converged-OPLS-2005>
0

> <r_mmod_RMS_Derivative-OPLS-2005>
4.42833995819092

$$$$
41
                    3D
 Structure written by MMmdl.
159167  0  0  1  0            999 V2000
  -27.2026  -17.7345   21.1184 C   0  0  0  0  0  0
  -29.1955  -15.1534   19.9515 C   0  0  0  0  0  0
  -29.2553  -13.7990   18.9052 C   0  0  0  0  0  0
  -28.2591  -12.6885   19.2070 C   0  0  0  0  0  0
  -27.2767  -13.5386   19.9858 C   0  0  2  0  0  0
  -27.7130  -14.4937   21.2010 C   0  0  0  0  0  0
  -24.9901  -13.8198   20.5301 C   0  0  0  0  0  0
  -24.0146  -12.9971   20.9294 C   0  0  0  0  0  0
  -24.5565  -11.6724   20.8864 C   0  0  0  0  0  0
  -23.8727  -10.4017   21.0451 C   0  0  0  0  0  0
  -24.3451   -9.4046   21.9224 C   0  0  0  0  0  0
  -23.6202   -8.2057   22.0760 C   0  0  0  0  0  0
  -22.4193   -8.0076   21.3542 C   0  0  0  0  0  0
  -21.9745   -8.9963   20.4625 C   0  0  0  0  0  0
  -22.6977  -10.1848   20.3035 C   0  0  0  0  0  0
  -21.6802   -6.0630   22.5304 C   0  0  0  0  0  0
  -21.3975   -6.5577   23.8220 C   0  0  0  0  0  0
  -21.3641   -5.6749   24.9191 C   0  0  0  0  0  0
  -21.6040   -4.3014   24.7264 C   0  0  0  0  0  0
  -21.8826   -3.8087   23.4399 C   0  0  0  0  0  0
  -21.9183   -4.6876   22.3442 C   0  0  0  0  0  0
  -22.6331  -13.4617   21.2142 C   0  0  0  0  0  0
  -22.1663   -4.2068   21.1020 F   0  0  0  0  0  0
  -21.5635   -3.4516   25.7790 F   0  0  0  0  0  0
  -27.8212  -16.0127   20.7453 N   0  0  0  0  0  0
  -26.0582  -12.9931   20.3299 N   0  0  0  0  0  0
  -25.8490  -11.6852   20.5765 N   0  0  0  0  0  0
  -21.9353  -12.7643   22.0941 N   0  0  0  0  0  0
  -25.0481  -15.2009   20.3271 N   0  0  0  0  0  0
  -28.5618  -17.6720   20.9049 O   0  0  0  0  0  0
  -21.6572   -6.8708   21.4244 O   0  0  0  0  0  0
  -22.1993  -14.4967   20.7061 O   0  0  0  0  0  0
  -24.6668  -32.0781   23.0212 C   0  0  0  0  0  0
  -25.9334  -32.5692   23.8054 C   0  0  1  0  0  0
  -26.6586  -27.4545   20.8802 C   0  0  0  0  0  0
  -25.6169  -33.9213   24.2453 N   0  0  0  0  0  0
  -23.5728  -30.7546   21.1563 C   0  0  2  0  0  0
  -25.0654  -29.2762   19.7150 C   0  0  0  0  0  0
  -23.5578  -29.4741   21.8895 C   0  0  0  0  0  0
  -19.0154  -25.6550   22.3972 C   0  0  0  0  0  0
  -24.1462  -36.7603   23.2622 C   0  0  0  0  0  0
  -26.0699  -31.1152   21.1427 C   0  0  0  0  0  0
  -26.1375  -29.7171   20.5186 C   0  0  0  0  0  0
  -27.0577  -28.7849   21.0015 C   0  0  0  0  0  0
  -25.9346  -27.0161   19.7561 C   0  0  0  0  0  0
  -25.0115  -27.9407   19.2471 C   0  0  0  0  0  0
  -23.8586  -30.2208   19.7178 C   0  0  0  0  0  0
  -25.4085  -36.3510   24.0358 C   0  0  1  0  0  0
  -22.6337  -26.9808   22.2868 C   0  0  2  0  0  0
  -22.0151  -26.8211   20.4666 C   0  0  0  0  0  0
  -20.2801  -26.3981   19.9266 C   0  0  0  0  0  0
  -18.9171  -25.8244   20.8345 C   0  0  0  0  0  0
  -21.1629  -26.4097   23.8365 C   0  0  0  0  0  0
  -20.2948  -27.4930   25.2610 C   0  0  0  0  0  0
  -18.6260  -28.0083   25.3109 C   0  0  0  0  0  0
  -25.9077  -34.9990   23.5133 C   0  0  0  0  0  0
  -17.3873  -27.5109   24.3342 C   0  0  0  0  0  0
  -17.5007  -26.4070   23.0737 C   0  0  0  0  0  0
  -26.4397  -31.6998   25.0315 C   0  0  0  0  0  0
  -25.3615  -31.3605   26.0886 C   0  0  0  0  0  0
  -27.0683  -30.3980   24.5096 C   0  0  0  0  0  0
  -27.5916  -32.4401   25.7561 C   0  0  0  0  0  0
  -27.5617  -37.1975   24.8462 C   0  0  0  0  0  0
  -22.8841  -28.3792   21.5754 N   0  0  0  0  0  0
  -26.4284  -37.4157   23.9496 N   0  0  0  0  0  0
  -24.7649  -31.4792   21.7707 N   0  0  0  0  0  0
  -24.3129  -29.4271   22.8014 O   0  0  0  0  0  0
  -26.3004  -26.7902   22.0630 O   0  0  0  0  0  0
  -26.5464  -34.9433   22.4583 O   0  0  0  0  0  0
  -23.5672  -32.2216   23.5806 O   0  0  0  0  0  0
  -19.3599  -25.4455   24.5081 C   0  0  0  0  0  0
  -19.4682  -27.6111   23.1569 C   0  0  0  0  0  0
  -21.2724  -25.1012   21.9246 C   0  0  0  0  0  0
  -20.6410  -24.0202   23.8571 C   0  0  0  0  0  0
  -22.0137  -23.4338   22.6215 C   0  0  0  0  0  0
  -20.4221  -27.4254   22.0749 C   0  0  0  0  0  0
  -19.4642  -22.3734   25.2783 C   0  0  0  0  0  0
  -20.5964  -22.9211   24.8159 C   0  0  0  0  0  0
  -23.8930  -21.1469   22.1293 C   0  0  0  0  0  0
  -25.5069  -19.7068   21.5897 C   0  0  0  0  0  0
  -22.1636  -28.8379   24.0874 C   0  0  0  0  0  0
  -23.5684  -26.6516   25.4679 C   0  0  0  0  0  0
  -25.4057  -27.3044   23.4403 C   0  0  0  0  0  0
  -23.7635  -27.7632   24.4086 C   0  0  1  0  0  0
  -21.0225  -28.7363   23.0801 N   0  0  0  0  0  0
  -29.6254  -15.9479   19.3361 H   0  0  0  0  0  0
  -30.0004  -15.0443   20.6847 H   0  0  0  0  0  0
  -30.2682  -13.3975   18.8671 H   0  0  0  0  0  0
  -29.0539  -14.1528   17.8931 H   0  0  0  0  0  0
  -28.6899  -11.9126   19.8420 H   0  0  0  0  0  0
  -27.8327  -12.2376   18.3066 H   0  0  0  0  0  0
  -26.9673  -14.2101   19.1762 H   0  0  0  0  0  0
  -28.5245  -14.0828   21.8125 H   0  0  0  0  0  0
  -26.9505  -14.5354   21.9798 H   0  0  0  0  0  0
  -25.2543   -9.5650   22.4843 H   0  0  0  0  0  0
  -23.9924   -7.4469   22.7484 H   0  0  0  0  0  0
  -21.0677   -8.8410   19.8955 H   0  0  0  0  0  0
  -22.3363  -10.9383   19.6181 H   0  0  0  0  0  0
  -21.1948   -7.6086   23.9694 H   0  0  0  0  0  0
  -21.1458   -6.0496   25.9087 H   0  0  0  0  0  0
  -22.0631   -2.7551   23.2921 H   0  0  0  0  0  0
  -22.3133  -11.9336   22.5239 H   0  0  0  0  0  0
  -21.0035  -13.0628   22.3428 H   0  0  0  0  0  0
  -24.2150  -15.7774   20.3629 H   0  0  0  0  0  0
  -25.8545  -15.6637   19.9294 H   0  0  0  0  0  0
  -26.7884  -32.6635   23.1450 H   0  0  0  0  0  0
  -25.0480  -34.0287   25.0726 H   0  0  0  0  0  0
  -22.6358  -31.3098   21.2447 H   0  0  0  0  0  0
  -23.3775  -35.9881   23.3244 H   0  0  0  0  0  0
  -24.3576  -36.9252   22.2049 H   0  0  0  0  0  0
  -23.7114  -37.6767   23.6623 H   0  0  0  0  0  0
  -26.2692  -31.8387   20.3530 H   0  0  0  0  0  0
  -26.9227  -31.1821   21.8025 H   0  0  0  0  0  0
  -27.6734  -29.0735   21.8407 H   0  0  0  0  0  0
  -25.7101  -25.9681   19.6175 H   0  0  0  0  0  0
  -24.1985  -27.6017   18.6240 H   0  0  0  0  0  0
  -24.1000  -31.0651   19.0705 H   0  0  0  0  0  0
  -22.9858  -29.7513   19.2672 H   0  0  0  0  0  0
  -25.1218  -36.2359   25.0830 H   0  0  0  0  0  0
  -23.5082  -26.3381   22.3244 H   0  0  0  0  0  0
  -22.6601  -26.0577   20.0297 H   0  0  0  0  0  0
  -22.2712  -27.5762   19.7109 H   0  0  0  0  0  0
  -20.3637  -25.7294   19.0694 H   0  0  0  0  0  0
  -19.9238  -27.3175   19.4525 H   0  0  0  0  0  0
  -18.0727  -26.4721   20.5972 H   0  0  0  0  0  0
  -18.6349  -24.8395   20.4544 H   0  0  0  0  0  0
  -20.8991  -27.9157   26.0457 H   0  0  0  0  0  0
  -18.3587  -28.6738   26.1176 H   0  0  0  0  0  0
  -16.4070  -27.9127   24.5462 H   0  0  0  0  0  0
  -16.6039  -26.2775   22.4865 H   0  0  0  0  0  0
  -25.6995  -30.5611   26.7509 H   0  0  0  0  0  0
  -24.4235  -31.0263   25.6446 H   0  0  0  0  0  0
  -25.1430  -32.2248   26.7190 H   0  0  0  0  0  0
  -27.2798  -29.6705   25.2930 H   0  0  0  0  0  0
  -28.0021  -30.5880   23.9796 H   0  0  0  0  0  0
  -26.4082  -29.9510   23.7865 H   0  0  0  0  0  0
  -27.2574  -33.3632   26.2312 H   0  0  0  0  0  0
  -28.3891  -32.7077   25.0609 H   0  0  0  0  0  0
  -28.0373  -31.8230   26.5382 H   0  0  0  0  0  0
  -28.2583  -38.0340   24.7691 H   0  0  0  0  0  0
  -28.1165  -36.2898   24.6020 H   0  0  0  0  0  0
  -27.2389  -37.1331   25.8875 H   0  0  0  0  0  0
  -22.2475  -28.5327   20.8128 H   0  0  0  0  0  0
  -26.0207  -38.3202   24.1710 H   0  0  0  0  0  0
  -18.7109  -25.2869   25.3609 H   0  0  0  0  0  0
  -18.9193  -28.5662   23.1017 H   0  0  0  0  0  0
  -21.3495  -24.6807   20.9307 H   0  0  0  0  0  0
  -19.5024  -21.5721   26.0022 H   0  0  0  0  0  0
  -18.4964  -22.7080   24.9329 H   0  0  0  0  0  0
  -21.5506  -22.5578   25.1772 H   0  0  0  0  0  0
  -23.2681  -20.3972   22.5925 H   0  0  0  0  0  0
  -26.1480  -20.4552   21.1512 H   0  0  0  0  0  0
  -22.1829  -29.7327   24.7219 H   0  0  0  0  0  0
  -23.3410  -25.6842   25.0160 H   0  0  0  0  0  0
  -22.7906  -26.8924   26.1908 H   0  0  0  0  0  0
  -24.4842  -26.5074   26.0403 H   0  0  0  0  0  0
  -25.6064  -26.3853   23.9826 H   0  0  0  0  0  0
  -26.1472  -27.9287   23.9157 H   0  0  0  0  0  0
  -24.2369  -28.4937   25.0688 H   0  0  0  0  0  0
  1 25  1  0  0  0
  1 30  2  0  0  0
  1 80  1  0  0  0
  2  3  1  0  0  0
  2 25  1  0  0  0
  2 86  1  0  0  0
  2 87  1  0  0  0
  3  4  1  0  0  0
  3 88  1  0  0  0
  3 89  1  0  0  0
  4  5  1  0  0  0
  4 90  1  0  0  0
  4 91  1  0  0  0
  5  6  1  0  0  0
  5 26  1  0  0  0
  5 92  1  0  0  0
  6 25  1  0  0  0
  6 93  1  0  0  0
  6 94  1  0  0  0
  7  8  2  0  0  0
  7 26  1  0  0  0
  7 29  1  0  0  0
  8  9  1  0  0  0
  8 22  1  0  0  0
  9 10  1  0  0  0
  9 27  2  0  0  0
 10 11  2  0  0  0
 10 15  1  0  0  0
 11 12  1  0  0  0
 11 95  1  0  0  0
 12 13  2  0  0  0
 12 96  1  0  0  0
 13 14  1  0  0  0
 13 31  1  0  0  0
 14 15  2  0  0  0
 14 97  1  0  0  0
 15 98  1  0  0  0
 16 17  2  0  0  0
 16 21  1  0  0  0
 16 31  1  0  0  0
 17 18  1  0  0  0
 17 99  1  0  0  0
 18 19  2  0  0  0
 18100  1  0  0  0
 19 20  1  0  0  0
 19 24  1  0  0  0
 20 21  2  0  0  0
 20101  1  0  0  0
 21 23  1  0  0  0
 22 28  1  0  0  0
 22 32  2  0  0  0
 26 27  1  0  0  0
 28102  1  0  0  0
 28103  1  0  0  0
 29104  1  0  0  0
 29105  1  0  0  0
 33 34  1  0  0  0
 33 66  1  0  0  0
 33 70  2  0  0  0
 34 36  1  0  0  0
 34 59  1  0  0  0
 34106  1  0  0  0
 35 44  2  0  0  0
 35 45  1  0  0  0
 35 68  1  0  0  0
 36 56  1  0  0  0
 36107  1  0  0  0
 37 39  1  0  0  0
 37 47  1  0  0  0
 37 66  1  0  0  0
 37108  1  0  0  0
 38 43  2  0  0  0
 38 46  1  0  0  0
 38 47  1  0  0  0
 39 64  1  0  0  0
 39 67  2  0  0  0
 40 52  1  0  0  0
 40 53  2  0  0  0
 40 58  1  0  0  0
 41109  1  0  0  0
 41110  1  0  0  0
 41111  1  0  0  0
 41 48  1  0  0  0
 42 43  1  0  0  0
 42 66  1  0  0  0
 42112  1  0  0  0
 42113  1  0  0  0
 43 44  1  0  0  0
 44114  1  0  0  0
 45 46  2  0  0  0
 45115  1  0  0  0
 46116  1  0  0  0
 47117  1  0  0  0
 47118  1  0  0  0
 48 56  1  0  0  0
 48 65  1  0  0  0
 48119  1  0  0  0
 49 50  1  0  0  0
 49 53  1  0  0  0
 49 64  1  0  0  0
 49120  1  0  0  0
 50 51  1  0  0  0
 50121  1  0  0  0
 50122  1  0  0  0
 51 52  1  0  0  0
 51123  1  0  0  0
 51124  1  0  0  0
 52125  1  0  0  0
 52126  1  0  0  0
 53 54  1  0  0  0
 54 55  2  0  0  0
 54127  1  0  0  0
 55 57  1  0  0  0
 55128  1  0  0  0
 56 69  2  0  0  0
 57 58  2  0  0  0
 57129  1  0  0  0
 58130  1  0  0  0
 59 60  1  0  0  0
 59 61  1  0  0  0
 59 62  1  0  0  0
 60131  1  0  0  0
 60132  1  0  0  0
 60133  1  0  0  0
 61134  1  0  0  0
 61135  1  0  0  0
 61136  1  0  0  0
 62137  1  0  0  0
 62138  1  0  0  0
 62139  1  0  0  0
 63 65  1  0  0  0
 63140  1  0  0  0
 63141  1  0  0  0
 63142  1  0  0  0
 64143  1  0  0  0
 65144  1  0  0  0
 68 83  1  0  0  0
 71 72  2  0  0  0
 71 74  1  0  0  0
 71145  1  0  0  0
 72 76  1  0  0  0
 72146  1  0  0  0
 73 75  1  0  0  0
 73 76  2  0  0  0
 73147  1  0  0  0
 74 75  2  0  0  0
 74 78  1  0  0  0
 75 79  1  0  0  0
 76 85  1  0  0  0
 77 78  2  0  0  0
 77148  1  0  0  0
 77149  1  0  0  0
 78150  1  0  0  0
 79 80  2  0  0  0
 79151  1  0  0  0
 80152  1  0  0  0
 81 84  1  0  0  0
 81 85  2  0  0  0
 81153  1  0  0  0
 82154  1  0  0  0
 82155  1  0  0  0
 82156  1  0  0  0
 82 84  1  0  0  0
 83 84  1  0  0  0
 83157  1  0  0  0
 83158  1  0  0  0
 84159  1  0  0  0
M  ISO  4   1 100  68 101  80 100  83 101
M  END
> <chiral flag>
0

> <version>
0

> <s_m_source_file>
/data/baiqing/PycharmProjects/Reinvent-master-3.2/result/LINK_invent/BTK/process_docking_weight1_custom_product_contain_oxygen_bond_distance_aromatic_linkinvent_7_9_3/rearranged_h_0119.sdf

> <i_m_source_file_index>
42

> <r_mmod_Potential_Energy-OPLS-2005>
47357.30859375

> <r_mmod_Stretch_Energy-OPLS-2005>
22050.19921875

> <r_mmod_Bend_Energy-OPLS-2005>
2985.34130859375

> <r_mmod_Torsional_Energy-OPLS-2005>
730.437744140625

> <r_mmod_Improper_Torsional_Energy-OPLS-2005>
103.049674987793

> <r_mmod_Van_der_Waal_Energy-OPLS-2005>
5787.3447265625

> <r_mmod_Electrostatic_Energy-OPLS-2005>
-337.695190429688

> <r_mmod_Solvation_Energy-OPLS-2005>
-177.717407226562

> <b_mmod_Minimization_Converged-OPLS-2005>
0

> <r_mmod_RMS_Derivative-OPLS-2005>
10.374472618103

$$$$
42
                    3D
 Structure written by MMmdl.
164172  0  0  1  0            999 V2000
  -30.6784  -14.4535   20.5845 C   0  0  0  0  0  0
  -30.4323  -12.3011   19.4171 C   0  0  0  0  0  0
  -29.4998  -12.5123   18.2050 C   0  0  0  0  0  0
  -28.0171  -12.3739   18.6107 C   0  0  0  0  0  0
  -27.6651  -13.1959   19.8810 C   0  0  2  0  0  0
  -28.7047  -12.9301   20.9908 C   0  0  0  0  0  0
  -25.2607  -13.8109   20.5651 C   0  0  0  0  0  0
  -24.1851  -13.0410   20.9155 C   0  0  0  0  0  0
  -24.6389  -11.6876   20.8733 C   0  0  0  0  0  0
  -23.9053  -10.4272   21.0399 C   0  0  0  0  0  0
  -24.3604   -9.4192   21.9181 C   0  0  0  0  0  0
  -23.6281   -8.2231   22.0756 C   0  0  0  0  0  0
  -22.4263   -8.0272   21.3537 C   0  0  0  0  0  0
  -21.9891   -9.0247   20.4643 C   0  0  0  0  0  0
  -22.7219  -10.2123   20.3054 C   0  0  0  0  0  0
  -21.6858   -6.0727   22.5272 C   0  0  0  0  0  0
  -21.4018   -6.5636   23.8206 C   0  0  0  0  0  0
  -21.3658   -5.6789   24.9168 C   0  0  0  0  0  0
  -21.6043   -4.3055   24.7218 C   0  0  0  0  0  0
  -21.8827   -3.8142   23.4345 C   0  0  0  0  0  0
  -21.9197   -4.6955   22.3398 C   0  0  0  0  0  0
  -22.7882  -13.5236   21.1810 C   0  0  0  0  0  0
  -22.1668   -4.2146   21.0975 F   0  0  0  0  0  0
  -21.5623   -3.4533   25.7733 F   0  0  0  0  0  0
  -30.0295  -13.2654   20.4505 N   0  0  0  0  0  0
  -26.3037  -12.9267   20.3373 N   0  0  0  0  0  0
  -25.9315  -11.6432   20.5761 N   0  0  0  0  0  0
  -22.0537  -12.8243   22.0387 N   0  0  0  0  0  0
  -25.4338  -15.1811   20.4037 N   0  0  0  0  0  0
  -31.8094  -14.6539   20.1324 O   0  0  0  0  0  0
  -21.6642   -6.8856   21.4231 O   0  0  0  0  0  0
  -22.3569  -14.5549   20.6672 O   0  0  0  0  0  0
  -24.6122  -31.8704   23.2132 C   0  0  0  0  0  0
  -25.9028  -32.4843   23.8406 C   0  0  1  0  0  0
  -27.2259  -27.4574   20.0690 C   0  0  0  0  0  0
  -25.5887  -33.8642   24.2346 N   0  0  0  0  0  0
  -23.3974  -30.4963   21.5586 C   0  0  2  0  0  0
  -24.8362  -28.9669   20.1176 C   0  0  0  0  0  0
  -22.7353  -29.4687   22.5023 C   0  0  0  0  0  0
  -18.0247  -28.1388   22.8506 C   0  0  0  0  0  0
  -24.1489  -36.7320   23.2641 C   0  0  0  0  0  0
  -25.9266  -30.8418   21.3633 C   0  0  0  0  0  0
  -26.0027  -29.4832   20.6989 C   0  0  0  0  0  0
  -27.2044  -28.7394   20.6596 C   0  0  0  0  0  0
  -26.0367  -26.9459   19.5037 C   0  0  0  0  0  0
  -24.8479  -27.6972   19.5187 C   0  0  0  0  0  0
  -23.5975  -29.8332   20.1721 C   0  0  0  0  0  0
  -25.4107  -36.3131   24.0344 C   0  0  1  0  0  0
  -20.5842  -28.3639   23.1273 C   0  0  2  0  0  0
  -20.6741  -26.9387   22.5354 C   0  0  0  0  0  0
  -19.5716  -26.6400   21.5148 C   0  0  0  0  0  0
  -18.1855  -26.7979   22.1569 C   0  0  0  0  0  0
  -19.1519  -28.8821   23.2910 C   0  0  0  0  0  0
  -18.9485  -30.1404   23.8978 C   0  0  0  0  0  0
  -17.6523  -30.6588   24.0611 C   0  0  0  0  0  0
  -25.9033  -34.9494   23.5142 C   0  0  0  0  0  0
  -16.5379  -29.9113   23.6430 C   0  0  0  0  0  0
  -16.7234  -28.6519   23.0431 C   0  0  0  0  0  0
  -26.4473  -31.6611   25.0730 C   0  0  0  0  0  0
  -25.3736  -31.3682   26.1485 C   0  0  0  0  0  0
  -27.0288  -30.3050   24.6090 C   0  0  0  0  0  0
  -27.6064  -32.4332   25.7489 C   0  0  0  0  0  0
  -27.5583  -37.1813   24.8465 C   0  0  0  0  0  0
  -21.4086  -29.3058   22.3714 N   0  0  0  0  0  0
  -26.4291  -37.3809   23.9398 N   0  0  0  0  0  0
  -24.6644  -31.0814   22.1036 N   0  0  0  0  0  0
  -23.4094  -28.8237   23.3106 O   0  0  0  0  0  0
  -28.3958  -26.7313   20.0413 O   0  0  0  0  0  0
  -26.5608  -34.8949   22.4701 O   0  0  0  0  0  0
  -23.5324  -32.1443   23.7536 O   0  0  0  0  0  0
  -28.1180  -20.0831   22.2886 C   0  0  0  0  0  0
  -29.5181  -18.3069   23.1861 C   0  0  0  0  0  0
  -28.1144  -17.8851   21.2399 C   0  0  0  0  0  0
  -29.0536  -19.6374   23.2466 C   0  0  0  0  0  0
  -27.6567  -19.2208   21.2743 C   0  0  0  0  0  0
  -29.0523  -17.4238   22.1906 C   0  0  0  0  0  0
  -28.9127  -21.6384   24.7567 C   0  0  0  0  0  0
  -29.5014  -20.5014   24.3488 C   0  0  0  0  0  0
  -26.6394  -19.6831   20.3181 C   0  0  0  0  0  0
  -26.6832  -20.7603   19.5060 C   0  0  0  0  0  0
  -29.5293  -15.9750   22.1871 C   0  0  0  0  0  0
  -27.8334  -21.7269   19.2763 C   0  0  0  0  0  0
  -27.7753  -22.9659   20.1901 C   0  0  0  0  0  0
  -28.2511  -24.2821   19.5429 C   0  0  0  0  0  0
  -28.3020  -25.4134   20.5908 C   0  0  0  0  0  0
  -29.8971  -15.5116   20.8501 N   0  0  0  0  0  0
  -31.4752  -12.4199   19.1147 H   0  0  0  0  0  0
  -30.3495  -11.2839   19.8004 H   0  0  0  0  0  0
  -29.7419  -11.7958   17.4198 H   0  0  0  0  0  0
  -29.6691  -13.5017   17.7770 H   0  0  0  0  0  0
  -27.8142  -11.3163   18.7849 H   0  0  0  0  0  0
  -27.3733  -12.6748   17.7818 H   0  0  0  0  0  0
  -27.7184  -14.2500   19.6094 H   0  0  0  0  0  0
  -28.6842  -11.8800   21.2848 H   0  0  0  0  0  0
  -28.4643  -13.4672   21.9024 H   0  0  0  0  0  0
  -25.2750   -9.5687   22.4741 H   0  0  0  0  0  0
  -24.0001   -7.4632   22.7488 H   0  0  0  0  0  0
  -21.0811   -8.8750   19.8965 H   0  0  0  0  0  0
  -22.3656  -10.9660   19.6166 H   0  0  0  0  0  0
  -21.2018   -7.6145   23.9702 H   0  0  0  0  0  0
  -21.1472   -6.0520   25.9065 H   0  0  0  0  0  0
  -22.0612   -2.7604   23.2841 H   0  0  0  0  0  0
  -22.4145  -11.9887   22.4752 H   0  0  0  0  0  0
  -21.1172  -13.1281   22.2630 H   0  0  0  0  0  0
  -24.6706  -15.8395   20.5025 H   0  0  0  0  0  0
  -26.2929  -15.6107   20.0842 H   0  0  0  0  0  0
  -26.7073  -32.5585   23.1153 H   0  0  0  0  0  0
  -24.9974  -33.9817   25.0457 H   0  0  0  0  0  0
  -22.6880  -31.3164   21.4230 H   0  0  0  0  0  0
  -23.3760  -35.9643   23.3306 H   0  0  0  0  0  0
  -24.3564  -36.8924   22.2045 H   0  0  0  0  0  0
  -23.7238  -37.6527   23.6652 H   0  0  0  0  0  0
  -26.0440  -31.6195   20.6094 H   0  0  0  0  0  0
  -26.8130  -30.8822   21.9848 H   0  0  0  0  0  0
  -28.1099  -29.1470   21.0869 H   0  0  0  0  0  0
  -26.0140  -25.9731   19.0438 H   0  0  0  0  0  0
  -23.9472  -27.2967   19.0764 H   0  0  0  0  0  0
  -23.7032  -30.6105   19.4142 H   0  0  0  0  0  0
  -22.7214  -29.2517   19.8784 H   0  0  0  0  0  0
  -25.1289  -36.1992   25.0833 H   0  0  0  0  0  0
  -20.9946  -28.3161   24.1379 H   0  0  0  0  0  0
  -20.5653  -26.2264   23.3562 H   0  0  0  0  0  0
  -21.6613  -26.7447   22.1120 H   0  0  0  0  0  0
  -19.6877  -25.6325   21.1125 H   0  0  0  0  0  0
  -19.6653  -27.3217   20.6682 H   0  0  0  0  0  0
  -17.4168  -26.6855   21.3910 H   0  0  0  0  0  0
  -18.0121  -26.0075   22.8891 H   0  0  0  0  0  0
  -19.7975  -30.7177   24.2392 H   0  0  0  0  0  0
  -17.5141  -31.6279   24.5213 H   0  0  0  0  0  0
  -15.5431  -30.3031   23.7865 H   0  0  0  0  0  0
  -15.8593  -28.0864   22.7255 H   0  0  0  0  0  0
  -24.5931  -30.7033   25.7800 H   0  0  0  0  0  0
  -24.8918  -32.2818   26.4963 H   0  0  0  0  0  0
  -25.8099  -30.8815   27.0215 H   0  0  0  0  0  0
  -26.2805  -29.6833   24.1165 H   0  0  0  0  0  0
  -27.4062  -29.7281   25.4535 H   0  0  0  0  0  0
  -27.8650  -30.4370   23.9223 H   0  0  0  0  0  0
  -27.2690  -33.3621   26.2089 H   0  0  0  0  0  0
  -28.3856  -32.6883   25.0305 H   0  0  0  0  0  0
  -28.0751  -31.8435   26.5380 H   0  0  0  0  0  0
  -28.2627  -38.0103   24.7532 H   0  0  0  0  0  0
  -28.1076  -36.2628   24.6282 H   0  0  0  0  0  0
  -27.2301  -37.1451   25.8881 H   0  0  0  0  0  0
  -20.9254  -29.8743   21.6910 H   0  0  0  0  0  0
  -26.0190  -38.2886   24.1416 H   0  0  0  0  0  0
  -27.7225  -21.0841   22.3424 H   0  0  0  0  0  0
  -30.2200  -17.9538   23.9289 H   0  0  0  0  0  0
  -27.7322  -17.2074   20.4921 H   0  0  0  0  0  0
  -29.3311  -22.2071   25.5754 H   0  0  0  0  0  0
  -28.0130  -22.0245   24.3003 H   0  0  0  0  0  0
  -30.3986  -20.1845   24.8621 H   0  0  0  0  0  0
  -25.7292  -19.0991   20.3138 H   0  0  0  0  0  0
  -25.7963  -20.9735   18.9220 H   0  0  0  0  0  0
  -28.7217  -15.3830   22.6115 H   0  0  0  0  0  0
  -30.3806  -15.8652   22.8628 H   0  0  0  0  0  0
  -27.7844  -22.0220   18.2258 H   0  0  0  0  0  0
  -28.7901  -21.2172   19.3945 H   0  0  0  0  0  0
  -28.3899  -22.7734   21.0695 H   0  0  0  0  0  0
  -26.7541  -23.1038   20.5529 H   0  0  0  0  0  0
  -27.5738  -24.5347   18.7302 H   0  0  0  0  0  0
  -29.2316  -24.1588   19.0829 H   0  0  0  0  0  0
  -29.1784  -25.2583   21.2224 H   0  0  0  0  0  0
  -27.4436  -25.3434   21.2631 H   0  0  0  0  0  0
  -30.1855  -16.3035   20.2957 H   0  0  0  0  0  0
  1 25  1  0  0  0
  1 30  2  0  0  0
  1 86  1  0  0  0
  2  3  1  0  0  0
  2 25  1  0  0  0
  2 87  1  0  0  0
  2 88  1  0  0  0
  3  4  1  0  0  0
  3 89  1  0  0  0
  3 90  1  0  0  0
  4  5  1  0  0  0
  4 91  1  0  0  0
  4 92  1  0  0  0
  5  6  1  0  0  0
  5 26  1  0  0  0
  5 93  1  0  0  0
  6 25  1  0  0  0
  6 94  1  0  0  0
  6 95  1  0  0  0
  7  8  2  0  0  0
  7 26  1  0  0  0
  7 29  1  0  0  0
  8  9  1  0  0  0
  8 22  1  0  0  0
  9 10  1  0  0  0
  9 27  2  0  0  0
 10 11  2  0  0  0
 10 15  1  0  0  0
 11 12  1  0  0  0
 11 96  1  0  0  0
 12 13  2  0  0  0
 12 97  1  0  0  0
 13 14  1  0  0  0
 13 31  1  0  0  0
 14 15  2  0  0  0
 14 98  1  0  0  0
 15 99  1  0  0  0
 16 17  2  0  0  0
 16 21  1  0  0  0
 16 31  1  0  0  0
 17 18  1  0  0  0
 17100  1  0  0  0
 18 19  2  0  0  0
 18101  1  0  0  0
 19 20  1  0  0  0
 19 24  1  0  0  0
 20 21  2  0  0  0
 20102  1  0  0  0
 21 23  1  0  0  0
 22 28  1  0  0  0
 22 32  2  0  0  0
 26 27  1  0  0  0
 28103  1  0  0  0
 28104  1  0  0  0
 29105  1  0  0  0
 29106  1  0  0  0
 33 34  1  0  0  0
 33 66  1  0  0  0
 33 70  2  0  0  0
 34 36  1  0  0  0
 34 59  1  0  0  0
 34107  1  0  0  0
 35 44  2  0  0  0
 35 45  1  0  0  0
 35 68  1  0  0  0
 36 56  1  0  0  0
 36108  1  0  0  0
 37 39  1  0  0  0
 37 47  1  0  0  0
 37 66  1  0  0  0
 37109  1  0  0  0
 38 43  2  0  0  0
 38 46  1  0  0  0
 38 47  1  0  0  0
 39 64  1  0  0  0
 39 67  2  0  0  0
 40 52  1  0  0  0
 40 53  2  0  0  0
 40 58  1  0  0  0
 41110  1  0  0  0
 41111  1  0  0  0
 41112  1  0  0  0
 41 48  1  0  0  0
 42 43  1  0  0  0
 42 66  1  0  0  0
 42113  1  0  0  0
 42114  1  0  0  0
 43 44  1  0  0  0
 44115  1  0  0  0
 45 46  2  0  0  0
 45116  1  0  0  0
 46117  1  0  0  0
 47118  1  0  0  0
 47119  1  0  0  0
 48 56  1  0  0  0
 48 65  1  0  0  0
 48120  1  0  0  0
 49 50  1  0  0  0
 49 53  1  0  0  0
 49 64  1  0  0  0
 49121  1  0  0  0
 50 51  1  0  0  0
 50122  1  0  0  0
 50123  1  0  0  0
 51 52  1  0  0  0
 51124  1  0  0  0
 51125  1  0  0  0
 52126  1  0  0  0
 52127  1  0  0  0
 53 54  1  0  0  0
 54 55  2  0  0  0
 54128  1  0  0  0
 55 57  1  0  0  0
 55129  1  0  0  0
 56 69  2  0  0  0
 57 58  2  0  0  0
 57130  1  0  0  0
 58131  1  0  0  0
 59 60  1  0  0  0
 59 61  1  0  0  0
 59 62  1  0  0  0
 60132  1  0  0  0
 60133  1  0  0  0
 60134  1  0  0  0
 61135  1  0  0  0
 61136  1  0  0  0
 61137  1  0  0  0
 62138  1  0  0  0
 62139  1  0  0  0
 62140  1  0  0  0
 63 65  1  0  0  0
 63141  1  0  0  0
 63142  1  0  0  0
 63143  1  0  0  0
 64144  1  0  0  0
 65145  1  0  0  0
 68 85  1  0  0  0
 71 74  2  0  0  0
 71 75  1  0  0  0
 71146  1  0  0  0
 72 74  1  0  0  0
 72 76  2  0  0  0
 72147  1  0  0  0
 73 75  2  0  0  0
 73 76  1  0  0  0
 73148  1  0  0  0
 74 78  1  0  0  0
 75 79  1  0  0  0
 76 81  1  0  0  0
 77 78  2  0  0  0
 77149  1  0  0  0
 77150  1  0  0  0
 78151  1  0  0  0
 79 80  2  0  0  0
 79152  1  0  0  0
 80 82  1  0  0  0
 80153  1  0  0  0
 81 86  1  0  0  0
 81154  1  0  0  0
 81155  1  0  0  0
 82 83  1  0  0  0
 82156  1  0  0  0
 82157  1  0  0  0
 83 84  1  0  0  0
 83158  1  0  0  0
 83159  1  0  0  0
 84 85  1  0  0  0
 84160  1  0  0  0
 84161  1  0  0  0
 85162  1  0  0  0
 85163  1  0  0  0
 86164  1  0  0  0
M  ISO  4   1 100  68 101  85 101  86 100
M  END
> <chiral flag>
0

> <version>
0

> <s_m_source_file>
/data/baiqing/PycharmProjects/Reinvent-master-3.2/result/LINK_invent/BTK/process_docking_weight1_custom_product_contain_oxygen_bond_distance_aromatic_linkinvent_7_9_3/rearranged_h_0119.sdf

> <i_m_source_file_index>
43

> <r_mmod_Potential_Energy-OPLS-2005>
5.52058362960815

> <r_mmod_Stretch_Energy-OPLS-2005>
32.7730522155762

> <r_mmod_Bend_Energy-OPLS-2005>
103.147491455078

> <r_mmod_Torsional_Energy-OPLS-2005>
307.987945556641

> <r_mmod_Improper_Torsional_Energy-OPLS-2005>
16.7068939208984

> <r_mmod_Van_der_Waal_Energy-OPLS-2005>
147.576873779297

> <r_mmod_Electrostatic_Energy-OPLS-2005>
-418.164581298828

> <r_mmod_Solvation_Energy-OPLS-2005>
-195.777786254883

> <b_mmod_Minimization_Converged-OPLS-2005>
0

> <r_mmod_RMS_Derivative-OPLS-2005>
4.67973947525024

$$$$
43
                    3D
 Structure written by MMmdl.
154162  0  0  1  0            999 V2000
  -30.5868  -14.7759   20.4302 C   0  0  0  0  0  0
  -30.4255  -12.4705   19.4895 C   0  0  0  0  0  0
  -29.5105  -12.5216   18.2470 C   0  0  0  0  0  0
  -28.0378  -12.3466   18.6601 C   0  0  0  0  0  0
  -27.6385  -13.2408   19.8636 C   0  0  2  0  0  0
  -28.6817  -13.1869   20.9994 C   0  0  0  0  0  0
  -25.2508  -13.8230   20.5772 C   0  0  0  0  0  0
  -24.1810  -13.0463   20.9259 C   0  0  0  0  0  0
  -24.6408  -11.6940   20.8814 C   0  0  0  0  0  0
  -23.9094  -10.4317   21.0461 C   0  0  0  0  0  0
  -24.3623   -9.4216   21.9239 C   0  0  0  0  0  0
  -23.6287   -8.2262   22.0773 C   0  0  0  0  0  0
  -22.4276   -8.0313   21.3563 C   0  0  0  0  0  0
  -21.9929   -9.0300   20.4678 C   0  0  0  0  0  0
  -22.7268  -10.2179   20.3099 C   0  0  0  0  0  0
  -21.6860   -6.0759   22.5295 C   0  0  0  0  0  0
  -21.4027   -6.5659   23.8225 C   0  0  0  0  0  0
  -21.3661   -5.6817   24.9190 C   0  0  0  0  0  0
  -21.6031   -4.3072   24.7227 C   0  0  0  0  0  0
  -21.8809   -3.8156   23.4342 C   0  0  0  0  0  0
  -21.9187   -4.6986   22.3399 C   0  0  0  0  0  0
  -22.7832  -13.5268   21.1825 C   0  0  0  0  0  0
  -22.1663   -4.2163   21.0985 F   0  0  0  0  0  0
  -21.5593   -3.4551   25.7734 F   0  0  0  0  0  0
  -29.9763  -13.5410   20.4123 N   0  0  0  0  0  0
  -26.2925  -12.9434   20.3388 N   0  0  0  0  0  0
  -25.9337  -11.6566   20.5845 N   0  0  0  0  0  0
  -22.0405  -12.8341   22.0376 N   0  0  0  0  0  0
  -25.4145  -15.1966   20.4175 N   0  0  0  0  0  0
  -31.7846  -14.8380   20.1315 O   0  0  0  0  0  0
  -21.6620   -6.8917   21.4267 O   0  0  0  0  0  0
  -22.3565  -14.5551   20.6585 O   0  0  0  0  0  0
  -24.6289  -31.8571   23.1989 C   0  0  0  0  0  0
  -25.9125  -32.4768   23.8318 C   0  0  1  0  0  0
  -27.2131  -27.2731   20.1360 C   0  0  0  0  0  0
  -25.5963  -33.8570   24.2262 N   0  0  0  0  0  0
  -23.4239  -30.4793   21.5419 C   0  0  2  0  0  0
  -24.8678  -28.9166   20.1201 C   0  0  0  0  0  0
  -22.7487  -29.4602   22.4906 C   0  0  0  0  0  0
  -18.0307  -28.1389   22.8480 C   0  0  0  0  0  0
  -24.1504  -36.7259   23.2631 C   0  0  0  0  0  0
  -25.9682  -30.7719   21.3754 C   0  0  0  0  0  0
  -26.0395  -29.3929   20.7222 C   0  0  0  0  0  0
  -27.2189  -28.5853   20.7145 C   0  0  0  0  0  0
  -26.0178  -26.8443   19.5291 C   0  0  0  0  0  0
  -24.8587  -27.6466   19.5170 C   0  0  0  0  0  0
  -23.6438  -29.8096   20.1593 C   0  0  0  0  0  0
  -25.4132  -36.3067   24.0328 C   0  0  1  0  0  0
  -20.5899  -28.3697   23.1288 C   0  0  2  0  0  0
  -20.6813  -26.9423   22.5414 C   0  0  0  0  0  0
  -19.5785  -26.6378   21.5224 C   0  0  0  0  0  0
  -18.1957  -26.7939   22.1616 C   0  0  0  0  0  0
  -19.1552  -28.8855   23.2888 C   0  0  0  0  0  0
  -18.9457  -30.1460   23.8908 C   0  0  0  0  0  0
  -17.6451  -30.6580   24.0567 C   0  0  0  0  0  0
  -25.9067  -34.9447   23.5077 C   0  0  0  0  0  0
  -16.5350  -29.9071   23.6325 C   0  0  0  0  0  0
  -16.7292  -28.6498   23.0329 C   0  0  0  0  0  0
  -26.4507  -31.6583   25.0697 C   0  0  0  0  0  0
  -25.3743  -31.3711   26.1415 C   0  0  0  0  0  0
  -27.0342  -30.3007   24.6155 C   0  0  0  0  0  0
  -27.6066  -32.4319   25.7476 C   0  0  0  0  0  0
  -27.5593  -37.1787   24.8458 C   0  0  0  0  0  0
  -21.4195  -29.3047   22.3676 N   0  0  0  0  0  0
  -26.4304  -37.3771   23.9405 N   0  0  0  0  0  0
  -24.6929  -31.0544   22.0951 N   0  0  0  0  0  0
  -23.4204  -28.8131   23.2991 O   0  0  0  0  0  0
  -28.3319  -26.4240   20.0919 O   0  0  0  0  0  0
  -26.5596  -34.8918   22.4628 O   0  0  0  0  0  0
  -23.5447  -32.1362   23.7308 O   0  0  0  0  0  0
  -31.2987  -18.9612   18.7960 C   0  0  0  0  0  0
  -31.1083  -17.6699   19.3236 C   0  0  0  0  0  0
  -29.1319  -18.4823   20.4557 C   0  0  0  0  0  0
  -30.4270  -20.0326   19.0832 C   0  0  0  0  0  0
  -30.0116  -17.3484   20.1596 C   0  0  0  0  0  0
  -29.3304  -19.8488   19.9669 C   0  0  0  0  0  0
  -30.6669  -21.3406   18.3471 C   0  0  0  0  0  0
  -28.2444  -23.6583   19.9218 C   0  0  0  0  0  0
  -28.2988  -25.0664   20.7230 C   0  0  0  0  0  0
  -28.8081  -22.3065   20.6364 C   0  0  0  0  0  0
  -29.8103  -15.9266   20.6074 N   0  0  0  0  0  0
  -28.4156  -20.9238   20.2057 O   0  0  0  0  0  0
  -31.4645  -12.5950   19.1865 H   0  0  0  0  0  0
  -30.3717  -11.4963   19.9771 H   0  0  0  0  0  0
  -29.7875  -11.7435   17.5353 H   0  0  0  0  0  0
  -29.6430  -13.4736   17.7293 H   0  0  0  0  0  0
  -27.8986  -11.2964   18.9181 H   0  0  0  0  0  0
  -27.3806  -12.5432   17.8125 H   0  0  0  0  0  0
  -27.6255  -14.2634   19.4856 H   0  0  0  0  0  0
  -28.7293  -12.1915   21.4446 H   0  0  0  0  0  0
  -28.4162  -13.8745   21.8035 H   0  0  0  0  0  0
  -25.2759   -9.5644   22.4840 H   0  0  0  0  0  0
  -23.9964   -7.4642   22.7490 H   0  0  0  0  0  0
  -21.0848   -8.8846   19.8992 H   0  0  0  0  0  0
  -22.3745  -10.9730   19.6206 H   0  0  0  0  0  0
  -21.2055   -7.6178   23.9729 H   0  0  0  0  0  0
  -21.1481   -6.0560   25.9102 H   0  0  0  0  0  0
  -22.0568   -2.7612   23.2845 H   0  0  0  0  0  0
  -22.4009  -12.0113   22.4979 H   0  0  0  0  0  0
  -21.0990  -13.1390   22.2391 H   0  0  0  0  0  0
  -24.6293  -15.8345   20.4954 H   0  0  0  0  0  0
  -26.2463  -15.6382   20.0466 H   0  0  0  0  0  0
  -26.7186  -32.5410   23.1055 H   0  0  0  0  0  0
  -25.0258  -33.9747   25.0499 H   0  0  0  0  0  0
  -22.7183  -31.3001   21.3950 H   0  0  0  0  0  0
  -23.3808  -35.9551   23.3277 H   0  0  0  0  0  0
  -24.3586  -36.8891   22.2047 H   0  0  0  0  0  0
  -23.7226  -37.6444   23.6657 H   0  0  0  0  0  0
  -26.1036  -31.5324   20.6048 H   0  0  0  0  0  0
  -26.8475  -30.8212   22.0065 H   0  0  0  0  0  0
  -28.1219  -28.9472   21.1856 H   0  0  0  0  0  0
  -25.9794  -25.8709   19.0599 H   0  0  0  0  0  0
  -23.9564  -27.2722   19.0519 H   0  0  0  0  0  0
  -23.7799  -30.5851   19.4051 H   0  0  0  0  0  0
  -22.7600  -29.2515   19.8476 H   0  0  0  0  0  0
  -25.1326  -36.1910   25.0827 H   0  0  0  0  0  0
  -21.0007  -28.3281   24.1402 H   0  0  0  0  0  0
  -20.5746  -26.2307   23.3609 H   0  0  0  0  0  0
  -21.6681  -26.7470   22.1185 H   0  0  0  0  0  0
  -19.6954  -25.6277   21.1274 H   0  0  0  0  0  0
  -19.6741  -27.3180   20.6744 H   0  0  0  0  0  0
  -17.4246  -26.6704   21.3998 H   0  0  0  0  0  0
  -18.0327  -26.0064   22.8989 H   0  0  0  0  0  0
  -19.7925  -30.7282   24.2281 H   0  0  0  0  0  0
  -17.4990  -31.6263   24.5174 H   0  0  0  0  0  0
  -15.5340  -30.2964   23.7634 H   0  0  0  0  0  0
  -15.8706  -28.0821   22.7004 H   0  0  0  0  0  0
  -24.5937  -30.7054   25.7716 H   0  0  0  0  0  0
  -24.8924  -32.2879   26.4830 H   0  0  0  0  0  0
  -25.8075  -30.8880   27.0184 H   0  0  0  0  0  0
  -26.2893  -29.6752   24.1231 H   0  0  0  0  0  0
  -27.4086  -29.7276   25.4643 H   0  0  0  0  0  0
  -27.8750  -30.4287   23.9337 H   0  0  0  0  0  0
  -27.2686  -33.3628   26.2043 H   0  0  0  0  0  0
  -28.3897  -32.6866   25.0321 H   0  0  0  0  0  0
  -28.0713  -31.8445   26.5406 H   0  0  0  0  0  0
  -28.2592  -38.0103   24.7542 H   0  0  0  0  0  0
  -28.1116  -36.2637   24.6256 H   0  0  0  0  0  0
  -27.2301  -37.1397   25.8855 H   0  0  0  0  0  0
  -20.9361  -29.8783   21.6902 H   0  0  0  0  0  0
  -26.0183  -38.2840   24.1431 H   0  0  0  0  0  0
  -32.1311  -19.1205   18.1230 H   0  0  0  0  0  0
  -31.8252  -16.9254   19.0222 H   0  0  0  0  0  0
  -28.2579  -18.3045   21.0677 H   0  0  0  0  0  0
  -31.1444  -21.1662   17.3816 H   0  0  0  0  0  0
  -31.3153  -22.0019   18.9244 H   0  0  0  0  0  0
  -29.7291  -21.8489   18.1326 H   0  0  0  0  0  0
  -28.7766  -23.7946   18.9810 H   0  0  0  0  0  0
  -27.2048  -23.4843   19.6423 H   0  0  0  0  0  0
  -29.2287  -25.0378   21.2908 H   0  0  0  0  0  0
  -27.5211  -25.0620   21.4873 H   0  0  0  0  0  0
  -28.4664  -22.3564   21.6706 H   0  0  0  0  0  0
  -29.8904  -22.3789   20.7187 H   0  0  0  0  0  0
  -28.9024  -15.7326   21.0055 H   0  0  0  0  0  0
  1 25  1  0  0  0
  1 30  2  0  0  0
  1 81  1  0  0  0
  2  3  1  0  0  0
  2 25  1  0  0  0
  2 83  1  0  0  0
  2 84  1  0  0  0
  3  4  1  0  0  0
  3 85  1  0  0  0
  3 86  1  0  0  0
  4  5  1  0  0  0
  4 87  1  0  0  0
  4 88  1  0  0  0
  5  6  1  0  0  0
  5 26  1  0  0  0
  5 89  1  0  0  0
  6 25  1  0  0  0
  6 90  1  0  0  0
  6 91  1  0  0  0
  7  8  2  0  0  0
  7 26  1  0  0  0
  7 29  1  0  0  0
  8  9  1  0  0  0
  8 22  1  0  0  0
  9 10  1  0  0  0
  9 27  2  0  0  0
 10 11  2  0  0  0
 10 15  1  0  0  0
 11 12  1  0  0  0
 11 92  1  0  0  0
 12 13  2  0  0  0
 12 93  1  0  0  0
 13 14  1  0  0  0
 13 31  1  0  0  0
 14 15  2  0  0  0
 14 94  1  0  0  0
 15 95  1  0  0  0
 16 17  2  0  0  0
 16 21  1  0  0  0
 16 31  1  0  0  0
 17 18  1  0  0  0
 17 96  1  0  0  0
 18 19  2  0  0  0
 18 97  1  0  0  0
 19 20  1  0  0  0
 19 24  1  0  0  0
 20 21  2  0  0  0
 20 98  1  0  0  0
 21 23  1  0  0  0
 22 28  1  0  0  0
 22 32  2  0  0  0
 26 27  1  0  0  0
 28 99  1  0  0  0
 28100  1  0  0  0
 29101  1  0  0  0
 29102  1  0  0  0
 33 34  1  0  0  0
 33 66  1  0  0  0
 33 70  2  0  0  0
 34 36  1  0  0  0
 34 59  1  0  0  0
 34103  1  0  0  0
 35 44  2  0  0  0
 35 45  1  0  0  0
 35 68  1  0  0  0
 36 56  1  0  0  0
 36104  1  0  0  0
 37 39  1  0  0  0
 37 47  1  0  0  0
 37 66  1  0  0  0
 37105  1  0  0  0
 38 43  2  0  0  0
 38 46  1  0  0  0
 38 47  1  0  0  0
 39 64  1  0  0  0
 39 67  2  0  0  0
 40 52  1  0  0  0
 40 53  2  0  0  0
 40 58  1  0  0  0
 41106  1  0  0  0
 41107  1  0  0  0
 41108  1  0  0  0
 41 48  1  0  0  0
 42 43  1  0  0  0
 42 66  1  0  0  0
 42109  1  0  0  0
 42110  1  0  0  0
 43 44  1  0  0  0
 44111  1  0  0  0
 45 46  2  0  0  0
 45112  1  0  0  0
 46113  1  0  0  0
 47114  1  0  0  0
 47115  1  0  0  0
 48 56  1  0  0  0
 48 65  1  0  0  0
 48116  1  0  0  0
 49 50  1  0  0  0
 49 53  1  0  0  0
 49 64  1  0  0  0
 49117  1  0  0  0
 50 51  1  0  0  0
 50118  1  0  0  0
 50119  1  0  0  0
 51 52  1  0  0  0
 51120  1  0  0  0
 51121  1  0  0  0
 52122  1  0  0  0
 52123  1  0  0  0
 53 54  1  0  0  0
 54 55  2  0  0  0
 54124  1  0  0  0
 55 57  1  0  0  0
 55125  1  0  0  0
 56 69  2  0  0  0
 57 58  2  0  0  0
 57126  1  0  0  0
 58127  1  0  0  0
 59 60  1  0  0  0
 59 61  1  0  0  0
 59 62  1  0  0  0
 60128  1  0  0  0
 60129  1  0  0  0
 60130  1  0  0  0
 61131  1  0  0  0
 61132  1  0  0  0
 61133  1  0  0  0
 62134  1  0  0  0
 62135  1  0  0  0
 62136  1  0  0  0
 63 65  1  0  0  0
 63137  1  0  0  0
 63138  1  0  0  0
 63139  1  0  0  0
 64140  1  0  0  0
 65141  1  0  0  0
 68 79  1  0  0  0
 71 72  2  0  0  0
 71 74  1  0  0  0
 71142  1  0  0  0
 72 75  1  0  0  0
 72143  1  0  0  0
 73 75  2  0  0  0
 73 76  1  0  0  0
 73144  1  0  0  0
 74 76  2  0  0  0
 74 77  1  0  0  0
 75 81  1  0  0  0
 76 82  1  0  0  0
 77145  1  0  0  0
 77146  1  0  0  0
 77147  1  0  0  0
 78 79  1  0  0  0
 78 80  1  0  0  0
 78148  1  0  0  0
 78149  1  0  0  0
 79150  1  0  0  0
 79151  1  0  0  0
 80 82  1  0  0  0
 80152  1  0  0  0
 80153  1  0  0  0
 81154  1  0  0  0
M  ISO  4   1 100  68 101  79 101  81 100
M  END
> <chiral flag>
0

> <version>
0

> <s_m_source_file>
/data/baiqing/PycharmProjects/Reinvent-master-3.2/result/LINK_invent/BTK/process_docking_weight1_custom_product_contain_oxygen_bond_distance_aromatic_linkinvent_7_9_3/rearranged_h_0119.sdf

> <i_m_source_file_index>
44

> <r_mmod_Potential_Energy-OPLS-2005>
225.999237060547

> <r_mmod_Stretch_Energy-OPLS-2005>
132.753463745117

> <r_mmod_Bend_Energy-OPLS-2005>
185.521499633789

> <r_mmod_Torsional_Energy-OPLS-2005>
261.193298339844

> <r_mmod_Improper_Torsional_Energy-OPLS-2005>
5.2060546875

> <r_mmod_Van_der_Waal_Energy-OPLS-2005>
141.03271484375

> <r_mmod_Electrostatic_Energy-OPLS-2005>
-377.237335205078

> <r_mmod_Solvation_Energy-OPLS-2005>
-208.229736328125

> <b_mmod_Minimization_Converged-OPLS-2005>
0

> <r_mmod_RMS_Derivative-OPLS-2005>
3.86527681350708

$$$$
44
                    3D
 Structure written by MMmdl.
161170  0  0  1  0            999 V2000
  -30.6049  -14.6463   20.5169 C   0  0  0  0  0  0
  -30.4464  -12.3981   19.4604 C   0  0  0  0  0  0
  -29.5166  -12.5094   18.2308 C   0  0  0  0  0  0
  -28.0372  -12.3480   18.6372 C   0  0  0  0  0  0
  -27.6579  -13.2130   19.8683 C   0  0  2  0  0  0
  -28.6988  -13.0533   20.9994 C   0  0  0  0  0  0
  -25.2589  -13.8159   20.5695 C   0  0  0  0  0  0
  -24.1843  -13.0433   20.9175 C   0  0  0  0  0  0
  -24.6399  -11.6906   20.8717 C   0  0  0  0  0  0
  -23.9063  -10.4291   21.0397 C   0  0  0  0  0  0
  -24.3615   -9.4210   21.9180 C   0  0  0  0  0  0
  -23.6291   -8.2245   22.0756 C   0  0  0  0  0  0
  -22.4273   -8.0284   21.3549 C   0  0  0  0  0  0
  -21.9906   -9.0252   20.4648 C   0  0  0  0  0  0
  -22.7231  -10.2134   20.3051 C   0  0  0  0  0  0
  -21.6855   -6.0737   22.5278 C   0  0  0  0  0  0
  -21.4013   -6.5640   23.8213 C   0  0  0  0  0  0
  -21.3658   -5.6793   24.9175 C   0  0  0  0  0  0
  -21.6045   -4.3056   24.7226 C   0  0  0  0  0  0
  -21.8820   -3.8147   23.4347 C   0  0  0  0  0  0
  -21.9193   -4.6963   22.3403 C   0  0  0  0  0  0
  -22.7863  -13.5235   21.1843 C   0  0  0  0  0  0
  -22.1663   -4.2153   21.0979 F   0  0  0  0  0  0
  -21.5628   -3.4538   25.7736 F   0  0  0  0  0  0
  -30.0158  -13.4087   20.4465 N   0  0  0  0  0  0
  -26.3017  -12.9331   20.3328 N   0  0  0  0  0  0
  -25.9333  -11.6494   20.5749 N   0  0  0  0  0  0
  -22.0496  -12.8231   22.0395 N   0  0  0  0  0  0
  -25.4298  -15.1888   20.4148 N   0  0  0  0  0  0
  -31.7462  -14.8385   20.0851 O   0  0  0  0  0  0
  -21.6639   -6.8884   21.4246 O   0  0  0  0  0  0
  -22.3559  -14.5544   20.6699 O   0  0  0  0  0  0
  -24.6252  -31.8610   23.2060 C   0  0  0  0  0  0
  -25.9112  -32.4782   23.8370 C   0  0  1  0  0  0
  -27.2151  -27.3150   20.1277 C   0  0  0  0  0  0
  -25.5937  -33.8583   24.2298 N   0  0  0  0  0  0
  -23.4199  -30.4853   21.5490 C   0  0  2  0  0  0
  -24.8661  -28.9404   20.1192 C   0  0  0  0  0  0
  -22.7491  -29.4625   22.4964 C   0  0  0  0  0  0
  -18.0290  -28.1381   22.8526 C   0  0  0  0  0  0
  -24.1491  -36.7298   23.2629 C   0  0  0  0  0  0
  -25.9618  -30.7876   21.3836 C   0  0  0  0  0  0
  -26.0345  -29.4125   20.7330 C   0  0  0  0  0  0
  -27.2131  -28.6071   20.7384 C   0  0  0  0  0  0
  -26.0402  -26.9164   19.4615 C   0  0  0  0  0  0
  -24.8700  -27.6952   19.4758 C   0  0  0  0  0  0
  -23.6367  -29.8230   20.1632 C   0  0  0  0  0  0
  -25.4114  -36.3088   24.0319 C   0  0  1  0  0  0
  -20.5893  -28.3708   23.1341 C   0  0  2  0  0  0
  -20.6818  -26.9479   22.5346 C   0  0  0  0  0  0
  -19.5767  -26.6521   21.5155 C   0  0  0  0  0  0
  -18.1967  -26.7940   22.1630 C   0  0  0  0  0  0
  -19.1533  -28.8843   23.2946 C   0  0  0  0  0  0
  -18.9446  -30.1460   23.8932 C   0  0  0  0  0  0
  -17.6441  -30.6595   24.0556 C   0  0  0  0  0  0
  -25.9053  -34.9450   23.5108 C   0  0  0  0  0  0
  -16.5330  -29.9073   23.6341 C   0  0  0  0  0  0
  -16.7266  -28.6486   23.0372 C   0  0  0  0  0  0
  -26.4501  -31.6594   25.0738 C   0  0  0  0  0  0
  -25.3735  -31.3728   26.1466 C   0  0  0  0  0  0
  -27.0348  -30.3010   24.6207 C   0  0  0  0  0  0
  -27.6061  -32.4331   25.7504 C   0  0  0  0  0  0
  -27.5585  -37.1805   24.8464 C   0  0  0  0  0  0
  -21.4188  -29.3144   22.3819 N   0  0  0  0  0  0
  -26.4304  -37.3777   23.9399 N   0  0  0  0  0  0
  -24.6866  -31.0623   22.1021 N   0  0  0  0  0  0
  -23.4246  -28.8088   23.2968 O   0  0  0  0  0  0
  -28.3194  -26.4554   20.0924 O   0  0  0  0  0  0
  -26.5616  -34.8910   22.4668 O   0  0  0  0  0  0
  -23.5424  -32.1406   23.7398 O   0  0  0  0  0  0
  -29.3389  -19.3840   21.6936 C   0  0  0  0  0  0
  -29.6494  -17.9980   21.8508 C   0  0  0  0  0  0
  -29.2391  -19.0633   19.3180 C   0  0  0  0  0  0
  -29.5677  -17.6782   19.4626 C   0  0  0  0  0  0
  -29.0835  -19.9493   20.4195 C   0  0  0  0  0  0
  -29.7580  -17.1001   20.7518 C   0  0  0  0  0  0
  -26.4283  -22.2619   19.2383 C   0  0  0  0  0  0
  -26.8845  -23.6885   19.5440 C   0  0  0  0  0  0
  -27.0277  -21.1306   20.0768 C   0  0  0  0  0  0
  -29.0398  -22.5987   20.5748 C   0  0  0  0  0  0
  -27.9448  -23.7783   20.6564 C   0  0  1  0  0  0
  -29.6223  -16.8150   18.2127 C   0  0  0  0  0  0
  -28.3605  -25.2955   21.0145 C   0  0  0  0  0  0
  -28.4806  -21.2413   20.2366 N   0  0  0  0  0  0
  -29.8156  -15.6571   21.0030 N   0  0  0  0  0  0
  -25.5977  -22.0376   18.3557 O   0  0  0  0  0  0
  -31.4866  -12.5353   19.1607 H   0  0  0  0  0  0
  -30.3927  -11.3997   19.8970 H   0  0  0  0  0  0
  -29.7847  -11.7553   17.4893 H   0  0  0  0  0  0
  -29.6632  -13.4763   17.7483 H   0  0  0  0  0  0
  -27.8732  -11.2941   18.8647 H   0  0  0  0  0  0
  -27.3872  -12.5831   17.7938 H   0  0  0  0  0  0
  -27.6800  -14.2512   19.5369 H   0  0  0  0  0  0
  -28.7136  -12.0252   21.3654 H   0  0  0  0  0  0
  -28.4362  -13.6683   21.8620 H   0  0  0  0  0  0
  -25.2764   -9.5694   22.4752 H   0  0  0  0  0  0
  -24.0001   -7.4644   22.7479 H   0  0  0  0  0  0
  -21.0834   -8.8774   19.8955 H   0  0  0  0  0  0
  -22.3690  -10.9675   19.6158 H   0  0  0  0  0  0
  -21.2004   -7.6148   23.9722 H   0  0  0  0  0  0
  -21.1479   -6.0519   25.9083 H   0  0  0  0  0  0
  -22.0599   -2.7609   23.2844 H   0  0  0  0  0  0
  -22.4098  -11.9896   22.4797 H   0  0  0  0  0  0
  -21.1120  -13.1281   22.2596 H   0  0  0  0  0  0
  -24.6627  -15.8418   20.5356 H   0  0  0  0  0  0
  -26.2847  -15.6358   20.1083 H   0  0  0  0  0  0
  -26.7175  -32.5449   23.1114 H   0  0  0  0  0  0
  -25.0094  -33.9738   25.0452 H   0  0  0  0  0  0
  -22.7126  -31.3039   21.4072 H   0  0  0  0  0  0
  -23.3760  -35.9634   23.3300 H   0  0  0  0  0  0
  -24.3587  -36.8912   22.2050 H   0  0  0  0  0  0
  -23.7261  -37.6498   23.6655 H   0  0  0  0  0  0
  -26.0975  -31.5504   20.6151 H   0  0  0  0  0  0
  -26.8403  -30.8347   22.0154 H   0  0  0  0  0  0
  -28.1105  -28.9650   21.2240 H   0  0  0  0  0  0
  -26.0158  -26.0033   18.8950 H   0  0  0  0  0  0
  -23.9838  -27.3387   18.9681 H   0  0  0  0  0  0
  -23.7600  -30.6006   19.4086 H   0  0  0  0  0  0
  -22.7557  -29.2547   19.8588 H   0  0  0  0  0  0
  -25.1305  -36.1935   25.0818 H   0  0  0  0  0  0
  -20.9999  -28.3210   24.1453 H   0  0  0  0  0  0
  -20.5785  -26.2282   23.3482 H   0  0  0  0  0  0
  -21.6679  -26.7623   22.1068 H   0  0  0  0  0  0
  -19.6978  -25.6492   21.1038 H   0  0  0  0  0  0
  -19.6653  -27.3465   20.6781 H   0  0  0  0  0  0
  -17.4226  -26.6689   21.4044 H   0  0  0  0  0  0
  -18.0470  -26.0039   22.9003 H   0  0  0  0  0  0
  -19.7907  -30.7283   24.2325 H   0  0  0  0  0  0
  -17.5007  -31.6286   24.5148 H   0  0  0  0  0  0
  -15.5320  -30.2950   23.7695 H   0  0  0  0  0  0
  -15.8674  -28.0757   22.7122 H   0  0  0  0  0  0
  -24.5913  -30.7072   25.7800 H   0  0  0  0  0  0
  -24.8921  -32.2894   26.4884 H   0  0  0  0  0  0
  -25.8057  -30.8912   27.0249 H   0  0  0  0  0  0
  -26.2930  -29.6749   24.1236 H   0  0  0  0  0  0
  -27.4043  -29.7270   25.4720 H   0  0  0  0  0  0
  -27.8805  -30.4284   23.9443 H   0  0  0  0  0  0
  -27.2670  -33.3629   26.2078 H   0  0  0  0  0  0
  -28.3868  -32.6894   25.0333 H   0  0  0  0  0  0
  -28.0739  -31.8465   26.5421 H   0  0  0  0  0  0
  -28.2602  -38.0100   24.7512 H   0  0  0  0  0  0
  -28.1078  -36.2634   24.6300 H   0  0  0  0  0  0
  -27.2294  -37.1464   25.8862 H   0  0  0  0  0  0
  -20.9333  -29.9114   21.7273 H   0  0  0  0  0  0
  -26.0179  -38.2849   24.1402 H   0  0  0  0  0  0
  -29.2087  -19.9910   22.5778 H   0  0  0  0  0  0
  -29.7495  -17.6132   22.8549 H   0  0  0  0  0  0
  -29.0303  -19.4443   18.3284 H   0  0  0  0  0  0
  -27.2514  -24.1421   18.6236 H   0  0  0  0  0  0
  -25.9939  -24.2265   19.8639 H   0  0  0  0  0  0
  -26.7569  -20.1814   19.6123 H   0  0  0  0  0  0
  -26.5562  -21.1434   21.0601 H   0  0  0  0  0  0
  -29.5777  -22.5362   21.5215 H   0  0  0  0  0  0
  -29.7842  -22.8546   19.8180 H   0  0  0  0  0  0
  -27.3927  -23.4915   21.5537 H   0  0  0  0  0  0
  -29.3256  -17.3725   17.3241 H   0  0  0  0  0  0
  -28.9518  -15.9606   18.3003 H   0  0  0  0  0  0
  -30.6340  -16.4439   18.0477 H   0  0  0  0  0  0
  -29.3808  -25.2601   21.3953 H   0  0  0  0  0  0
  -27.7741  -25.5938   21.8863 H   0  0  0  0  0  0
  -29.0109  -15.3005   21.4959 H   0  0  0  0  0  0
  1 25  1  0  0  0
  1 30  2  0  0  0
  1 85  1  0  0  0
  2  3  1  0  0  0
  2 25  1  0  0  0
  2 87  1  0  0  0
  2 88  1  0  0  0
  3  4  1  0  0  0
  3 89  1  0  0  0
  3 90  1  0  0  0
  4  5  1  0  0  0
  4 91  1  0  0  0
  4 92  1  0  0  0
  5  6  1  0  0  0
  5 26  1  0  0  0
  5 93  1  0  0  0
  6 25  1  0  0  0
  6 94  1  0  0  0
  6 95  1  0  0  0
  7  8  2  0  0  0
  7 26  1  0  0  0
  7 29  1  0  0  0
  8  9  1  0  0  0
  8 22  1  0  0  0
  9 10  1  0  0  0
  9 27  2  0  0  0
 10 11  2  0  0  0
 10 15  1  0  0  0
 11 12  1  0  0  0
 11 96  1  0  0  0
 12 13  2  0  0  0
 12 97  1  0  0  0
 13 14  1  0  0  0
 13 31  1  0  0  0
 14 15  2  0  0  0
 14 98  1  0  0  0
 15 99  1  0  0  0
 16 17  2  0  0  0
 16 21  1  0  0  0
 16 31  1  0  0  0
 17 18  1  0  0  0
 17100  1  0  0  0
 18 19  2  0  0  0
 18101  1  0  0  0
 19 20  1  0  0  0
 19 24  1  0  0  0
 20 21  2  0  0  0
 20102  1  0  0  0
 21 23  1  0  0  0
 22 28  1  0  0  0
 22 32  2  0  0  0
 26 27  1  0  0  0
 28103  1  0  0  0
 28104  1  0  0  0
 29105  1  0  0  0
 29106  1  0  0  0
 33 34  1  0  0  0
 33 66  1  0  0  0
 33 70  2  0  0  0
 34 36  1  0  0  0
 34 59  1  0  0  0
 34107  1  0  0  0
 35 44  2  0  0  0
 35 45  1  0  0  0
 35 68  1  0  0  0
 36 56  1  0  0  0
 36108  1  0  0  0
 37 39  1  0  0  0
 37 47  1  0  0  0
 37 66  1  0  0  0
 37109  1  0  0  0
 38 43  2  0  0  0
 38 46  1  0  0  0
 38 47  1  0  0  0
 39 64  1  0  0  0
 39 67  2  0  0  0
 40 52  1  0  0  0
 40 53  2  0  0  0
 40 58  1  0  0  0
 41110  1  0  0  0
 41111  1  0  0  0
 41112  1  0  0  0
 41 48  1  0  0  0
 42 43  1  0  0  0
 42 66  1  0  0  0
 42113  1  0  0  0
 42114  1  0  0  0
 43 44  1  0  0  0
 44115  1  0  0  0
 45 46  2  0  0  0
 45116  1  0  0  0
 46117  1  0  0  0
 47118  1  0  0  0
 47119  1  0  0  0
 48 56  1  0  0  0
 48 65  1  0  0  0
 48120  1  0  0  0
 49 50  1  0  0  0
 49 53  1  0  0  0
 49 64  1  0  0  0
 49121  1  0  0  0
 50 51  1  0  0  0
 50122  1  0  0  0
 50123  1  0  0  0
 51 52  1  0  0  0
 51124  1  0  0  0
 51125  1  0  0  0
 52126  1  0  0  0
 52127  1  0  0  0
 53 54  1  0  0  0
 54 55  2  0  0  0
 54128  1  0  0  0
 55 57  1  0  0  0
 55129  1  0  0  0
 56 69  2  0  0  0
 57 58  2  0  0  0
 57130  1  0  0  0
 58131  1  0  0  0
 59 60  1  0  0  0
 59 61  1  0  0  0
 59 62  1  0  0  0
 60132  1  0  0  0
 60133  1  0  0  0
 60134  1  0  0  0
 61135  1  0  0  0
 61136  1  0  0  0
 61137  1  0  0  0
 62138  1  0  0  0
 62139  1  0  0  0
 62140  1  0  0  0
 63 65  1  0  0  0
 63141  1  0  0  0
 63142  1  0  0  0
 63143  1  0  0  0
 64144  1  0  0  0
 65145  1  0  0  0
 68 83  1  0  0  0
 71 72  2  0  0  0
 71 75  1  0  0  0
 71146  1  0  0  0
 72 76  1  0  0  0
 72147  1  0  0  0
 73 74  1  0  0  0
 73 75  2  0  0  0
 73148  1  0  0  0
 74 76  2  0  0  0
 74 82  1  0  0  0
 75 84  1  0  0  0
 76 85  1  0  0  0
 77 78  1  0  0  0
 77 79  1  0  0  0
 77 86  2  0  0  0
 78 81  1  0  0  0
 78149  1  0  0  0
 78150  1  0  0  0
 79 84  1  0  0  0
 79151  1  0  0  0
 79152  1  0  0  0
 80 81  1  0  0  0
 80 84  1  0  0  0
 80153  1  0  0  0
 80154  1  0  0  0
 81 83  1  0  0  0
 81155  1  0  0  0
 82156  1  0  0  0
 82157  1  0  0  0
 82158  1  0  0  0
 83159  1  0  0  0
 83160  1  0  0  0
 85161  1  0  0  0
M  ISO  4   1 100  68 101  83 101  85 100
M  END
> <chiral flag>
0

> <version>
0

> <s_m_source_file>
/data/baiqing/PycharmProjects/Reinvent-master-3.2/result/LINK_invent/BTK/process_docking_weight1_custom_product_contain_oxygen_bond_distance_aromatic_linkinvent_7_9_3/rearranged_h_0119.sdf

> <i_m_source_file_index>
45

> <r_mmod_Potential_Energy-OPLS-2005>
170.8505859375

> <r_mmod_Stretch_Energy-OPLS-2005>
85.6556167602539

> <r_mmod_Bend_Energy-OPLS-2005>
175.977737426758

> <r_mmod_Torsional_Energy-OPLS-2005>
329.585296630859

> <r_mmod_Improper_Torsional_Energy-OPLS-2005>
6.97325801849365

> <r_mmod_Van_der_Waal_Energy-OPLS-2005>
140.624847412109

> <r_mmod_Electrostatic_Energy-OPLS-2005>
-386.339080810547

> <r_mmod_Solvation_Energy-OPLS-2005>
-231.140167236328

> <b_mmod_Minimization_Converged-OPLS-2005>
0

> <r_mmod_RMS_Derivative-OPLS-2005>
2.42781376838684

$$$$
45
                    3D
 Structure written by MMmdl.
161169  0  0  1  0            999 V2000
  -30.7286  -14.4952   20.4559 C   0  0  0  0  0  0
  -30.4122  -12.2921   19.4438 C   0  0  0  0  0  0
  -29.4976  -12.4690   18.2155 C   0  0  0  0  0  0
  -28.0184  -12.3138   18.6196 C   0  0  0  0  0  0
  -27.6416  -13.1933   19.8376 C   0  0  2  0  0  0
  -28.6906  -13.0888   20.9714 C   0  0  0  0  0  0
  -25.2580  -13.8107   20.5667 C   0  0  0  0  0  0
  -24.1826  -13.0405   20.9172 C   0  0  0  0  0  0
  -24.6363  -11.6871   20.8719 C   0  0  0  0  0  0
  -23.9026  -10.4274   21.0389 C   0  0  0  0  0  0
  -24.3585   -9.4193   21.9166 C   0  0  0  0  0  0
  -23.6274   -8.2221   22.0724 C   0  0  0  0  0  0
  -22.4246   -8.0268   21.3528 C   0  0  0  0  0  0
  -21.9873   -9.0237   20.4622 C   0  0  0  0  0  0
  -22.7203  -10.2121   20.3042 C   0  0  0  0  0  0
  -21.6850   -6.0717   22.5275 C   0  0  0  0  0  0
  -21.4006   -6.5610   23.8213 C   0  0  0  0  0  0
  -21.3668   -5.6766   24.9168 C   0  0  0  0  0  0
  -21.6055   -4.3028   24.7210 C   0  0  0  0  0  0
  -21.8822   -3.8126   23.4338 C   0  0  0  0  0  0
  -21.9193   -4.6949   22.3396 C   0  0  0  0  0  0
  -22.7863  -13.5225   21.1851 C   0  0  0  0  0  0
  -22.1674   -4.2140   21.0971 F   0  0  0  0  0  0
  -21.5628   -3.4515   25.7729 F   0  0  0  0  0  0
  -30.0325  -13.3270   20.4158 N   0  0  0  0  0  0
  -26.2942  -12.9227   20.3210 N   0  0  0  0  0  0
  -25.9273  -11.6414   20.5709 N   0  0  0  0  0  0
  -22.0491  -12.8236   22.0407 N   0  0  0  0  0  0
  -25.4339  -15.1833   20.4136 N   0  0  0  0  0  0
  -31.9421  -14.5404   20.2514 O   0  0  0  0  0  0
  -21.6624   -6.8866   21.4244 O   0  0  0  0  0  0
  -22.3570  -14.5545   20.6714 O   0  0  0  0  0  0
  -24.6161  -31.8709   23.2138 C   0  0  0  0  0  0
  -25.9064  -32.4847   23.8414 C   0  0  1  0  0  0
  -27.2226  -27.4396   20.0781 C   0  0  0  0  0  0
  -25.5901  -33.8638   24.2342 N   0  0  0  0  0  0
  -23.4009  -30.5006   21.5561 C   0  0  2  0  0  0
  -24.8428  -28.9793   20.1140 C   0  0  0  0  0  0
  -22.7415  -29.4683   22.4987 C   0  0  0  0  0  0
  -18.0260  -28.1396   22.8488 C   0  0  0  0  0  0
  -24.1480  -36.7327   23.2625 C   0  0  0  0  0  0
  -25.9337  -30.8394   21.3670 C   0  0  0  0  0  0
  -26.0072  -29.4762   20.7119 C   0  0  0  0  0  0
  -27.1999  -28.7131   20.6943 C   0  0  0  0  0  0
  -26.0304  -26.9714   19.4654 C   0  0  0  0  0  0
  -24.8484  -27.7251   19.4917 C   0  0  0  0  0  0
  -23.6073  -29.8464   20.1672 C   0  0  0  0  0  0
  -25.4091  -36.3124   24.0337 C   0  0  1  0  0  0
  -20.5859  -28.3674   23.1323 C   0  0  2  0  0  0
  -20.6768  -26.9405   22.5426 C   0  0  0  0  0  0
  -19.5744  -26.6389   21.5227 C   0  0  0  0  0  0
  -18.1914  -26.7937   22.1631 C   0  0  0  0  0  0
  -19.1515  -28.8847   23.2906 C   0  0  0  0  0  0
  -18.9445  -30.1453   23.8917 C   0  0  0  0  0  0
  -17.6452  -30.6601   24.0563 C   0  0  0  0  0  0
  -25.9030  -34.9489   23.5132 C   0  0  0  0  0  0
  -16.5339  -29.9102   23.6328 C   0  0  0  0  0  0
  -16.7251  -28.6522   23.0333 C   0  0  0  0  0  0
  -26.4465  -31.6614   25.0743 C   0  0  0  0  0  0
  -25.3717  -31.3770   26.1497 C   0  0  0  0  0  0
  -27.0262  -30.3034   24.6130 C   0  0  0  0  0  0
  -27.6064  -32.4303   25.7501 C   0  0  0  0  0  0
  -27.5594  -37.1787   24.8429 C   0  0  0  0  0  0
  -21.4137  -29.3048   22.3739 N   0  0  0  0  0  0
  -26.4264  -37.3818   23.9439 N   0  0  0  0  0  0
  -24.6692  -31.0824   22.1043 N   0  0  0  0  0  0
  -23.4194  -28.8190   23.2995 O   0  0  0  0  0  0
  -28.3844  -26.6850   20.0984 O   0  0  0  0  0  0
  -26.5602  -34.8937   22.4699 O   0  0  0  0  0  0
  -23.5357  -32.1447   23.7537 O   0  0  0  0  0  0
  -28.9897  -17.9299   18.5458 C   0  0  0  0  0  0
  -28.5465  -19.0228   17.7897 C   0  0  0  0  0  0
  -30.1357  -19.4418   20.0714 C   0  0  0  0  0  0
  -29.8453  -18.1200   19.6497 C   0  0  0  0  0  0
  -29.6622  -20.5638   19.3421 C   0  0  0  0  0  0
  -28.9178  -20.3322   18.1488 C   0  0  0  0  0  0
  -29.1977  -23.1780   14.3402 C   0  0  0  0  0  0
  -30.4940  -16.9279   20.2308 C   0  0  0  0  0  0
  -29.9597  -21.9406   19.8240 C   0  0  0  0  0  0
  -29.9223  -15.7042   20.2907 C   0  0  0  0  0  0
  -29.0821  -22.9628   19.7423 C   0  0  0  0  0  0
  -29.6981  -22.5957   15.4394 C   0  0  0  0  0  0
  -29.3481  -24.3709   20.0952 C   0  0  0  0  0  0
  -29.2621  -21.2477   15.9689 C   0  0  0  0  0  0
  -28.2090  -25.3174   19.7011 C   0  0  0  0  0  0
  -28.6179  -21.3788   17.2678 N   0  0  0  0  0  0
  -30.3764  -24.7788   20.6464 O   0  0  0  0  0  0
  -31.4622  -12.3515   19.1500 H   0  0  0  0  0  0
  -30.2819  -11.3020   19.8847 H   0  0  0  0  0  0
  -29.7515  -11.7372   17.4485 H   0  0  0  0  0  0
  -29.6603  -13.4516   17.7682 H   0  0  0  0  0  0
  -27.8467  -11.2618   18.8518 H   0  0  0  0  0  0
  -27.3708  -12.5490   17.7742 H   0  0  0  0  0  0
  -27.6214  -14.2025   19.4411 H   0  0  0  0  0  0
  -28.6595  -12.1005   21.4334 H   0  0  0  0  0  0
  -28.4687  -13.8003   21.7692 H   0  0  0  0  0  0
  -25.2711   -9.5693   22.4737 H   0  0  0  0  0  0
  -23.9993   -7.4608   22.7438 H   0  0  0  0  0  0
  -21.0792   -8.8771   19.8931 H   0  0  0  0  0  0
  -22.3654  -10.9659   19.6166 H   0  0  0  0  0  0
  -21.1996   -7.6113   23.9705 H   0  0  0  0  0  0
  -21.1494   -6.0486   25.9069 H   0  0  0  0  0  0
  -22.0597   -2.7597   23.2827 H   0  0  0  0  0  0
  -22.4072  -11.9894   22.4824 H   0  0  0  0  0  0
  -21.1126  -13.1319   22.2621 H   0  0  0  0  0  0
  -24.6715  -15.8399   20.5384 H   0  0  0  0  0  0
  -26.2912  -15.6287   20.1130 H   0  0  0  0  0  0
  -26.7139  -32.5557   23.1187 H   0  0  0  0  0  0
  -25.0018  -33.9785   25.0466 H   0  0  0  0  0  0
  -22.6889  -31.3185   21.4243 H   0  0  0  0  0  0
  -23.3769  -35.9626   23.3210 H   0  0  0  0  0  0
  -24.3612  -36.9025   22.2060 H   0  0  0  0  0  0
  -23.7186  -37.6485   23.6695 H   0  0  0  0  0  0
  -26.0457  -31.6061   20.5993 H   0  0  0  0  0  0
  -26.8239  -30.8921   21.9820 H   0  0  0  0  0  0
  -28.0988  -29.0926   21.1602 H   0  0  0  0  0  0
  -25.9702  -26.0248   18.9495 H   0  0  0  0  0  0
  -23.9531  -27.3415   19.0212 H   0  0  0  0  0  0
  -23.7186  -30.6274   19.4135 H   0  0  0  0  0  0
  -22.7297  -29.2704   19.8674 H   0  0  0  0  0  0
  -25.1252  -36.1974   25.0824 H   0  0  0  0  0  0
  -20.9941  -28.3245   24.1450 H   0  0  0  0  0  0
  -20.5700  -26.2262   23.3605 H   0  0  0  0  0  0
  -21.6636  -26.7469   22.1206 H   0  0  0  0  0  0
  -19.6902  -25.6301   21.1250 H   0  0  0  0  0  0
  -19.6690  -27.3201   20.6757 H   0  0  0  0  0  0
  -17.4181  -26.6666   21.4035 H   0  0  0  0  0  0
  -18.0312  -26.0093   22.9044 H   0  0  0  0  0  0
  -19.7919  -30.7259   24.2300 H   0  0  0  0  0  0
  -17.5005  -31.6287   24.5157 H   0  0  0  0  0  0
  -15.5338  -30.3010   23.7652 H   0  0  0  0  0  0
  -15.8646  -28.0858   22.7032 H   0  0  0  0  0  0
  -24.5813  -30.7212   25.7830 H   0  0  0  0  0  0
  -24.9003  -32.2961   26.4989 H   0  0  0  0  0  0
  -25.8034  -30.8870   27.0233 H   0  0  0  0  0  0
  -26.2802  -29.6844   24.1132 H   0  0  0  0  0  0
  -27.3943  -29.7243   25.4612 H   0  0  0  0  0  0
  -27.8687  -30.4326   23.9333 H   0  0  0  0  0  0
  -27.2719  -33.3615   26.2089 H   0  0  0  0  0  0
  -28.3876  -32.6832   25.0321 H   0  0  0  0  0  0
  -28.0719  -31.8399   26.5407 H   0  0  0  0  0  0
  -28.2515  -38.0183   24.7642 H   0  0  0  0  0  0
  -28.1187  -36.2730   24.6025 H   0  0  0  0  0  0
  -27.2352  -37.1167   25.8832 H   0  0  0  0  0  0
  -20.9277  -29.8790   21.6994 H   0  0  0  0  0  0
  -26.0151  -38.2871   24.1541 H   0  0  0  0  0  0
  -28.7443  -16.9354   18.2016 H   0  0  0  0  0  0
  -27.9605  -18.8393   16.8995 H   0  0  0  0  0  0
  -30.7613  -19.5982   20.9388 H   0  0  0  0  0  0
  -29.5593  -24.1420   14.0097 H   0  0  0  0  0  0
  -28.4213  -22.7056   13.7554 H   0  0  0  0  0  0
  -31.5374  -17.0471   20.4923 H   0  0  0  0  0  0
  -30.9506  -22.1133   20.2186 H   0  0  0  0  0  0
  -28.8685  -15.6441   20.1038 H   0  0  0  0  0  0
  -28.0837  -22.7658   19.3749 H   0  0  0  0  0  0
  -30.4741  -23.1055   15.9967 H   0  0  0  0  0  0
  -30.1524  -20.6164   16.0313 H   0  0  0  0  0  0
  -28.5818  -20.7678   15.2628 H   0  0  0  0  0  0
  -27.3163  -24.9059   20.1746 H   0  0  0  0  0  0
  -28.0659  -25.2649   18.6215 H   0  0  0  0  0  0
  -28.8424  -22.2731   17.6899 H   0  0  0  0  0  0
  1 25  1  0  0  0
  1 30  2  0  0  0
  1 80  1  0  0  0
  2  3  1  0  0  0
  2 25  1  0  0  0
  2 88  1  0  0  0
  2 89  1  0  0  0
  3  4  1  0  0  0
  3 90  1  0  0  0
  3 91  1  0  0  0
  4  5  1  0  0  0
  4 92  1  0  0  0
  4 93  1  0  0  0
  5  6  1  0  0  0
  5 26  1  0  0  0
  5 94  1  0  0  0
  6 25  1  0  0  0
  6 95  1  0  0  0
  6 96  1  0  0  0
  7  8  2  0  0  0
  7 26  1  0  0  0
  7 29  1  0  0  0
  8  9  1  0  0  0
  8 22  1  0  0  0
  9 10  1  0  0  0
  9 27  2  0  0  0
 10 11  2  0  0  0
 10 15  1  0  0  0
 11 12  1  0  0  0
 11 97  1  0  0  0
 12 13  2  0  0  0
 12 98  1  0  0  0
 13 14  1  0  0  0
 13 31  1  0  0  0
 14 15  2  0  0  0
 14 99  1  0  0  0
 15100  1  0  0  0
 16 17  2  0  0  0
 16 21  1  0  0  0
 16 31  1  0  0  0
 17 18  1  0  0  0
 17101  1  0  0  0
 18 19  2  0  0  0
 18102  1  0  0  0
 19 20  1  0  0  0
 19 24  1  0  0  0
 20 21  2  0  0  0
 20103  1  0  0  0
 21 23  1  0  0  0
 22 28  1  0  0  0
 22 32  2  0  0  0
 26 27  1  0  0  0
 28104  1  0  0  0
 28105  1  0  0  0
 29106  1  0  0  0
 29107  1  0  0  0
 33 34  1  0  0  0
 33 66  1  0  0  0
 33 70  2  0  0  0
 34 36  1  0  0  0
 34 59  1  0  0  0
 34108  1  0  0  0
 35 44  2  0  0  0
 35 45  1  0  0  0
 35 68  1  0  0  0
 36 56  1  0  0  0
 36109  1  0  0  0
 37 39  1  0  0  0
 37 47  1  0  0  0
 37 66  1  0  0  0
 37110  1  0  0  0
 38 43  2  0  0  0
 38 46  1  0  0  0
 38 47  1  0  0  0
 39 64  1  0  0  0
 39 67  2  0  0  0
 40 52  1  0  0  0
 40 53  2  0  0  0
 40 58  1  0  0  0
 41111  1  0  0  0
 41112  1  0  0  0
 41113  1  0  0  0
 41 48  1  0  0  0
 42 43  1  0  0  0
 42 66  1  0  0  0
 42114  1  0  0  0
 42115  1  0  0  0
 43 44  1  0  0  0
 44116  1  0  0  0
 45 46  2  0  0  0
 45117  1  0  0  0
 46118  1  0  0  0
 47119  1  0  0  0
 47120  1  0  0  0
 48 56  1  0  0  0
 48 65  1  0  0  0
 48121  1  0  0  0
 49 50  1  0  0  0
 49 53  1  0  0  0
 49 64  1  0  0  0
 49122  1  0  0  0
 50 51  1  0  0  0
 50123  1  0  0  0
 50124  1  0  0  0
 51 52  1  0  0  0
 51125  1  0  0  0
 51126  1  0  0  0
 52127  1  0  0  0
 52128  1  0  0  0
 53 54  1  0  0  0
 54 55  2  0  0  0
 54129  1  0  0  0
 55 57  1  0  0  0
 55130  1  0  0  0
 56 69  2  0  0  0
 57 58  2  0  0  0
 57131  1  0  0  0
 58132  1  0  0  0
 59 60  1  0  0  0
 59 61  1  0  0  0
 59 62  1  0  0  0
 60133  1  0  0  0
 60134  1  0  0  0
 60135  1  0  0  0
 61136  1  0  0  0
 61137  1  0  0  0
 61138  1  0  0  0
 62139  1  0  0  0
 62140  1  0  0  0
 62141  1  0  0  0
 63 65  1  0  0  0
 63142  1  0  0  0
 63143  1  0  0  0
 63144  1  0  0  0
 64145  1  0  0  0
 65146  1  0  0  0
 68 85  1  0  0  0
 71 72  2  0  0  0
 71 74  1  0  0  0
 71147  1  0  0  0
 72 76  1  0  0  0
 72148  1  0  0  0
 73 74  2  0  0  0
 73 75  1  0  0  0
 73149  1  0  0  0
 74 78  1  0  0  0
 75 76  2  0  0  0
 75 79  1  0  0  0
 76 86  1  0  0  0
 77 82  2  0  0  0
 77150  1  0  0  0
 77151  1  0  0  0
 78 80  2  0  0  0
 78152  1  0  0  0
 79 81  2  0  0  0
 79153  1  0  0  0
 80154  1  0  0  0
 81 83  1  0  0  0
 81155  1  0  0  0
 82 84  1  0  0  0
 82156  1  0  0  0
 83 85  1  0  0  0
 83 87  2  0  0  0
 84 86  1  0  0  0
 84157  1  0  0  0
 84158  1  0  0  0
 85159  1  0  0  0
 85160  1  0  0  0
 86161  1  0  0  0
M  ISO  4   1 100  68 101  80 100  85 101
M  END
> <chiral flag>
0

> <version>
0

> <s_m_source_file>
/data/baiqing/PycharmProjects/Reinvent-master-3.2/result/LINK_invent/BTK/process_docking_weight1_custom_product_contain_oxygen_bond_distance_aromatic_linkinvent_7_9_3/rearranged_h_0119.sdf

> <i_m_source_file_index>
46

> <r_mmod_Potential_Energy-OPLS-2005>
26.168212890625

> <r_mmod_Stretch_Energy-OPLS-2005>
36.8535957336426

> <r_mmod_Bend_Energy-OPLS-2005>
101.426307678223

> <r_mmod_Torsional_Energy-OPLS-2005>
241.807769775391

> <r_mmod_Improper_Torsional_Energy-OPLS-2005>
22.7949199676514

> <r_mmod_Van_der_Waal_Energy-OPLS-2005>
174.010696411133

> <r_mmod_Electrostatic_Energy-OPLS-2005>
-354.107574462891

> <r_mmod_Solvation_Energy-OPLS-2005>
-225.894409179688

> <b_mmod_Minimization_Converged-OPLS-2005>
0

> <r_mmod_RMS_Derivative-OPLS-2005>
2.79186201095581

$$$$
46
                    3D
 Structure written by MMmdl.
147155  0  0  1  0            999 V2000
  -30.6369  -14.7336   20.4584 C   0  0  0  0  0  0
  -30.4255  -12.4433   19.4880 C   0  0  0  0  0  0
  -29.5129  -12.5082   18.2435 C   0  0  0  0  0  0
  -28.0358  -12.3407   18.6468 C   0  0  0  0  0  0
  -27.6407  -13.2378   19.8502 C   0  0  2  0  0  0
  -28.6815  -13.1761   20.9872 C   0  0  0  0  0  0
  -25.2499  -13.8210   20.5700 C   0  0  0  0  0  0
  -24.1797  -13.0446   20.9203 C   0  0  0  0  0  0
  -24.6403  -11.6925   20.8749 C   0  0  0  0  0  0
  -23.9089  -10.4295   21.0411 C   0  0  0  0  0  0
  -24.3636   -9.4199   21.9179 C   0  0  0  0  0  0
  -23.6303   -8.2240   22.0751 C   0  0  0  0  0  0
  -22.4284   -8.0284   21.3545 C   0  0  0  0  0  0
  -21.9930   -9.0260   20.4646 C   0  0  0  0  0  0
  -22.7267  -10.2133   20.3054 C   0  0  0  0  0  0
  -21.6855   -6.0736   22.5274 C   0  0  0  0  0  0
  -21.4019   -6.5642   23.8205 C   0  0  0  0  0  0
  -21.3661   -5.6798   24.9170 C   0  0  0  0  0  0
  -21.6043   -4.3062   24.7221 C   0  0  0  0  0  0
  -21.8823   -3.8149   23.4348 C   0  0  0  0  0  0
  -21.9196   -4.6964   22.3400 C   0  0  0  0  0  0
  -22.7813  -13.5206   21.1871 C   0  0  0  0  0  0
  -22.1660   -4.2148   21.0979 F   0  0  0  0  0  0
  -21.5628   -3.4546   25.7736 F   0  0  0  0  0  0
  -29.9891  -13.5156   20.4152 N   0  0  0  0  0  0
  -26.2933  -12.9434   20.3272 N   0  0  0  0  0  0
  -25.9337  -11.6568   20.5744 N   0  0  0  0  0  0
  -22.0486  -12.8174   22.0431 N   0  0  0  0  0  0
  -25.4198  -15.1936   20.4142 N   0  0  0  0  0  0
  -31.8305  -14.7647   20.1443 O   0  0  0  0  0  0
  -21.6647   -6.8883   21.4239 O   0  0  0  0  0  0
  -22.3477  -14.5504   20.6719 O   0  0  0  0  0  0
  -24.6336  -31.8560   23.2016 C   0  0  0  0  0  0
  -25.9171  -32.4747   23.8352 C   0  0  1  0  0  0
  -27.2037  -27.2547   20.1218 C   0  0  0  0  0  0
  -25.5960  -33.8549   24.2266 N   0  0  0  0  0  0
  -23.4279  -30.4840   21.5450 C   0  0  2  0  0  0
  -24.8709  -28.9399   20.1056 C   0  0  0  0  0  0
  -22.7504  -29.4623   22.4904 C   0  0  0  0  0  0
  -18.0297  -28.1403   22.8493 C   0  0  0  0  0  0
  -24.1487  -36.7280   23.2636 C   0  0  0  0  0  0
  -25.9771  -30.7671   21.3834 C   0  0  0  0  0  0
  -26.0462  -29.3925   20.7198 C   0  0  0  0  0  0
  -27.2163  -28.5631   20.7178 C   0  0  0  0  0  0
  -26.0064  -26.8871   19.4617 C   0  0  0  0  0  0
  -24.8583  -27.6962   19.4634 C   0  0  0  0  0  0
  -23.6438  -29.8280   20.1582 C   0  0  0  0  0  0
  -25.4110  -36.3060   24.0325 C   0  0  1  0  0  0
  -20.5905  -28.3723   23.1263 C   0  0  2  0  0  0
  -20.6791  -26.9437   22.5414 C   0  0  0  0  0  0
  -19.5760  -26.6400   21.5222 C   0  0  0  0  0  0
  -18.1937  -26.7947   22.1631 C   0  0  0  0  0  0
  -19.1555  -28.8875   23.2874 C   0  0  0  0  0  0
  -18.9474  -30.1474   23.8896 C   0  0  0  0  0  0
  -17.6473  -30.6605   24.0570 C   0  0  0  0  0  0
  -25.9065  -34.9433   23.5094 C   0  0  0  0  0  0
  -16.5362  -29.9103   23.6335 C   0  0  0  0  0  0
  -16.7284  -28.6518   23.0361 C   0  0  0  0  0  0
  -26.4529  -31.6569   25.0744 C   0  0  0  0  0  0
  -25.3755  -31.3737   26.1470 C   0  0  0  0  0  0
  -27.0369  -30.2970   24.6262 C   0  0  0  0  0  0
  -27.6077  -32.4308   25.7520 C   0  0  0  0  0  0
  -27.5581  -37.1782   24.8455 C   0  0  0  0  0  0
  -21.4215  -29.3061   22.3636 N   0  0  0  0  0  0
  -26.4276  -37.3768   23.9426 N   0  0  0  0  0  0
  -24.6988  -31.0532   22.0991 N   0  0  0  0  0  0
  -23.4195  -28.8159   23.3009 O   0  0  0  0  0  0
  -28.2709  -26.3220   20.2027 O   0  0  0  0  0  0
  -26.5635  -34.8910   22.4662 O   0  0  0  0  0  0
  -23.5485  -32.1380   23.7317 O   0  0  0  0  0  0
  -29.1409  -19.6418   20.4078 C   0  0  0  0  0  0
  -30.7203  -21.2131   21.1384 C   0  0  0  0  0  0
  -29.4669  -21.0758   20.6080 C   0  0  0  0  0  0
  -30.1768  -18.7383   20.7230 C   0  0  0  0  0  0
  -28.6204  -22.3222   20.2748 C   0  0  0  0  0  0
  -30.4601  -17.2663   20.6433 C   0  0  0  0  0  0
  -29.8533  -16.0167   20.6672 C   0  0  0  0  0  0
  -28.9101  -23.6815   20.3510 C   0  0  0  0  0  0
  -27.9465  -24.8730   19.9424 C   0  0  0  0  0  0
  -31.5142  -19.6711   21.3735 S   0  0  0  0  0  0
  -31.4696  -12.5435   19.1874 H   0  0  0  0  0  0
  -30.3515  -11.4690   19.9741 H   0  0  0  0  0  0
  -29.7956  -11.7372   17.5267 H   0  0  0  0  0  0
  -29.6496  -13.4647   17.7362 H   0  0  0  0  0  0
  -27.8812  -11.2912   18.8996 H   0  0  0  0  0  0
  -27.3872  -12.5485   17.7953 H   0  0  0  0  0  0
  -27.6362  -14.2594   19.4707 H   0  0  0  0  0  0
  -28.7098  -12.1813   21.4338 H   0  0  0  0  0  0
  -28.4177  -13.8623   21.7937 H   0  0  0  0  0  0
  -25.2789   -9.5661   22.4743 H   0  0  0  0  0  0
  -24.0015   -7.4629   22.7463 H   0  0  0  0  0  0
  -21.0868   -8.8786   19.8941 H   0  0  0  0  0  0
  -22.3740  -10.9672   19.6158 H   0  0  0  0  0  0
  -21.2015   -7.6152   23.9704 H   0  0  0  0  0  0
  -21.1477   -6.0532   25.9070 H   0  0  0  0  0  0
  -22.0603   -2.7611   23.2850 H   0  0  0  0  0  0
  -22.4150  -11.9853   22.4811 H   0  0  0  0  0  0
  -21.1088  -13.1141   22.2637 H   0  0  0  0  0  0
  -24.6586  -15.8533   20.5339 H   0  0  0  0  0  0
  -26.2748  -15.6326   20.0977 H   0  0  0  0  0  0
  -26.7237  -32.5387   23.1086 H   0  0  0  0  0  0
  -25.0084  -33.9678   25.0397 H   0  0  0  0  0  0
  -22.7253  -31.3081   21.4054 H   0  0  0  0  0  0
  -23.3760  -35.9599   23.3253 H   0  0  0  0  0  0
  -24.3583  -36.8959   22.2063 H   0  0  0  0  0  0
  -23.7221  -37.6457   23.6694 H   0  0  0  0  0  0
  -26.1235  -31.5302   20.6176 H   0  0  0  0  0  0
  -26.8517  -30.8079   22.0208 H   0  0  0  0  0  0
  -28.1119  -28.9023   21.2192 H   0  0  0  0  0  0
  -25.9096  -25.9442   18.9462 H   0  0  0  0  0  0
  -23.9628  -27.3487   18.9666 H   0  0  0  0  0  0
  -23.7678  -30.6093   19.4072 H   0  0  0  0  0  0
  -22.7600  -29.2659   19.8508 H   0  0  0  0  0  0
  -25.1281  -36.1897   25.0814 H   0  0  0  0  0  0
  -21.0006  -28.3327   24.1380 H   0  0  0  0  0  0
  -20.5716  -26.2337   23.3628 H   0  0  0  0  0  0
  -21.6655  -26.7475   22.1194 H   0  0  0  0  0  0
  -19.6928  -25.6311   21.1257 H   0  0  0  0  0  0
  -19.6697  -27.3206   20.6752 H   0  0  0  0  0  0
  -17.4212  -26.6706   21.4025 H   0  0  0  0  0  0
  -18.0327  -26.0086   22.9024 H   0  0  0  0  0  0
  -19.7944  -30.7295   24.2262 H   0  0  0  0  0  0
  -17.5025  -31.6276   24.5185 H   0  0  0  0  0  0
  -15.5361  -30.3009   23.7659 H   0  0  0  0  0  0
  -15.8680  -28.0834   22.7086 H   0  0  0  0  0  0
  -24.5927  -30.7080   25.7817 H   0  0  0  0  0  0
  -24.8955  -32.2918   26.4873 H   0  0  0  0  0  0
  -25.8081  -30.8939   27.0262 H   0  0  0  0  0  0
  -26.2965  -29.6708   24.1274 H   0  0  0  0  0  0
  -27.4009  -29.7240   25.4805 H   0  0  0  0  0  0
  -27.8864  -30.4203   23.9540 H   0  0  0  0  0  0
  -27.2686  -33.3624   26.2061 H   0  0  0  0  0  0
  -28.3913  -32.6843   25.0367 H   0  0  0  0  0  0
  -28.0716  -31.8459   26.5471 H   0  0  0  0  0  0
  -28.2557  -38.0123   24.7554 H   0  0  0  0  0  0
  -28.1123  -36.2656   24.6204 H   0  0  0  0  0  0
  -27.2315  -37.1341   25.8861 H   0  0  0  0  0  0
  -20.9407  -29.8755   21.6814 H   0  0  0  0  0  0
  -26.0149  -38.2829   24.1476 H   0  0  0  0  0  0
  -28.1914  -19.3370   19.9899 H   0  0  0  0  0  0
  -31.2427  -22.1242   21.4026 H   0  0  0  0  0  0
  -27.6298  -22.0784   19.9159 H   0  0  0  0  0  0
  -31.5259  -17.1611   20.4908 H   0  0  0  0  0  0
  -28.7866  -15.9640   20.8203 H   0  0  0  0  0  0
  -29.8850  -23.9875   20.7006 H   0  0  0  0  0  0
  -26.9923  -24.6331   20.4147 H   0  0  0  0  0  0
  -27.7969  -24.7665   18.8672 H   0  0  0  0  0  0
  1 25  1  0  0  0
  1 30  2  0  0  0
  1 77  1  0  0  0
  2  3  1  0  0  0
  2 25  1  0  0  0
  2 81  1  0  0  0
  2 82  1  0  0  0
  3  4  1  0  0  0
  3 83  1  0  0  0
  3 84  1  0  0  0
  4  5  1  0  0  0
  4 85  1  0  0  0
  4 86  1  0  0  0
  5  6  1  0  0  0
  5 26  1  0  0  0
  5 87  1  0  0  0
  6 25  1  0  0  0
  6 88  1  0  0  0
  6 89  1  0  0  0
  7  8  2  0  0  0
  7 26  1  0  0  0
  7 29  1  0  0  0
  8  9  1  0  0  0
  8 22  1  0  0  0
  9 10  1  0  0  0
  9 27  2  0  0  0
 10 11  2  0  0  0
 10 15  1  0  0  0
 11 12  1  0  0  0
 11 90  1  0  0  0
 12 13  2  0  0  0
 12 91  1  0  0  0
 13 14  1  0  0  0
 13 31  1  0  0  0
 14 15  2  0  0  0
 14 92  1  0  0  0
 15 93  1  0  0  0
 16 17  2  0  0  0
 16 21  1  0  0  0
 16 31  1  0  0  0
 17 18  1  0  0  0
 17 94  1  0  0  0
 18 19  2  0  0  0
 18 95  1  0  0  0
 19 20  1  0  0  0
 19 24  1  0  0  0
 20 21  2  0  0  0
 20 96  1  0  0  0
 21 23  1  0  0  0
 22 28  1  0  0  0
 22 32  2  0  0  0
 26 27  1  0  0  0
 28 97  1  0  0  0
 28 98  1  0  0  0
 29 99  1  0  0  0
 29100  1  0  0  0
 33 34  1  0  0  0
 33 66  1  0  0  0
 33 70  2  0  0  0
 34 36  1  0  0  0
 34 59  1  0  0  0
 34101  1  0  0  0
 35 44  2  0  0  0
 35 45  1  0  0  0
 35 68  1  0  0  0
 36 56  1  0  0  0
 36102  1  0  0  0
 37 39  1  0  0  0
 37 47  1  0  0  0
 37 66  1  0  0  0
 37103  1  0  0  0
 38 43  2  0  0  0
 38 46  1  0  0  0
 38 47  1  0  0  0
 39 64  1  0  0  0
 39 67  2  0  0  0
 40 52  1  0  0  0
 40 53  2  0  0  0
 40 58  1  0  0  0
 41104  1  0  0  0
 41105  1  0  0  0
 41106  1  0  0  0
 41 48  1  0  0  0
 42 43  1  0  0  0
 42 66  1  0  0  0
 42107  1  0  0  0
 42108  1  0  0  0
 43 44  1  0  0  0
 44109  1  0  0  0
 45 46  2  0  0  0
 45110  1  0  0  0
 46111  1  0  0  0
 47112  1  0  0  0
 47113  1  0  0  0
 48 56  1  0  0  0
 48 65  1  0  0  0
 48114  1  0  0  0
 49 50  1  0  0  0
 49 53  1  0  0  0
 49 64  1  0  0  0
 49115  1  0  0  0
 50 51  1  0  0  0
 50116  1  0  0  0
 50117  1  0  0  0
 51 52  1  0  0  0
 51118  1  0  0  0
 51119  1  0  0  0
 52120  1  0  0  0
 52121  1  0  0  0
 53 54  1  0  0  0
 54 55  2  0  0  0
 54122  1  0  0  0
 55 57  1  0  0  0
 55123  1  0  0  0
 56 69  2  0  0  0
 57 58  2  0  0  0
 57124  1  0  0  0
 58125  1  0  0  0
 59 60  1  0  0  0
 59 61  1  0  0  0
 59 62  1  0  0  0
 60126  1  0  0  0
 60127  1  0  0  0
 60128  1  0  0  0
 61129  1  0  0  0
 61130  1  0  0  0
 61131  1  0  0  0
 62132  1  0  0  0
 62133  1  0  0  0
 62134  1  0  0  0
 63 65  1  0  0  0
 63135  1  0  0  0
 63136  1  0  0  0
 63137  1  0  0  0
 64138  1  0  0  0
 65139  1  0  0  0
 68 79  1  0  0  0
 71 73  1  0  0  0
 71 74  2  0  0  0
 71140  1  0  0  0
 72 73  2  0  0  0
 72 80  1  0  0  0
 72141  1  0  0  0
 73 75  1  0  0  0
 74 76  1  0  0  0
 74 80  1  0  0  0
 75 78  2  0  0  0
 75142  1  0  0  0
 76 77  2  0  0  0
 76143  1  0  0  0
 77144  1  0  0  0
 78 79  1  0  0  0
 78145  1  0  0  0
 79146  1  0  0  0
 79147  1  0  0  0
M  ISO  4   1 100  68 101  77 100  79 101
M  END
> <chiral flag>
0

> <version>
0

> <s_m_source_file>
/data/baiqing/PycharmProjects/Reinvent-master-3.2/result/LINK_invent/BTK/process_docking_weight1_custom_product_contain_oxygen_bond_distance_aromatic_linkinvent_7_9_3/rearranged_h_0119.sdf

> <i_m_source_file_index>
47

> <r_mmod_Potential_Energy-OPLS-2005>
174.741470336914

> <r_mmod_Stretch_Energy-OPLS-2005>
114.514633178711

> <r_mmod_Bend_Energy-OPLS-2005>
176.952560424805

> <r_mmod_Torsional_Energy-OPLS-2005>
192.19482421875

> <r_mmod_Improper_Torsional_Energy-OPLS-2005>
4.59384441375732

> <r_mmod_Van_der_Waal_Energy-OPLS-2005>
131.428344726562

> <r_mmod_Electrostatic_Energy-OPLS-2005>
-332.840301513672

> <r_mmod_Solvation_Energy-OPLS-2005>
-200.440399169922

> <b_mmod_Minimization_Converged-OPLS-2005>
0

> <r_mmod_RMS_Derivative-OPLS-2005>
1.14318883419037

$$$$
47
                    3D
 Structure written by MMmdl.
161169  0  0  1  0            999 V2000
  -30.6786  -14.5084   20.5403 C   0  0  0  0  0  0
  -30.4389  -12.3176   19.4359 C   0  0  0  0  0  0
  -29.5085  -12.4981   18.2170 C   0  0  0  0  0  0
  -28.0267  -12.3656   18.6214 C   0  0  0  0  0  0
  -27.6670  -13.2018   19.8789 C   0  0  2  0  0  0
  -28.7102  -12.9971   21.0024 C   0  0  0  0  0  0
  -25.2644  -13.8154   20.5679 C   0  0  0  0  0  0
  -24.1863  -13.0453   20.9136 C   0  0  0  0  0  0
  -24.6400  -11.6911   20.8724 C   0  0  0  0  0  0
  -23.9068  -10.4301   21.0404 C   0  0  0  0  0  0
  -24.3604   -9.4220   21.9194 C   0  0  0  0  0  0
  -23.6264   -8.2266   22.0774 C   0  0  0  0  0  0
  -22.4243   -8.0304   21.3564 C   0  0  0  0  0  0
  -21.9886   -9.0287   20.4668 C   0  0  0  0  0  0
  -22.7234  -10.2152   20.3078 C   0  0  0  0  0  0
  -21.6851   -6.0751   22.5277 C   0  0  0  0  0  0
  -21.4024   -6.5642   23.8209 C   0  0  0  0  0  0
  -21.3657   -5.6778   24.9165 C   0  0  0  0  0  0
  -21.6025   -4.3043   24.7192 C   0  0  0  0  0  0
  -21.8826   -3.8158   23.4319 C   0  0  0  0  0  0
  -21.9195   -4.6988   22.3380 C   0  0  0  0  0  0
  -22.7894  -13.5301   21.1777 C   0  0  0  0  0  0
  -22.1665   -4.2182   21.0962 F   0  0  0  0  0  0
  -21.5622   -3.4526   25.7714 F   0  0  0  0  0  0
  -30.0419  -13.3061   20.4541 N   0  0  0  0  0  0
  -26.3062  -12.9301   20.3382 N   0  0  0  0  0  0
  -25.9331  -11.6481   20.5765 N   0  0  0  0  0  0
  -22.0469  -12.8349   22.0328 N   0  0  0  0  0  0
  -25.4399  -15.1875   20.4124 N   0  0  0  0  0  0
  -31.7955  -14.7079   20.0529 O   0  0  0  0  0  0
  -21.6627   -6.8897   21.4231 O   0  0  0  0  0  0
  -22.3617  -14.5622   20.6633 O   0  0  0  0  0  0
  -24.6164  -31.8665   23.2110 C   0  0  0  0  0  0
  -25.9059  -32.4813   23.8400 C   0  0  1  0  0  0
  -27.2288  -27.4070   20.1171 C   0  0  0  0  0  0
  -25.5911  -33.8614   24.2334 N   0  0  0  0  0  0
  -23.4051  -30.4917   21.5503 C   0  0  2  0  0  0
  -24.8549  -28.9602   20.1109 C   0  0  0  0  0  0
  -22.7416  -29.4656   22.4969 C   0  0  0  0  0  0
  -18.0260  -28.1381   22.8493 C   0  0  0  0  0  0
  -24.1479  -36.7292   23.2638 C   0  0  0  0  0  0
  -25.9371  -30.8274   21.3697 C   0  0  0  0  0  0
  -26.0162  -29.4606   20.7151 C   0  0  0  0  0  0
  -27.2080  -28.6923   20.7141 C   0  0  0  0  0  0
  -26.0554  -26.9399   19.4855 C   0  0  0  0  0  0
  -24.8719  -27.7006   19.4893 C   0  0  0  0  0  0
  -23.6160  -29.8269   20.1640 C   0  0  0  0  0  0
  -25.4102  -36.3102   24.0343 C   0  0  1  0  0  0
  -20.5857  -28.3671   23.1305 C   0  0  2  0  0  0
  -20.6758  -26.9399   22.5417 C   0  0  0  0  0  0
  -19.5740  -26.6384   21.5209 C   0  0  0  0  0  0
  -18.1912  -26.7932   22.1611 C   0  0  0  0  0  0
  -19.1511  -28.8840   23.2897 C   0  0  0  0  0  0
  -18.9456  -30.1446   23.8908 C   0  0  0  0  0  0
  -17.6466  -30.6599   24.0560 C   0  0  0  0  0  0
  -25.9029  -34.9468   23.5128 C   0  0  0  0  0  0
  -16.5347  -29.9103   23.6337 C   0  0  0  0  0  0
  -16.7254  -28.6509   23.0371 C   0  0  0  0  0  0
  -26.4502  -31.6599   25.0726 C   0  0  0  0  0  0
  -25.3774  -31.3717   26.1479 C   0  0  0  0  0  0
  -27.0342  -30.3036   24.6122 C   0  0  0  0  0  0
  -27.6065  -32.4328   25.7495 C   0  0  0  0  0  0
  -27.5575  -37.1800   24.8468 C   0  0  0  0  0  0
  -21.4134  -29.3040   22.3718 N   0  0  0  0  0  0
  -26.4285  -37.3791   23.9418 N   0  0  0  0  0  0
  -24.6706  -31.0760   22.1018 N   0  0  0  0  0  0
  -23.4173  -28.8168   23.3001 O   0  0  0  0  0  0
  -28.3593  -26.6066   20.1488 O   0  0  0  0  0  0
  -26.5580  -34.8923   22.4681 O   0  0  0  0  0  0
  -23.5348  -32.1411   23.7496 O   0  0  0  0  0  0
  -29.0659  -16.6694   19.1084 C   0  0  0  0  0  0
  -29.6116  -17.9899   21.0701 C   0  0  0  0  0  0
  -28.4644  -19.0506   19.1814 C   0  0  0  0  0  0
  -28.4692  -17.7974   18.5077 C   0  0  0  0  0  0
  -29.6002  -16.7316   20.4119 C   0  0  0  0  0  0
  -29.0944  -19.1650   20.4537 C   0  0  0  0  0  0
  -27.9275  -20.7463   17.4152 C   0  0  0  0  0  0
  -27.7245  -20.1987   18.6246 C   0  0  0  0  0  0
  -27.7692  -17.5977   17.1716 C   0  0  0  0  0  0
  -29.1144  -24.1690   20.3264 C   0  0  0  0  0  0
  -28.6976  -22.7768   20.8988 C   0  0  0  0  0  0
  -28.1554  -25.3109   20.7721 C   0  0  0  0  0  0
  -29.6207  -21.5663   20.5707 C   0  0  0  0  0  0
  -29.9673  -15.5178   21.0874 N   0  0  0  0  0  0
  -29.1212  -20.3530   21.1793 O   0  0  0  0  0  0
  -31.4832  -12.4235   19.1336 H   0  0  0  0  0  0
  -30.3544  -11.3085   19.8420 H   0  0  0  0  0  0
  -29.7527  -11.7647   17.4459 H   0  0  0  0  0  0
  -29.6763  -13.4778   17.7664 H   0  0  0  0  0  0
  -27.8269  -11.3098   18.8075 H   0  0  0  0  0  0
  -27.3884  -12.6531   17.7849 H   0  0  0  0  0  0
  -27.7004  -14.2473   19.5810 H   0  0  0  0  0  0
  -28.6894  -11.9642   21.3516 H   0  0  0  0  0  0
  -28.4682  -13.6047   21.8748 H   0  0  0  0  0  0
  -25.2748   -9.5686   22.4770 H   0  0  0  0  0  0
  -23.9957   -7.4657   22.7499 H   0  0  0  0  0  0
  -21.0829   -8.8836   19.8967 H   0  0  0  0  0  0
  -22.3708  -10.9704   19.6197 H   0  0  0  0  0  0
  -21.2038   -7.6148   23.9726 H   0  0  0  0  0  0
  -21.1461   -6.0502   25.9066 H   0  0  0  0  0  0
  -22.0610   -2.7627   23.2792 H   0  0  0  0  0  0
  -22.3995  -11.9973   22.4722 H   0  0  0  0  0  0
  -21.1152  -13.1536   22.2563 H   0  0  0  0  0  0
  -24.6798  -15.8488   20.5293 H   0  0  0  0  0  0
  -26.3067  -15.6254   20.1267 H   0  0  0  0  0  0
  -26.7123  -32.5529   23.1153 H   0  0  0  0  0  0
  -25.0126  -33.9786   25.0524 H   0  0  0  0  0  0
  -22.6915  -31.3070   21.4121 H   0  0  0  0  0  0
  -23.3754  -35.9611   23.3313 H   0  0  0  0  0  0
  -24.3568  -36.8891   22.2049 H   0  0  0  0  0  0
  -23.7221  -37.6494   23.6648 H   0  0  0  0  0  0
  -26.0540  -31.5974   20.6051 H   0  0  0  0  0  0
  -26.8214  -30.8771   21.9939 H   0  0  0  0  0  0
  -28.0985  -29.0681   21.1990 H   0  0  0  0  0  0
  -26.0474  -25.9762   18.9958 H   0  0  0  0  0  0
  -23.9832  -27.3135   19.0096 H   0  0  0  0  0  0
  -23.7174  -30.6006   19.4024 H   0  0  0  0  0  0
  -22.7413  -29.2445   19.8717 H   0  0  0  0  0  0
  -25.1278  -36.1960   25.0835 H   0  0  0  0  0  0
  -20.9939  -28.3255   24.1431 H   0  0  0  0  0  0
  -20.5661  -26.2276   23.3607 H   0  0  0  0  0  0
  -21.6635  -26.7451   22.1219 H   0  0  0  0  0  0
  -19.6900  -25.6291   21.1253 H   0  0  0  0  0  0
  -19.6689  -27.3181   20.6728 H   0  0  0  0  0  0
  -17.4181  -26.6679   21.4012 H   0  0  0  0  0  0
  -18.0301  -26.0077   22.9004 H   0  0  0  0  0  0
  -19.7935  -30.7246   24.2288 H   0  0  0  0  0  0
  -17.5032  -31.6284   24.5141 H   0  0  0  0  0  0
  -15.5351  -30.3014   23.7674 H   0  0  0  0  0  0
  -15.8644  -28.0831   22.7116 H   0  0  0  0  0  0
  -24.5931  -30.7077   25.7834 H   0  0  0  0  0  0
  -24.8993  -32.2881   26.4945 H   0  0  0  0  0  0
  -25.8135  -30.8882   27.0225 H   0  0  0  0  0  0
  -26.2892  -29.6773   24.1204 H   0  0  0  0  0  0
  -27.4133  -29.7298   25.4586 H   0  0  0  0  0  0
  -27.8716  -30.4339   23.9264 H   0  0  0  0  0  0
  -27.2676  -33.3625   26.2078 H   0  0  0  0  0  0
  -28.3885  -32.6893   25.0339 H   0  0  0  0  0  0
  -28.0725  -31.8455   26.5415 H   0  0  0  0  0  0
  -28.2604  -38.0087   24.7521 H   0  0  0  0  0  0
  -28.1062  -36.2621   24.6293 H   0  0  0  0  0  0
  -27.2291  -37.1451   25.8871 H   0  0  0  0  0  0
  -20.9278  -29.8780   21.6969 H   0  0  0  0  0  0
  -26.0172  -38.2864   24.1445 H   0  0  0  0  0  0
  -29.0386  -15.7271   18.5801 H   0  0  0  0  0  0
  -30.0090  -18.0575   22.0727 H   0  0  0  0  0  0
  -27.3308  -21.5821   17.0766 H   0  0  0  0  0  0
  -28.6919  -20.3773   16.7470 H   0  0  0  0  0  0
  -26.9482  -20.6026   19.2601 H   0  0  0  0  0  0
  -27.6583  -16.5398   16.9284 H   0  0  0  0  0  0
  -28.3404  -18.0602   16.3676 H   0  0  0  0  0  0
  -26.7685  -18.0325   17.1847 H   0  0  0  0  0  0
  -29.1337  -24.1164   19.2381 H   0  0  0  0  0  0
  -30.1315  -24.4076   20.6400 H   0  0  0  0  0  0
  -27.6908  -22.5531   20.5455 H   0  0  0  0  0  0
  -28.6157  -22.8545   21.9835 H   0  0  0  0  0  0
  -28.2573  -25.4490   21.8491 H   0  0  0  0  0  0
  -27.1391  -24.9468   20.6314 H   0  0  0  0  0  0
  -30.6103  -21.7532   20.9912 H   0  0  0  0  0  0
  -29.7788  -21.4738   19.4967 H   0  0  0  0  0  0
  -29.2594  -15.1845   21.7254 H   0  0  0  0  0  0
  1 25  1  0  0  0
  1 30  2  0  0  0
  1 84  1  0  0  0
  2  3  1  0  0  0
  2 25  1  0  0  0
  2 86  1  0  0  0
  2 87  1  0  0  0
  3  4  1  0  0  0
  3 88  1  0  0  0
  3 89  1  0  0  0
  4  5  1  0  0  0
  4 90  1  0  0  0
  4 91  1  0  0  0
  5  6  1  0  0  0
  5 26  1  0  0  0
  5 92  1  0  0  0
  6 25  1  0  0  0
  6 93  1  0  0  0
  6 94  1  0  0  0
  7  8  2  0  0  0
  7 26  1  0  0  0
  7 29  1  0  0  0
  8  9  1  0  0  0
  8 22  1  0  0  0
  9 10  1  0  0  0
  9 27  2  0  0  0
 10 11  2  0  0  0
 10 15  1  0  0  0
 11 12  1  0  0  0
 11 95  1  0  0  0
 12 13  2  0  0  0
 12 96  1  0  0  0
 13 14  1  0  0  0
 13 31  1  0  0  0
 14 15  2  0  0  0
 14 97  1  0  0  0
 15 98  1  0  0  0
 16 17  2  0  0  0
 16 21  1  0  0  0
 16 31  1  0  0  0
 17 18  1  0  0  0
 17 99  1  0  0  0
 18 19  2  0  0  0
 18100  1  0  0  0
 19 20  1  0  0  0
 19 24  1  0  0  0
 20 21  2  0  0  0
 20101  1  0  0  0
 21 23  1  0  0  0
 22 28  1  0  0  0
 22 32  2  0  0  0
 26 27  1  0  0  0
 28102  1  0  0  0
 28103  1  0  0  0
 29104  1  0  0  0
 29105  1  0  0  0
 33 34  1  0  0  0
 33 66  1  0  0  0
 33 70  2  0  0  0
 34 36  1  0  0  0
 34 59  1  0  0  0
 34106  1  0  0  0
 35 44  2  0  0  0
 35 45  1  0  0  0
 35 68  1  0  0  0
 36 56  1  0  0  0
 36107  1  0  0  0
 37 39  1  0  0  0
 37 47  1  0  0  0
 37 66  1  0  0  0
 37108  1  0  0  0
 38 43  2  0  0  0
 38 46  1  0  0  0
 38 47  1  0  0  0
 39 64  1  0  0  0
 39 67  2  0  0  0
 40 52  1  0  0  0
 40 53  2  0  0  0
 40 58  1  0  0  0
 41109  1  0  0  0
 41110  1  0  0  0
 41111  1  0  0  0
 41 48  1  0  0  0
 42 43  1  0  0  0
 42 66  1  0  0  0
 42112  1  0  0  0
 42113  1  0  0  0
 43 44  1  0  0  0
 44114  1  0  0  0
 45 46  2  0  0  0
 45115  1  0  0  0
 46116  1  0  0  0
 47117  1  0  0  0
 47118  1  0  0  0
 48 56  1  0  0  0
 48 65  1  0  0  0
 48119  1  0  0  0
 49 50  1  0  0  0
 49 53  1  0  0  0
 49 64  1  0  0  0
 49120  1  0  0  0
 50 51  1  0  0  0
 50121  1  0  0  0
 50122  1  0  0  0
 51 52  1  0  0  0
 51123  1  0  0  0
 51124  1  0  0  0
 52125  1  0  0  0
 52126  1  0  0  0
 53 54  1  0  0  0
 54 55  2  0  0  0
 54127  1  0  0  0
 55 57  1  0  0  0
 55128  1  0  0  0
 56 69  2  0  0  0
 57 58  2  0  0  0
 57129  1  0  0  0
 58130  1  0  0  0
 59 60  1  0  0  0
 59 61  1  0  0  0
 59 62  1  0  0  0
 60131  1  0  0  0
 60132  1  0  0  0
 60133  1  0  0  0
 61134  1  0  0  0
 61135  1  0  0  0
 61136  1  0  0  0
 62137  1  0  0  0
 62138  1  0  0  0
 62139  1  0  0  0
 63 65  1  0  0  0
 63140  1  0  0  0
 63141  1  0  0  0
 63142  1  0  0  0
 64143  1  0  0  0
 65144  1  0  0  0
 68 82  1  0  0  0
 71 74  2  0  0  0
 71 75  1  0  0  0
 71145  1  0  0  0
 72 75  2  0  0  0
 72 76  1  0  0  0
 72146  1  0  0  0
 73 74  1  0  0  0
 73 76  2  0  0  0
 73 78  1  0  0  0
 74 79  1  0  0  0
 75 84  1  0  0  0
 76 85  1  0  0  0
 77 78  2  0  0  0
 77147  1  0  0  0
 77148  1  0  0  0
 78149  1  0  0  0
 79150  1  0  0  0
 79151  1  0  0  0
 79152  1  0  0  0
 80 81  1  0  0  0
 80 82  1  0  0  0
 80153  1  0  0  0
 80154  1  0  0  0
 81 83  1  0  0  0
 81155  1  0  0  0
 81156  1  0  0  0
 82157  1  0  0  0
 82158  1  0  0  0
 83 85  1  0  0  0
 83159  1  0  0  0
 83160  1  0  0  0
 84161  1  0  0  0
M  ISO  4   1 100  68 101  82 101  84 100
M  END
> <chiral flag>
0

> <version>
0

> <s_m_source_file>
/data/baiqing/PycharmProjects/Reinvent-master-3.2/result/LINK_invent/BTK/process_docking_weight1_custom_product_contain_oxygen_bond_distance_aromatic_linkinvent_7_9_3/rearranged_h_0119.sdf

> <i_m_source_file_index>
48

> <r_mmod_Potential_Energy-OPLS-2005>
69.0101776123047

> <r_mmod_Stretch_Energy-OPLS-2005>
46.8442687988281

> <r_mmod_Bend_Energy-OPLS-2005>
105.282653808594

> <r_mmod_Torsional_Energy-OPLS-2005>
312.565277099609

> <r_mmod_Improper_Torsional_Energy-OPLS-2005>
7.1815037727356

> <r_mmod_Van_der_Waal_Energy-OPLS-2005>
150.015426635742

> <r_mmod_Electrostatic_Energy-OPLS-2005>
-366.248962402344

> <r_mmod_Solvation_Energy-OPLS-2005>
-205.364044189453

> <b_mmod_Minimization_Converged-OPLS-2005>
0

> <r_mmod_RMS_Derivative-OPLS-2005>
2.7126362323761

$$$$
48
                    3D
 Structure written by MMmdl.
158166  0  0  1  0            999 V2000
  -30.6298  -14.6128   20.5223 C   0  0  0  0  0  0
  -30.4330  -12.3751   19.4512 C   0  0  0  0  0  0
  -29.5021  -12.5067   18.2244 C   0  0  0  0  0  0
  -28.0249  -12.3479   18.6349 C   0  0  0  0  0  0
  -27.6546  -13.2136   19.8675 C   0  0  2  0  0  0
  -28.6981  -13.0522   20.9960 C   0  0  0  0  0  0
  -25.2560  -13.8142   20.5655 C   0  0  0  0  0  0
  -24.1833  -13.0416   20.9178 C   0  0  0  0  0  0
  -24.6402  -11.6892   20.8746 C   0  0  0  0  0  0
  -23.9064  -10.4290   21.0420 C   0  0  0  0  0  0
  -24.3618   -9.4196   21.9195 C   0  0  0  0  0  0
  -23.6298   -8.2234   22.0754 C   0  0  0  0  0  0
  -22.4283   -8.0272   21.3544 C   0  0  0  0  0  0
  -21.9913   -9.0248   20.4639 C   0  0  0  0  0  0
  -22.7238  -10.2130   20.3065 C   0  0  0  0  0  0
  -21.6846   -6.0742   22.5280 C   0  0  0  0  0  0
  -21.4018   -6.5648   23.8215 C   0  0  0  0  0  0
  -21.3661   -5.6798   24.9172 C   0  0  0  0  0  0
  -21.6041   -4.3058   24.7222 C   0  0  0  0  0  0
  -21.8815   -3.8152   23.4341 C   0  0  0  0  0  0
  -21.9194   -4.6971   22.3405 C   0  0  0  0  0  0
  -22.7861  -13.5219   21.1836 C   0  0  0  0  0  0
  -22.1658   -4.2166   21.0979 F   0  0  0  0  0  0
  -21.5626   -3.4543   25.7735 F   0  0  0  0  0  0
  -30.0179  -13.3900   20.4402 N   0  0  0  0  0  0
  -26.3004  -12.9334   20.3347 N   0  0  0  0  0  0
  -25.9333  -11.6496   20.5789 N   0  0  0  0  0  0
  -22.0524  -12.8219   22.0413 N   0  0  0  0  0  0
  -25.4205  -15.1856   20.3975 N   0  0  0  0  0  0
  -31.7833  -14.7771   20.1116 O   0  0  0  0  0  0
  -21.6631   -6.8882   21.4245 O   0  0  0  0  0  0
  -22.3556  -14.5532   20.6683 O   0  0  0  0  0  0
  -24.6248  -31.8574   23.2030 C   0  0  0  0  0  0
  -25.9111  -32.4781   23.8348 C   0  0  1  0  0  0
  -27.2259  -27.3272   20.1176 C   0  0  0  0  0  0
  -25.5926  -33.8584   24.2265 N   0  0  0  0  0  0
  -23.4151  -30.4815   21.5481 C   0  0  2  0  0  0
  -24.8618  -28.9386   20.1098 C   0  0  0  0  0  0
  -22.7496  -29.4595   22.4959 C   0  0  0  0  0  0
  -18.0291  -28.1336   22.8443 C   0  0  0  0  0  0
  -24.1509  -36.7272   23.2637 C   0  0  0  0  0  0
  -25.9561  -30.7912   21.3737 C   0  0  0  0  0  0
  -26.0292  -29.4202   20.7162 C   0  0  0  0  0  0
  -27.2150  -28.6258   20.7115 C   0  0  0  0  0  0
  -26.0360  -26.8983   19.4850 C   0  0  0  0  0  0
  -24.8703  -27.6837   19.4813 C   0  0  0  0  0  0
  -23.6257  -29.8140   20.1641 C   0  0  0  0  0  0
  -25.4126  -36.3058   24.0313 C   0  0  1  0  0  0
  -20.5901  -28.3615   23.1295 C   0  0  2  0  0  0
  -20.6785  -26.9342   22.5384 C   0  0  0  0  0  0
  -19.5765  -26.6304   21.5200 C   0  0  0  0  0  0
  -18.1939  -26.7881   22.1601 C   0  0  0  0  0  0
  -19.1546  -28.8806   23.2876 C   0  0  0  0  0  0
  -18.9465  -30.1411   23.8867 C   0  0  0  0  0  0
  -17.6460  -30.6547   24.0527 C   0  0  0  0  0  0
  -25.9037  -34.9451   23.5070 C   0  0  0  0  0  0
  -16.5358  -29.8996   23.6346 C   0  0  0  0  0  0
  -16.7277  -28.6446   23.0319 C   0  0  0  0  0  0
  -26.4499  -31.6622   25.0747 C   0  0  0  0  0  0
  -25.3707  -31.3785   26.1462 C   0  0  0  0  0  0
  -27.0328  -30.3053   24.6173 C   0  0  0  0  0  0
  -27.6089  -32.4334   25.7504 C   0  0  0  0  0  0
  -27.5587  -37.1776   24.8464 C   0  0  0  0  0  0
  -21.4208  -29.2997   22.3728 N   0  0  0  0  0  0
  -26.4306  -37.3751   23.9404 N   0  0  0  0  0  0
  -24.6842  -31.0616   22.0977 N   0  0  0  0  0  0
  -23.4253  -28.8129   23.2997 O   0  0  0  0  0  0
  -28.3458  -26.4844   20.1681 O   0  0  0  0  0  0
  -26.5583  -34.8927   22.4621 O   0  0  0  0  0  0
  -23.5417  -32.1339   23.7391 O   0  0  0  0  0  0
  -28.8502  -19.3390   21.1392 C   0  0  0  0  0  0
  -30.9409  -17.7890   20.1328 C   0  0  0  0  0  0
  -29.8875  -20.0254   20.4592 C   0  0  0  0  0  0
  -28.8542  -17.9224   21.3287 C   0  0  0  0  0  0
  -29.8987  -17.1011   20.8041 C   0  0  0  0  0  0
  -30.9643  -19.2135   19.9873 C   0  0  0  0  0  0
  -29.9239  -21.5410   20.2750 C   0  0  0  0  0  0
  -29.0818  -22.5402   20.6884 C   0  0  0  0  0  0
  -27.7040  -17.3210   22.1258 C   0  0  0  0  0  0
  -33.3289  -19.3271   19.5847 C   0  0  0  0  0  0
  -29.3293  -24.0791   20.5099 C   0  0  0  0  0  0
  -28.1168  -25.0222   20.1307 C   0  0  0  0  0  0
  -29.8393  -15.6438   20.9561 N   0  0  0  0  0  0
  -32.0180  -19.8501   19.3650 O   0  0  0  0  0  0
  -31.4750  -12.4942   19.1480 H   0  0  0  0  0  0
  -30.3600  -11.3744   19.8819 H   0  0  0  0  0  0
  -29.7595  -11.7591   17.4726 H   0  0  0  0  0  0
  -29.6475  -13.4804   17.7531 H   0  0  0  0  0  0
  -27.8553  -11.2938   18.8608 H   0  0  0  0  0  0
  -27.3693  -12.5902   17.7961 H   0  0  0  0  0  0
  -27.6798  -14.2514   19.5362 H   0  0  0  0  0  0
  -28.7013  -12.0271   21.3677 H   0  0  0  0  0  0
  -28.4424  -13.6734   21.8550 H   0  0  0  0  0  0
  -25.2770   -9.5679   22.4762 H   0  0  0  0  0  0
  -24.0004   -7.4629   22.7479 H   0  0  0  0  0  0
  -21.0847   -8.8774   19.8946 H   0  0  0  0  0  0
  -22.3705  -10.9679   19.6178 H   0  0  0  0  0  0
  -21.2013   -7.6159   23.9730 H   0  0  0  0  0  0
  -21.1478   -6.0523   25.9079 H   0  0  0  0  0  0
  -22.0592   -2.7616   23.2834 H   0  0  0  0  0  0
  -22.4163  -11.9875   22.4784 H   0  0  0  0  0  0
  -21.1145  -13.1245   22.2642 H   0  0  0  0  0  0
  -24.6278  -15.8155   20.4550 H   0  0  0  0  0  0
  -26.2431  -15.6205   20.0011 H   0  0  0  0  0  0
  -26.7178  -32.5456   23.1082 H   0  0  0  0  0  0
  -25.0227  -33.9747   25.0515 H   0  0  0  0  0  0
  -22.7045  -31.2986   21.4099 H   0  0  0  0  0  0
  -23.3784  -35.9602   23.3277 H   0  0  0  0  0  0
  -24.3622  -36.8904   22.2063 H   0  0  0  0  0  0
  -23.7261  -37.6463   23.6672 H   0  0  0  0  0  0
  -26.0887  -31.5548   20.6054 H   0  0  0  0  0  0
  -26.8365  -30.8343   22.0044 H   0  0  0  0  0  0
  -28.1061  -28.9891   21.2036 H   0  0  0  0  0  0
  -25.9839  -25.9383   18.9923 H   0  0  0  0  0  0
  -23.9839  -27.3038   18.9926 H   0  0  0  0  0  0
  -23.7239  -30.5876   19.4008 H   0  0  0  0  0  0
  -22.7497  -29.2281   19.8753 H   0  0  0  0  0  0
  -25.1325  -36.1890   25.0806 H   0  0  0  0  0  0
  -20.9997  -28.3121   24.1416 H   0  0  0  0  0  0
  -20.5682  -26.2211   23.3545 H   0  0  0  0  0  0
  -21.6641  -26.7308   22.1181 H   0  0  0  0  0  0
  -19.6938  -25.6214   21.1195 H   0  0  0  0  0  0
  -19.6745  -27.3145   20.6764 H   0  0  0  0  0  0
  -17.4214  -26.6616   21.3988 H   0  0  0  0  0  0
  -18.0331  -26.0028   22.8991 H   0  0  0  0  0  0
  -19.7953  -30.7236   24.2209 H   0  0  0  0  0  0
  -17.5016  -31.6247   24.5051 H   0  0  0  0  0  0
  -15.5360  -30.2865   23.7734 H   0  0  0  0  0  0
  -15.8678  -28.0769   22.7008 H   0  0  0  0  0  0
  -24.5913  -30.7103   25.7762 H   0  0  0  0  0  0
  -24.8876  -32.2989   26.4782 H   0  0  0  0  0  0
  -25.7991  -30.9015   27.0286 H   0  0  0  0  0  0
  -26.2884  -29.6832   24.1180 H   0  0  0  0  0  0
  -27.4051  -29.7284   25.4647 H   0  0  0  0  0  0
  -27.8751  -30.4388   23.9379 H   0  0  0  0  0  0
  -27.2739  -33.3673   26.2028 H   0  0  0  0  0  0
  -28.3927  -32.6776   25.0318 H   0  0  0  0  0  0
  -28.0708  -31.8476   26.5456 H   0  0  0  0  0  0
  -28.2542  -38.0124   24.7500 H   0  0  0  0  0  0
  -28.1115  -36.2626   24.6256 H   0  0  0  0  0  0
  -27.2299  -37.1383   25.8869 H   0  0  0  0  0  0
  -20.9378  -29.8727   21.6959 H   0  0  0  0  0  0
  -26.0166  -38.2815   24.1423 H   0  0  0  0  0  0
  -28.0277  -19.9121   21.5423 H   0  0  0  0  0  0
  -31.7355  -17.2028   19.7053 H   0  0  0  0  0  0
  -30.7898  -21.8902   19.7291 H   0  0  0  0  0  0
  -28.1856  -22.2742   21.2297 H   0  0  0  0  0  0
  -27.7212  -17.7023   23.1489 H   0  0  0  0  0  0
  -27.7292  -16.2330   22.1897 H   0  0  0  0  0  0
  -26.7470  -17.5997   21.6809 H   0  0  0  0  0  0
  -34.0439  -19.9283   19.0235 H   0  0  0  0  0  0
  -33.4632  -18.3031   19.2369 H   0  0  0  0  0  0
  -33.6074  -19.3809   20.6416 H   0  0  0  0  0  0
  -30.1262  -24.2188   19.7787 H   0  0  0  0  0  0
  -29.7320  -24.4271   21.4628 H   0  0  0  0  0  0
  -27.2937  -24.7916   20.8089 H   0  0  0  0  0  0
  -27.7861  -24.7364   19.1316 H   0  0  0  0  0  0
  -28.9724  -15.3122   21.3466 H   0  0  0  0  0  0
  1 25  1  0  0  0
  1 30  2  0  0  0
  1 83  1  0  0  0
  2  3  1  0  0  0
  2 25  1  0  0  0
  2 85  1  0  0  0
  2 86  1  0  0  0
  3  4  1  0  0  0
  3 87  1  0  0  0
  3 88  1  0  0  0
  4  5  1  0  0  0
  4 89  1  0  0  0
  4 90  1  0  0  0
  5  6  1  0  0  0
  5 26  1  0  0  0
  5 91  1  0  0  0
  6 25  1  0  0  0
  6 92  1  0  0  0
  6 93  1  0  0  0
  7  8  2  0  0  0
  7 26  1  0  0  0
  7 29  1  0  0  0
  8  9  1  0  0  0
  8 22  1  0  0  0
  9 10  1  0  0  0
  9 27  2  0  0  0
 10 11  2  0  0  0
 10 15  1  0  0  0
 11 12  1  0  0  0
 11 94  1  0  0  0
 12 13  2  0  0  0
 12 95  1  0  0  0
 13 14  1  0  0  0
 13 31  1  0  0  0
 14 15  2  0  0  0
 14 96  1  0  0  0
 15 97  1  0  0  0
 16 17  2  0  0  0
 16 21  1  0  0  0
 16 31  1  0  0  0
 17 18  1  0  0  0
 17 98  1  0  0  0
 18 19  2  0  0  0
 18 99  1  0  0  0
 19 20  1  0  0  0
 19 24  1  0  0  0
 20 21  2  0  0  0
 20100  1  0  0  0
 21 23  1  0  0  0
 22 28  1  0  0  0
 22 32  2  0  0  0
 26 27  1  0  0  0
 28101  1  0  0  0
 28102  1  0  0  0
 29103  1  0  0  0
 29104  1  0  0  0
 33 34  1  0  0  0
 33 66  1  0  0  0
 33 70  2  0  0  0
 34 36  1  0  0  0
 34 59  1  0  0  0
 34105  1  0  0  0
 35 44  2  0  0  0
 35 45  1  0  0  0
 35 68  1  0  0  0
 36 56  1  0  0  0
 36106  1  0  0  0
 37 39  1  0  0  0
 37 47  1  0  0  0
 37 66  1  0  0  0
 37107  1  0  0  0
 38 43  2  0  0  0
 38 46  1  0  0  0
 38 47  1  0  0  0
 39 64  1  0  0  0
 39 67  2  0  0  0
 40 52  1  0  0  0
 40 53  2  0  0  0
 40 58  1  0  0  0
 41108  1  0  0  0
 41109  1  0  0  0
 41110  1  0  0  0
 41 48  1  0  0  0
 42 43  1  0  0  0
 42 66  1  0  0  0
 42111  1  0  0  0
 42112  1  0  0  0
 43 44  1  0  0  0
 44113  1  0  0  0
 45 46  2  0  0  0
 45114  1  0  0  0
 46115  1  0  0  0
 47116  1  0  0  0
 47117  1  0  0  0
 48 56  1  0  0  0
 48 65  1  0  0  0
 48118  1  0  0  0
 49 50  1  0  0  0
 49 53  1  0  0  0
 49 64  1  0  0  0
 49119  1  0  0  0
 50 51  1  0  0  0
 50120  1  0  0  0
 50121  1  0  0  0
 51 52  1  0  0  0
 51122  1  0  0  0
 51123  1  0  0  0
 52124  1  0  0  0
 52125  1  0  0  0
 53 54  1  0  0  0
 54 55  2  0  0  0
 54126  1  0  0  0
 55 57  1  0  0  0
 55127  1  0  0  0
 56 69  2  0  0  0
 57 58  2  0  0  0
 57128  1  0  0  0
 58129  1  0  0  0
 59 60  1  0  0  0
 59 61  1  0  0  0
 59 62  1  0  0  0
 60130  1  0  0  0
 60131  1  0  0  0
 60132  1  0  0  0
 61133  1  0  0  0
 61134  1  0  0  0
 61135  1  0  0  0
 62136  1  0  0  0
 62137  1  0  0  0
 62138  1  0  0  0
 63 65  1  0  0  0
 63139  1  0  0  0
 63140  1  0  0  0
 63141  1  0  0  0
 64142  1  0  0  0
 65143  1  0  0  0
 68 82  1  0  0  0
 71 73  2  0  0  0
 71 74  1  0  0  0
 71144  1  0  0  0
 72 75  1  0  0  0
 72 76  2  0  0  0
 72145  1  0  0  0
 73 76  1  0  0  0
 73 77  1  0  0  0
 74 75  2  0  0  0
 74 79  1  0  0  0
 75 83  1  0  0  0
 76 84  1  0  0  0
 77 78  2  0  0  0
 77146  1  0  0  0
 78 81  1  0  0  0
 78147  1  0  0  0
 79148  1  0  0  0
 79149  1  0  0  0
 79150  1  0  0  0
 80 84  1  0  0  0
 80151  1  0  0  0
 80152  1  0  0  0
 80153  1  0  0  0
 81 82  1  0  0  0
 81154  1  0  0  0
 81155  1  0  0  0
 82156  1  0  0  0
 82157  1  0  0  0
 83158  1  0  0  0
M  ISO  4   1 100  68 101  82 101  83 100
M  END
> <chiral flag>
0

> <version>
0

> <s_m_source_file>
/data/baiqing/PycharmProjects/Reinvent-master-3.2/result/LINK_invent/BTK/process_docking_weight1_custom_product_contain_oxygen_bond_distance_aromatic_linkinvent_7_9_3/rearranged_h_0119.sdf

> <i_m_source_file_index>
49

> <r_mmod_Potential_Energy-OPLS-2005>
49.5615425109863

> <r_mmod_Stretch_Energy-OPLS-2005>
76.9981460571289

> <r_mmod_Bend_Energy-OPLS-2005>
134.747146606445

> <r_mmod_Torsional_Energy-OPLS-2005>
222.161163330078

> <r_mmod_Improper_Torsional_Energy-OPLS-2005>
4.32715749740601

> <r_mmod_Van_der_Waal_Energy-OPLS-2005>
153.370300292969

> <r_mmod_Electrostatic_Energy-OPLS-2005>
-379.847503662109

> <r_mmod_Solvation_Energy-OPLS-2005>
-204.310470581055

> <b_mmod_Minimization_Converged-OPLS-2005>
0

> <r_mmod_RMS_Derivative-OPLS-2005>
3.3931770324707

$$$$
49
                    3D
 Structure written by MMmdl.
149157  0  0  1  0            999 V2000
  -30.7074  -14.4872   20.5189 C   0  0  0  0  0  0
  -30.4124  -12.2960   19.4471 C   0  0  0  0  0  0
  -29.4990  -12.4953   18.2191 C   0  0  0  0  0  0
  -28.0167  -12.3649   18.6209 C   0  0  0  0  0  0
  -27.6579  -13.2136   19.8709 C   0  0  2  0  0  0
  -28.6959  -13.0144   20.9966 C   0  0  0  0  0  0
  -25.2575  -13.8181   20.5685 C   0  0  0  0  0  0
  -24.1831  -13.0446   20.9174 C   0  0  0  0  0  0
  -24.6394  -11.6915   20.8726 C   0  0  0  0  0  0
  -23.9063  -10.4295   21.0399 C   0  0  0  0  0  0
  -24.3618   -9.4211   21.9178 C   0  0  0  0  0  0
  -23.6294   -8.2247   22.0751 C   0  0  0  0  0  0
  -22.4277   -8.0283   21.3542 C   0  0  0  0  0  0
  -21.9910   -9.0255   20.4642 C   0  0  0  0  0  0
  -22.7237  -10.2136   20.3049 C   0  0  0  0  0  0
  -21.6859   -6.0736   22.5281 C   0  0  0  0  0  0
  -21.4016   -6.5641   23.8212 C   0  0  0  0  0  0
  -21.3659   -5.6795   24.9175 C   0  0  0  0  0  0
  -21.6044   -4.3057   24.7225 C   0  0  0  0  0  0
  -21.8819   -3.8146   23.4348 C   0  0  0  0  0  0
  -21.9197   -4.6963   22.3404 C   0  0  0  0  0  0
  -22.7854  -13.5239   21.1842 C   0  0  0  0  0  0
  -22.1666   -4.2145   21.0983 F   0  0  0  0  0  0
  -21.5628   -3.4543   25.7739 F   0  0  0  0  0  0
  -30.0283  -13.3067   20.4481 N   0  0  0  0  0  0
  -26.3005  -12.9360   20.3342 N   0  0  0  0  0  0
  -25.9319  -11.6512   20.5746 N   0  0  0  0  0  0
  -22.0502  -12.8226   22.0402 N   0  0  0  0  0  0
  -25.4318  -15.1895   20.4113 N   0  0  0  0  0  0
  -31.8714  -14.5760   20.1164 O   0  0  0  0  0  0
  -21.6641   -6.8882   21.4243 O   0  0  0  0  0  0
  -22.3534  -14.5544   20.6699 O   0  0  0  0  0  0
  -24.6148  -31.8682   23.2099 C   0  0  0  0  0  0
  -25.9042  -32.4824   23.8395 C   0  0  1  0  0  0
  -27.2293  -27.4347   20.1042 C   0  0  0  0  0  0
  -25.5901  -33.8622   24.2329 N   0  0  0  0  0  0
  -23.4025  -30.4918   21.5505 C   0  0  2  0  0  0
  -24.8490  -28.9583   20.1136 C   0  0  0  0  0  0
  -22.7410  -29.4662   22.4990 C   0  0  0  0  0  0
  -18.0272  -28.1378   22.8495 C   0  0  0  0  0  0
  -24.1486  -36.7314   23.2634 C   0  0  0  0  0  0
  -25.9309  -30.8363   21.3607 C   0  0  0  0  0  0
  -26.0098  -29.4710   20.7074 C   0  0  0  0  0  0
  -27.2070  -28.7187   20.6947 C   0  0  0  0  0  0
  -26.0557  -26.9387   19.4971 C   0  0  0  0  0  0
  -24.8671  -27.6922   19.5028 C   0  0  0  0  0  0
  -23.6103  -29.8239   20.1650 C   0  0  0  0  0  0
  -25.4103  -36.3110   24.0339 C   0  0  1  0  0  0
  -20.5862  -28.3664   23.1319 C   0  0  2  0  0  0
  -20.6762  -26.9402   22.5418 C   0  0  0  0  0  0
  -19.5740  -26.6387   21.5214 C   0  0  0  0  0  0
  -18.1918  -26.7924   22.1626 C   0  0  0  0  0  0
  -19.1520  -28.8838   23.2904 C   0  0  0  0  0  0
  -18.9448  -30.1444   23.8912 C   0  0  0  0  0  0
  -17.6450  -30.6585   24.0567 C   0  0  0  0  0  0
  -25.9035  -34.9478   23.5131 C   0  0  0  0  0  0
  -16.5342  -29.9088   23.6326 C   0  0  0  0  0  0
  -16.7260  -28.6504   23.0349 C   0  0  0  0  0  0
  -26.4471  -31.6597   25.0720 C   0  0  0  0  0  0
  -25.3747  -31.3708   26.1480 C   0  0  0  0  0  0
  -27.0287  -30.3036   24.6088 C   0  0  0  0  0  0
  -27.6061  -32.4305   25.7472 C   0  0  0  0  0  0
  -27.5589  -37.1795   24.8453 C   0  0  0  0  0  0
  -21.4137  -29.3034   22.3730 N   0  0  0  0  0  0
  -26.4283  -37.3803   23.9427 N   0  0  0  0  0  0
  -24.6679  -31.0789   22.0994 N   0  0  0  0  0  0
  -23.4184  -28.8204   23.3032 O   0  0  0  0  0  0
  -28.3753  -26.6726   20.1165 O   0  0  0  0  0  0
  -26.5597  -34.8930   22.4694 O   0  0  0  0  0  0
  -23.5342  -32.1431   23.7498 O   0  0  0  0  0  0
  -30.2235  -19.3881   19.9118 C   0  0  0  0  0  0
  -28.7532  -18.6306   21.4198 C   0  0  0  0  0  0
  -29.7726  -18.2291   20.6033 C   0  0  0  0  0  0
  -29.4579  -20.4349   20.3520 C   0  0  0  0  0  0
  -30.3444  -16.8828   20.3971 C   0  0  0  0  0  0
  -29.4735  -21.8316   20.0097 C   0  0  0  0  0  0
  -29.9446  -15.6861   20.8956 C   0  0  0  0  0  0
  -28.7804  -22.8725   20.5236 C   0  0  0  0  0  0
  -28.9390  -24.2583   20.0106 C   0  0  0  0  0  0
  -28.2227  -25.3936   20.7676 C   0  0  0  0  0  0
  -29.6178  -24.5268   19.0121 O   0  0  0  0  0  0
  -28.5604  -19.9843   21.2857 O   0  0  0  0  0  0
  -31.4611  -12.3625   19.1529 H   0  0  0  0  0  0
  -30.2869  -11.2934   19.8587 H   0  0  0  0  0  0
  -29.7418  -11.7655   17.4458 H   0  0  0  0  0  0
  -29.6775  -13.4779   17.7803 H   0  0  0  0  0  0
  -27.8222  -11.3107   18.8208 H   0  0  0  0  0  0
  -27.3737  -12.6377   17.7834 H   0  0  0  0  0  0
  -27.6974  -14.2588   19.5646 H   0  0  0  0  0  0
  -28.6685  -11.9844   21.3551 H   0  0  0  0  0  0
  -28.4602  -13.6236   21.8684 H   0  0  0  0  0  0
  -25.2765   -9.5690   22.4747 H   0  0  0  0  0  0
  -24.0006   -7.4643   22.7481 H   0  0  0  0  0  0
  -21.0835   -8.8779   19.8951 H   0  0  0  0  0  0
  -22.3700  -10.9674   19.6158 H   0  0  0  0  0  0
  -21.2011   -7.6150   23.9712 H   0  0  0  0  0  0
  -21.1482   -6.0525   25.9076 H   0  0  0  0  0  0
  -22.0597   -2.7604   23.2854 H   0  0  0  0  0  0
  -22.4124  -11.9882   22.4775 H   0  0  0  0  0  0
  -21.1120  -13.1246   22.2615 H   0  0  0  0  0  0
  -24.6710  -15.8508   20.5215 H   0  0  0  0  0  0
  -26.2923  -15.6243   20.1020 H   0  0  0  0  0  0
  -26.7118  -32.5539   23.1165 H   0  0  0  0  0  0
  -25.0061  -33.9784   25.0481 H   0  0  0  0  0  0
  -22.6909  -31.3085   21.4115 H   0  0  0  0  0  0
  -23.3761  -35.9629   23.3261 H   0  0  0  0  0  0
  -24.3595  -36.8967   22.2056 H   0  0  0  0  0  0
  -23.7212  -37.6497   23.6672 H   0  0  0  0  0  0
  -26.0407  -31.6029   20.5922 H   0  0  0  0  0  0
  -26.8197  -30.8910   21.9778 H   0  0  0  0  0  0
  -28.1040  -29.1097   21.1546 H   0  0  0  0  0  0
  -26.0580  -25.9680   19.0212 H   0  0  0  0  0  0
  -23.9760  -27.2936   19.0377 H   0  0  0  0  0  0
  -23.7162  -30.5985   19.4045 H   0  0  0  0  0  0
  -22.7347  -29.2424   19.8710 H   0  0  0  0  0  0
  -25.1270  -36.1970   25.0829 H   0  0  0  0  0  0
  -20.9953  -28.3230   24.1439 H   0  0  0  0  0  0
  -20.5671  -26.2271   23.3602 H   0  0  0  0  0  0
  -21.6633  -26.7449   22.1206 H   0  0  0  0  0  0
  -19.6901  -25.6303   21.1231 H   0  0  0  0  0  0
  -19.6677  -27.3207   20.6752 H   0  0  0  0  0  0
  -17.4190  -26.6678   21.4027 H   0  0  0  0  0  0
  -18.0315  -26.0061   22.9015 H   0  0  0  0  0  0
  -19.7925  -30.7257   24.2287 H   0  0  0  0  0  0
  -17.5007  -31.6267   24.5166 H   0  0  0  0  0  0
  -15.5344  -30.2996   23.7640 H   0  0  0  0  0  0
  -15.8660  -28.0828   22.7054 H   0  0  0  0  0  0
  -24.5883  -30.7102   25.7811 H   0  0  0  0  0  0
  -24.8987  -32.2871   26.4981 H   0  0  0  0  0  0
  -25.8101  -30.8821   27.0204 H   0  0  0  0  0  0
  -26.2815  -29.6801   24.1165 H   0  0  0  0  0  0
  -27.4076  -29.7271   25.4537 H   0  0  0  0  0  0
  -27.8645  -30.4346   23.9213 H   0  0  0  0  0  0
  -27.2703  -33.3611   26.2057 H   0  0  0  0  0  0
  -28.3863  -32.6849   25.0285 H   0  0  0  0  0  0
  -28.0733  -31.8417   26.5376 H   0  0  0  0  0  0
  -28.2564  -38.0136   24.7579 H   0  0  0  0  0  0
  -28.1130  -36.2675   24.6174 H   0  0  0  0  0  0
  -27.2326  -37.1317   25.8858 H   0  0  0  0  0  0
  -20.9296  -29.8761   21.6956 H   0  0  0  0  0  0
  -26.0170  -38.2869   24.1480 H   0  0  0  0  0  0
  -31.0137  -19.4520   19.1770 H   0  0  0  0  0  0
  -28.1031  -18.1284   22.1235 H   0  0  0  0  0  0
  -31.2073  -16.8949   19.7437 H   0  0  0  0  0  0
  -30.1578  -22.0546   19.2023 H   0  0  0  0  0  0
  -29.0878  -15.6370   21.5481 H   0  0  0  0  0  0
  -28.0845  -22.7151   21.3347 H   0  0  0  0  0  0
  -28.6513  -25.4629   21.7674 H   0  0  0  0  0  0
  -27.1763  -25.1162   20.8988 H   0  0  0  0  0  0
  1 25  1  0  0  0
  1 30  2  0  0  0
  1 77  1  0  0  0
  2  3  1  0  0  0
  2 25  1  0  0  0
  2 83  1  0  0  0
  2 84  1  0  0  0
  3  4  1  0  0  0
  3 85  1  0  0  0
  3 86  1  0  0  0
  4  5  1  0  0  0
  4 87  1  0  0  0
  4 88  1  0  0  0
  5  6  1  0  0  0
  5 26  1  0  0  0
  5 89  1  0  0  0
  6 25  1  0  0  0
  6 90  1  0  0  0
  6 91  1  0  0  0
  7  8  2  0  0  0
  7 26  1  0  0  0
  7 29  1  0  0  0
  8  9  1  0  0  0
  8 22  1  0  0  0
  9 10  1  0  0  0
  9 27  2  0  0  0
 10 11  2  0  0  0
 10 15  1  0  0  0
 11 12  1  0  0  0
 11 92  1  0  0  0
 12 13  2  0  0  0
 12 93  1  0  0  0
 13 14  1  0  0  0
 13 31  1  0  0  0
 14 15  2  0  0  0
 14 94  1  0  0  0
 15 95  1  0  0  0
 16 17  2  0  0  0
 16 21  1  0  0  0
 16 31  1  0  0  0
 17 18  1  0  0  0
 17 96  1  0  0  0
 18 19  2  0  0  0
 18 97  1  0  0  0
 19 20  1  0  0  0
 19 24  1  0  0  0
 20 21  2  0  0  0
 20 98  1  0  0  0
 21 23  1  0  0  0
 22 28  1  0  0  0
 22 32  2  0  0  0
 26 27  1  0  0  0
 28 99  1  0  0  0
 28100  1  0  0  0
 29101  1  0  0  0
 29102  1  0  0  0
 33 34  1  0  0  0
 33 66  1  0  0  0
 33 70  2  0  0  0
 34 36  1  0  0  0
 34 59  1  0  0  0
 34103  1  0  0  0
 35 44  2  0  0  0
 35 45  1  0  0  0
 35 68  1  0  0  0
 36 56  1  0  0  0
 36104  1  0  0  0
 37 39  1  0  0  0
 37 47  1  0  0  0
 37 66  1  0  0  0
 37105  1  0  0  0
 38 43  2  0  0  0
 38 46  1  0  0  0
 38 47  1  0  0  0
 39 64  1  0  0  0
 39 67  2  0  0  0
 40 52  1  0  0  0
 40 53  2  0  0  0
 40 58  1  0  0  0
 41106  1  0  0  0
 41107  1  0  0  0
 41108  1  0  0  0
 41 48  1  0  0  0
 42 43  1  0  0  0
 42 66  1  0  0  0
 42109  1  0  0  0
 42110  1  0  0  0
 43 44  1  0  0  0
 44111  1  0  0  0
 45 46  2  0  0  0
 45112  1  0  0  0
 46113  1  0  0  0
 47114  1  0  0  0
 47115  1  0  0  0
 48 56  1  0  0  0
 48 65  1  0  0  0
 48116  1  0  0  0
 49 50  1  0  0  0
 49 53  1  0  0  0
 49 64  1  0  0  0
 49117  1  0  0  0
 50 51  1  0  0  0
 50118  1  0  0  0
 50119  1  0  0  0
 51 52  1  0  0  0
 51120  1  0  0  0
 51121  1  0  0  0
 52122  1  0  0  0
 52123  1  0  0  0
 53 54  1  0  0  0
 54 55  2  0  0  0
 54124  1  0  0  0
 55 57  1  0  0  0
 55125  1  0  0  0
 56 69  2  0  0  0
 57 58  2  0  0  0
 57126  1  0  0  0
 58127  1  0  0  0
 59 60  1  0  0  0
 59 61  1  0  0  0
 59 62  1  0  0  0
 60128  1  0  0  0
 60129  1  0  0  0
 60130  1  0  0  0
 61131  1  0  0  0
 61132  1  0  0  0
 61133  1  0  0  0
 62134  1  0  0  0
 62135  1  0  0  0
 62136  1  0  0  0
 63 65  1  0  0  0
 63137  1  0  0  0
 63138  1  0  0  0
 63139  1  0  0  0
 64140  1  0  0  0
 65141  1  0  0  0
 68 80  1  0  0  0
 71 73  1  0  0  0
 71 74  2  0  0  0
 71142  1  0  0  0
 72 73  2  0  0  0
 72 82  1  0  0  0
 72143  1  0  0  0
 73 75  1  0  0  0
 74 76  1  0  0  0
 74 82  1  0  0  0
 75 77  2  0  0  0
 75144  1  0  0  0
 76 78  2  0  0  0
 76145  1  0  0  0
 77146  1  0  0  0
 78 79  1  0  0  0
 78147  1  0  0  0
 79 80  1  0  0  0
 79 81  2  0  0  0
 80148  1  0  0  0
 80149  1  0  0  0
M  ISO  4   1 100  68 101  77 100  80 101
M  END
> <chiral flag>
0

> <version>
0

> <s_m_source_file>
/data/baiqing/PycharmProjects/Reinvent-master-3.2/result/LINK_invent/BTK/process_docking_weight1_custom_product_contain_oxygen_bond_distance_aromatic_linkinvent_7_9_3/rearranged_h_0119.sdf

> <i_m_source_file_index>
50

> <r_mmod_Potential_Energy-OPLS-2005>
-54.160831451416

> <r_mmod_Stretch_Energy-OPLS-2005>
35.9721603393555

> <r_mmod_Bend_Energy-OPLS-2005>
100.866752624512

> <r_mmod_Torsional_Energy-OPLS-2005>
199.736877441406

> <r_mmod_Improper_Torsional_Energy-OPLS-2005>
4.2246470451355

> <r_mmod_Van_der_Waal_Energy-OPLS-2005>
135.468872070312

> <r_mmod_Electrostatic_Energy-OPLS-2005>
-328.683746337891

> <r_mmod_Solvation_Energy-OPLS-2005>
-218.753082275391

> <b_mmod_Minimization_Converged-OPLS-2005>
0

> <r_mmod_RMS_Derivative-OPLS-2005>
0.555144369602203

$$$$
50
                    3D
 Structure written by MMmdl.
155163  0  0  1  0            999 V2000
  -30.6666  -14.5651   20.5473 C   0  0  0  0  0  0
  -30.4307  -12.3594   19.4414 C   0  0  0  0  0  0
  -29.4985  -12.5008   18.2192 C   0  0  0  0  0  0
  -28.0243  -12.3416   18.6373 C   0  0  0  0  0  0
  -27.6540  -13.2122   19.8674 C   0  0  2  0  0  0
  -28.6982  -13.0453   20.9948 C   0  0  0  0  0  0
  -25.2564  -13.8154   20.5678 C   0  0  0  0  0  0
  -24.1836  -13.0432   20.9196 C   0  0  0  0  0  0
  -24.6397  -11.6892   20.8758 C   0  0  0  0  0  0
  -23.9073  -10.4282   21.0410 C   0  0  0  0  0  0
  -24.3625   -9.4188   21.9191 C   0  0  0  0  0  0
  -23.6287   -8.2226   22.0758 C   0  0  0  0  0  0
  -22.4275   -8.0276   21.3541 C   0  0  0  0  0  0
  -21.9909   -9.0251   20.4651 C   0  0  0  0  0  0
  -22.7248  -10.2125   20.3056 C   0  0  0  0  0  0
  -21.6843   -6.0732   22.5274 C   0  0  0  0  0  0
  -21.4015   -6.5641   23.8200 C   0  0  0  0  0  0
  -21.3659   -5.6798   24.9174 C   0  0  0  0  0  0
  -21.6039   -4.3053   24.7217 C   0  0  0  0  0  0
  -21.8825   -3.8152   23.4344 C   0  0  0  0  0  0
  -21.9193   -4.6960   22.3395 C   0  0  0  0  0  0
  -22.7853  -13.5231   21.1867 C   0  0  0  0  0  0
  -22.1657   -4.2150   21.0971 F   0  0  0  0  0  0
  -21.5628   -3.4536   25.7730 F   0  0  0  0  0  0
  -30.0170  -13.3700   20.4301 N   0  0  0  0  0  0
  -26.2989  -12.9343   20.3341 N   0  0  0  0  0  0
  -25.9320  -11.6497   20.5790 N   0  0  0  0  0  0
  -22.0491  -12.8209   22.0415 N   0  0  0  0  0  0
  -25.4312  -15.1883   20.4057 N   0  0  0  0  0  0
  -31.8309  -14.7095   20.1562 O   0  0  0  0  0  0
  -21.6628   -6.8869   21.4236 O   0  0  0  0  0  0
  -22.3519  -14.5526   20.6712 O   0  0  0  0  0  0
  -24.6241  -31.8635   23.2027 C   0  0  0  0  0  0
  -25.9098  -32.4791   23.8359 C   0  0  1  0  0  0
  -27.2293  -27.3590   20.1233 C   0  0  0  0  0  0
  -25.5922  -33.8602   24.2294 N   0  0  0  0  0  0
  -23.4159  -30.4873   21.5432 C   0  0  2  0  0  0
  -24.8663  -28.9371   20.1187 C   0  0  0  0  0  0
  -22.7438  -29.4670   22.4927 C   0  0  0  0  0  0
  -18.0284  -28.1383   22.8504 C   0  0  0  0  0  0
  -24.1485  -36.7299   23.2635 C   0  0  0  0  0  0
  -25.9549  -30.8010   21.3745 C   0  0  0  0  0  0
  -26.0305  -29.4265   20.7297 C   0  0  0  0  0  0
  -27.2185  -28.6426   20.7360 C   0  0  0  0  0  0
  -26.0516  -26.9060   19.5005 C   0  0  0  0  0  0
  -24.8727  -27.6747   19.5041 C   0  0  0  0  0  0
  -23.6325  -29.8140   20.1619 C   0  0  0  0  0  0
  -25.4104  -36.3100   24.0332 C   0  0  1  0  0  0
  -20.5879  -28.3713   23.1286 C   0  0  2  0  0  0
  -20.6793  -26.9440   22.5404 C   0  0  0  0  0  0
  -19.5765  -26.6388   21.5226 C   0  0  0  0  0  0
  -18.1933  -26.7928   22.1625 C   0  0  0  0  0  0
  -19.1535  -28.8865   23.2886 C   0  0  0  0  0  0
  -18.9462  -30.1455   23.8910 C   0  0  0  0  0  0
  -17.6471  -30.6598   24.0585 C   0  0  0  0  0  0
  -25.9048  -34.9477   23.5113 C   0  0  0  0  0  0
  -16.5366  -29.9096   23.6334 C   0  0  0  0  0  0
  -16.7271  -28.6505   23.0366 C   0  0  0  0  0  0
  -26.4489  -31.6590   25.0719 C   0  0  0  0  0  0
  -25.3723  -31.3734   26.1452 C   0  0  0  0  0  0
  -27.0335  -30.3015   24.6164 C   0  0  0  0  0  0
  -27.6072  -32.4303   25.7463 C   0  0  0  0  0  0
  -27.5586  -37.1764   24.8452 C   0  0  0  0  0  0
  -21.4158  -29.3076   22.3665 N   0  0  0  0  0  0
  -26.4281  -37.3795   23.9430 N   0  0  0  0  0  0
  -24.6832  -31.0675   22.0963 N   0  0  0  0  0  0
  -23.4168  -28.8216   23.3016 O   0  0  0  0  0  0
  -28.3281  -26.5111   20.0552 O   0  0  0  0  0  0
  -26.5626  -34.8965   22.4672 O   0  0  0  0  0  0
  -23.5416  -32.1406   23.7376 O   0  0  0  0  0  0
  -31.1891  -19.6652   21.6159 C   0  0  0  0  0  0
  -31.5148  -17.2635   21.8428 C   0  0  0  0  0  0
  -29.5478  -18.1432   20.6851 C   0  0  0  0  0  0
  -31.9485  -18.5812   22.0953 C   0  0  0  0  0  0
  -29.9811  -19.4978   20.9054 C   0  0  0  0  0  0
  -30.3220  -17.0120   21.1235 C   0  0  0  0  0  0
  -34.0108  -18.0107   23.4327 C   0  0  0  0  0  0
  -33.1759  -18.8889   22.8499 C   0  0  0  0  0  0
  -29.2377  -20.7417   20.4519 C   0  0  0  0  0  0
  -29.4108  -22.0066   20.9520 C   0  0  0  0  0  0
  -28.9449  -24.4876   21.3839 C   0  0  0  0  0  0
  -28.7180  -25.8264   21.1924 C   0  0  0  0  0  0
  -28.7613  -23.2922   20.4877 C   0  0  0  0  0  0
  -29.9049  -15.6359   20.9143 N   0  0  0  0  0  0
  -28.0976  -23.3477   19.4480 O   0  0  0  0  0  0
  -31.4726  -12.4773   19.1361 H   0  0  0  0  0  0
  -30.3601  -11.3590   19.8691 H   0  0  0  0  0  0
  -29.7564  -11.7605   17.4599 H   0  0  0  0  0  0
  -29.6472  -13.4767   17.7548 H   0  0  0  0  0  0
  -27.8635  -11.2897   18.8727 H   0  0  0  0  0  0
  -27.3667  -12.5671   17.7982 H   0  0  0  0  0  0
  -27.6822  -14.2494   19.5334 H   0  0  0  0  0  0
  -28.6960  -12.0187   21.3671 H   0  0  0  0  0  0
  -28.4547  -13.6707   21.8558 H   0  0  0  0  0  0
  -25.2764   -9.5651   22.4773 H   0  0  0  0  0  0
  -23.9986   -7.4613   22.7471 H   0  0  0  0  0  0
  -21.0842   -8.8777   19.8959 H   0  0  0  0  0  0
  -22.3714  -10.9663   19.6166 H   0  0  0  0  0  0
  -21.2004   -7.6152   23.9709 H   0  0  0  0  0  0
  -21.1476   -6.0523   25.9068 H   0  0  0  0  0  0
  -22.0607   -2.7608   23.2833 H   0  0  0  0  0  0
  -22.4090  -11.9848   22.4773 H   0  0  0  0  0  0
  -21.1125  -13.1252   22.2651 H   0  0  0  0  0  0
  -24.6678  -15.8495   20.4993 H   0  0  0  0  0  0
  -26.2817  -15.6142   20.0614 H   0  0  0  0  0  0
  -26.7165  -32.5473   23.1127 H   0  0  0  0  0  0
  -25.0078  -33.9738   25.0448 H   0  0  0  0  0  0
  -22.7118  -31.3077   21.3945 H   0  0  0  0  0  0
  -23.3790  -35.9585   23.3268 H   0  0  0  0  0  0
  -24.3625  -36.8953   22.2064 H   0  0  0  0  0  0
  -23.7196  -37.6473   23.6678 H   0  0  0  0  0  0
  -26.0840  -31.5586   20.6011 H   0  0  0  0  0  0
  -26.8400  -30.8553   21.9997 H   0  0  0  0  0  0
  -28.1133  -29.0142   21.2129 H   0  0  0  0  0  0
  -26.0515  -25.9366   19.0216 H   0  0  0  0  0  0
  -23.9793  -27.2852   19.0383 H   0  0  0  0  0  0
  -23.7527  -30.5885   19.4035 H   0  0  0  0  0  0
  -22.7531  -29.2410   19.8613 H   0  0  0  0  0  0
  -25.1273  -36.1933   25.0822 H   0  0  0  0  0  0
  -20.9977  -28.3272   24.1404 H   0  0  0  0  0  0
  -20.5739  -26.2320   23.3596 H   0  0  0  0  0  0
  -21.6640  -26.7474   22.1158 H   0  0  0  0  0  0
  -19.6937  -25.6304   21.1224 H   0  0  0  0  0  0
  -19.6692  -27.3235   20.6788 H   0  0  0  0  0  0
  -17.4201  -26.6730   21.4023 H   0  0  0  0  0  0
  -18.0321  -26.0062   22.9011 H   0  0  0  0  0  0
  -19.7946  -30.7265   24.2283 H   0  0  0  0  0  0
  -17.5042  -31.6289   24.5173 H   0  0  0  0  0  0
  -15.5370  -30.3031   23.7653 H   0  0  0  0  0  0
  -15.8665  -28.0833   22.7085 H   0  0  0  0  0  0
  -24.5868  -30.7115   25.7780 H   0  0  0  0  0  0
  -24.8969  -32.2925   26.4876 H   0  0  0  0  0  0
  -25.8053  -30.8882   27.0204 H   0  0  0  0  0  0
  -26.2901  -29.6751   24.1230 H   0  0  0  0  0  0
  -27.4103  -29.7274   25.4633 H   0  0  0  0  0  0
  -27.8731  -30.4329   23.9342 H   0  0  0  0  0  0
  -27.2705  -33.3631   26.1989 H   0  0  0  0  0  0
  -28.3896  -32.6799   25.0279 H   0  0  0  0  0  0
  -28.0729  -31.8456   26.5407 H   0  0  0  0  0  0
  -28.2511  -38.0147   24.7617 H   0  0  0  0  0  0
  -28.1159  -36.2690   24.6097 H   0  0  0  0  0  0
  -27.2348  -37.1189   25.8858 H   0  0  0  0  0  0
  -20.9316  -29.8787   21.6866 H   0  0  0  0  0  0
  -26.0162  -38.2846   24.1515 H   0  0  0  0  0  0
  -31.5816  -20.6559   21.7846 H   0  0  0  0  0  0
  -32.1063  -16.4323   22.2003 H   0  0  0  0  0  0
  -28.6184  -17.9748   20.1558 H   0  0  0  0  0  0
  -34.8822  -18.3794   23.9541 H   0  0  0  0  0  0
  -33.8643  -16.9384   23.4157 H   0  0  0  0  0  0
  -33.4190  -19.9423   22.9357 H   0  0  0  0  0  0
  -28.5376  -20.6118   19.6377 H   0  0  0  0  0  0
  -30.0920  -22.1354   21.7791 H   0  0  0  0  0  0
  -29.3182  -24.2327   22.3645 H   0  0  0  0  0  0
  -28.8879  -26.5197   22.0043 H   0  0  0  0  0  0
  -28.9273  -15.4353   21.0635 H   0  0  0  0  0  0
  1 25  1  0  0  0
  1 30  2  0  0  0
  1 84  1  0  0  0
  2  3  1  0  0  0
  2 25  1  0  0  0
  2 86  1  0  0  0
  2 87  1  0  0  0
  3  4  1  0  0  0
  3 88  1  0  0  0
  3 89  1  0  0  0
  4  5  1  0  0  0
  4 90  1  0  0  0
  4 91  1  0  0  0
  5  6  1  0  0  0
  5 26  1  0  0  0
  5 92  1  0  0  0
  6 25  1  0  0  0
  6 93  1  0  0  0
  6 94  1  0  0  0
  7  8  2  0  0  0
  7 26  1  0  0  0
  7 29  1  0  0  0
  8  9  1  0  0  0
  8 22  1  0  0  0
  9 10  1  0  0  0
  9 27  2  0  0  0
 10 11  2  0  0  0
 10 15  1  0  0  0
 11 12  1  0  0  0
 11 95  1  0  0  0
 12 13  2  0  0  0
 12 96  1  0  0  0
 13 14  1  0  0  0
 13 31  1  0  0  0
 14 15  2  0  0  0
 14 97  1  0  0  0
 15 98  1  0  0  0
 16 17  2  0  0  0
 16 21  1  0  0  0
 16 31  1  0  0  0
 17 18  1  0  0  0
 17 99  1  0  0  0
 18 19  2  0  0  0
 18100  1  0  0  0
 19 20  1  0  0  0
 19 24  1  0  0  0
 20 21  2  0  0  0
 20101  1  0  0  0
 21 23  1  0  0  0
 22 28  1  0  0  0
 22 32  2  0  0  0
 26 27  1  0  0  0
 28102  1  0  0  0
 28103  1  0  0  0
 29104  1  0  0  0
 29105  1  0  0  0
 33 34  1  0  0  0
 33 66  1  0  0  0
 33 70  2  0  0  0
 34 36  1  0  0  0
 34 59  1  0  0  0
 34106  1  0  0  0
 35 44  2  0  0  0
 35 45  1  0  0  0
 35 68  1  0  0  0
 36 56  1  0  0  0
 36107  1  0  0  0
 37 39  1  0  0  0
 37 47  1  0  0  0
 37 66  1  0  0  0
 37108  1  0  0  0
 38 43  2  0  0  0
 38 46  1  0  0  0
 38 47  1  0  0  0
 39 64  1  0  0  0
 39 67  2  0  0  0
 40 52  1  0  0  0
 40 53  2  0  0  0
 40 58  1  0  0  0
 41109  1  0  0  0
 41110  1  0  0  0
 41111  1  0  0  0
 41 48  1  0  0  0
 42 43  1  0  0  0
 42 66  1  0  0  0
 42112  1  0  0  0
 42113  1  0  0  0
 43 44  1  0  0  0
 44114  1  0  0  0
 45 46  2  0  0  0
 45115  1  0  0  0
 46116  1  0  0  0
 47117  1  0  0  0
 47118  1  0  0  0
 48 56  1  0  0  0
 48 65  1  0  0  0
 48119  1  0  0  0
 49 50  1  0  0  0
 49 53  1  0  0  0
 49 64  1  0  0  0
 49120  1  0  0  0
 50 51  1  0  0  0
 50121  1  0  0  0
 50122  1  0  0  0
 51 52  1  0  0  0
 51123  1  0  0  0
 51124  1  0  0  0
 52125  1  0  0  0
 52126  1  0  0  0
 53 54  1  0  0  0
 54 55  2  0  0  0
 54127  1  0  0  0
 55 57  1  0  0  0
 55128  1  0  0  0
 56 69  2  0  0  0
 57 58  2  0  0  0
 57129  1  0  0  0
 58130  1  0  0  0
 59 60  1  0  0  0
 59 61  1  0  0  0
 59 62  1  0  0  0
 60131  1  0  0  0
 60132  1  0  0  0
 60133  1  0  0  0
 61134  1  0  0  0
 61135  1  0  0  0
 61136  1  0  0  0
 62137  1  0  0  0
 62138  1  0  0  0
 62139  1  0  0  0
 63 65  1  0  0  0
 63140  1  0  0  0
 63141  1  0  0  0
 63142  1  0  0  0
 64143  1  0  0  0
 65144  1  0  0  0
 68 82  1  0  0  0
 71 74  2  0  0  0
 71 75  1  0  0  0
 71145  1  0  0  0
 72 74  1  0  0  0
 72 76  2  0  0  0
 72146  1  0  0  0
 73 75  2  0  0  0
 73 76  1  0  0  0
 73147  1  0  0  0
 74 78  1  0  0  0
 75 79  1  0  0  0
 76 84  1  0  0  0
 77 78  2  0  0  0
 77148  1  0  0  0
 77149  1  0  0  0
 78150  1  0  0  0
 79 80  2  0  0  0
 79151  1  0  0  0
 80 83  1  0  0  0
 80152  1  0  0  0
 81 82  2  0  0  0
 81 83  1  0  0  0
 81153  1  0  0  0
 82154  1  0  0  0
 83 85  2  0  0  0
 84155  1  0  0  0
M  ISO  4   1 100  68 101  82 101  84 100
M  END
> <chiral flag>
0

> <version>
0

> <s_m_source_file>
/data/baiqing/PycharmProjects/Reinvent-master-3.2/result/LINK_invent/BTK/process_docking_weight1_custom_product_contain_oxygen_bond_distance_aromatic_linkinvent_7_9_3/rearranged_h_0119.sdf

> <i_m_source_file_index>
51

> <r_mmod_Potential_Energy-OPLS-2005>
35.7708702087402

> <r_mmod_Stretch_Energy-OPLS-2005>
61.8294982910156

> <r_mmod_Bend_Energy-OPLS-2005>
135.409698486328

> <r_mmod_Torsional_Energy-OPLS-2005>
241.850982666016

> <r_mmod_Improper_Torsional_Energy-OPLS-2005>
5.07645893096924

> <r_mmod_Van_der_Waal_Energy-OPLS-2005>
146.036758422852

> <r_mmod_Electrostatic_Energy-OPLS-2005>
-357.300018310547

> <r_mmod_Solvation_Energy-OPLS-2005>
-228.563812255859

> <b_mmod_Minimization_Converged-OPLS-2005>
0

> <r_mmod_RMS_Derivative-OPLS-2005>
4.4709939956665

$$$$
51
                    3D
 Structure written by MMmdl.
162170  0  0  1  0            999 V2000
  -30.6815  -14.5701   20.3966 C   0  0  0  0  0  0
  -30.4383  -12.3250   19.4441 C   0  0  0  0  0  0
  -29.5018  -12.4571   18.2220 C   0  0  0  0  0  0
  -28.0264  -12.2947   18.6454 C   0  0  0  0  0  0
  -27.6419  -13.1894   19.8522 C   0  0  2  0  0  0
  -28.7076  -13.1077   20.9738 C   0  0  0  0  0  0
  -25.2564  -13.8071   20.5763 C   0  0  0  0  0  0
  -24.1803  -13.0380   20.9224 C   0  0  0  0  0  0
  -24.6343  -11.6837   20.8807 C   0  0  0  0  0  0
  -23.9013  -10.4241   21.0449 C   0  0  0  0  0  0
  -24.3565   -9.4150   21.9213 C   0  0  0  0  0  0
  -23.6239   -8.2185   22.0774 C   0  0  0  0  0  0
  -22.4227   -8.0242   21.3552 C   0  0  0  0  0  0
  -21.9865   -9.0222   20.4660 C   0  0  0  0  0  0
  -22.7204  -10.2094   20.3075 C   0  0  0  0  0  0
  -21.6823   -6.0706   22.5283 C   0  0  0  0  0  0
  -21.3995   -6.5617   23.8221 C   0  0  0  0  0  0
  -21.3664   -5.6781   24.9185 C   0  0  0  0  0  0
  -21.6046   -4.3041   24.7248 C   0  0  0  0  0  0
  -21.8821   -3.8127   23.4370 C   0  0  0  0  0  0
  -21.9181   -4.6934   22.3421 C   0  0  0  0  0  0
  -22.7826  -13.5207   21.1846 C   0  0  0  0  0  0
  -22.1650   -4.2113   21.1000 F   0  0  0  0  0  0
  -21.5636   -3.4537   25.7767 F   0  0  0  0  0  0
  -30.0473  -13.3605   20.4119 N   0  0  0  0  0  0
  -26.2955  -12.9177   20.3387 N   0  0  0  0  0  0
  -25.9264  -11.6370   20.5854 N   0  0  0  0  0  0
  -22.0421  -12.8262   22.0405 N   0  0  0  0  0  0
  -25.4298  -15.1817   20.4218 N   0  0  0  0  0  0
  -31.8988  -14.6699   20.2469 O   0  0  0  0  0  0
  -21.6595   -6.8841   21.4243 O   0  0  0  0  0  0
  -22.3545  -14.5518   20.6667 O   0  0  0  0  0  0
  -24.6143  -31.8709   23.2073 C   0  0  0  0  0  0
  -25.9050  -32.4846   23.8353 C   0  0  1  0  0  0
  -27.2182  -27.4126   20.1037 C   0  0  0  0  0  0
  -25.5922  -33.8641   24.2314 N   0  0  0  0  0  0
  -23.4004  -30.4993   21.5474 C   0  0  2  0  0  0
  -24.8450  -28.9718   20.1029 C   0  0  0  0  0  0
  -22.7391  -29.4710   22.4933 C   0  0  0  0  0  0
  -18.0302  -28.1407   22.8493 C   0  0  0  0  0  0
  -24.1501  -36.7303   23.2628 C   0  0  0  0  0  0
  -25.9322  -30.8327   21.3622 C   0  0  0  0  0  0
  -26.0065  -29.4657   20.7095 C   0  0  0  0  0  0
  -27.1940  -28.6926   20.7111 C   0  0  0  0  0  0
  -26.0462  -26.9705   19.4416 C   0  0  0  0  0  0
  -24.8619  -27.7239   19.4641 C   0  0  0  0  0  0
  -23.6076  -29.8378   20.1593 C   0  0  0  0  0  0
  -25.4124  -36.3112   24.0330 C   0  0  1  0  0  0
  -20.5888  -28.3701   23.1302 C   0  0  2  0  0  0
  -20.6794  -26.9440   22.5402 C   0  0  0  0  0  0
  -19.5768  -26.6421   21.5201 C   0  0  0  0  0  0
  -18.1952  -26.7959   22.1622 C   0  0  0  0  0  0
  -19.1549  -28.8862   23.2907 C   0  0  0  0  0  0
  -18.9470  -30.1466   23.8924 C   0  0  0  0  0  0
  -17.6475  -30.6605   24.0587 C   0  0  0  0  0  0
  -25.9046  -34.9489   23.5110 C   0  0  0  0  0  0
  -16.5367  -29.9106   23.6340 C   0  0  0  0  0  0
  -16.7290  -28.6532   23.0347 C   0  0  0  0  0  0
  -26.4471  -31.6599   25.0658 C   0  0  0  0  0  0
  -25.3719  -31.3709   26.1373 C   0  0  0  0  0  0
  -27.0279  -30.3040   24.6022 C   0  0  0  0  0  0
  -27.6058  -32.4275   25.7425 C   0  0  0  0  0  0
  -27.5593  -37.1801   24.8475 C   0  0  0  0  0  0
  -21.4119  -29.3069   22.3671 N   0  0  0  0  0  0
  -26.4317  -37.3786   23.9401 N   0  0  0  0  0  0
  -24.6672  -31.0816   22.0973 N   0  0  0  0  0  0
  -23.4172  -28.8262   23.2978 O   0  0  0  0  0  0
  -28.3537  -26.6150   20.1846 O   0  0  0  0  0  0
  -26.5594  -34.8942   22.4663 O   0  0  0  0  0  0
  -23.5340  -32.1472   23.7475 O   0  0  0  0  0  0
  -29.6435  -19.3772   20.4661 C   0  0  0  0  0  0
  -30.6391  -20.6184   22.2762 C   0  0  0  0  0  0
  -30.1034  -18.1304   20.9739 C   0  0  0  0  0  0
  -31.1178  -19.4049   22.8244 C   0  0  0  0  0  0
  -30.8731  -18.1553   22.1755 C   0  0  0  0  0  0
  -29.8933  -20.6162   21.0849 C   0  0  0  0  0  0
  -29.6344  -16.9694   20.1433 C   0  0  0  0  0  0
  -29.7980  -15.6364   19.9175 C   0  0  0  0  0  0
  -31.8652  -19.4855   24.1480 C   0  0  0  0  0  0
  -30.2672  -16.1562   23.6018 C   0  0  0  0  0  0
  -31.3773  -16.8752   22.8268 C   0  0  0  0  0  0
  -29.0950  -24.2688   20.9400 C   0  0  0  0  0  0
  -28.1466  -25.1808   20.0788 C   0  0  0  0  0  0
  -29.9711  -23.0231   20.5191 C   0  0  0  0  0  0
  -29.3047  -21.7366   20.5226 O   0  0  0  0  0  0
  -31.4810  -12.4230   19.1344 H   0  0  0  0  0  0
  -30.3509  -11.3355   19.8960 H   0  0  0  0  0  0
  -29.7555  -11.7023   17.4772 H   0  0  0  0  0  0
  -29.6507  -13.4215   17.7355 H   0  0  0  0  0  0
  -27.8826  -11.2482   18.9170 H   0  0  0  0  0  0
  -27.3601  -12.4821   17.8034 H   0  0  0  0  0  0
  -27.5887  -14.1976   19.4654 H   0  0  0  0  0  0
  -28.6912  -12.1232   21.4404 H   0  0  0  0  0  0
  -28.4811  -13.8256   21.7634 H   0  0  0  0  0  0
  -25.2701   -9.5622   22.4790 H   0  0  0  0  0  0
  -23.9941   -7.4578   22.7502 H   0  0  0  0  0  0
  -21.0785   -8.8764   19.8976 H   0  0  0  0  0  0
  -22.3679  -10.9642   19.6189 H   0  0  0  0  0  0
  -21.1970   -7.6123   23.9730 H   0  0  0  0  0  0
  -21.1487   -6.0498   25.9096 H   0  0  0  0  0  0
  -22.0594   -2.7585   23.2892 H   0  0  0  0  0  0
  -22.3969  -11.9906   22.4827 H   0  0  0  0  0  0
  -21.1058  -13.1370   22.2598 H   0  0  0  0  0  0
  -24.6696  -15.8400   20.5549 H   0  0  0  0  0  0
  -26.2970  -15.6305   20.1561 H   0  0  0  0  0  0
  -26.7104  -32.5561   23.1093 H   0  0  0  0  0  0
  -25.0098  -33.9814   25.0479 H   0  0  0  0  0  0
  -22.6877  -31.3153   21.4127 H   0  0  0  0  0  0
  -23.3765  -35.9632   23.3308 H   0  0  0  0  0  0
  -24.3589  -36.8890   22.2038 H   0  0  0  0  0  0
  -23.7258  -37.6519   23.6621 H   0  0  0  0  0  0
  -26.0457  -31.5994   20.5929 H   0  0  0  0  0  0
  -26.8205  -30.8853   21.9797 H   0  0  0  0  0  0
  -28.0785  -29.0669   21.2055 H   0  0  0  0  0  0
  -26.0218  -26.0351   18.9005 H   0  0  0  0  0  0
  -23.9755  -27.3438   18.9749 H   0  0  0  0  0  0
  -23.7090  -30.6154   19.4012 H   0  0  0  0  0  0
  -22.7310  -29.2566   19.8661 H   0  0  0  0  0  0
  -25.1305  -36.1960   25.0826 H   0  0  0  0  0  0
  -21.0027  -28.3278   24.1402 H   0  0  0  0  0  0
  -20.5727  -26.2300   23.3585 H   0  0  0  0  0  0
  -21.6660  -26.7503   22.1173 H   0  0  0  0  0  0
  -19.6930  -25.6332   21.1230 H   0  0  0  0  0  0
  -19.6713  -27.3233   20.6736 H   0  0  0  0  0  0
  -17.4223  -26.6720   21.4031 H   0  0  0  0  0  0
  -18.0360  -26.0109   22.9030 H   0  0  0  0  0  0
  -19.7946  -30.7288   24.2298 H   0  0  0  0  0  0
  -17.5032  -31.6293   24.5176 H   0  0  0  0  0  0
  -15.5370  -30.3019   23.7645 H   0  0  0  0  0  0
  -15.8696  -28.0865   22.7022 H   0  0  0  0  0  0
  -24.5931  -30.7025   25.7674 H   0  0  0  0  0  0
  -24.8856  -32.2865   26.4752 H   0  0  0  0  0  0
  -25.8042  -30.8917   27.0160 H   0  0  0  0  0  0
  -26.2813  -29.6797   24.1098 H   0  0  0  0  0  0
  -27.4076  -29.7267   25.4459 H   0  0  0  0  0  0
  -27.8631  -30.4351   23.9138 H   0  0  0  0  0  0
  -27.2729  -33.3583   26.2027 H   0  0  0  0  0  0
  -28.3874  -32.6804   25.0246 H   0  0  0  0  0  0
  -28.0710  -31.8358   26.5320 H   0  0  0  0  0  0
  -28.2629  -38.0082   24.7512 H   0  0  0  0  0  0
  -28.1079  -36.2615   24.6328 H   0  0  0  0  0  0
  -27.2301  -37.1474   25.8877 H   0  0  0  0  0  0
  -20.9244  -29.8756   21.6883 H   0  0  0  0  0  0
  -26.0208  -38.2871   24.1369 H   0  0  0  0  0  0
  -29.0446  -19.4092   19.5665 H   0  0  0  0  0  0
  -30.8071  -21.5470   22.8042 H   0  0  0  0  0  0
  -28.8598  -17.3059   19.4679 H   0  0  0  0  0  0
  -29.1729  -15.3133   19.1079 H   0  0  0  0  0  0
  -31.7190  -20.4551   24.6248 H   0  0  0  0  0  0
  -32.9353  -19.3402   23.9937 H   0  0  0  0  0  0
  -31.5125  -18.7337   24.8539 H   0  0  0  0  0  0
  -30.6361  -15.2411   24.0654 H   0  0  0  0  0  0
  -29.4322  -15.8913   22.9540 H   0  0  0  0  0  0
  -29.8777  -16.7951   24.3935 H   0  0  0  0  0  0
  -32.2091  -17.0666   23.5018 H   0  0  0  0  0  0
  -31.8361  -16.2460   22.0770 H   0  0  0  0  0  0
  -29.8865  -24.8555   20.4700 H   0  0  0  0  0  0
  -28.3262  -23.5738   20.6166 H   0  0  0  0  0  0
  -27.1164  -24.9668   20.3946 H   0  0  0  0  0  0
  -28.2138  -24.9128   19.0208 H   0  0  0  0  0  0
  -30.8786  -23.0007   21.1223 H   0  0  0  0  0  0
  -30.3201  -23.1508   19.4915 H   0  0  0  0  0  0
  1 25  1  0  0  0
  1 30  2  0  0  0
  1 78  1  0  0  0
  2  3  1  0  0  0
  2 25  1  0  0  0
  2 86  1  0  0  0
  2 87  1  0  0  0
  3  4  1  0  0  0
  3 88  1  0  0  0
  3 89  1  0  0  0
  4  5  1  0  0  0
  4 90  1  0  0  0
  4 91  1  0  0  0
  5  6  1  0  0  0
  5 26  1  0  0  0
  5 92  1  0  0  0
  6 25  1  0  0  0
  6 93  1  0  0  0
  6 94  1  0  0  0
  7  8  2  0  0  0
  7 26  1  0  0  0
  7 29  1  0  0  0
  8  9  1  0  0  0
  8 22  1  0  0  0
  9 10  1  0  0  0
  9 27  2  0  0  0
 10 11  2  0  0  0
 10 15  1  0  0  0
 11 12  1  0  0  0
 11 95  1  0  0  0
 12 13  2  0  0  0
 12 96  1  0  0  0
 13 14  1  0  0  0
 13 31  1  0  0  0
 14 15  2  0  0  0
 14 97  1  0  0  0
 15 98  1  0  0  0
 16 17  2  0  0  0
 16 21  1  0  0  0
 16 31  1  0  0  0
 17 18  1  0  0  0
 17 99  1  0  0  0
 18 19  2  0  0  0
 18100  1  0  0  0
 19 20  1  0  0  0
 19 24  1  0  0  0
 20 21  2  0  0  0
 20101  1  0  0  0
 21 23  1  0  0  0
 22 28  1  0  0  0
 22 32  2  0  0  0
 26 27  1  0  0  0
 28102  1  0  0  0
 28103  1  0  0  0
 29104  1  0  0  0
 29105  1  0  0  0
 33 34  1  0  0  0
 33 66  1  0  0  0
 33 70  2  0  0  0
 34 36  1  0  0  0
 34 59  1  0  0  0
 34106  1  0  0  0
 35 44  2  0  0  0
 35 45  1  0  0  0
 35 68  1  0  0  0
 36 56  1  0  0  0
 36107  1  0  0  0
 37 39  1  0  0  0
 37 47  1  0  0  0
 37 66  1  0  0  0
 37108  1  0  0  0
 38 43  2  0  0  0
 38 46  1  0  0  0
 38 47  1  0  0  0
 39 64  1  0  0  0
 39 67  2  0  0  0
 40 52  1  0  0  0
 40 53  2  0  0  0
 40 58  1  0  0  0
 41109  1  0  0  0
 41110  1  0  0  0
 41111  1  0  0  0
 41 48  1  0  0  0
 42 43  1  0  0  0
 42 66  1  0  0  0
 42112  1  0  0  0
 42113  1  0  0  0
 43 44  1  0  0  0
 44114  1  0  0  0
 45 46  2  0  0  0
 45115  1  0  0  0
 46116  1  0  0  0
 47117  1  0  0  0
 47118  1  0  0  0
 48 56  1  0  0  0
 48 65  1  0  0  0
 48119  1  0  0  0
 49 50  1  0  0  0
 49 53  1  0  0  0
 49 64  1  0  0  0
 49120  1  0  0  0
 50 51  1  0  0  0
 50121  1  0  0  0
 50122  1  0  0  0
 51 52  1  0  0  0
 51123  1  0  0  0
 51124  1  0  0  0
 52125  1  0  0  0
 52126  1  0  0  0
 53 54  1  0  0  0
 54 55  2  0  0  0
 54127  1  0  0  0
 55 57  1  0  0  0
 55128  1  0  0  0
 56 69  2  0  0  0
 57 58  2  0  0  0
 57129  1  0  0  0
 58130  1  0  0  0
 59 60  1  0  0  0
 59 61  1  0  0  0
 59 62  1  0  0  0
 60131  1  0  0  0
 60132  1  0  0  0
 60133  1  0  0  0
 61134  1  0  0  0
 61135  1  0  0  0
 61136  1  0  0  0
 62137  1  0  0  0
 62138  1  0  0  0
 62139  1  0  0  0
 63 65  1  0  0  0
 63140  1  0  0  0
 63141  1  0  0  0
 63142  1  0  0  0
 64143  1  0  0  0
 65144  1  0  0  0
 68 83  1  0  0  0
 71 73  2  0  0  0
 71 76  1  0  0  0
 71145  1  0  0  0
 72 74  1  0  0  0
 72 76  2  0  0  0
 72146  1  0  0  0
 73 75  1  0  0  0
 73 77  1  0  0  0
 74 75  2  0  0  0
 74 79  1  0  0  0
 75 81  1  0  0  0
 76 85  1  0  0  0
 77 78  2  0  0  0
 77147  1  0  0  0
 78148  1  0  0  0
 79149  1  0  0  0
 79150  1  0  0  0
 79151  1  0  0  0
 80 81  1  0  0  0
 80152  1  0  0  0
 80153  1  0  0  0
 80154  1  0  0  0
 81155  1  0  0  0
 81156  1  0  0  0
 82 83  1  0  0  0
 82 84  1  0  0  0
 82157  1  0  0  0
 82158  1  0  0  0
 83159  1  0  0  0
 83160  1  0  0  0
 84 85  1  0  0  0
 84161  1  0  0  0
 84162  1  0  0  0
M  ISO  4   1 100  68 101  78 100  83 101
M  END
> <chiral flag>
0

> <version>
0

> <s_m_source_file>
/data/baiqing/PycharmProjects/Reinvent-master-3.2/result/LINK_invent/BTK/process_docking_weight1_custom_product_contain_oxygen_bond_distance_aromatic_linkinvent_7_9_3/rearranged_h_0119.sdf

> <i_m_source_file_index>
52

> <r_mmod_Potential_Energy-OPLS-2005>
434.955108642578

> <r_mmod_Stretch_Energy-OPLS-2005>
51.5042724609375

> <r_mmod_Bend_Energy-OPLS-2005>
429.641235351562

> <r_mmod_Torsional_Energy-OPLS-2005>
241.250839233398

> <r_mmod_Improper_Torsional_Energy-OPLS-2005>
22.5741767883301

> <r_mmod_Van_der_Waal_Energy-OPLS-2005>
193.522506713867

> <r_mmod_Electrostatic_Energy-OPLS-2005>
-346.636016845703

> <r_mmod_Solvation_Energy-OPLS-2005>
-196.048553466797

> <b_mmod_Minimization_Converged-OPLS-2005>
0

> <r_mmod_RMS_Derivative-OPLS-2005>
2.8019688129425

$$$$
52
                    3D
 Structure written by MMmdl.
155163  0  0  1  0            999 V2000
  -30.6457  -14.6215   20.5257 C   0  0  0  0  0  0
  -30.4358  -12.3824   19.4582 C   0  0  0  0  0  0
  -29.5107  -12.5098   18.2274 C   0  0  0  0  0  0
  -28.0323  -12.3498   18.6341 C   0  0  0  0  0  0
  -27.6554  -13.2192   19.8635 C   0  0  2  0  0  0
  -28.6989  -13.0703   20.9921 C   0  0  0  0  0  0
  -25.2570  -13.8183   20.5697 C   0  0  0  0  0  0
  -24.1845  -13.0446   20.9189 C   0  0  0  0  0  0
  -24.6417  -11.6909   20.8747 C   0  0  0  0  0  0
  -23.9081  -10.4298   21.0408 C   0  0  0  0  0  0
  -24.3641   -9.4206   21.9185 C   0  0  0  0  0  0
  -23.6308   -8.2247   22.0751 C   0  0  0  0  0  0
  -22.4284   -8.0295   21.3548 C   0  0  0  0  0  0
  -21.9933   -9.0272   20.4641 C   0  0  0  0  0  0
  -22.7262  -10.2141   20.3056 C   0  0  0  0  0  0
  -21.6849   -6.0758   22.5286 C   0  0  0  0  0  0
  -21.4006   -6.5660   23.8221 C   0  0  0  0  0  0
  -21.3651   -5.6801   24.9178 C   0  0  0  0  0  0
  -21.6056   -4.3066   24.7231 C   0  0  0  0  0  0
  -21.8810   -3.8161   23.4338 C   0  0  0  0  0  0
  -21.9187   -4.6985   22.3402 C   0  0  0  0  0  0
  -22.7862  -13.5225   21.1876 C   0  0  0  0  0  0
  -22.1654   -4.2176   21.0985 F   0  0  0  0  0  0
  -21.5630   -3.4537   25.7741 F   0  0  0  0  0  0
  -30.0208  -13.4027   20.4420 N   0  0  0  0  0  0
  -26.3003  -12.9374   20.3317 N   0  0  0  0  0  0
  -25.9347  -11.6526   20.5763 N   0  0  0  0  0  0
  -22.0508  -12.8191   22.0412 N   0  0  0  0  0  0
  -25.4268  -15.1913   20.4107 N   0  0  0  0  0  0
  -31.8043  -14.7402   20.1104 O   0  0  0  0  0  0
  -21.6634   -6.8903   21.4254 O   0  0  0  0  0  0
  -22.3553  -14.5537   20.6726 O   0  0  0  0  0  0
  -24.6200  -31.8592   23.2015 C   0  0  0  0  0  0
  -25.9049  -32.4750   23.8362 C   0  0  1  0  0  0
  -27.2329  -27.3453   20.1046 C   0  0  0  0  0  0
  -25.5863  -33.8548   24.2281 N   0  0  0  0  0  0
  -23.4150  -30.4821   21.5401 C   0  0  2  0  0  0
  -24.8628  -28.9338   20.1116 C   0  0  0  0  0  0
  -22.7453  -29.4607   22.4897 C   0  0  0  0  0  0
  -18.0301  -28.1380   22.8485 C   0  0  0  0  0  0
  -24.1499  -36.7331   23.2634 C   0  0  0  0  0  0
  -25.9541  -30.7954   21.3714 C   0  0  0  0  0  0
  -26.0266  -29.4230   20.7164 C   0  0  0  0  0  0
  -27.2110  -28.6363   20.7076 C   0  0  0  0  0  0
  -26.0381  -26.8866   19.5028 C   0  0  0  0  0  0
  -24.8667  -27.6678   19.5022 C   0  0  0  0  0  0
  -23.6322  -29.8128   20.1563 C   0  0  0  0  0  0
  -25.4106  -36.3057   24.0328 C   0  0  1  0  0  0
  -20.5891  -28.3673   23.1304 C   0  0  2  0  0  0
  -20.6764  -26.9395   22.5413 C   0  0  0  0  0  0
  -19.5759  -26.6393   21.5181 C   0  0  0  0  0  0
  -18.1938  -26.7939   22.1580 C   0  0  0  0  0  0
  -19.1553  -28.8839   23.2907 C   0  0  0  0  0  0
  -18.9454  -30.1434   23.8938 C   0  0  0  0  0  0
  -17.6460  -30.6595   24.0543 C   0  0  0  0  0  0
  -25.9031  -34.9428   23.5120 C   0  0  0  0  0  0
  -16.5355  -29.9086   23.6303 C   0  0  0  0  0  0
  -16.7284  -28.6488   23.0351 C   0  0  0  0  0  0
  -26.4439  -31.6541   25.0717 C   0  0  0  0  0  0
  -25.3695  -31.3630   26.1448 C   0  0  0  0  0  0
  -27.0211  -30.2937   24.6172 C   0  0  0  0  0  0
  -27.6053  -32.4225   25.7475 C   0  0  0  0  0  0
  -27.5597  -37.1802   24.8447 C   0  0  0  0  0  0
  -21.4162  -29.3033   22.3676 N   0  0  0  0  0  0
  -26.4286  -37.3750   23.9415 N   0  0  0  0  0  0
  -24.6816  -31.0640   22.0943 N   0  0  0  0  0  0
  -23.4208  -28.8157   23.2961 O   0  0  0  0  0  0
  -28.3899  -26.5651   20.1583 O   0  0  0  0  0  0
  -26.5644  -34.8887   22.4705 O   0  0  0  0  0  0
  -23.5366  -32.1365   23.7353 O   0  0  0  0  0  0
  -32.2709  -21.6707   20.5086 C   0  0  0  0  0  0
  -31.0412  -20.9220   20.5285 C   0  0  0  0  0  0
  -33.4035  -20.9134   20.5368 C   0  0  0  0  0  0
  -31.2552  -19.5266   20.6165 C   0  0  0  0  0  0
  -29.7612  -21.7351   20.4799 C   0  0  0  0  0  0
  -29.6940  -23.0661   20.1282 C   0  0  0  0  0  0
  -28.4982  -23.9810   20.1698 C   0  0  0  0  0  0
  -30.7075  -17.1917   21.2225 C   0  0  0  0  0  0
  -34.8269  -21.3767   20.5560 C   0  0  0  0  0  0
  -28.5411  -25.3355   19.3722 C   0  0  0  0  0  0
  -29.8263  -15.9202   20.9331 C   0  0  0  0  0  0
  -30.4150  -18.4228   20.6691 N   0  0  0  0  0  0
  -27.4740  -23.6869   20.7947 O   0  0  0  0  0  0
  -31.5912  -17.0786   22.0789 O   0  0  0  0  0  0
  -33.0021  -19.2340   20.5577 S   0  0  0  0  0  0
  -31.4783  -12.4900   19.1562 H   0  0  0  0  0  0
  -30.3579  -11.3869   19.8955 H   0  0  0  0  0  0
  -29.7766  -11.7643   17.4768 H   0  0  0  0  0  0
  -29.6574  -13.4824   17.7566 H   0  0  0  0  0  0
  -27.8654  -11.2976   18.8614 H   0  0  0  0  0  0
  -27.3806  -12.5822   17.7918 H   0  0  0  0  0  0
  -27.6762  -14.2557   19.5294 H   0  0  0  0  0  0
  -28.7031  -12.0469   21.3701 H   0  0  0  0  0  0
  -28.4391  -13.6934   21.8460 H   0  0  0  0  0  0
  -25.2787   -9.5683   22.4766 H   0  0  0  0  0  0
  -24.0016   -7.4645   22.7478 H   0  0  0  0  0  0
  -21.0872   -8.8811   19.8944 H   0  0  0  0  0  0
  -22.3742  -10.9698   19.6173 H   0  0  0  0  0  0
  -21.1984   -7.6172   23.9743 H   0  0  0  0  0  0
  -21.1487   -6.0525   25.9096 H   0  0  0  0  0  0
  -22.0591   -2.7623   23.2839 H   0  0  0  0  0  0
  -22.4113  -11.9840   22.4785 H   0  0  0  0  0  0
  -21.1121  -13.1204   22.2620 H   0  0  0  0  0  0
  -24.6582  -15.8440   20.5216 H   0  0  0  0  0  0
  -26.2828  -15.6355   20.1028 H   0  0  0  0  0  0
  -26.7118  -32.5429   23.1124 H   0  0  0  0  0  0
  -24.9847  -33.9662   25.0307 H   0  0  0  0  0  0
  -22.7070  -31.2997   21.3920 H   0  0  0  0  0  0
  -23.3707  -35.9707   23.3231 H   0  0  0  0  0  0
  -24.3632  -36.9030   22.2065 H   0  0  0  0  0  0
  -23.7288  -37.6533   23.6700 H   0  0  0  0  0  0
  -26.0898  -31.5568   20.6011 H   0  0  0  0  0  0
  -26.8351  -30.8446   22.0003 H   0  0  0  0  0  0
  -28.1101  -29.0087   21.1810 H   0  0  0  0  0  0
  -25.9700  -25.9053   19.0590 H   0  0  0  0  0  0
  -23.9691  -27.2808   19.0371 H   0  0  0  0  0  0
  -23.7604  -30.5851   19.3986 H   0  0  0  0  0  0
  -22.7532  -29.2432   19.8489 H   0  0  0  0  0  0
  -25.1267  -36.1903   25.0819 H   0  0  0  0  0  0
  -21.0010  -28.3246   24.1418 H   0  0  0  0  0  0
  -20.5605  -26.2274   23.3594 H   0  0  0  0  0  0
  -21.6657  -26.7408   22.1262 H   0  0  0  0  0  0
  -19.6915  -25.6307   21.1227 H   0  0  0  0  0  0
  -19.6737  -27.3173   20.6698 H   0  0  0  0  0  0
  -17.4219  -26.6712   21.3963 H   0  0  0  0  0  0
  -18.0321  -26.0078   22.8960 H   0  0  0  0  0  0
  -19.7923  -30.7202   24.2386 H   0  0  0  0  0  0
  -17.5007  -31.6274   24.5135 H   0  0  0  0  0  0
  -15.5339  -30.2979   23.7599 H   0  0  0  0  0  0
  -15.8693  -28.0798   22.7079 H   0  0  0  0  0  0
  -24.6166  -30.6577   25.7888 H   0  0  0  0  0  0
  -24.8478  -32.2677   26.4573 H   0  0  0  0  0  0
  -25.8109  -30.9205   27.0397 H   0  0  0  0  0  0
  -26.2747  -29.6742   24.1163 H   0  0  0  0  0  0
  -27.3804  -29.7131   25.4686 H   0  0  0  0  0  0
  -27.8692  -30.4148   23.9425 H   0  0  0  0  0  0
  -27.2790  -33.3584   26.2029 H   0  0  0  0  0  0
  -28.3891  -32.6675   25.0289 H   0  0  0  0  0  0
  -28.0681  -31.8323   26.5401 H   0  0  0  0  0  0
  -28.2563  -38.0147   24.7496 H   0  0  0  0  0  0
  -28.1150  -36.2671   24.6232 H   0  0  0  0  0  0
  -27.2344  -37.1414   25.8859 H   0  0  0  0  0  0
  -20.9295  -29.8786   21.6937 H   0  0  0  0  0  0
  -26.0160  -38.2821   24.1396 H   0  0  0  0  0  0
  -32.3169  -22.7478   20.4951 H   0  0  0  0  0  0
  -28.8592  -21.2265   20.7892 H   0  0  0  0  0  0
  -30.5814  -23.5692   19.7841 H   0  0  0  0  0  0
  -34.9005  -22.4529   20.3925 H   0  0  0  0  0  0
  -35.4129  -20.8847   19.7785 H   0  0  0  0  0  0
  -35.2973  -21.1569   21.5159 H   0  0  0  0  0  0
  -27.8359  -25.2843   18.5439 H   0  0  0  0  0  0
  -29.5165  -25.3991   18.8900 H   0  0  0  0  0  0
  -29.1052  -16.1491   20.1489 H   0  0  0  0  0  0
  -29.2618  -15.7232   21.8421 H   0  0  0  0  0  0
  -29.5393  -18.5074   20.1709 H   0  0  0  0  0  0
  1 25  1  0  0  0
  1 30  2  0  0  0
  1 81  1  0  0  0
  2  3  1  0  0  0
  2 25  1  0  0  0
  2 86  1  0  0  0
  2 87  1  0  0  0
  3  4  1  0  0  0
  3 88  1  0  0  0
  3 89  1  0  0  0
  4  5  1  0  0  0
  4 90  1  0  0  0
  4 91  1  0  0  0
  5  6  1  0  0  0
  5 26  1  0  0  0
  5 92  1  0  0  0
  6 25  1  0  0  0
  6 93  1  0  0  0
  6 94  1  0  0  0
  7  8  2  0  0  0
  7 26  1  0  0  0
  7 29  1  0  0  0
  8  9  1  0  0  0
  8 22  1  0  0  0
  9 10  1  0  0  0
  9 27  2  0  0  0
 10 11  2  0  0  0
 10 15  1  0  0  0
 11 12  1  0  0  0
 11 95  1  0  0  0
 12 13  2  0  0  0
 12 96  1  0  0  0
 13 14  1  0  0  0
 13 31  1  0  0  0
 14 15  2  0  0  0
 14 97  1  0  0  0
 15 98  1  0  0  0
 16 17  2  0  0  0
 16 21  1  0  0  0
 16 31  1  0  0  0
 17 18  1  0  0  0
 17 99  1  0  0  0
 18 19  2  0  0  0
 18100  1  0  0  0
 19 20  1  0  0  0
 19 24  1  0  0  0
 20 21  2  0  0  0
 20101  1  0  0  0
 21 23  1  0  0  0
 22 28  1  0  0  0
 22 32  2  0  0  0
 26 27  1  0  0  0
 28102  1  0  0  0
 28103  1  0  0  0
 29104  1  0  0  0
 29105  1  0  0  0
 33 34  1  0  0  0
 33 66  1  0  0  0
 33 70  2  0  0  0
 34 36  1  0  0  0
 34 59  1  0  0  0
 34106  1  0  0  0
 35 44  2  0  0  0
 35 45  1  0  0  0
 35 68  1  0  0  0
 36 56  1  0  0  0
 36107  1  0  0  0
 37 39  1  0  0  0
 37 47  1  0  0  0
 37 66  1  0  0  0
 37108  1  0  0  0
 38 43  2  0  0  0
 38 46  1  0  0  0
 38 47  1  0  0  0
 39 64  1  0  0  0
 39 67  2  0  0  0
 40 52  1  0  0  0
 40 53  2  0  0  0
 40 58  1  0  0  0
 41109  1  0  0  0
 41110  1  0  0  0
 41111  1  0  0  0
 41 48  1  0  0  0
 42 43  1  0  0  0
 42 66  1  0  0  0
 42112  1  0  0  0
 42113  1  0  0  0
 43 44  1  0  0  0
 44114  1  0  0  0
 45 46  2  0  0  0
 45115  1  0  0  0
 46116  1  0  0  0
 47117  1  0  0  0
 47118  1  0  0  0
 48 56  1  0  0  0
 48 65  1  0  0  0
 48119  1  0  0  0
 49 50  1  0  0  0
 49 53  1  0  0  0
 49 64  1  0  0  0
 49120  1  0  0  0
 50 51  1  0  0  0
 50121  1  0  0  0
 50122  1  0  0  0
 51 52  1  0  0  0
 51123  1  0  0  0
 51124  1  0  0  0
 52125  1  0  0  0
 52126  1  0  0  0
 53 54  1  0  0  0
 54 55  2  0  0  0
 54127  1  0  0  0
 55 57  1  0  0  0
 55128  1  0  0  0
 56 69  2  0  0  0
 57 58  2  0  0  0
 57129  1  0  0  0
 58130  1  0  0  0
 59 60  1  0  0  0
 59 61  1  0  0  0
 59 62  1  0  0  0
 60131  1  0  0  0
 60132  1  0  0  0
 60133  1  0  0  0
 61134  1  0  0  0
 61135  1  0  0  0
 61136  1  0  0  0
 62137  1  0  0  0
 62138  1  0  0  0
 62139  1  0  0  0
 63 65  1  0  0  0
 63140  1  0  0  0
 63141  1  0  0  0
 63142  1  0  0  0
 64143  1  0  0  0
 65144  1  0  0  0
 68 80  1  0  0  0
 71 72  1  0  0  0
 71 73  2  0  0  0
 71145  1  0  0  0
 72 74  2  0  0  0
 72 75  1  0  0  0
 73 79  1  0  0  0
 73 85  1  0  0  0
 74 82  1  0  0  0
 74 85  1  0  0  0
 75 76  2  0  0  0
 75146  1  0  0  0
 76 77  1  0  0  0
 76147  1  0  0  0
 77 80  1  0  0  0
 77 83  2  0  0  0
 78 81  1  0  0  0
 78 82  1  0  0  0
 78 84  2  0  0  0
 79148  1  0  0  0
 79149  1  0  0  0
 79150  1  0  0  0
 80151  1  0  0  0
 80152  1  0  0  0
 81153  1  0  0  0
 81154  1  0  0  0
 82155  1  0  0  0
M  ISO  4   1 100  68 101  80 101  81 100
M  END
> <chiral flag>
0

> <version>
0

> <s_m_source_file>
/data/baiqing/PycharmProjects/Reinvent-master-3.2/result/LINK_invent/BTK/process_docking_weight1_custom_product_contain_oxygen_bond_distance_aromatic_linkinvent_7_9_3/rearranged_h_0119.sdf

> <i_m_source_file_index>
53

> <r_mmod_Potential_Energy-OPLS-2005>
22.2574195861816

> <r_mmod_Stretch_Energy-OPLS-2005>
77.6751098632812

> <r_mmod_Bend_Energy-OPLS-2005>
151.143997192383

> <r_mmod_Torsional_Energy-OPLS-2005>
194.09587097168

> <r_mmod_Improper_Torsional_Energy-OPLS-2005>
6.63414239883423

> <r_mmod_Van_der_Waal_Energy-OPLS-2005>
136.706069946289

> <r_mmod_Electrostatic_Energy-OPLS-2005>
-322.810760498047

> <r_mmod_Solvation_Energy-OPLS-2005>
-258.799896240234

> <b_mmod_Minimization_Converged-OPLS-2005>
0

> <r_mmod_RMS_Derivative-OPLS-2005>
3.00123596191406

$$$$
53
                    3D
 Structure written by MMmdl.
161169  0  0  1  0            999 V2000
  -30.7401  -14.4647   20.5751 C   0  0  0  0  0  0
  -30.4098  -12.3067   19.4292 C   0  0  0  0  0  0
  -29.4909  -12.5125   18.2092 C   0  0  0  0  0  0
  -28.0128  -12.3744   18.6193 C   0  0  0  0  0  0
  -27.6592  -13.2174   19.8745 C   0  0  2  0  0  0
  -28.7015  -13.0224   21.0002 C   0  0  0  0  0  0
  -25.2570  -13.8187   20.5687 C   0  0  0  0  0  0
  -24.1832  -13.0449   20.9183 C   0  0  0  0  0  0
  -24.6398  -11.6919   20.8738 C   0  0  0  0  0  0
  -23.9069  -10.4298   21.0401 C   0  0  0  0  0  0
  -24.3621   -9.4215   21.9180 C   0  0  0  0  0  0
  -23.6298   -8.2248   22.0748 C   0  0  0  0  0  0
  -22.4277   -8.0282   21.3541 C   0  0  0  0  0  0
  -21.9910   -9.0256   20.4644 C   0  0  0  0  0  0
  -22.7240  -10.2135   20.3051 C   0  0  0  0  0  0
  -21.6853   -6.0740   22.5282 C   0  0  0  0  0  0
  -21.4013   -6.5644   23.8214 C   0  0  0  0  0  0
  -21.3660   -5.6795   24.9174 C   0  0  0  0  0  0
  -21.6043   -4.3057   24.7222 C   0  0  0  0  0  0
  -21.8821   -3.8147   23.4345 C   0  0  0  0  0  0
  -21.9197   -4.6968   22.3404 C   0  0  0  0  0  0
  -22.7853  -13.5238   21.1847 C   0  0  0  0  0  0
  -22.1664   -4.2154   21.0981 F   0  0  0  0  0  0
  -21.5629   -3.4536   25.7734 F   0  0  0  0  0  0
  -30.0335  -13.3079   20.4437 N   0  0  0  0  0  0
  -26.3016  -12.9381   20.3372 N   0  0  0  0  0  0
  -25.9333  -11.6528   20.5772 N   0  0  0  0  0  0
  -22.0492  -12.8226   22.0394 N   0  0  0  0  0  0
  -25.4294  -15.1903   20.4087 N   0  0  0  0  0  0
  -31.8514  -14.6000   20.0576 O   0  0  0  0  0  0
  -21.6641   -6.8878   21.4241 O   0  0  0  0  0  0
  -22.3544  -14.5553   20.6707 O   0  0  0  0  0  0
  -24.6174  -31.8670   23.2103 C   0  0  0  0  0  0
  -25.9066  -32.4817   23.8397 C   0  0  1  0  0  0
  -27.2255  -27.4239   20.1015 C   0  0  0  0  0  0
  -25.5921  -33.8616   24.2327 N   0  0  0  0  0  0
  -23.4050  -30.4910   21.5521 C   0  0  2  0  0  0
  -24.8510  -28.9608   20.1105 C   0  0  0  0  0  0
  -22.7423  -29.4655   22.5001 C   0  0  0  0  0  0
  -18.0273  -28.1379   22.8494 C   0  0  0  0  0  0
  -24.1487  -36.7305   23.2633 C   0  0  0  0  0  0
  -25.9361  -30.8303   21.3647 C   0  0  0  0  0  0
  -26.0136  -29.4666   20.7077 C   0  0  0  0  0  0
  -27.2085  -28.7070   20.6975 C   0  0  0  0  0  0
  -26.0512  -26.9443   19.4815 C   0  0  0  0  0  0
  -24.8651  -27.6996   19.4921 C   0  0  0  0  0  0
  -23.6117  -29.8249   20.1661 C   0  0  0  0  0  0
  -25.4107  -36.3103   24.0336 C   0  0  1  0  0  0
  -20.5863  -28.3662   23.1329 C   0  0  2  0  0  0
  -20.6759  -26.9395   22.5435 C   0  0  0  0  0  0
  -19.5745  -26.6384   21.5225 C   0  0  0  0  0  0
  -18.1917  -26.7936   22.1613 C   0  0  0  0  0  0
  -19.1521  -28.8840   23.2907 C   0  0  0  0  0  0
  -18.9445  -30.1450   23.8910 C   0  0  0  0  0  0
  -17.6443  -30.6585   24.0564 C   0  0  0  0  0  0
  -25.9043  -34.9474   23.5123 C   0  0  0  0  0  0
  -16.5338  -29.9078   23.6334 C   0  0  0  0  0  0
  -16.7258  -28.6498   23.0352 C   0  0  0  0  0  0
  -26.4487  -31.6594   25.0727 C   0  0  0  0  0  0
  -25.3746  -31.3699   26.1467 C   0  0  0  0  0  0
  -27.0302  -30.3027   24.6107 C   0  0  0  0  0  0
  -27.6065  -32.4311   25.7488 C   0  0  0  0  0  0
  -27.5590  -37.1797   24.8452 C   0  0  0  0  0  0
  -21.4151  -29.3023   22.3734 N   0  0  0  0  0  0
  -26.4288  -37.3796   23.9420 N   0  0  0  0  0  0
  -24.6711  -31.0766   22.1010 N   0  0  0  0  0  0
  -23.4194  -28.8198   23.3047 O   0  0  0  0  0  0
  -28.3477  -26.6213   20.1433 O   0  0  0  0  0  0
  -26.5597  -34.8924   22.4678 O   0  0  0  0  0  0
  -23.5365  -32.1424   23.7496 O   0  0  0  0  0  0
  -31.6071  -19.5039   21.4076 C   0  0  0  0  0  0
  -29.7345  -17.9626   21.1874 C   0  0  0  0  0  0
  -31.9916  -17.1096   21.5048 C   0  0  0  0  0  0
  -30.2180  -19.3000   21.2427 C   0  0  0  0  0  0
  -32.5034  -18.4235   21.5435 C   0  0  0  0  0  0
  -30.6169  -16.8528   21.2858 C   0  0  0  0  0  0
  -34.6861  -17.8707   22.5505 C   0  0  0  0  0  0
  -29.2826  -20.4573   21.1684 C   0  0  0  0  0  0
  -29.5987  -21.7688   21.3056 C   0  0  0  0  0  0
  -33.9498  -18.6582   21.7454 C   0  0  0  0  0  0
  -34.5998  -19.7845   20.9597 C   0  0  0  0  0  0
  -28.6031  -22.9275   21.3043 C   0  0  0  0  0  0
  -29.0560  -24.2176   20.5618 C   0  0  0  0  0  0
  -28.1398  -25.4173   20.9133 C   0  0  0  0  0  0
  -30.1204  -15.5040   21.1842 N   0  0  0  0  0  0
  -31.4562  -12.3795   19.1272 H   0  0  0  0  0  0
  -30.2929  -11.3003   19.8334 H   0  0  0  0  0  0
  -29.7321  -11.7913   17.4271 H   0  0  0  0  0  0
  -29.6628  -13.5004   17.7782 H   0  0  0  0  0  0
  -27.8200  -11.3187   18.8121 H   0  0  0  0  0  0
  -27.3650  -12.6526   17.7872 H   0  0  0  0  0  0
  -27.6966  -14.2635   19.5702 H   0  0  0  0  0  0
  -28.6721  -11.9969   21.3708 H   0  0  0  0  0  0
  -28.4668  -13.6525   21.8590 H   0  0  0  0  0  0
  -25.2770   -9.5692   22.4755 H   0  0  0  0  0  0
  -24.0010   -7.4638   22.7462 H   0  0  0  0  0  0
  -21.0841   -8.8776   19.8951 H   0  0  0  0  0  0
  -22.3704  -10.9670   19.6152 H   0  0  0  0  0  0
  -21.1999   -7.6157   23.9719 H   0  0  0  0  0  0
  -21.1480   -6.0524   25.9078 H   0  0  0  0  0  0
  -22.0601   -2.7610   23.2840 H   0  0  0  0  0  0
  -22.4097  -11.9880   22.4774 H   0  0  0  0  0  0
  -21.1109  -13.1249   22.2598 H   0  0  0  0  0  0
  -24.6622  -15.8466   20.5088 H   0  0  0  0  0  0
  -26.2828  -15.6253   20.0812 H   0  0  0  0  0  0
  -26.7139  -32.5519   23.1162 H   0  0  0  0  0  0
  -25.0099  -33.9771   25.0492 H   0  0  0  0  0  0
  -22.6948  -31.3092   21.4149 H   0  0  0  0  0  0
  -23.3760  -35.9625   23.3276 H   0  0  0  0  0  0
  -24.3591  -36.8939   22.2051 H   0  0  0  0  0  0
  -23.7225  -37.6498   23.6660 H   0  0  0  0  0  0
  -26.0510  -31.5975   20.5978 H   0  0  0  0  0  0
  -26.8233  -30.8811   21.9840 H   0  0  0  0  0  0
  -28.1036  -29.0870   21.1700 H   0  0  0  0  0  0
  -26.0463  -25.9741   19.0049 H   0  0  0  0  0  0
  -23.9724  -27.3048   19.0264 H   0  0  0  0  0  0
  -23.7131  -30.5999   19.4057 H   0  0  0  0  0  0
  -22.7375  -29.2403   19.8737 H   0  0  0  0  0  0
  -25.1287  -36.1959   25.0832 H   0  0  0  0  0  0
  -20.9951  -28.3219   24.1450 H   0  0  0  0  0  0
  -20.5659  -26.2266   23.3621 H   0  0  0  0  0  0
  -21.6630  -26.7436   22.1223 H   0  0  0  0  0  0
  -19.6895  -25.6299   21.1244 H   0  0  0  0  0  0
  -19.6703  -27.3204   20.6766 H   0  0  0  0  0  0
  -17.4208  -26.6728   21.3990 H   0  0  0  0  0  0
  -18.0274  -26.0061   22.8981 H   0  0  0  0  0  0
  -19.7917  -30.7270   24.2283 H   0  0  0  0  0  0
  -17.4994  -31.6269   24.5152 H   0  0  0  0  0  0
  -15.5337  -30.2977   23.7661 H   0  0  0  0  0  0
  -15.8659  -28.0823   22.7058 H   0  0  0  0  0  0
  -24.5990  -30.6951   25.7828 H   0  0  0  0  0  0
  -24.8843  -32.2835   26.4839 H   0  0  0  0  0  0
  -25.8112  -30.8967   27.0271 H   0  0  0  0  0  0
  -26.2835  -29.6803   24.1159 H   0  0  0  0  0  0
  -27.4053  -29.7258   25.4572 H   0  0  0  0  0  0
  -27.8690  -30.4326   23.9261 H   0  0  0  0  0  0
  -27.2696  -33.3613   26.2077 H   0  0  0  0  0  0
  -28.3874  -32.6868   25.0313 H   0  0  0  0  0  0
  -28.0736  -31.8425   26.5394 H   0  0  0  0  0  0
  -28.2582  -38.0120   24.7547 H   0  0  0  0  0  0
  -28.1114  -36.2660   24.6212 H   0  0  0  0  0  0
  -27.2326  -37.1355   25.8856 H   0  0  0  0  0  0
  -20.9322  -29.8738   21.6942 H   0  0  0  0  0  0
  -26.0174  -38.2866   24.1454 H   0  0  0  0  0  0
  -32.0028  -20.5049   21.4540 H   0  0  0  0  0  0
  -28.6757  -17.7895   21.0564 H   0  0  0  0  0  0
  -32.6826  -16.2882   21.6212 H   0  0  0  0  0  0
  -34.2491  -17.0545   23.1075 H   0  0  0  0  0  0
  -35.7480  -18.0297   22.6720 H   0  0  0  0  0  0
  -28.2438  -20.2045   21.0037 H   0  0  0  0  0  0
  -30.6222  -22.0676   21.4729 H   0  0  0  0  0  0
  -34.1728  -20.7530   21.2176 H   0  0  0  0  0  0
  -34.4675  -19.6223   19.8894 H   0  0  0  0  0  0
  -35.6711  -19.8420   21.1578 H   0  0  0  0  0  0
  -28.4268  -23.1767   22.3517 H   0  0  0  0  0  0
  -27.6440  -22.5874   20.9113 H   0  0  0  0  0  0
  -29.0416  -24.0417   19.4856 H   0  0  0  0  0  0
  -30.0850  -24.4662   20.8234 H   0  0  0  0  0  0
  -28.2804  -25.6750   21.9643 H   0  0  0  0  0  0
  -27.1108  -25.0640   20.8410 H   0  0  0  0  0  0
  -29.1690  -15.3384   21.4758 H   0  0  0  0  0  0
  1 25  1  0  0  0
  1 30  2  0  0  0
  1 85  1  0  0  0
  2  3  1  0  0  0
  2 25  1  0  0  0
  2 86  1  0  0  0
  2 87  1  0  0  0
  3  4  1  0  0  0
  3 88  1  0  0  0
  3 89  1  0  0  0
  4  5  1  0  0  0
  4 90  1  0  0  0
  4 91  1  0  0  0
  5  6  1  0  0  0
  5 26  1  0  0  0
  5 92  1  0  0  0
  6 25  1  0  0  0
  6 93  1  0  0  0
  6 94  1  0  0  0
  7  8  2  0  0  0
  7 26  1  0  0  0
  7 29  1  0  0  0
  8  9  1  0  0  0
  8 22  1  0  0  0
  9 10  1  0  0  0
  9 27  2  0  0  0
 10 11  2  0  0  0
 10 15  1  0  0  0
 11 12  1  0  0  0
 11 95  1  0  0  0
 12 13  2  0  0  0
 12 96  1  0  0  0
 13 14  1  0  0  0
 13 31  1  0  0  0
 14 15  2  0  0  0
 14 97  1  0  0  0
 15 98  1  0  0  0
 16 17  2  0  0  0
 16 21  1  0  0  0
 16 31  1  0  0  0
 17 18  1  0  0  0
 17 99  1  0  0  0
 18 19  2  0  0  0
 18100  1  0  0  0
 19 20  1  0  0  0
 19 24  1  0  0  0
 20 21  2  0  0  0
 20101  1  0  0  0
 21 23  1  0  0  0
 22 28  1  0  0  0
 22 32  2  0  0  0
 26 27  1  0  0  0
 28102  1  0  0  0
 28103  1  0  0  0
 29104  1  0  0  0
 29105  1  0  0  0
 33 34  1  0  0  0
 33 66  1  0  0  0
 33 70  2  0  0  0
 34 36  1  0  0  0
 34 59  1  0  0  0
 34106  1  0  0  0
 35 44  2  0  0  0
 35 45  1  0  0  0
 35 68  1  0  0  0
 36 56  1  0  0  0
 36107  1  0  0  0
 37 39  1  0  0  0
 37 47  1  0  0  0
 37 66  1  0  0  0
 37108  1  0  0  0
 38 43  2  0  0  0
 38 46  1  0  0  0
 38 47  1  0  0  0
 39 64  1  0  0  0
 39 67  2  0  0  0
 40 52  1  0  0  0
 40 53  2  0  0  0
 40 58  1  0  0  0
 41109  1  0  0  0
 41110  1  0  0  0
 41111  1  0  0  0
 41 48  1  0  0  0
 42 43  1  0  0  0
 42 66  1  0  0  0
 42112  1  0  0  0
 42113  1  0  0  0
 43 44  1  0  0  0
 44114  1  0  0  0
 45 46  2  0  0  0
 45115  1  0  0  0
 46116  1  0  0  0
 47117  1  0  0  0
 47118  1  0  0  0
 48 56  1  0  0  0
 48 65  1  0  0  0
 48119  1  0  0  0
 49 50  1  0  0  0
 49 53  1  0  0  0
 49 64  1  0  0  0
 49120  1  0  0  0
 50 51  1  0  0  0
 50121  1  0  0  0
 50122  1  0  0  0
 51 52  1  0  0  0
 51123  1  0  0  0
 51124  1  0  0  0
 52125  1  0  0  0
 52126  1  0  0  0
 53 54  1  0  0  0
 54 55  2  0  0  0
 54127  1  0  0  0
 55 57  1  0  0  0
 55128  1  0  0  0
 56 69  2  0  0  0
 57 58  2  0  0  0
 57129  1  0  0  0
 58130  1  0  0  0
 59 60  1  0  0  0
 59 61  1  0  0  0
 59 62  1  0  0  0
 60131  1  0  0  0
 60132  1  0  0  0
 60133  1  0  0  0
 61134  1  0  0  0
 61135  1  0  0  0
 61136  1  0  0  0
 62137  1  0  0  0
 62138  1  0  0  0
 62139  1  0  0  0
 63 65  1  0  0  0
 63140  1  0  0  0
 63141  1  0  0  0
 63142  1  0  0  0
 64143  1  0  0  0
 65144  1  0  0  0
 68 84  1  0  0  0
 71 74  2  0  0  0
 71 75  1  0  0  0
 71145  1  0  0  0
 72 74  1  0  0  0
 72 76  2  0  0  0
 72146  1  0  0  0
 73 75  2  0  0  0
 73 76  1  0  0  0
 73147  1  0  0  0
 74 78  1  0  0  0
 75 80  1  0  0  0
 76 85  1  0  0  0
 77 80  2  0  0  0
 77148  1  0  0  0
 77149  1  0  0  0
 78 79  2  0  0  0
 78150  1  0  0  0
 79 82  1  0  0  0
 79151  1  0  0  0
 80 81  1  0  0  0
 81152  1  0  0  0
 81153  1  0  0  0
 81154  1  0  0  0
 82 83  1  0  0  0
 82155  1  0  0  0
 82156  1  0  0  0
 83 84  1  0  0  0
 83157  1  0  0  0
 83158  1  0  0  0
 84159  1  0  0  0
 84160  1  0  0  0
 85161  1  0  0  0
M  ISO  4   1 100  68 101  84 101  85 100
M  END
> <chiral flag>
0

> <version>
0

> <s_m_source_file>
/data/baiqing/PycharmProjects/Reinvent-master-3.2/result/LINK_invent/BTK/process_docking_weight1_custom_product_contain_oxygen_bond_distance_aromatic_linkinvent_7_9_3/rearranged_h_0119.sdf

> <i_m_source_file_index>
54

> <r_mmod_Potential_Energy-OPLS-2005>
-3.91026830673218

> <r_mmod_Stretch_Energy-OPLS-2005>
41.9495086669922

> <r_mmod_Bend_Energy-OPLS-2005>
94.6322937011719

> <r_mmod_Torsional_Energy-OPLS-2005>
238.826293945312

> <r_mmod_Improper_Torsional_Energy-OPLS-2005>
3.71888470649719

> <r_mmod_Van_der_Waal_Energy-OPLS-2005>
166.201354980469

> <r_mmod_Electrostatic_Energy-OPLS-2005>
-366.438415527344

> <r_mmod_Solvation_Energy-OPLS-2005>
-198.769561767578

> <b_mmod_Minimization_Converged-OPLS-2005>
0

> <r_mmod_RMS_Derivative-OPLS-2005>
1.15251612663269

$$$$
54
                    3D
 Structure written by MMmdl.
164172  0  0  1  0            999 V2000
  -30.6622  -14.5686   20.4655 C   0  0  0  0  0  0
  -30.4194  -12.3396   19.4344 C   0  0  0  0  0  0
  -29.4958  -12.4734   18.2072 C   0  0  0  0  0  0
  -28.0173  -12.3387   18.6238 C   0  0  0  0  0  0
  -27.6488  -13.2135   19.8529 C   0  0  2  0  0  0
  -28.6942  -13.0694   20.9797 C   0  0  0  0  0  0
  -25.2542  -13.8157   20.5654 C   0  0  0  0  0  0
  -24.1824  -13.0434   20.9208 C   0  0  0  0  0  0
  -24.6385  -11.6905   20.8762 C   0  0  0  0  0  0
  -23.9063  -10.4298   21.0428 C   0  0  0  0  0  0
  -24.3618   -9.4213   21.9202 C   0  0  0  0  0  0
  -23.6293   -8.2245   22.0771 C   0  0  0  0  0  0
  -22.4276   -8.0285   21.3560 C   0  0  0  0  0  0
  -21.9913   -9.0258   20.4658 C   0  0  0  0  0  0
  -22.7244  -10.2135   20.3070 C   0  0  0  0  0  0
  -21.6845   -6.0729   22.5276 C   0  0  0  0  0  0
  -21.4009   -6.5648   23.8212 C   0  0  0  0  0  0
  -21.3655   -5.6800   24.9178 C   0  0  0  0  0  0
  -21.6043   -4.3056   24.7216 C   0  0  0  0  0  0
  -21.8823   -3.8157   23.4345 C   0  0  0  0  0  0
  -21.9194   -4.6969   22.3402 C   0  0  0  0  0  0
  -22.7852  -13.5239   21.1850 C   0  0  0  0  0  0
  -22.1665   -4.2156   21.0970 F   0  0  0  0  0  0
  -21.5623   -3.4540   25.7731 F   0  0  0  0  0  0
  -30.0079  -13.3731   20.3991 N   0  0  0  0  0  0
  -26.2957  -12.9340   20.3275 N   0  0  0  0  0  0
  -25.9316  -11.6505   20.5777 N   0  0  0  0  0  0
  -22.0475  -12.8250   22.0399 N   0  0  0  0  0  0
  -25.4235  -15.1871   20.4011 N   0  0  0  0  0  0
  -31.8394  -14.6673   20.1085 O   0  0  0  0  0  0
  -21.6637   -6.8880   21.4243 O   0  0  0  0  0  0
  -22.3566  -14.5543   20.6688 O   0  0  0  0  0  0
  -24.6224  -31.8622   23.2074 C   0  0  0  0  0  0
  -25.9062  -32.4822   23.8410 C   0  0  1  0  0  0
  -27.2252  -27.3749   20.0980 C   0  0  0  0  0  0
  -25.5886  -33.8625   24.2334 N   0  0  0  0  0  0
  -23.4161  -30.4833   21.5492 C   0  0  2  0  0  0
  -24.8628  -28.9435   20.1094 C   0  0  0  0  0  0
  -22.7455  -29.4638   22.4990 C   0  0  0  0  0  0
  -18.0258  -28.1401   22.8498 C   0  0  0  0  0  0
  -24.1466  -36.7302   23.2648 C   0  0  0  0  0  0
  -25.9533  -30.8068   21.3695 C   0  0  0  0  0  0
  -26.0279  -29.4359   20.7159 C   0  0  0  0  0  0
  -27.2158  -28.6564   20.7112 C   0  0  0  0  0  0
  -26.0482  -26.9149   19.4775 C   0  0  0  0  0  0
  -24.8713  -27.6851   19.4832 C   0  0  0  0  0  0
  -23.6257  -29.8154   20.1643 C   0  0  0  0  0  0
  -25.4099  -36.3128   24.0347 C   0  0  1  0  0  0
  -20.5868  -28.3680   23.1323 C   0  0  2  0  0  0
  -20.6794  -26.9420   22.5416 C   0  0  0  0  0  0
  -19.5764  -26.6391   21.5235 C   0  0  0  0  0  0
  -18.1922  -26.7960   22.1616 C   0  0  0  0  0  0
  -19.1516  -28.8862   23.2901 C   0  0  0  0  0  0
  -18.9438  -30.1472   23.8898 C   0  0  0  0  0  0
  -17.6442  -30.6617   24.0562 C   0  0  0  0  0  0
  -25.9014  -34.9489   23.5140 C   0  0  0  0  0  0
  -16.5332  -29.9111   23.6345 C   0  0  0  0  0  0
  -16.7247  -28.6532   23.0369 C   0  0  0  0  0  0
  -26.4451  -31.6621   25.0759 C   0  0  0  0  0  0
  -25.3697  -31.3743   26.1495 C   0  0  0  0  0  0
  -27.0324  -30.3099   24.6162 C   0  0  0  0  0  0
  -27.6057  -32.4330   25.7481 C   0  0  0  0  0  0
  -27.5589  -37.1815   24.8473 C   0  0  0  0  0  0
  -21.4176  -29.3052   22.3748 N   0  0  0  0  0  0
  -26.4295  -37.3807   23.9409 N   0  0  0  0  0  0
  -24.6834  -31.0655   22.0998 N   0  0  0  0  0  0
  -23.4203  -28.8168   23.3047 O   0  0  0  0  0  0
  -28.3191  -26.5260   20.0961 O   0  0  0  0  0  0
  -26.5577  -34.8945   22.4698 O   0  0  0  0  0  0
  -23.5395  -32.1369   23.7435 O   0  0  0  0  0  0
  -32.1124  -18.5570   21.5933 C   0  0  0  0  0  0
  -31.5987  -17.2703   21.4487 C   0  0  0  0  0  0
  -30.0611  -19.5684   20.6529 C   0  0  0  0  0  0
  -31.3743  -19.6922   21.2157 C   0  0  0  0  0  0
  -29.5790  -18.2094   20.4376 C   0  0  0  0  0  0
  -30.3478  -17.0554   20.8445 C   0  0  0  0  0  0
  -29.2139  -20.8038   20.3269 C   0  0  0  0  0  0
  -29.5364  -22.1266   20.1856 C   0  0  0  0  0  0
  -28.3737  -25.6473   21.1656 C   0  0  0  0  0  0
  -28.4723  -24.2840   21.1770 C   0  0  0  0  0  0
  -32.0760  -21.0125   21.4911 C   0  0  0  0  0  0
  -28.4737  -23.5755   22.5269 C   0  0  0  0  0  0
  -28.5020  -17.7710   18.1952 C   0  0  0  0  0  0
  -28.2625  -17.9449   19.7013 C   0  0  0  0  0  0
  -28.5675  -23.3182   19.9697 C   0  0  0  0  0  0
  -29.8992  -15.6773   20.6992 N   0  0  0  0  0  0
  -31.4627  -12.4384   19.1281 H   0  0  0  0  0  0
  -30.3317  -11.3470   19.8817 H   0  0  0  0  0  0
  -29.7463  -11.7120   17.4673 H   0  0  0  0  0  0
  -29.6591  -13.4377   17.7228 H   0  0  0  0  0  0
  -27.8383  -11.2867   18.8532 H   0  0  0  0  0  0
  -27.3658  -12.5786   17.7822 H   0  0  0  0  0  0
  -27.6687  -14.2479   19.5103 H   0  0  0  0  0  0
  -28.6886  -12.0543   21.3834 H   0  0  0  0  0  0
  -28.4617  -13.7311   21.8152 H   0  0  0  0  0  0
  -25.2757   -9.5674   22.4780 H   0  0  0  0  0  0
  -23.9988   -7.4630   22.7495 H   0  0  0  0  0  0
  -21.0846   -8.8791   19.8956 H   0  0  0  0  0  0
  -22.3728  -10.9676   19.6179 H   0  0  0  0  0  0
  -21.2006   -7.6153   23.9716 H   0  0  0  0  0  0
  -21.1466   -6.0524   25.9070 H   0  0  0  0  0  0
  -22.0605   -2.7619   23.2835 H   0  0  0  0  0  0
  -22.4053  -11.9895   22.4776 H   0  0  0  0  0  0
  -21.1089  -13.1312   22.2573 H   0  0  0  0  0  0
  -24.6484  -15.8349   20.4943 H   0  0  0  0  0  0
  -26.2453  -15.6125   19.9940 H   0  0  0  0  0  0
  -26.7145  -32.5504   23.1181 H   0  0  0  0  0  0
  -25.0147  -33.9775   25.0574 H   0  0  0  0  0  0
  -22.7081  -31.3021   21.4115 H   0  0  0  0  0  0
  -23.3762  -35.9594   23.3307 H   0  0  0  0  0  0
  -24.3607  -36.8925   22.2075 H   0  0  0  0  0  0
  -23.7172  -37.6503   23.6627 H   0  0  0  0  0  0
  -26.0717  -31.5644   20.5935 H   0  0  0  0  0  0
  -26.8419  -30.8638   21.9879 H   0  0  0  0  0  0
  -28.1135  -29.0273   21.1851 H   0  0  0  0  0  0
  -26.0472  -25.9472   18.9932 H   0  0  0  0  0  0
  -23.9778  -27.3066   19.0033 H   0  0  0  0  0  0
  -23.7322  -30.5888   19.4033 H   0  0  0  0  0  0
  -22.7485  -29.2333   19.8766 H   0  0  0  0  0  0
  -25.1284  -36.2000   25.0843 H   0  0  0  0  0  0
  -20.9942  -28.3213   24.1452 H   0  0  0  0  0  0
  -20.5752  -26.2268   23.3592 H   0  0  0  0  0  0
  -21.6653  -26.7508   22.1164 H   0  0  0  0  0  0
  -19.6915  -25.6294   21.1284 H   0  0  0  0  0  0
  -19.6717  -27.3210   20.6777 H   0  0  0  0  0  0
  -17.4210  -26.6711   21.3986 H   0  0  0  0  0  0
  -18.0275  -26.0108   22.9004 H   0  0  0  0  0  0
  -19.7906  -30.7297   24.2271 H   0  0  0  0  0  0
  -17.4985  -31.6296   24.5164 H   0  0  0  0  0  0
  -15.5340  -30.3013   23.7700 H   0  0  0  0  0  0
  -15.8632  -28.0860   22.7100 H   0  0  0  0  0  0
  -24.5838  -30.7132   25.7817 H   0  0  0  0  0  0
  -24.8876  -32.2893   26.4949 H   0  0  0  0  0  0
  -25.8000  -30.8876   27.0255 H   0  0  0  0  0  0
  -26.2917  -29.6841   24.1180 H   0  0  0  0  0  0
  -27.4132  -29.7360   25.4619 H   0  0  0  0  0  0
  -27.8704  -30.4525   23.9350 H   0  0  0  0  0  0
  -27.2756  -33.3670   26.2041 H   0  0  0  0  0  0
  -28.3833  -32.6835   25.0250 H   0  0  0  0  0  0
  -28.0738  -31.8440   26.5379 H   0  0  0  0  0  0
  -28.2621  -38.0111   24.7569 H   0  0  0  0  0  0
  -28.1076  -36.2664   24.6217 H   0  0  0  0  0  0
  -27.2313  -37.1375   25.8879 H   0  0  0  0  0  0
  -20.9326  -29.8733   21.6940 H   0  0  0  0  0  0
  -26.0198  -38.2887   24.1415 H   0  0  0  0  0  0
  -33.0985  -18.6561   22.0232 H   0  0  0  0  0  0
  -32.2060  -16.4475   21.7997 H   0  0  0  0  0  0
  -28.1558  -20.6201   20.2441 H   0  0  0  0  0  0
  -30.5561  -22.4649   20.2250 H   0  0  0  0  0  0
  -28.3188  -26.1980   22.0961 H   0  0  0  0  0  0
  -32.9813  -20.8738   22.0840 H   0  0  0  0  0  0
  -31.4414  -21.6910   22.0598 H   0  0  0  0  0  0
  -32.3952  -21.4737   20.5571 H   0  0  0  0  0  0
  -28.1538  -24.2369   23.3333 H   0  0  0  0  0  0
  -29.4667  -23.2033   22.7778 H   0  0  0  0  0  0
  -27.7896  -22.7267   22.5176 H   0  0  0  0  0  0
  -27.5883  -17.4988   17.6650 H   0  0  0  0  0  0
  -29.2335  -16.9835   18.0106 H   0  0  0  0  0  0
  -28.8849  -18.6892   17.7489 H   0  0  0  0  0  0
  -27.5132  -18.7133   19.8723 H   0  0  0  0  0  0
  -27.7944  -17.0431   20.0944 H   0  0  0  0  0  0
  -27.5728  -22.9134   19.7742 H   0  0  0  0  0  0
  -28.8614  -23.8777   19.0803 H   0  0  0  0  0  0
  -28.9075  -15.5132   20.7665 H   0  0  0  0  0  0
  1 25  1  0  0  0
  1 30  2  0  0  0
  1 86  1  0  0  0
  2  3  1  0  0  0
  2 25  1  0  0  0
  2 87  1  0  0  0
  2 88  1  0  0  0
  3  4  1  0  0  0
  3 89  1  0  0  0
  3 90  1  0  0  0
  4  5  1  0  0  0
  4 91  1  0  0  0
  4 92  1  0  0  0
  5  6  1  0  0  0
  5 26  1  0  0  0
  5 93  1  0  0  0
  6 25  1  0  0  0
  6 94  1  0  0  0
  6 95  1  0  0  0
  7  8  2  0  0  0
  7 26  1  0  0  0
  7 29  1  0  0  0
  8  9  1  0  0  0
  8 22  1  0  0  0
  9 10  1  0  0  0
  9 27  2  0  0  0
 10 11  2  0  0  0
 10 15  1  0  0  0
 11 12  1  0  0  0
 11 96  1  0  0  0
 12 13  2  0  0  0
 12 97  1  0  0  0
 13 14  1  0  0  0
 13 31  1  0  0  0
 14 15  2  0  0  0
 14 98  1  0  0  0
 15 99  1  0  0  0
 16 17  2  0  0  0
 16 21  1  0  0  0
 16 31  1  0  0  0
 17 18  1  0  0  0
 17100  1  0  0  0
 18 19  2  0  0  0
 18101  1  0  0  0
 19 20  1  0  0  0
 19 24  1  0  0  0
 20 21  2  0  0  0
 20102  1  0  0  0
 21 23  1  0  0  0
 22 28  1  0  0  0
 22 32  2  0  0  0
 26 27  1  0  0  0
 28103  1  0  0  0
 28104  1  0  0  0
 29105  1  0  0  0
 29106  1  0  0  0
 33 34  1  0  0  0
 33 66  1  0  0  0
 33 70  2  0  0  0
 34 36  1  0  0  0
 34 59  1  0  0  0
 34107  1  0  0  0
 35 44  2  0  0  0
 35 45  1  0  0  0
 35 68  1  0  0  0
 36 56  1  0  0  0
 36108  1  0  0  0
 37 39  1  0  0  0
 37 47  1  0  0  0
 37 66  1  0  0  0
 37109  1  0  0  0
 38 43  2  0  0  0
 38 46  1  0  0  0
 38 47  1  0  0  0
 39 64  1  0  0  0
 39 67  2  0  0  0
 40 52  1  0  0  0
 40 53  2  0  0  0
 40 58  1  0  0  0
 41110  1  0  0  0
 41111  1  0  0  0
 41112  1  0  0  0
 41 48  1  0  0  0
 42 43  1  0  0  0
 42 66  1  0  0  0
 42113  1  0  0  0
 42114  1  0  0  0
 43 44  1  0  0  0
 44115  1  0  0  0
 45 46  2  0  0  0
 45116  1  0  0  0
 46117  1  0  0  0
 47118  1  0  0  0
 47119  1  0  0  0
 48 56  1  0  0  0
 48 65  1  0  0  0
 48120  1  0  0  0
 49 50  1  0  0  0
 49 53  1  0  0  0
 49 64  1  0  0  0
 49121  1  0  0  0
 50 51  1  0  0  0
 50122  1  0  0  0
 50123  1  0  0  0
 51 52  1  0  0  0
 51124  1  0  0  0
 51125  1  0  0  0
 52126  1  0  0  0
 52127  1  0  0  0
 53 54  1  0  0  0
 54 55  2  0  0  0
 54128  1  0  0  0
 55 57  1  0  0  0
 55129  1  0  0  0
 56 69  2  0  0  0
 57 58  2  0  0  0
 57130  1  0  0  0
 58131  1  0  0  0
 59 60  1  0  0  0
 59 61  1  0  0  0
 59 62  1  0  0  0
 60132  1  0  0  0
 60133  1  0  0  0
 60134  1  0  0  0
 61135  1  0  0  0
 61136  1  0  0  0
 61137  1  0  0  0
 62138  1  0  0  0
 62139  1  0  0  0
 62140  1  0  0  0
 63 65  1  0  0  0
 63141  1  0  0  0
 63142  1  0  0  0
 63143  1  0  0  0
 64144  1  0  0  0
 65145  1  0  0  0
 68 79  1  0  0  0
 71 72  2  0  0  0
 71 74  1  0  0  0
 71146  1  0  0  0
 72 76  1  0  0  0
 72147  1  0  0  0
 73 74  2  0  0  0
 73 75  1  0  0  0
 73 77  1  0  0  0
 74 81  1  0  0  0
 75 76  2  0  0  0
 75 84  1  0  0  0
 76 86  1  0  0  0
 77 78  2  0  0  0
 77148  1  0  0  0
 78 85  1  0  0  0
 78149  1  0  0  0
 79 80  2  0  0  0
 79150  1  0  0  0
 80 82  1  0  0  0
 80 85  1  0  0  0
 81151  1  0  0  0
 81152  1  0  0  0
 81153  1  0  0  0
 82154  1  0  0  0
 82155  1  0  0  0
 82156  1  0  0  0
 83 84  1  0  0  0
 83157  1  0  0  0
 83158  1  0  0  0
 83159  1  0  0  0
 84160  1  0  0  0
 84161  1  0  0  0
 85162  1  0  0  0
 85163  1  0  0  0
 86164  1  0  0  0
M  ISO  4   1 100  68 101  79 101  86 100
M  END
> <chiral flag>
0

> <version>
0

> <s_m_source_file>
/data/baiqing/PycharmProjects/Reinvent-master-3.2/result/LINK_invent/BTK/process_docking_weight1_custom_product_contain_oxygen_bond_distance_aromatic_linkinvent_7_9_3/rearranged_h_0119.sdf

> <i_m_source_file_index>
55

> <r_mmod_Potential_Energy-OPLS-2005>
63.9589653015137

> <r_mmod_Stretch_Energy-OPLS-2005>
68.2939529418945

> <r_mmod_Bend_Energy-OPLS-2005>
128.119567871094

> <r_mmod_Torsional_Energy-OPLS-2005>
236.543884277344

> <r_mmod_Improper_Torsional_Energy-OPLS-2005>
6.51966619491577

> <r_mmod_Van_der_Waal_Energy-OPLS-2005>
158.115859985352

> <r_mmod_Electrostatic_Energy-OPLS-2005>
-375.715484619141

> <r_mmod_Solvation_Energy-OPLS-2005>
-191.113052368164

> <b_mmod_Minimization_Converged-OPLS-2005>
0

> <r_mmod_RMS_Derivative-OPLS-2005>
3.92122483253479

$$$$
55
                    3D
 Structure written by MMmdl.
154162  0  0  1  0            999 V2000
  -29.8039  -14.7116   19.9348 C   0  0  0  0  0  0
  -30.4573  -12.4066   19.3670 C   0  0  0  0  0  0
  -29.4145  -12.0647   18.2733 C   0  0  0  0  0  0
  -28.0164  -11.7031   18.9491 C   0  0  0  0  0  0
  -27.6924  -12.6960   20.1165 C   0  0  2  0  0  0
  -28.8409  -12.8758   21.0961 C   0  0  0  0  0  0
  -24.8852  -14.6553   20.4915 C   0  0  0  0  0  0
  -24.2434  -14.2116   20.7360 C   0  0  0  0  0  0
  -25.4645  -12.2899   20.8656 C   0  0  0  0  0  0
  -24.5792  -10.6186   20.9658 C   0  0  0  0  0  0
  -24.8543   -9.4615   21.8011 C   0  0  0  0  0  0
  -24.0057   -8.2831   22.0252 C   0  0  0  0  0  0
  -22.7333   -8.0874   21.4097 C   0  0  0  0  0  0
  -22.3238   -9.1679   20.6555 C   0  0  0  0  0  0
  -23.1486  -10.3184   20.5971 C   0  0  0  0  0  0
  -21.7947   -6.1307   22.5380 C   0  0  0  0  0  0
  -21.4767   -6.6005   23.8303 C   0  0  0  0  0  0
  -21.3838   -5.6993   24.9122 C   0  0  0  0  0  0
  -21.5969   -4.3227   24.7076 C   0  0  0  0  0  0
  -21.8686   -3.8419   23.4147 C   0  0  0  0  0  0
  -21.9519   -4.7394   22.3328 C   0  0  0  0  0  0
  -22.5870  -14.5116   20.7793 C   0  0  0  0  0  0
  -22.1854   -4.2545   21.0893 F   0  0  0  0  0  0
  -21.5399   -3.4614   25.7521 F   0  0  0  0  0  0
  -29.8477  -13.4057   20.2625 N   0  0  0  0  0  0
  -26.2267  -13.1461   20.7647 N   0  0  0  0  0  0
  -26.3925  -12.1245   21.5273 N   0  0  0  0  0  0
  -21.6341  -13.7656   21.4269 N   0  0  0  0  0  0
  -24.7142  -15.9820   19.9598 N   0  0  0  0  0  0
  -30.9532  -15.2146   19.8682 O   0  0  0  0  0  0
  -21.8790   -6.9850   21.4599 O   0  0  0  0  0  0
  -22.0976  -15.4102   20.1641 O   0  0  0  0  0  0
  -24.7019  -31.7731   23.1397 C   0  0  0  0  0  0
  -25.9537  -32.4289   23.7972 C   0  0  1  0  0  0
  -26.8741  -26.2784   20.4396 C   0  0  0  0  0  0
  -25.6051  -33.8148   24.1816 N   0  0  0  0  0  0
  -23.5267  -30.3845   21.4953 C   0  0  2  0  0  0
  -24.9366  -28.6635   20.1155 C   0  0  0  0  0  0
  -22.7787  -29.4212   22.4588 C   0  0  0  0  0  0
  -18.0336  -28.1419   22.8446 C   0  0  0  0  0  0
  -24.1497  -36.7074   23.2659 C   0  0  0  0  0  0
  -26.1086  -30.3665   21.4701 C   0  0  0  0  0  0
  -26.1050  -28.8925   20.8466 C   0  0  0  0  0  0
  -27.0695  -27.7277   20.9699 C   0  0  0  0  0  0
  -25.7891  -26.3776   19.5365 C   0  0  0  0  0  0
  -24.8549  -27.4528   19.4101 C   0  0  0  0  0  0
  -23.7892  -29.6911   20.1236 C   0  0  0  0  0  0
  -25.4159  -36.2797   24.0257 C   0  0  1  0  0  0
  -20.5978  -28.3791   23.1085 C   0  0  2  0  0  0
  -20.6792  -26.9436   22.5391 C   0  0  0  0  0  0
  -19.5774  -26.6357   21.5204 C   0  0  0  0  0  0
  -18.1959  -26.7941   22.1611 C   0  0  0  0  0  0
  -19.1609  -28.8931   23.2745 C   0  0  0  0  0  0
  -18.9524  -30.1508   23.8806 C   0  0  0  0  0  0
  -17.6519  -30.6605   24.0547 C   0  0  0  0  0  0
  -25.9164  -34.9192   23.4886 C   0  0  0  0  0  0
  -16.5403  -29.9090   23.6358 C   0  0  0  0  0  0
  -16.7318  -28.6506   23.0379 C   0  0  0  0  0  0
  -26.4636  -31.6469   25.0719 C   0  0  0  0  0  0
  -25.3641  -31.3903   26.1298 C   0  0  0  0  0  0
  -27.0634  -30.2772   24.6888 C   0  0  0  0  0  0
  -27.6014  -32.4418   25.7551 C   0  0  0  0  0  0
  -27.5547  -37.1703   24.8465 C   0  0  0  0  0  0
  -21.4426  -29.3015   22.3366 N   0  0  0  0  0  0
  -26.4253  -37.3590   23.9406 N   0  0  0  0  0  0
  -24.8082  -30.8889   22.0830 N   0  0  0  0  0  0
  -23.4154  -28.7820   23.2999 O   0  0  0  0  0  0
  -27.4955  -24.7968   20.7079 O   0  0  0  0  0  0
  -26.5826  -34.8821   22.4521 O   0  0  0  0  0  0
  -23.6008  -32.1008   23.6174 O   0  0  0  0  0  0
  -25.2840  -14.1214   22.7667 C   0  0  0  0  0  0
  -23.7354  -12.6565   22.0974 C   0  0  0  0  0  0
  -25.5327  -13.6272   18.6121 C   0  0  0  0  0  0
  -26.6455  -15.4112   21.6382 C   0  0  0  0  0  0
  -23.8341  -12.5474   19.4491 C   0  0  0  0  0  0
  -26.9543  -15.0043   19.6703 C   0  0  0  0  0  0
  -26.8490  -17.3891   21.7974 C   0  0  0  0  0  0
  -26.9146  -18.8975   21.1436 C   0  0  0  0  0  0
  -22.8038  -12.0947   18.4037 C   0  0  0  0  0  0
  -27.2241  -20.9024   21.3756 C   0  0  0  0  0  0
  -27.0035  -22.9224   20.6599 C   0  0  0  0  0  0
  -28.5192  -15.2798   19.4558 N   0  0  0  0  0  0
  -31.3747  -12.7885   18.9158 H   0  0  0  0  0  0
  -30.7377  -11.5139   19.9276 H   0  0  0  0  0  0
  -29.7671  -11.2282   17.6692 H   0  0  0  0  0  0
  -29.3062  -12.9047   17.5829 H   0  0  0  0  0  0
  -28.1044  -10.7112   19.3942 H   0  0  0  0  0  0
  -27.2258  -11.5901   18.1976 H   0  0  0  0  0  0
  -27.8068  -13.1510   19.1682 H   0  0  0  0  0  0
  -29.1413  -11.9283   21.5469 H   0  0  0  0  0  0
  -28.6087  -13.5640   21.9107 H   0  0  0  0  0  0
  -25.7944   -9.4854   22.3334 H   0  0  0  0  0  0
  -24.3873   -7.5041   22.6705 H   0  0  0  0  0  0
  -21.3170   -9.1924   20.2618 H   0  0  0  0  0  0
  -22.4316  -11.0934   20.4369 H   0  0  0  0  0  0
  -21.3188   -7.6557   23.9971 H   0  0  0  0  0  0
  -21.1605   -6.0654   25.9033 H   0  0  0  0  0  0
  -22.0115   -2.7849   23.2480 H   0  0  0  0  0  0
  -21.9149  -12.9733   21.9816 H   0  0  0  0  0  0
  -20.6601  -14.0215   21.3736 H   0  0  0  0  0  0
  -23.7850  -16.3814   19.8718 H   0  0  0  0  0  0
  -25.4491  -16.5411   19.5475 H   0  0  0  0  0  0
  -26.7601  -32.4627   23.0643 H   0  0  0  0  0  0
  -25.0081  -33.9150   24.9894 H   0  0  0  0  0  0
  -22.8696  -31.2357   21.3037 H   0  0  0  0  0  0
  -23.3783  -35.9377   23.3248 H   0  0  0  0  0  0
  -24.3551  -36.8826   22.2090 H   0  0  0  0  0  0
  -23.7239  -37.6215   23.6802 H   0  0  0  0  0  0
  -26.3648  -31.0491   20.6591 H   0  0  0  0  0  0
  -26.9519  -30.4307   22.1435 H   0  0  0  0  0  0
  -27.9135  -27.8808   21.6282 H   0  0  0  0  0  0
  -25.5410  -25.4763   18.9943 H   0  0  0  0  0  0
  -23.9932  -27.2847   18.7772 H   0  0  0  0  0  0
  -24.0308  -30.4525   19.3808 H   0  0  0  0  0  0
  -22.8763  -29.2133   19.7635 H   0  0  0  0  0  0
  -25.1384  -36.1514   25.0741 H   0  0  0  0  0  0
  -21.0063  -28.3436   24.1212 H   0  0  0  0  0  0
  -20.5618  -26.2440   23.3676 H   0  0  0  0  0  0
  -21.6657  -26.7343   22.1246 H   0  0  0  0  0  0
  -19.6929  -25.6241   21.1306 H   0  0  0  0  0  0
  -19.6709  -27.3109   20.6688 H   0  0  0  0  0  0
  -17.4227  -26.6681   21.4017 H   0  0  0  0  0  0
  -18.0345  -26.0095   22.9020 H   0  0  0  0  0  0
  -19.8007  -30.7333   24.2138 H   0  0  0  0  0  0
  -17.5081  -31.6276   24.5166 H   0  0  0  0  0  0
  -15.5403  -30.2977   23.7723 H   0  0  0  0  0  0
  -15.8715  -28.0794   22.7158 H   0  0  0  0  0  0
  -24.5841  -30.7219   25.7631 H   0  0  0  0  0  0
  -24.8825  -32.3170   26.4428 H   0  0  0  0  0  0
  -25.7770  -30.9280   27.0273 H   0  0  0  0  0  0
  -26.3397  -29.6244   24.1998 H   0  0  0  0  0  0
  -27.4027  -29.7389   25.5751 H   0  0  0  0  0  0
  -27.9399  -30.3826   24.0492 H   0  0  0  0  0  0
  -27.2489  -33.3816   26.1816 H   0  0  0  0  0  0
  -28.3986  -32.6827   25.0507 H   0  0  0  0  0  0
  -28.0498  -31.8777   26.5741 H   0  0  0  0  0  0
  -28.2516  -38.0041   24.7510 H   0  0  0  0  0  0
  -28.1089  -36.2559   24.6296 H   0  0  0  0  0  0
  -27.2255  -37.1333   25.8863 H   0  0  0  0  0  0
  -20.9738  -29.8682   21.6438 H   0  0  0  0  0  0
  -26.0049  -38.2617   24.1433 H   0  0  0  0  0  0
  -25.1806  -14.3960   23.8069 H   0  0  0  0  0  0
  -23.0332  -12.1686   22.7626 H   0  0  0  0  0  0
  -25.7103  -13.4886   17.5547 H   0  0  0  0  0  0
  -27.0217  -17.5401   22.8534 H   0  0  0  0  0  0
  -26.7531  -18.7852   20.0808 H   0  0  0  0  0  0
  -21.7790  -12.2150   18.7576 H   0  0  0  0  0  0
  -22.9665  -11.0667   18.0773 H   0  0  0  0  0  0
  -22.9013  -12.7282   17.5230 H   0  0  0  0  0  0
  -28.3124  -20.8654   21.4188 H   0  0  0  0  0  0
  -26.9383  -21.0100   22.4214 H   0  0  0  0  0  0
  -25.9202  -23.0334   20.7016 H   0  0  0  0  0  0
  -27.1939  -22.7592   19.5982 H   0  0  0  0  0  0
  -28.6857  -16.1942   19.0609 H   0  0  0  0  0  0
  1 25  1  0  0  0
  1 30  2  0  0  0
  1 82  1  0  0  0
  2  3  1  0  0  0
  2 25  1  0  0  0
  2 83  1  0  0  0
  2 84  1  0  0  0
  3  4  1  0  0  0
  3 85  1  0  0  0
  3 86  1  0  0  0
  4  5  1  0  0  0
  4 87  1  0  0  0
  4 88  1  0  0  0
  5  6  1  0  0  0
  5 26  1  0  0  0
  5 89  1  0  0  0
  6 25  1  0  0  0
  6 90  1  0  0  0
  6 91  1  0  0  0
  7  8  2  0  0  0
  7 26  1  0  0  0
  7 29  1  0  0  0
  8  9  1  0  0  0
  8 22  1  0  0  0
  9 10  1  0  0  0
  9 27  2  0  0  0
 10 11  2  0  0  0
 10 15  1  0  0  0
 11 12  1  0  0  0
 11 92  1  0  0  0
 12 13  2  0  0  0
 12 93  1  0  0  0
 13 14  1  0  0  0
 13 31  1  0  0  0
 14 15  2  0  0  0
 14 94  1  0  0  0
 15 95  1  0  0  0
 16 17  2  0  0  0
 16 21  1  0  0  0
 16 31  1  0  0  0
 17 18  1  0  0  0
 17 96  1  0  0  0
 18 19  2  0  0  0
 18 97  1  0  0  0
 19 20  1  0  0  0
 19 24  1  0  0  0
 20 21  2  0  0  0
 20 98  1  0  0  0
 21 23  1  0  0  0
 22 28  1  0  0  0
 22 32  2  0  0  0
 26 27  1  0  0  0
 28 99  1  0  0  0
 28100  1  0  0  0
 29101  1  0  0  0
 29102  1  0  0  0
 33 34  1  0  0  0
 33 66  1  0  0  0
 33 70  2  0  0  0
 34 36  1  0  0  0
 34 59  1  0  0  0
 34103  1  0  0  0
 35 44  2  0  0  0
 35 45  1  0  0  0
 35 68  1  0  0  0
 36 56  1  0  0  0
 36104  1  0  0  0
 37 39  1  0  0  0
 37 47  1  0  0  0
 37 66  1  0  0  0
 37105  1  0  0  0
 38 43  2  0  0  0
 38 46  1  0  0  0
 38 47  1  0  0  0
 39 64  1  0  0  0
 39 67  2  0  0  0
 40 52  1  0  0  0
 40 53  2  0  0  0
 40 58  1  0  0  0
 41106  1  0  0  0
 41107  1  0  0  0
 41108  1  0  0  0
 41 48  1  0  0  0
 42 43  1  0  0  0
 42 66  1  0  0  0
 42109  1  0  0  0
 42110  1  0  0  0
 43 44  1  0  0  0
 44111  1  0  0  0
 45 46  2  0  0  0
 45112  1  0  0  0
 46113  1  0  0  0
 47114  1  0  0  0
 47115  1  0  0  0
 48 56  1  0  0  0
 48 65  1  0  0  0
 48116  1  0  0  0
 49 50  1  0  0  0
 49 53  1  0  0  0
 49 64  1  0  0  0
 49117  1  0  0  0
 50 51  1  0  0  0
 50118  1  0  0  0
 50119  1  0  0  0
 51 52  1  0  0  0
 51120  1  0  0  0
 51121  1  0  0  0
 52122  1  0  0  0
 52123  1  0  0  0
 53 54  1  0  0  0
 54 55  2  0  0  0
 54124  1  0  0  0
 55 57  1  0  0  0
 55125  1  0  0  0
 56 69  2  0  0  0
 57 58  2  0  0  0
 57126  1  0  0  0
 58127  1  0  0  0
 59 60  1  0  0  0
 59 61  1  0  0  0
 59 62  1  0  0  0
 60128  1  0  0  0
 60129  1  0  0  0
 60130  1  0  0  0
 61131  1  0  0  0
 61132  1  0  0  0
 61133  1  0  0  0
 62134  1  0  0  0
 62135  1  0  0  0
 62136  1  0  0  0
 63 65  1  0  0  0
 63137  1  0  0  0
 63138  1  0  0  0
 63139  1  0  0  0
 64140  1  0  0  0
 65141  1  0  0  0
 68 81  1  0  0  0
 71 72  2  0  0  0
 71 74  1  0  0  0
 71142  1  0  0  0
 72 75  1  0  0  0
 72143  1  0  0  0
 73 75  2  0  0  0
 73 76  1  0  0  0
 73144  1  0  0  0
 74 76  2  0  0  0
 74 77  1  0  0  0
 75 79  1  0  0  0
 76 82  1  0  0  0
 77 78  2  0  0  0
 77145  1  0  0  0
 78 80  1  0  0  0
 78146  1  0  0  0
 79147  1  0  0  0
 79148  1  0  0  0
 79149  1  0  0  0
 80 81  1  0  0  0
 80150  1  0  0  0
 80151  1  0  0  0
 81152  1  0  0  0
 81153  1  0  0  0
 82154  1  0  0  0
M  ISO  4   1 100  68 101  81 101  82 100
M  END
> <chiral flag>
0

> <version>
0

> <s_m_source_file>
/data/baiqing/PycharmProjects/Reinvent-master-3.2/result/LINK_invent/BTK/process_docking_weight1_custom_product_contain_oxygen_bond_distance_aromatic_linkinvent_7_9_3/rearranged_h_0119.sdf

> <i_m_source_file_index>
56

> <r_mmod_Potential_Energy-OPLS-2005>
23609.54296875

> <r_mmod_Stretch_Energy-OPLS-2005>
14618.068359375

> <r_mmod_Bend_Energy-OPLS-2005>
1662.26135253906

> <r_mmod_Torsional_Energy-OPLS-2005>
589.94677734375

> <r_mmod_Improper_Torsional_Energy-OPLS-2005>
50.4350776672363

> <r_mmod_Van_der_Waal_Energy-OPLS-2005>
4779.26123046875

> <r_mmod_Electrostatic_Energy-OPLS-2005>
-384.385192871094

> <r_mmod_Solvation_Energy-OPLS-2005>
-196.660293579102

> <b_mmod_Minimization_Converged-OPLS-2005>
0

> <r_mmod_RMS_Derivative-OPLS-2005>
3.65131831169128

$$$$
56
                    3D
 Structure written by MMmdl.
161169  0  0  1  0            999 V2000
  -30.7375  -14.4667   20.5705 C   0  0  0  0  0  0
  -30.4100  -12.3043   19.4297 C   0  0  0  0  0  0
  -29.4911  -12.5029   18.2089 C   0  0  0  0  0  0
  -28.0132  -12.3657   18.6212 C   0  0  0  0  0  0
  -27.6589  -13.2145   19.8721 C   0  0  2  0  0  0
  -28.7016  -13.0235   20.9977 C   0  0  0  0  0  0
  -25.2572  -13.8181   20.5690 C   0  0  0  0  0  0
  -24.1830  -13.0446   20.9183 C   0  0  0  0  0  0
  -24.6394  -11.6916   20.8736 C   0  0  0  0  0  0
  -23.9063  -10.4297   21.0401 C   0  0  0  0  0  0
  -24.3616   -9.4211   21.9178 C   0  0  0  0  0  0
  -23.6292   -8.2245   22.0751 C   0  0  0  0  0  0
  -22.4274   -8.0283   21.3545 C   0  0  0  0  0  0
  -21.9908   -9.0257   20.4646 C   0  0  0  0  0  0
  -22.7235  -10.2136   20.3052 C   0  0  0  0  0  0
  -21.6854   -6.0734   22.5279 C   0  0  0  0  0  0
  -21.4015   -6.5636   23.8212 C   0  0  0  0  0  0
  -21.3660   -5.6791   24.9174 C   0  0  0  0  0  0
  -21.6045   -4.3054   24.7225 C   0  0  0  0  0  0
  -21.8819   -3.8146   23.4346 C   0  0  0  0  0  0
  -21.9193   -4.6963   22.3402 C   0  0  0  0  0  0
  -22.7851  -13.5239   21.1844 C   0  0  0  0  0  0
  -22.1662   -4.2147   21.0980 F   0  0  0  0  0  0
  -21.5627   -3.4538   25.7738 F   0  0  0  0  0  0
  -30.0322  -13.3090   20.4384 N   0  0  0  0  0  0
  -26.3014  -12.9366   20.3366 N   0  0  0  0  0  0
  -25.9325  -11.6518   20.5768 N   0  0  0  0  0  0
  -22.0492  -12.8232   22.0403 N   0  0  0  0  0  0
  -25.4290  -15.1901   20.4099 N   0  0  0  0  0  0
  -31.8573  -14.6024   20.0711 O   0  0  0  0  0  0
  -21.6640   -6.8878   21.4241 O   0  0  0  0  0  0
  -22.3535  -14.5542   20.6689 O   0  0  0  0  0  0
  -24.6159  -31.8679   23.2105 C   0  0  0  0  0  0
  -25.9050  -32.4822   23.8400 C   0  0  1  0  0  0
  -27.2249  -27.4262   20.1015 C   0  0  0  0  0  0
  -25.5906  -33.8619   24.2334 N   0  0  0  0  0  0
  -23.4044  -30.4929   21.5509 C   0  0  2  0  0  0
  -24.8511  -28.9642   20.1089 C   0  0  0  0  0  0
  -22.7422  -29.4659   22.4981 C   0  0  0  0  0  0
  -18.0275  -28.1374   22.8488 C   0  0  0  0  0  0
  -24.1489  -36.7315   23.2637 C   0  0  0  0  0  0
  -25.9352  -30.8323   21.3654 C   0  0  0  0  0  0
  -26.0132  -29.4684   20.7086 C   0  0  0  0  0  0
  -27.2071  -28.7075   20.7011 C   0  0  0  0  0  0
  -26.0531  -26.9512   19.4735 C   0  0  0  0  0  0
  -24.8667  -27.7056   19.4854 C   0  0  0  0  0  0
  -23.6127  -29.8298   20.1637 C   0  0  0  0  0  0
  -25.4107  -36.3113   24.0341 C   0  0  1  0  0  0
  -20.5867  -28.3663   23.1314 C   0  0  2  0  0  0
  -20.6763  -26.9398   22.5417 C   0  0  0  0  0  0
  -19.5745  -26.6383   21.5209 C   0  0  0  0  0  0
  -18.1922  -26.7921   22.1619 C   0  0  0  0  0  0
  -19.1524  -28.8835   23.2897 C   0  0  0  0  0  0
  -18.9452  -30.1442   23.8907 C   0  0  0  0  0  0
  -17.6454  -30.6582   24.0563 C   0  0  0  0  0  0
  -25.9035  -34.9476   23.5134 C   0  0  0  0  0  0
  -16.5344  -29.9083   23.6325 C   0  0  0  0  0  0
  -16.7264  -28.6500   23.0345 C   0  0  0  0  0  0
  -26.4473  -31.6594   25.0728 C   0  0  0  0  0  0
  -25.3739  -31.3703   26.1479 C   0  0  0  0  0  0
  -27.0292  -30.3033   24.6100 C   0  0  0  0  0  0
  -27.6059  -32.4302   25.7482 C   0  0  0  0  0  0
  -27.5585  -37.1808   24.8462 C   0  0  0  0  0  0
  -21.4147  -29.3031   22.3721 N   0  0  0  0  0  0
  -26.4294  -37.3797   23.9414 N   0  0  0  0  0  0
  -24.6700  -31.0781   22.1005 N   0  0  0  0  0  0
  -23.4192  -28.8197   23.3021 O   0  0  0  0  0  0
  -28.3446  -26.6207   20.1474 O   0  0  0  0  0  0
  -26.5593  -34.8927   22.4692 O   0  0  0  0  0  0
  -23.5349  -32.1429   23.7497 O   0  0  0  0  0  0
  -29.7375  -17.9669   21.1674 C   0  0  0  0  0  0
  -31.5910  -19.4894   21.5766 C   0  0  0  0  0  0
  -31.9651  -17.0874   21.6134 C   0  0  0  0  0  0
  -30.2183  -19.2988   21.2997 C   0  0  0  0  0  0
  -30.6047  -16.8495   21.3002 C   0  0  0  0  0  0
  -32.4706  -18.4031   21.7365 C   0  0  0  0  0  0
  -29.2928  -20.4594   21.1828 C   0  0  0  0  0  0
  -29.6070  -21.7709   21.3194 C   0  0  0  0  0  0
  -36.1184  -18.2341   22.3120 C   0  0  0  0  0  0
  -28.6042  -22.9227   21.2904 C   0  0  0  0  0  0
  -29.0650  -24.2201   20.5676 C   0  0  0  0  0  0
  -34.7285  -17.6418   22.0724 C   0  0  0  0  0  0
  -28.1195  -25.4035   20.8920 C   0  0  0  0  0  0
  -30.0989  -15.5104   21.1479 N   0  0  0  0  0  0
  -33.7877  -18.7068   22.0110 O   0  0  0  0  0  0
  -31.4570  -12.3745   19.1301 H   0  0  0  0  0  0
  -30.2896  -11.3003   19.8397 H   0  0  0  0  0  0
  -29.7318  -11.7755   17.4324 H   0  0  0  0  0  0
  -29.6634  -13.4874   17.7708 H   0  0  0  0  0  0
  -27.8239  -11.3108   18.8231 H   0  0  0  0  0  0
  -27.3634  -12.6351   17.7876 H   0  0  0  0  0  0
  -27.6960  -14.2590   19.5615 H   0  0  0  0  0  0
  -28.6744  -11.9984   21.3706 H   0  0  0  0  0  0
  -28.4670  -13.6545   21.8559 H   0  0  0  0  0  0
  -25.2762   -9.5686   22.4749 H   0  0  0  0  0  0
  -24.0003   -7.4637   22.7468 H   0  0  0  0  0  0
  -21.0839   -8.8777   19.8954 H   0  0  0  0  0  0
  -22.3694  -10.9674   19.6159 H   0  0  0  0  0  0
  -21.2007   -7.6144   23.9714 H   0  0  0  0  0  0
  -21.1482   -6.0521   25.9077 H   0  0  0  0  0  0
  -22.0598   -2.7609   23.2847 H   0  0  0  0  0  0
  -22.4104  -11.9893   22.4793 H   0  0  0  0  0  0
  -21.1112  -13.1261   22.2606 H   0  0  0  0  0  0
  -24.6628  -15.8466   20.5139 H   0  0  0  0  0  0
  -26.2817  -15.6274   20.0840 H   0  0  0  0  0  0
  -26.7124  -32.5536   23.1167 H   0  0  0  0  0  0
  -25.0070  -33.9780   25.0488 H   0  0  0  0  0  0
  -22.6930  -31.3101   21.4141 H   0  0  0  0  0  0
  -23.3751  -35.9650   23.3305 H   0  0  0  0  0  0
  -24.3588  -36.8918   22.2050 H   0  0  0  0  0  0
  -23.7243  -37.6524   23.6640 H   0  0  0  0  0  0
  -26.0505  -31.6001   20.5992 H   0  0  0  0  0  0
  -26.8221  -30.8828   21.9854 H   0  0  0  0  0  0
  -28.1007  -29.0846   21.1787 H   0  0  0  0  0  0
  -26.0506  -25.9847   18.9892 H   0  0  0  0  0  0
  -23.9760  -27.3140   19.0136 H   0  0  0  0  0  0
  -23.7194  -30.6070   19.4061 H   0  0  0  0  0  0
  -22.7366  -29.2498   19.8679 H   0  0  0  0  0  0
  -25.1280  -36.1979   25.0834 H   0  0  0  0  0  0
  -20.9958  -28.3228   24.1435 H   0  0  0  0  0  0
  -20.5659  -26.2270   23.3604 H   0  0  0  0  0  0
  -21.6635  -26.7437   22.1217 H   0  0  0  0  0  0
  -19.6907  -25.6296   21.1231 H   0  0  0  0  0  0
  -19.6689  -27.3199   20.6744 H   0  0  0  0  0  0
  -17.4195  -26.6673   21.4017 H   0  0  0  0  0  0
  -18.0322  -26.0059   22.9012 H   0  0  0  0  0  0
  -19.7930  -30.7251   24.2280 H   0  0  0  0  0  0
  -17.5013  -31.6263   24.5162 H   0  0  0  0  0  0
  -15.5344  -30.2986   23.7645 H   0  0  0  0  0  0
  -15.8665  -28.0824   22.7049 H   0  0  0  0  0  0
  -24.5920  -30.7035   25.7825 H   0  0  0  0  0  0
  -24.8919  -32.2857   26.4922 H   0  0  0  0  0  0
  -25.8097  -30.8885   27.0240 H   0  0  0  0  0  0
  -26.2832  -29.6808   24.1146 H   0  0  0  0  0  0
  -27.4051  -29.7254   25.4553 H   0  0  0  0  0  0
  -27.8676  -30.4346   23.9255 H   0  0  0  0  0  0
  -27.2692  -33.3593   26.2093 H   0  0  0  0  0  0
  -28.3848  -32.6870   25.0291 H   0  0  0  0  0  0
  -28.0749  -31.8403   26.5367 H   0  0  0  0  0  0
  -28.2600  -38.0109   24.7521 H   0  0  0  0  0  0
  -28.1081  -36.2641   24.6262 H   0  0  0  0  0  0
  -27.2311  -37.1438   25.8867 H   0  0  0  0  0  0
  -20.9304  -29.8758   21.6952 H   0  0  0  0  0  0
  -26.0185  -38.2876   24.1416 H   0  0  0  0  0  0
  -28.6906  -17.8042   20.9521 H   0  0  0  0  0  0
  -32.0010  -20.4818   21.6842 H   0  0  0  0  0  0
  -32.6224  -16.2437   21.7559 H   0  0  0  0  0  0
  -28.2584  -20.2088   20.9913 H   0  0  0  0  0  0
  -30.6267  -22.0716   21.5075 H   0  0  0  0  0  0
  -36.8717  -17.4476   22.3605 H   0  0  0  0  0  0
  -36.1532  -18.7871   23.2509 H   0  0  0  0  0  0
  -36.3992  -18.9158   21.5089 H   0  0  0  0  0  0
  -28.3953  -23.1654   22.3334 H   0  0  0  0  0  0
  -27.6598  -22.5757   20.8681 H   0  0  0  0  0  0
  -29.0895  -24.0480   19.4912 H   0  0  0  0  0  0
  -30.0807  -24.4823   20.8663 H   0  0  0  0  0  0
  -34.4790  -16.9579   22.8850 H   0  0  0  0  0  0
  -34.7278  -17.0773   21.1382 H   0  0  0  0  0  0
  -28.2116  -25.6481   21.9514 H   0  0  0  0  0  0
  -27.0999  -25.0364   20.7714 H   0  0  0  0  0  0
  -29.1333  -15.3511   21.3933 H   0  0  0  0  0  0
  1 25  1  0  0  0
  1 30  2  0  0  0
  1 84  1  0  0  0
  2  3  1  0  0  0
  2 25  1  0  0  0
  2 86  1  0  0  0
  2 87  1  0  0  0
  3  4  1  0  0  0
  3 88  1  0  0  0
  3 89  1  0  0  0
  4  5  1  0  0  0
  4 90  1  0  0  0
  4 91  1  0  0  0
  5  6  1  0  0  0
  5 26  1  0  0  0
  5 92  1  0  0  0
  6 25  1  0  0  0
  6 93  1  0  0  0
  6 94  1  0  0  0
  7  8  2  0  0  0
  7 26  1  0  0  0
  7 29  1  0  0  0
  8  9  1  0  0  0
  8 22  1  0  0  0
  9 10  1  0  0  0
  9 27  2  0  0  0
 10 11  2  0  0  0
 10 15  1  0  0  0
 11 12  1  0  0  0
 11 95  1  0  0  0
 12 13  2  0  0  0
 12 96  1  0  0  0
 13 14  1  0  0  0
 13 31  1  0  0  0
 14 15  2  0  0  0
 14 97  1  0  0  0
 15 98  1  0  0  0
 16 17  2  0  0  0
 16 21  1  0  0  0
 16 31  1  0  0  0
 17 18  1  0  0  0
 17 99  1  0  0  0
 18 19  2  0  0  0
 18100  1  0  0  0
 19 20  1  0  0  0
 19 24  1  0  0  0
 20 21  2  0  0  0
 20101  1  0  0  0
 21 23  1  0  0  0
 22 28  1  0  0  0
 22 32  2  0  0  0
 26 27  1  0  0  0
 28102  1  0  0  0
 28103  1  0  0  0
 29104  1  0  0  0
 29105  1  0  0  0
 33 34  1  0  0  0
 33 66  1  0  0  0
 33 70  2  0  0  0
 34 36  1  0  0  0
 34 59  1  0  0  0
 34106  1  0  0  0
 35 44  2  0  0  0
 35 45  1  0  0  0
 35 68  1  0  0  0
 36 56  1  0  0  0
 36107  1  0  0  0
 37 39  1  0  0  0
 37 47  1  0  0  0
 37 66  1  0  0  0
 37108  1  0  0  0
 38 43  2  0  0  0
 38 46  1  0  0  0
 38 47  1  0  0  0
 39 64  1  0  0  0
 39 67  2  0  0  0
 40 52  1  0  0  0
 40 53  2  0  0  0
 40 58  1  0  0  0
 41109  1  0  0  0
 41110  1  0  0  0
 41111  1  0  0  0
 41 48  1  0  0  0
 42 43  1  0  0  0
 42 66  1  0  0  0
 42112  1  0  0  0
 42113  1  0  0  0
 43 44  1  0  0  0
 44114  1  0  0  0
 45 46  2  0  0  0
 45115  1  0  0  0
 46116  1  0  0  0
 47117  1  0  0  0
 47118  1  0  0  0
 48 56  1  0  0  0
 48 65  1  0  0  0
 48119  1  0  0  0
 49 50  1  0  0  0
 49 53  1  0  0  0
 49 64  1  0  0  0
 49120  1  0  0  0
 50 51  1  0  0  0
 50121  1  0  0  0
 50122  1  0  0  0
 51 52  1  0  0  0
 51123  1  0  0  0
 51124  1  0  0  0
 52125  1  0  0  0
 52126  1  0  0  0
 53 54  1  0  0  0
 54 55  2  0  0  0
 54127  1  0  0  0
 55 57  1  0  0  0
 55128  1  0  0  0
 56 69  2  0  0  0
 57 58  2  0  0  0
 57129  1  0  0  0
 58130  1  0  0  0
 59 60  1  0  0  0
 59 61  1  0  0  0
 59 62  1  0  0  0
 60131  1  0  0  0
 60132  1  0  0  0
 60133  1  0  0  0
 61134  1  0  0  0
 61135  1  0  0  0
 61136  1  0  0  0
 62137  1  0  0  0
 62138  1  0  0  0
 62139  1  0  0  0
 63 65  1  0  0  0
 63140  1  0  0  0
 63141  1  0  0  0
 63142  1  0  0  0
 64143  1  0  0  0
 65144  1  0  0  0
 68 83  1  0  0  0
 71 74  2  0  0  0
 71 75  1  0  0  0
 71145  1  0  0  0
 72 74  1  0  0  0
 72 76  2  0  0  0
 72146  1  0  0  0
 73 75  2  0  0  0
 73 76  1  0  0  0
 73147  1  0  0  0
 74 77  1  0  0  0
 75 84  1  0  0  0
 76 85  1  0  0  0
 77 78  2  0  0  0
 77148  1  0  0  0
 78 80  1  0  0  0
 78149  1  0  0  0
 79 82  1  0  0  0
 79150  1  0  0  0
 79151  1  0  0  0
 79152  1  0  0  0
 80 81  1  0  0  0
 80153  1  0  0  0
 80154  1  0  0  0
 81 83  1  0  0  0
 81155  1  0  0  0
 81156  1  0  0  0
 82 85  1  0  0  0
 82157  1  0  0  0
 82158  1  0  0  0
 83159  1  0  0  0
 83160  1  0  0  0
 84161  1  0  0  0
M  ISO  4   1 100  68 101  83 101  84 100
M  END
> <chiral flag>
0

> <version>
0

> <s_m_source_file>
/data/baiqing/PycharmProjects/Reinvent-master-3.2/result/LINK_invent/BTK/process_docking_weight1_custom_product_contain_oxygen_bond_distance_aromatic_linkinvent_7_9_3/rearranged_h_0119.sdf

> <i_m_source_file_index>
57

> <r_mmod_Potential_Energy-OPLS-2005>
2.6482207775116

> <r_mmod_Stretch_Energy-OPLS-2005>
41.1932373046875

> <r_mmod_Bend_Energy-OPLS-2005>
100.81226348877

> <r_mmod_Torsional_Energy-OPLS-2005>
233.003005981445

> <r_mmod_Improper_Torsional_Energy-OPLS-2005>
3.58677911758423

> <r_mmod_Van_der_Waal_Energy-OPLS-2005>
165.076049804688

> <r_mmod_Electrostatic_Energy-OPLS-2005>
-350.988525390625

> <r_mmod_Solvation_Energy-OPLS-2005>
-206.490127563477

> <b_mmod_Minimization_Converged-OPLS-2005>
0

> <r_mmod_RMS_Derivative-OPLS-2005>
0.440475523471832

$$$$
57
                    3D
 Structure written by MMmdl.
160168  0  0  1  0            999 V2000
  -30.7433  -14.5279   20.5750 C   0  0  0  0  0  0
  -30.4374  -12.3541   19.4096 C   0  0  0  0  0  0
  -29.5007  -12.5296   18.1992 C   0  0  0  0  0  0
  -28.0217  -12.3981   18.6170 C   0  0  0  0  0  0
  -27.6710  -13.2313   19.8806 C   0  0  2  0  0  0
  -28.7290  -13.0407   20.9946 C   0  0  0  0  0  0
  -25.2568  -13.8137   20.5590 C   0  0  0  0  0  0
  -24.1874  -13.0422   20.9176 C   0  0  0  0  0  0
  -24.6482  -11.6911   20.8779 C   0  0  0  0  0  0
  -23.9112  -10.4305   21.0394 C   0  0  0  0  0  0
  -24.3639   -9.4219   21.9175 C   0  0  0  0  0  0
  -23.6300   -8.2258   22.0757 C   0  0  0  0  0  0
  -22.4280   -8.0291   21.3546 C   0  0  0  0  0  0
  -21.9927   -9.0267   20.4646 C   0  0  0  0  0  0
  -22.7273  -10.2144   20.3043 C   0  0  0  0  0  0
  -21.6861   -6.0726   22.5261 C   0  0  0  0  0  0
  -21.4012   -6.5623   23.8182 C   0  0  0  0  0  0
  -21.3673   -5.6792   24.9152 C   0  0  0  0  0  0
  -21.6048   -4.3045   24.7218 C   0  0  0  0  0  0
  -21.8829   -3.8134   23.4335 C   0  0  0  0  0  0
  -21.9207   -4.6956   22.3391 C   0  0  0  0  0  0
  -22.7873  -13.5186   21.1839 C   0  0  0  0  0  0
  -22.1662   -4.2126   21.0978 F   0  0  0  0  0  0
  -21.5652   -3.4540   25.7741 F   0  0  0  0  0  0
  -30.0486  -13.3581   20.4236 N   0  0  0  0  0  0
  -26.3133  -12.9427   20.3455 N   0  0  0  0  0  0
  -25.9451  -11.6565   20.5871 N   0  0  0  0  0  0
  -22.0497  -12.8196   22.0400 N   0  0  0  0  0  0
  -25.4094  -15.1813   20.3629 N   0  0  0  0  0  0
  -31.8528  -14.6856   20.0606 O   0  0  0  0  0  0
  -21.6672   -6.8878   21.4218 O   0  0  0  0  0  0
  -22.3551  -14.5498   20.6683 O   0  0  0  0  0  0
  -24.6231  -31.8616   23.2097 C   0  0  0  0  0  0
  -25.9088  -32.4804   23.8405 C   0  0  1  0  0  0
  -27.2324  -27.3650   20.1070 C   0  0  0  0  0  0
  -25.5905  -33.8608   24.2307 N   0  0  0  0  0  0
  -23.4131  -30.4895   21.5494 C   0  0  2  0  0  0
  -24.8574  -28.9470   20.1154 C   0  0  0  0  0  0
  -22.7408  -29.4648   22.4918 C   0  0  0  0  0  0
  -18.0260  -28.1365   22.8500 C   0  0  0  0  0  0
  -24.1477  -36.7321   23.2648 C   0  0  0  0  0  0
  -25.9509  -30.8015   21.3792 C   0  0  0  0  0  0
  -26.0205  -29.4339   20.7234 C   0  0  0  0  0  0
  -27.2035  -28.6477   20.7204 C   0  0  0  0  0  0
  -26.0445  -26.9176   19.4794 C   0  0  0  0  0  0
  -24.8689  -27.6917   19.4881 C   0  0  0  0  0  0
  -23.6257  -29.8260   20.1647 C   0  0  0  0  0  0
  -25.4101  -36.3120   24.0358 C   0  0  1  0  0  0
  -20.5848  -28.3705   23.1286 C   0  0  2  0  0  0
  -20.6761  -26.9406   22.5505 C   0  0  0  0  0  0
  -19.5728  -26.6245   21.5349 C   0  0  0  0  0  0
  -18.1909  -26.7864   22.1740 C   0  0  0  0  0  0
  -19.1504  -28.8856   23.2872 C   0  0  0  0  0  0
  -18.9427  -30.1459   23.8878 C   0  0  0  0  0  0
  -17.6425  -30.6560   24.0536 C   0  0  0  0  0  0
  -25.9040  -34.9490   23.5130 C   0  0  0  0  0  0
  -16.5319  -29.9053   23.6325 C   0  0  0  0  0  0
  -16.7250  -28.6465   23.0367 C   0  0  0  0  0  0
  -26.4463  -31.6632   25.0781 C   0  0  0  0  0  0
  -25.3700  -31.3762   26.1517 C   0  0  0  0  0  0
  -27.0349  -30.3084   24.6240 C   0  0  0  0  0  0
  -27.6017  -32.4386   25.7519 C   0  0  0  0  0  0
  -27.5585  -37.1818   24.8472 C   0  0  0  0  0  0
  -21.4115  -29.3073   22.3645 N   0  0  0  0  0  0
  -26.4293  -37.3799   23.9418 N   0  0  0  0  0  0
  -24.6799  -31.0691   22.1004 N   0  0  0  0  0  0
  -23.4160  -28.8143   23.2950 O   0  0  0  0  0  0
  -28.3962  -26.5954   20.1734 O   0  0  0  0  0  0
  -26.5601  -34.8941   22.4681 O   0  0  0  0  0  0
  -23.5431  -32.1361   23.7494 O   0  0  0  0  0  0
  -27.5009  -19.2680   21.7200 C   0  0  0  0  0  0
  -28.0447  -20.4810   21.2823 C   0  0  0  0  0  0
  -30.1874  -19.3762   21.0264 C   0  0  0  0  0  0
  -28.2739  -18.0942   21.8371 C   0  0  0  0  0  0
  -29.6569  -18.1184   21.4836 C   0  0  0  0  0  0
  -29.4008  -20.5625   20.9197 C   0  0  0  0  0  0
  -26.6808  -16.9866   23.4068 C   0  0  0  0  0  0
  -27.5994  -16.9221   22.4237 C   0  0  0  0  0  0
  -29.1425  -24.1695   20.4159 C   0  0  0  0  0  0
  -32.0937  -17.1587   21.5851 C   0  0  0  0  0  0
  -28.4660  -25.2737   19.5522 C   0  0  0  0  0  0
  -29.1337  -22.7362   19.8127 C   0  0  0  0  0  0
  -30.5810  -16.8736   21.7488 C   0  0  2  0  0  0
  -30.1257  -15.5330   21.2477 N   0  0  0  0  0  0
  -29.6291  -24.4081   21.5285 O   0  0  0  0  0  0
  -29.9631  -21.7763   20.5307 O   0  0  0  0  0  0
  -31.4711  -12.4611   19.0755 H   0  0  0  0  0  0
  -30.3719  -11.3441   19.8146 H   0  0  0  0  0  0
  -29.7352  -11.8063   17.4167 H   0  0  0  0  0  0
  -29.6799  -13.5128   17.7598 H   0  0  0  0  0  0
  -27.8140  -11.3436   18.8040 H   0  0  0  0  0  0
  -27.3787  -12.6938   17.7873 H   0  0  0  0  0  0
  -27.7050  -14.2837   19.5876 H   0  0  0  0  0  0
  -28.7275  -12.0130   21.3596 H   0  0  0  0  0  0
  -28.5069  -13.6664   21.8574 H   0  0  0  0  0  0
  -25.2759   -9.5713   22.4775 H   0  0  0  0  0  0
  -24.0020   -7.4654   22.7476 H   0  0  0  0  0  0
  -21.0861   -8.8774   19.8948 H   0  0  0  0  0  0
  -22.3693  -10.9691   19.6174 H   0  0  0  0  0  0
  -21.1973   -7.6127   23.9669 H   0  0  0  0  0  0
  -21.1491   -6.0527   25.9061 H   0  0  0  0  0  0
  -22.0600   -2.7597   23.2849 H   0  0  0  0  0  0
  -22.4122  -11.9911   22.4883 H   0  0  0  0  0  0
  -21.1084  -13.1206   22.2528 H   0  0  0  0  0  0
  -24.5978  -15.7878   20.3559 H   0  0  0  0  0  0
  -26.2154  -15.5944   19.9088 H   0  0  0  0  0  0
  -26.7134  -32.5468   23.1158 H   0  0  0  0  0  0
  -25.0112  -33.9725   25.0509 H   0  0  0  0  0  0
  -22.7105  -31.3119   21.4106 H   0  0  0  0  0  0
  -23.3750  -35.9643   23.3320 H   0  0  0  0  0  0
  -24.3587  -36.8916   22.2057 H   0  0  0  0  0  0
  -23.7200  -37.6527   23.6640 H   0  0  0  0  0  0
  -26.0923  -31.5600   20.6100 H   0  0  0  0  0  0
  -26.8317  -30.8423   22.0079 H   0  0  0  0  0  0
  -28.0924  -29.0152   21.2122 H   0  0  0  0  0  0
  -25.9686  -25.9720   18.9692 H   0  0  0  0  0  0
  -23.9773  -27.3107   19.0066 H   0  0  0  0  0  0
  -23.7513  -30.6032   19.4099 H   0  0  0  0  0  0
  -22.7425  -29.2572   19.8655 H   0  0  0  0  0  0
  -25.1269  -36.2002   25.0854 H   0  0  0  0  0  0
  -20.9936  -28.3305   24.1413 H   0  0  0  0  0  0
  -20.5720  -26.2331   23.3748 H   0  0  0  0  0  0
  -21.6656  -26.7449   22.1391 H   0  0  0  0  0  0
  -19.6834  -25.6111   21.1486 H   0  0  0  0  0  0
  -19.6692  -27.2970   20.6812 H   0  0  0  0  0  0
  -17.4194  -26.6581   21.4140 H   0  0  0  0  0  0
  -18.0232  -26.0089   22.9220 H   0  0  0  0  0  0
  -19.7872  -30.7306   24.2283 H   0  0  0  0  0  0
  -17.4982  -31.6259   24.5112 H   0  0  0  0  0  0
  -15.5328  -30.2943   23.7593 H   0  0  0  0  0  0
  -15.8683  -28.0722   22.7112 H   0  0  0  0  0  0
  -24.5832  -30.7165   25.7839 H   0  0  0  0  0  0
  -24.8956  -32.2938   26.4994 H   0  0  0  0  0  0
  -25.8012  -30.8877   27.0264 H   0  0  0  0  0  0
  -26.2948  -29.6767   24.1312 H   0  0  0  0  0  0
  -27.4114  -29.7400   25.4754 H   0  0  0  0  0  0
  -27.8759  -30.4421   23.9439 H   0  0  0  0  0  0
  -27.2608  -33.3651   26.2145 H   0  0  0  0  0  0
  -28.3765  -32.7004   25.0308 H   0  0  0  0  0  0
  -28.0761  -31.8515   26.5394 H   0  0  0  0  0  0
  -28.2622  -38.0094   24.7510 H   0  0  0  0  0  0
  -28.1050  -36.2637   24.6293 H   0  0  0  0  0  0
  -27.2319  -37.1468   25.8876 H   0  0  0  0  0  0
  -20.9295  -29.8829   21.6889 H   0  0  0  0  0  0
  -26.0205  -38.2899   24.1355 H   0  0  0  0  0  0
  -26.4564  -19.2589   21.9890 H   0  0  0  0  0  0
  -27.3963  -21.3427   21.2761 H   0  0  0  0  0  0
  -31.2343  -19.4547   20.7677 H   0  0  0  0  0  0
  -26.1981  -16.0927   23.7743 H   0  0  0  0  0  0
  -26.3912  -17.9198   23.8678 H   0  0  0  0  0  0
  -27.8105  -15.9507   22.0085 H   0  0  0  0  0  0
  -32.3690  -17.3799   20.5534 H   0  0  0  0  0  0
  -32.4057  -18.0047   22.1991 H   0  0  0  0  0  0
  -32.6924  -16.3067   21.9076 H   0  0  0  0  0  0
  -27.5062  -24.8593   19.2646 H   0  0  0  0  0  0
  -29.0544  -25.3624   18.6382 H   0  0  0  0  0  0
  -28.0965  -22.4230   19.7106 H   0  0  0  0  0  0
  -29.4983  -22.7950   18.7854 H   0  0  0  0  0  0
  -30.4735  -16.7352   22.8254 H   0  0  0  0  0  0
  -29.2021  -15.2857   21.5634 H   0  0  0  0  0  0
  1 25  1  0  0  0
  1 30  2  0  0  0
  1 84  1  0  0  0
  2  3  1  0  0  0
  2 25  1  0  0  0
  2 87  1  0  0  0
  2 88  1  0  0  0
  3  4  1  0  0  0
  3 89  1  0  0  0
  3 90  1  0  0  0
  4  5  1  0  0  0
  4 91  1  0  0  0
  4 92  1  0  0  0
  5  6  1  0  0  0
  5 26  1  0  0  0
  5 93  1  0  0  0
  6 25  1  0  0  0
  6 94  1  0  0  0
  6 95  1  0  0  0
  7  8  2  0  0  0
  7 26  1  0  0  0
  7 29  1  0  0  0
  8  9  1  0  0  0
  8 22  1  0  0  0
  9 10  1  0  0  0
  9 27  2  0  0  0
 10 11  2  0  0  0
 10 15  1  0  0  0
 11 12  1  0  0  0
 11 96  1  0  0  0
 12 13  2  0  0  0
 12 97  1  0  0  0
 13 14  1  0  0  0
 13 31  1  0  0  0
 14 15  2  0  0  0
 14 98  1  0  0  0
 15 99  1  0  0  0
 16 17  2  0  0  0
 16 21  1  0  0  0
 16 31  1  0  0  0
 17 18  1  0  0  0
 17100  1  0  0  0
 18 19  2  0  0  0
 18101  1  0  0  0
 19 20  1  0  0  0
 19 24  1  0  0  0
 20 21  2  0  0  0
 20102  1  0  0  0
 21 23  1  0  0  0
 22 28  1  0  0  0
 22 32  2  0  0  0
 26 27  1  0  0  0
 28103  1  0  0  0
 28104  1  0  0  0
 29105  1  0  0  0
 29106  1  0  0  0
 33 34  1  0  0  0
 33 66  1  0  0  0
 33 70  2  0  0  0
 34 36  1  0  0  0
 34 59  1  0  0  0
 34107  1  0  0  0
 35 44  2  0  0  0
 35 45  1  0  0  0
 35 68  1  0  0  0
 36 56  1  0  0  0
 36108  1  0  0  0
 37 39  1  0  0  0
 37 47  1  0  0  0
 37 66  1  0  0  0
 37109  1  0  0  0
 38 43  2  0  0  0
 38 46  1  0  0  0
 38 47  1  0  0  0
 39 64  1  0  0  0
 39 67  2  0  0  0
 40 52  1  0  0  0
 40 53  2  0  0  0
 40 58  1  0  0  0
 41110  1  0  0  0
 41111  1  0  0  0
 41112  1  0  0  0
 41 48  1  0  0  0
 42 43  1  0  0  0
 42 66  1  0  0  0
 42113  1  0  0  0
 42114  1  0  0  0
 43 44  1  0  0  0
 44115  1  0  0  0
 45 46  2  0  0  0
 45116  1  0  0  0
 46117  1  0  0  0
 47118  1  0  0  0
 47119  1  0  0  0
 48 56  1  0  0  0
 48 65  1  0  0  0
 48120  1  0  0  0
 49 50  1  0  0  0
 49 53  1  0  0  0
 49 64  1  0  0  0
 49121  1  0  0  0
 50 51  1  0  0  0
 50122  1  0  0  0
 50123  1  0  0  0
 51 52  1  0  0  0
 51124  1  0  0  0
 51125  1  0  0  0
 52126  1  0  0  0
 52127  1  0  0  0
 53 54  1  0  0  0
 54 55  2  0  0  0
 54128  1  0  0  0
 55 57  1  0  0  0
 55129  1  0  0  0
 56 69  2  0  0  0
 57 58  2  0  0  0
 57130  1  0  0  0
 58131  1  0  0  0
 59 60  1  0  0  0
 59 61  1  0  0  0
 59 62  1  0  0  0
 60132  1  0  0  0
 60133  1  0  0  0
 60134  1  0  0  0
 61135  1  0  0  0
 61136  1  0  0  0
 61137  1  0  0  0
 62138  1  0  0  0
 62139  1  0  0  0
 62140  1  0  0  0
 63 65  1  0  0  0
 63141  1  0  0  0
 63142  1  0  0  0
 63143  1  0  0  0
 64144  1  0  0  0
 65145  1  0  0  0
 68 81  1  0  0  0
 71 72  2  0  0  0
 71 74  1  0  0  0
 71146  1  0  0  0
 72 76  1  0  0  0
 72147  1  0  0  0
 73 75  1  0  0  0
 73 76  2  0  0  0
 73148  1  0  0  0
 74 75  2  0  0  0
 74 78  1  0  0  0
 75 83  1  0  0  0
 76 86  1  0  0  0
 77 78  2  0  0  0
 77149  1  0  0  0
 77150  1  0  0  0
 78151  1  0  0  0
 79 81  1  0  0  0
 79 82  1  0  0  0
 79 85  2  0  0  0
 80152  1  0  0  0
 80153  1  0  0  0
 80154  1  0  0  0
 80 83  1  0  0  0
 81155  1  0  0  0
 81156  1  0  0  0
 82 86  1  0  0  0
 82157  1  0  0  0
 82158  1  0  0  0
 83 84  1  0  0  0
 83159  1  0  0  0
 84160  1  0  0  0
M  ISO  4   1 100  68 101  81 101  84 100
M  END
> <chiral flag>
0

> <version>
0

> <s_m_source_file>
/data/baiqing/PycharmProjects/Reinvent-master-3.2/result/LINK_invent/BTK/process_docking_weight1_custom_product_contain_oxygen_bond_distance_aromatic_linkinvent_7_9_3/rearranged_h_0119.sdf

> <i_m_source_file_index>
58

> <r_mmod_Potential_Energy-OPLS-2005>
14.0110845565796

> <r_mmod_Stretch_Energy-OPLS-2005>
63.4838981628418

> <r_mmod_Bend_Energy-OPLS-2005>
143.937805175781

> <r_mmod_Torsional_Energy-OPLS-2005>
212.225830078125

> <r_mmod_Improper_Torsional_Energy-OPLS-2005>
4.73998785018921

> <r_mmod_Van_der_Waal_Energy-OPLS-2005>
161.165252685547

> <r_mmod_Electrostatic_Energy-OPLS-2005>
-359.064178466797

> <r_mmod_Solvation_Energy-OPLS-2005>
-237.536331176758

> <b_mmod_Minimization_Converged-OPLS-2005>
0

> <r_mmod_RMS_Derivative-OPLS-2005>
6.00242853164673

$$$$
58
                    3D
 Structure written by MMmdl.
158166  0  0  1  0            999 V2000
  -30.6373  -14.6386   20.4779 C   0  0  0  0  0  0
  -30.4365  -12.3786   19.4804 C   0  0  0  0  0  0
  -29.5147  -12.4181   18.2399 C   0  0  0  0  0  0
  -28.0305  -12.3012   18.6437 C   0  0  0  0  0  0
  -27.6437  -13.2152   19.8360 C   0  0  2  0  0  0
  -28.6766  -13.1155   20.9785 C   0  0  0  0  0  0
  -25.2529  -13.8154   20.5712 C   0  0  0  0  0  0
  -24.1788  -13.0437   20.9169 C   0  0  0  0  0  0
  -24.6336  -11.6887   20.8645 C   0  0  0  0  0  0
  -23.9016  -10.4280   21.0353 C   0  0  0  0  0  0
  -24.3602   -9.4206   21.9141 C   0  0  0  0  0  0
  -23.6279   -8.2258   22.0761 C   0  0  0  0  0  0
  -22.4258   -8.0287   21.3556 C   0  0  0  0  0  0
  -21.9864   -9.0239   20.4647 C   0  0  0  0  0  0
  -22.7193  -10.2108   20.3010 C   0  0  0  0  0  0
  -21.6865   -6.0721   22.5267 C   0  0  0  0  0  0
  -21.4037   -6.5631   23.8190 C   0  0  0  0  0  0
  -21.3656   -5.6778   24.9148 C   0  0  0  0  0  0
  -21.6025   -4.3039   24.7193 C   0  0  0  0  0  0
  -21.8824   -3.8143   23.4329 C   0  0  0  0  0  0
  -21.9205   -4.6950   22.3377 C   0  0  0  0  0  0
  -22.7820  -13.5212   21.1932 C   0  0  0  0  0  0
  -22.1696   -4.2142   21.0965 F   0  0  0  0  0  0
  -21.5606   -3.4527   25.7720 F   0  0  0  0  0  0
  -30.0003  -13.4275   20.4230 N   0  0  0  0  0  0
  -26.2901  -12.9342   20.3124 N   0  0  0  0  0  0
  -25.9239  -11.6487   20.5616 N   0  0  0  0  0  0
  -22.0489  -12.8131   22.0463 N   0  0  0  0  0  0
  -25.4296  -15.1907   20.4316 N   0  0  0  0  0  0
  -31.8186  -14.7505   20.1361 O   0  0  0  0  0  0
  -21.6642   -6.8866   21.4242 O   0  0  0  0  0  0
  -22.3487  -14.5553   20.6861 O   0  0  0  0  0  0
  -24.6189  -31.8617   23.2057 C   0  0  0  0  0  0
  -25.9075  -32.4775   23.8345 C   0  0  1  0  0  0
  -27.2212  -27.3555   20.1413 C   0  0  0  0  0  0
  -25.5943  -33.8580   24.2258 N   0  0  0  0  0  0
  -23.4078  -30.4820   21.5486 C   0  0  2  0  0  0
  -24.8536  -28.9345   20.1208 C   0  0  0  0  0  0
  -22.7430  -29.4606   22.5002 C   0  0  0  0  0  0
  -18.0330  -28.1338   22.8419 C   0  0  0  0  0  0
  -24.1490  -36.7279   23.2629 C   0  0  0  0  0  0
  -25.9438  -30.8080   21.3669 C   0  0  0  0  0  0
  -26.0200  -29.4347   20.7160 C   0  0  0  0  0  0
  -27.2090  -28.6579   20.7098 C   0  0  0  0  0  0
  -26.0322  -26.8816   19.5474 C   0  0  0  0  0  0
  -24.8573  -27.6577   19.5351 C   0  0  0  0  0  0
  -23.6207  -29.8118   20.1640 C   0  0  0  0  0  0
  -25.4108  -36.3087   24.0309 C   0  0  1  0  0  0
  -20.5905  -28.3589   23.1318 C   0  0  2  0  0  0
  -20.6806  -26.9319   22.5453 C   0  0  0  0  0  0
  -19.5924  -26.6400   21.5115 C   0  0  0  0  0  0
  -18.2024  -26.7972   22.1369 C   0  0  0  0  0  0
  -19.1573  -28.8760   23.2895 C   0  0  0  0  0  0
  -18.9510  -30.1340   23.8938 C   0  0  0  0  0  0
  -17.6534  -30.6511   24.0567 C   0  0  0  0  0  0
  -25.9049  -34.9440   23.5072 C   0  0  0  0  0  0
  -16.5419  -29.9041   23.6316 C   0  0  0  0  0  0
  -16.7318  -28.6472   23.0293 C   0  0  0  0  0  0
  -26.4495  -31.6617   25.0712 C   0  0  0  0  0  0
  -25.3783  -31.3805   26.1505 C   0  0  0  0  0  0
  -27.0287  -30.3031   24.6146 C   0  0  0  0  0  0
  -27.6075  -32.4314   25.7519 C   0  0  0  0  0  0
  -27.5572  -37.1780   24.8452 C   0  0  0  0  0  0
  -21.4172  -29.2949   22.3700 N   0  0  0  0  0  0
  -26.4271  -37.3772   23.9413 N   0  0  0  0  0  0
  -24.6758  -31.0639   22.1005 N   0  0  0  0  0  0
  -23.4172  -28.8184   23.3091 O   0  0  0  0  0  0
  -28.3653  -26.5646   20.1624 O   0  0  0  0  0  0
  -26.5618  -34.8910   22.4645 O   0  0  0  0  0  0
  -23.5350  -32.1445   23.7370 O   0  0  0  0  0  0
  -30.3011  -18.5180   18.1614 C   0  0  0  0  0  0
  -30.1402  -19.6773   18.9298 C   0  0  0  0  0  0
  -29.7143  -18.3006   20.8801 C   0  0  0  0  0  0
  -30.1689  -17.2339   18.7254 C   0  0  0  0  0  0
  -29.9461  -17.0847   20.1270 C   0  0  0  0  0  0
  -29.7677  -19.6139   20.2809 C   0  0  0  0  0  0
  -28.1967  -24.0871   19.6645 C   0  0  0  0  0  0
  -28.2944  -22.7151   19.6993 C   0  0  0  0  0  0
  -30.1930  -16.0652   17.7509 C   0  0  0  0  0  0
  -28.0974  -22.0341   18.3549 C   0  0  0  0  0  0
  -28.2732  -25.2106   20.7205 C   0  0  0  0  0  0
  -28.4931  -21.7268   20.9080 C   0  0  0  0  0  0
  -29.8664  -15.7481   20.7319 N   0  0  0  0  0  0
  -29.6652  -20.8309   20.9759 O   0  0  0  0  0  0
  -31.4721  -12.5049   19.1647 H   0  0  0  0  0  0
  -30.3992  -11.4064   19.9691 H   0  0  0  0  0  0
  -29.7740  -11.6015   17.5632 H   0  0  0  0  0  0
  -29.6874  -13.3227   17.6627 H   0  0  0  0  0  0
  -27.8558  -11.2601   18.9169 H   0  0  0  0  0  0
  -27.3824  -12.4915   17.7883 H   0  0  0  0  0  0
  -27.6518  -14.2366   19.4510 H   0  0  0  0  0  0
  -28.6777  -12.1132   21.4084 H   0  0  0  0  0  0
  -28.4101  -13.8021   21.7857 H   0  0  0  0  0  0
  -25.2777   -9.5656   22.4656 H   0  0  0  0  0  0
  -23.9975   -7.4657   22.7501 H   0  0  0  0  0  0
  -21.0777   -8.8728   19.8980 H   0  0  0  0  0  0
  -22.3664  -10.9613   19.6069 H   0  0  0  0  0  0
  -21.2076   -7.6146   23.9698 H   0  0  0  0  0  0
  -21.1471   -6.0507   25.9035 H   0  0  0  0  0  0
  -22.0620   -2.7612   23.2819 H   0  0  0  0  0  0
  -22.4119  -11.9681   22.4619 H   0  0  0  0  0  0
  -21.1174  -13.1197   22.2892 H   0  0  0  0  0  0
  -24.6811  -15.8492   20.6090 H   0  0  0  0  0  0
  -26.2829  -15.6411   20.1298 H   0  0  0  0  0  0
  -26.7142  -32.5404   23.1091 H   0  0  0  0  0  0
  -25.0145  -33.9742   25.0447 H   0  0  0  0  0  0
  -22.6959  -31.2996   21.4072 H   0  0  0  0  0  0
  -23.3732  -35.9626   23.3281 H   0  0  0  0  0  0
  -24.3619  -36.8902   22.2050 H   0  0  0  0  0  0
  -23.7223  -37.6463   23.6672 H   0  0  0  0  0  0
  -26.0608  -31.5718   20.5951 H   0  0  0  0  0  0
  -26.8287  -30.8585   21.9924 H   0  0  0  0  0  0
  -28.1082  -29.0390   21.1718 H   0  0  0  0  0  0
  -25.9988  -25.9003   19.0991 H   0  0  0  0  0  0
  -23.9557  -27.2519   19.0961 H   0  0  0  0  0  0
  -23.7440  -30.5903   19.4089 H   0  0  0  0  0  0
  -22.7393  -29.2492   19.8524 H   0  0  0  0  0  0
  -25.1274  -36.1957   25.0783 H   0  0  0  0  0  0
  -20.9968  -28.3116   24.1446 H   0  0  0  0  0  0
  -20.5567  -26.2156   23.3596 H   0  0  0  0  0  0
  -21.6728  -26.7339   22.1359 H   0  0  0  0  0  0
  -19.7133  -25.6359   21.1056 H   0  0  0  0  0  0
  -19.7002  -27.3295   20.6720 H   0  0  0  0  0  0
  -17.4484  -26.6965   21.3549 H   0  0  0  0  0  0
  -18.0205  -25.9957   22.8548 H   0  0  0  0  0  0
  -19.8003  -30.7114   24.2346 H   0  0  0  0  0  0
  -17.5124  -31.6192   24.5191 H   0  0  0  0  0  0
  -15.5426  -30.2970   23.7567 H   0  0  0  0  0  0
  -15.8740  -28.0782   22.6949 H   0  0  0  0  0  0
  -24.6005  -30.7054   25.7949 H   0  0  0  0  0  0
  -24.8912  -32.2967   26.4845 H   0  0  0  0  0  0
  -25.8177  -30.9160   27.0341 H   0  0  0  0  0  0
  -26.2823  -29.6855   24.1154 H   0  0  0  0  0  0
  -27.3964  -29.7248   25.4627 H   0  0  0  0  0  0
  -27.8722  -30.4275   23.9352 H   0  0  0  0  0  0
  -27.2715  -33.3616   26.2115 H   0  0  0  0  0  0
  -28.3942  -32.6848   25.0406 H   0  0  0  0  0  0
  -28.0698  -31.8424   26.5458 H   0  0  0  0  0  0
  -28.2574  -38.0099   24.7526 H   0  0  0  0  0  0
  -28.1088  -36.2628   24.6247 H   0  0  0  0  0  0
  -27.2318  -37.1373   25.8862 H   0  0  0  0  0  0
  -20.9344  -29.8588   21.6847 H   0  0  0  0  0  0
  -26.0162  -38.2833   24.1471 H   0  0  0  0  0  0
  -30.5052  -18.6211   17.1071 H   0  0  0  0  0  0
  -30.2874  -20.6380   18.4611 H   0  0  0  0  0  0
  -29.5268  -18.2386   21.9425 H   0  0  0  0  0  0
  -28.0119  -24.5083   18.6865 H   0  0  0  0  0  0
  -29.3454  -15.4141   17.9472 H   0  0  0  0  0  0
  -31.1207  -15.4958   17.7944 H   0  0  0  0  0  0
  -30.0826  -16.4022   16.7209 H   0  0  0  0  0  0
  -27.1826  -22.3942   17.8847 H   0  0  0  0  0  0
  -27.9845  -20.9546   18.4170 H   0  0  0  0  0  0
  -28.9244  -22.2911   17.6914 H   0  0  0  0  0  0
  -27.4429  -25.1359   21.4272 H   0  0  0  0  0  0
  -29.1806  -25.0478   21.3018 H   0  0  0  0  0  0
  -27.5948  -21.1143   21.0006 H   0  0  0  0  0  0
  -28.5247  -22.3272   21.8188 H   0  0  0  0  0  0
  -29.0230  -15.5637   21.2561 H   0  0  0  0  0  0
  1 25  1  0  0  0
  1 30  2  0  0  0
  1 83  1  0  0  0
  2  3  1  0  0  0
  2 25  1  0  0  0
  2 85  1  0  0  0
  2 86  1  0  0  0
  3  4  1  0  0  0
  3 87  1  0  0  0
  3 88  1  0  0  0
  4  5  1  0  0  0
  4 89  1  0  0  0
  4 90  1  0  0  0
  5  6  1  0  0  0
  5 26  1  0  0  0
  5 91  1  0  0  0
  6 25  1  0  0  0
  6 92  1  0  0  0
  6 93  1  0  0  0
  7  8  2  0  0  0
  7 26  1  0  0  0
  7 29  1  0  0  0
  8  9  1  0  0  0
  8 22  1  0  0  0
  9 10  1  0  0  0
  9 27  2  0  0  0
 10 11  2  0  0  0
 10 15  1  0  0  0
 11 12  1  0  0  0
 11 94  1  0  0  0
 12 13  2  0  0  0
 12 95  1  0  0  0
 13 14  1  0  0  0
 13 31  1  0  0  0
 14 15  2  0  0  0
 14 96  1  0  0  0
 15 97  1  0  0  0
 16 17  2  0  0  0
 16 21  1  0  0  0
 16 31  1  0  0  0
 17 18  1  0  0  0
 17 98  1  0  0  0
 18 19  2  0  0  0
 18 99  1  0  0  0
 19 20  1  0  0  0
 19 24  1  0  0  0
 20 21  2  0  0  0
 20100  1  0  0  0
 21 23  1  0  0  0
 22 28  1  0  0  0
 22 32  2  0  0  0
 26 27  1  0  0  0
 28101  1  0  0  0
 28102  1  0  0  0
 29103  1  0  0  0
 29104  1  0  0  0
 33 34  1  0  0  0
 33 66  1  0  0  0
 33 70  2  0  0  0
 34 36  1  0  0  0
 34 59  1  0  0  0
 34105  1  0  0  0
 35 44  2  0  0  0
 35 45  1  0  0  0
 35 68  1  0  0  0
 36 56  1  0  0  0
 36106  1  0  0  0
 37 39  1  0  0  0
 37 47  1  0  0  0
 37 66  1  0  0  0
 37107  1  0  0  0
 38 43  2  0  0  0
 38 46  1  0  0  0
 38 47  1  0  0  0
 39 64  1  0  0  0
 39 67  2  0  0  0
 40 52  1  0  0  0
 40 53  2  0  0  0
 40 58  1  0  0  0
 41108  1  0  0  0
 41109  1  0  0  0
 41110  1  0  0  0
 41 48  1  0  0  0
 42 43  1  0  0  0
 42 66  1  0  0  0
 42111  1  0  0  0
 42112  1  0  0  0
 43 44  1  0  0  0
 44113  1  0  0  0
 45 46  2  0  0  0
 45114  1  0  0  0
 46115  1  0  0  0
 47116  1  0  0  0
 47117  1  0  0  0
 48 56  1  0  0  0
 48 65  1  0  0  0
 48118  1  0  0  0
 49 50  1  0  0  0
 49 53  1  0  0  0
 49 64  1  0  0  0
 49119  1  0  0  0
 50 51  1  0  0  0
 50120  1  0  0  0
 50121  1  0  0  0
 51 52  1  0  0  0
 51122  1  0  0  0
 51123  1  0  0  0
 52124  1  0  0  0
 52125  1  0  0  0
 53 54  1  0  0  0
 54 55  2  0  0  0
 54126  1  0  0  0
 55 57  1  0  0  0
 55127  1  0  0  0
 56 69  2  0  0  0
 57 58  2  0  0  0
 57128  1  0  0  0
 58129  1  0  0  0
 59 60  1  0  0  0
 59 61  1  0  0  0
 59 62  1  0  0  0
 60130  1  0  0  0
 60131  1  0  0  0
 60132  1  0  0  0
 61133  1  0  0  0
 61134  1  0  0  0
 61135  1  0  0  0
 62136  1  0  0  0
 62137  1  0  0  0
 62138  1  0  0  0
 63 65  1  0  0  0
 63139  1  0  0  0
 63140  1  0  0  0
 63141  1  0  0  0
 64142  1  0  0  0
 65143  1  0  0  0
 68 81  1  0  0  0
 71 72  2  0  0  0
 71 74  1  0  0  0
 71144  1  0  0  0
 72 76  1  0  0  0
 72145  1  0  0  0
 73 75  1  0  0  0
 73 76  2  0  0  0
 73146  1  0  0  0
 74 75  2  0  0  0
 74 79  1  0  0  0
 75 83  1  0  0  0
 76 84  1  0  0  0
 77 78  2  0  0  0
 77 81  1  0  0  0
 77147  1  0  0  0
 78 80  1  0  0  0
 78 82  1  0  0  0
 79148  1  0  0  0
 79149  1  0  0  0
 79150  1  0  0  0
 80151  1  0  0  0
 80152  1  0  0  0
 80153  1  0  0  0
 81154  1  0  0  0
 81155  1  0  0  0
 82 84  1  0  0  0
 82156  1  0  0  0
 82157  1  0  0  0
 83158  1  0  0  0
M  ISO  4   1 100  68 101  81 101  83 100
M  END
> <chiral flag>
0

> <version>
0

> <s_m_source_file>
/data/baiqing/PycharmProjects/Reinvent-master-3.2/result/LINK_invent/BTK/process_docking_weight1_custom_product_contain_oxygen_bond_distance_aromatic_linkinvent_7_9_3/rearranged_h_0119.sdf

> <i_m_source_file_index>
59

> <r_mmod_Potential_Energy-OPLS-2005>
150.683120727539

> <r_mmod_Stretch_Energy-OPLS-2005>
76.9877243041992

> <r_mmod_Bend_Energy-OPLS-2005>
161.733291625977

> <r_mmod_Torsional_Energy-OPLS-2005>
293.050598144531

> <r_mmod_Improper_Torsional_Energy-OPLS-2005>
6.54589223861694

> <r_mmod_Van_der_Waal_Energy-OPLS-2005>
145.42919921875

> <r_mmod_Electrostatic_Energy-OPLS-2005>
-372.083129882812

> <r_mmod_Solvation_Energy-OPLS-2005>
-207.006072998047

> <b_mmod_Minimization_Converged-OPLS-2005>
0

> <r_mmod_RMS_Derivative-OPLS-2005>
6.50636672973633

$$$$
59
                    3D
 Structure written by MMmdl.
162170  0  0  1  0            999 V2000
  -30.6611  -14.5212   20.5417 C   0  0  0  0  0  0
  -30.4335  -12.3335   19.4205 C   0  0  0  0  0  0
  -29.4910  -12.4987   18.2050 C   0  0  0  0  0  0
  -27.9994  -12.4075   18.6001 C   0  0  0  0  0  0
  -27.6562  -13.1917   19.8932 C   0  0  2  0  0  0
  -28.7046  -12.9171   20.9849 C   0  0  0  0  0  0
  -25.2520  -13.8108   20.5702 C   0  0  0  0  0  0
  -24.1758  -13.0398   20.9184 C   0  0  0  0  0  0
  -24.6336  -11.6868   20.8792 C   0  0  0  0  0  0
  -23.9006  -10.4279   21.0441 C   0  0  0  0  0  0
  -24.3580   -9.4198   21.9210 C   0  0  0  0  0  0
  -23.6243   -8.2249   22.0779 C   0  0  0  0  0  0
  -22.4234   -8.0298   21.3563 C   0  0  0  0  0  0
  -21.9874   -9.0263   20.4652 C   0  0  0  0  0  0
  -22.7197  -10.2140   20.3063 C   0  0  0  0  0  0
  -21.6848   -6.0721   22.5291 C   0  0  0  0  0  0
  -21.4001   -6.5623   23.8225 C   0  0  0  0  0  0
  -21.3668   -5.6776   24.9199 C   0  0  0  0  0  0
  -21.6036   -4.3042   24.7238 C   0  0  0  0  0  0
  -21.8808   -3.8129   23.4352 C   0  0  0  0  0  0
  -21.9175   -4.6936   22.3410 C   0  0  0  0  0  0
  -22.7779  -13.5215   21.1838 C   0  0  0  0  0  0
  -22.1609   -4.2106   21.0989 F   0  0  0  0  0  0
  -21.5658   -3.4539   25.7755 F   0  0  0  0  0  0
  -30.0246  -13.3083   20.4533 N   0  0  0  0  0  0
  -26.2990  -12.9243   20.3513 N   0  0  0  0  0  0
  -25.9273  -11.6419   20.5860 N   0  0  0  0  0  0
  -22.0396  -12.8256   22.0415 N   0  0  0  0  0  0
  -25.4250  -15.1809   20.4033 N   0  0  0  0  0  0
  -31.7807  -14.7092   20.0525 O   0  0  0  0  0  0
  -21.6621   -6.8878   21.4252 O   0  0  0  0  0  0
  -22.3497  -14.5533   20.6681 O   0  0  0  0  0  0
  -24.6156  -31.8695   23.2122 C   0  0  0  0  0  0
  -25.9036  -32.4831   23.8431 C   0  0  1  0  0  0
  -27.2440  -27.4575   20.0875 C   0  0  0  0  0  0
  -25.5874  -33.8629   24.2345 N   0  0  0  0  0  0
  -23.4033  -30.4933   21.5515 C   0  0  2  0  0  0
  -24.8483  -28.9623   20.1168 C   0  0  0  0  0  0
  -22.7418  -29.4670   22.4999 C   0  0  0  0  0  0
  -18.0275  -28.1397   22.8486 C   0  0  0  0  0  0
  -24.1476  -36.7339   23.2640 C   0  0  0  0  0  0
  -25.9309  -30.8423   21.3620 C   0  0  0  0  0  0
  -26.0072  -29.4793   20.7060 C   0  0  0  0  0  0
  -27.2077  -28.7368   20.6810 C   0  0  0  0  0  0
  -26.0595  -26.9459   19.5025 C   0  0  0  0  0  0
  -24.8682  -27.6940   19.5119 C   0  0  0  0  0  0
  -23.6110  -29.8278   20.1651 C   0  0  0  0  0  0
  -25.4097  -36.3130   24.0345 C   0  0  1  0  0  0
  -20.5869  -28.3675   23.1312 C   0  0  2  0  0  0
  -20.6756  -26.9410   22.5415 C   0  0  0  0  0  0
  -19.5733  -26.6392   21.5221 C   0  0  0  0  0  0
  -18.1915  -26.7941   22.1626 C   0  0  0  0  0  0
  -19.1524  -28.8858   23.2897 C   0  0  0  0  0  0
  -18.9447  -30.1458   23.8924 C   0  0  0  0  0  0
  -17.6448  -30.6602   24.0566 C   0  0  0  0  0  0
  -25.9021  -34.9482   23.5150 C   0  0  0  0  0  0
  -16.5339  -29.9108   23.6311 C   0  0  0  0  0  0
  -16.7264  -28.6520   23.0337 C   0  0  0  0  0  0
  -26.4459  -31.6619   25.0771 C   0  0  0  0  0  0
  -25.3727  -31.3719   26.1523 C   0  0  0  0  0  0
  -27.0283  -30.3055   24.6149 C   0  0  0  0  0  0
  -27.6033  -32.4348   25.7536 C   0  0  0  0  0  0
  -27.5585  -37.1822   24.8461 C   0  0  0  0  0  0
  -21.4153  -29.3045   22.3736 N   0  0  0  0  0  0
  -26.4290  -37.3809   23.9416 N   0  0  0  0  0  0
  -24.6679  -31.0826   22.0999 N   0  0  0  0  0  0
  -23.4196  -28.8201   23.3023 O   0  0  0  0  0  0
  -28.4393  -26.7698   20.1060 O   0  0  0  0  0  0
  -26.5592  -34.8933   22.4718 O   0  0  0  0  0  0
  -23.5341  -32.1422   23.7516 O   0  0  0  0  0  0
  -29.5724  -18.7692   18.7919 C   0  0  0  0  0  0
  -30.2730  -19.7325   19.5236 C   0  0  0  0  0  0
  -30.7973  -18.0581   21.2034 C   0  0  0  0  0  0
  -30.0715  -17.0651   20.4929 C   0  0  0  0  0  0
  -29.4459  -17.4402   19.2613 C   0  0  0  0  0  0
  -30.8855  -19.3901   20.7429 C   0  0  0  0  0  0
  -29.8310  -23.4372   20.4144 C   0  0  0  0  0  0
  -29.7523  -24.7244   20.0351 C   0  0  0  0  0  0
  -29.8903  -15.7245   21.1507 C   0  0  0  0  0  0
  -28.1522  -16.9078   17.0519 C   0  0  0  0  0  0
  -28.5768  -16.4704   18.4664 C   0  0  0  0  0  0
  -31.0994  -22.6761   20.7759 C   0  0  0  0  0  0
  -28.4452  -25.4097   19.6830 C   0  0  0  0  0  0
  -30.8146  -21.5268   21.7737 C   0  0  0  0  0  0
  -29.1663  -15.6709   22.1899 N   0  0  0  0  0  0
  -31.5462  -20.3265   21.5078 O   0  0  0  0  0  0
  -31.4667  -12.4708   19.0993 H   0  0  0  0  0  0
  -30.3887  -11.3144   19.8087 H   0  0  0  0  0  0
  -29.7168  -11.7419   17.4535 H   0  0  0  0  0  0
  -29.6920  -13.4575   17.7282 H   0  0  0  0  0  0
  -27.7455  -11.3560   18.7267 H   0  0  0  0  0  0
  -27.3717  -12.7668   17.7838 H   0  0  0  0  0  0
  -27.7001  -14.2455   19.6583 H   0  0  0  0  0  0
  -28.7096  -11.8516   21.2176 H   0  0  0  0  0  0
  -28.4405  -13.3787   21.9316 H   0  0  0  0  0  0
  -25.2738   -9.5651   22.4807 H   0  0  0  0  0  0
  -23.9933   -7.4610   22.7472 H   0  0  0  0  0  0
  -21.0831   -8.8794   19.8908 H   0  0  0  0  0  0
  -22.3678  -10.9711   19.6185 H   0  0  0  0  0  0
  -21.2004   -7.6123   23.9719 H   0  0  0  0  0  0
  -21.1515   -6.0509   25.9089 H   0  0  0  0  0  0
  -22.0591   -2.7590   23.2875 H   0  0  0  0  0  0
  -22.3963  -11.9899   22.4808 H   0  0  0  0  0  0
  -21.1044  -13.1348   22.2672 H   0  0  0  0  0  0
  -24.6540  -15.8401   20.4555 H   0  0  0  0  0  0
  -26.3136  -15.6267   20.2203 H   0  0  0  0  0  0
  -26.7131  -32.5540   23.1222 H   0  0  0  0  0  0
  -25.0006  -33.9797   25.0476 H   0  0  0  0  0  0
  -22.6916  -31.3102   21.4134 H   0  0  0  0  0  0
  -23.3731  -35.9677   23.3299 H   0  0  0  0  0  0
  -24.3575  -36.8961   22.2057 H   0  0  0  0  0  0
  -23.7233  -37.6545   23.6653 H   0  0  0  0  0  0
  -26.0478  -31.6111   20.5961 H   0  0  0  0  0  0
  -26.8174  -30.8904   21.9829 H   0  0  0  0  0  0
  -28.1087  -29.1426   21.1200 H   0  0  0  0  0  0
  -26.0319  -25.9754   19.0298 H   0  0  0  0  0  0
  -23.9748  -27.2884   19.0575 H   0  0  0  0  0  0
  -23.7253  -30.6053   19.4082 H   0  0  0  0  0  0
  -22.7353  -29.2505   19.8635 H   0  0  0  0  0  0
  -25.1273  -36.2011   25.0839 H   0  0  0  0  0  0
  -20.9948  -28.3237   24.1435 H   0  0  0  0  0  0
  -20.5659  -26.2290   23.3609 H   0  0  0  0  0  0
  -21.6622  -26.7449   22.1202 H   0  0  0  0  0  0
  -19.6870  -25.6300   21.1261 H   0  0  0  0  0  0
  -19.6671  -27.3195   20.6749 H   0  0  0  0  0  0
  -17.4174  -26.6694   21.4032 H   0  0  0  0  0  0
  -18.0296  -26.0100   22.9034 H   0  0  0  0  0  0
  -19.7928  -30.7266   24.2307 H   0  0  0  0  0  0
  -17.5006  -31.6281   24.5170 H   0  0  0  0  0  0
  -15.5340  -30.3021   23.7633 H   0  0  0  0  0  0
  -15.8657  -28.0864   22.7030 H   0  0  0  0  0  0
  -24.5888  -30.7081   25.7869 H   0  0  0  0  0  0
  -24.8928  -32.2864   26.5014 H   0  0  0  0  0  0
  -25.8079  -30.8865   27.0264 H   0  0  0  0  0  0
  -26.2825  -29.6850   24.1161 H   0  0  0  0  0  0
  -27.3993  -29.7280   25.4626 H   0  0  0  0  0  0
  -27.8692  -30.4381   23.9341 H   0  0  0  0  0  0
  -27.2636  -33.3635   26.2140 H   0  0  0  0  0  0
  -28.3820  -32.6935   25.0350 H   0  0  0  0  0  0
  -28.0716  -31.8462   26.5432 H   0  0  0  0  0  0
  -28.2595  -38.0126   24.7515 H   0  0  0  0  0  0
  -28.1087  -36.2658   24.6265 H   0  0  0  0  0  0
  -27.2305  -37.1456   25.8863 H   0  0  0  0  0  0
  -20.9326  -29.8794   21.6982 H   0  0  0  0  0  0
  -26.0187  -38.2896   24.1394 H   0  0  0  0  0  0
  -29.1074  -19.0971   17.8756 H   0  0  0  0  0  0
  -30.3125  -20.7336   19.1232 H   0  0  0  0  0  0
  -31.2457  -17.8096   22.1540 H   0  0  0  0  0  0
  -28.9138  -22.8662   20.4532 H   0  0  0  0  0  0
  -30.6498  -25.3227   19.9542 H   0  0  0  0  0  0
  -27.5969  -16.1113   16.5572 H   0  0  0  0  0  0
  -29.0147  -17.1418   16.4265 H   0  0  0  0  0  0
  -27.4974  -17.7815   17.0756 H   0  0  0  0  0  0
  -27.6715  -16.3110   19.0511 H   0  0  0  0  0  0
  -29.0981  -15.5219   18.3785 H   0  0  0  0  0  0
  -31.8537  -23.3554   21.1734 H   0  0  0  0  0  0
  -31.5306  -22.2882   19.8541 H   0  0  0  0  0  0
  -27.6320  -24.8602   20.1617 H   0  0  0  0  0  0
  -28.3029  -25.3579   18.6026 H   0  0  0  0  0  0
  -29.7500  -21.2875   21.8112 H   0  0  0  0  0  0
  -31.0645  -21.8551   22.7832 H   0  0  0  0  0  0
  -28.7797  -16.5819   22.4077 H   0  0  0  0  0  0
  1 25  1  0  0  0
  1 30  2  0  0  0
  1 79  1  0  0  0
  2  3  1  0  0  0
  2 25  1  0  0  0
  2 87  1  0  0  0
  2 88  1  0  0  0
  3  4  1  0  0  0
  3 89  1  0  0  0
  3 90  1  0  0  0
  4  5  1  0  0  0
  4 91  1  0  0  0
  4 92  1  0  0  0
  5  6  1  0  0  0
  5 26  1  0  0  0
  5 93  1  0  0  0
  6 25  1  0  0  0
  6 94  1  0  0  0
  6 95  1  0  0  0
  7  8  2  0  0  0
  7 26  1  0  0  0
  7 29  1  0  0  0
  8  9  1  0  0  0
  8 22  1  0  0  0
  9 10  1  0  0  0
  9 27  2  0  0  0
 10 11  2  0  0  0
 10 15  1  0  0  0
 11 12  1  0  0  0
 11 96  1  0  0  0
 12 13  2  0  0  0
 12 97  1  0  0  0
 13 14  1  0  0  0
 13 31  1  0  0  0
 14 15  2  0  0  0
 14 98  1  0  0  0
 15 99  1  0  0  0
 16 17  2  0  0  0
 16 21  1  0  0  0
 16 31  1  0  0  0
 17 18  1  0  0  0
 17100  1  0  0  0
 18 19  2  0  0  0
 18101  1  0  0  0
 19 20  1  0  0  0
 19 24  1  0  0  0
 20 21  2  0  0  0
 20102  1  0  0  0
 21 23  1  0  0  0
 22 28  1  0  0  0
 22 32  2  0  0  0
 26 27  1  0  0  0
 28103  1  0  0  0
 28104  1  0  0  0
 29105  1  0  0  0
 29106  1  0  0  0
 33 34  1  0  0  0
 33 66  1  0  0  0
 33 70  2  0  0  0
 34 36  1  0  0  0
 34 59  1  0  0  0
 34107  1  0  0  0
 35 44  2  0  0  0
 35 45  1  0  0  0
 35 68  1  0  0  0
 36 56  1  0  0  0
 36108  1  0  0  0
 37 39  1  0  0  0
 37 47  1  0  0  0
 37 66  1  0  0  0
 37109  1  0  0  0
 38 43  2  0  0  0
 38 46  1  0  0  0
 38 47  1  0  0  0
 39 64  1  0  0  0
 39 67  2  0  0  0
 40 52  1  0  0  0
 40 53  2  0  0  0
 40 58  1  0  0  0
 41110  1  0  0  0
 41111  1  0  0  0
 41112  1  0  0  0
 41 48  1  0  0  0
 42 43  1  0  0  0
 42 66  1  0  0  0
 42113  1  0  0  0
 42114  1  0  0  0
 43 44  1  0  0  0
 44115  1  0  0  0
 45 46  2  0  0  0
 45116  1  0  0  0
 46117  1  0  0  0
 47118  1  0  0  0
 47119  1  0  0  0
 48 56  1  0  0  0
 48 65  1  0  0  0
 48120  1  0  0  0
 49 50  1  0  0  0
 49 53  1  0  0  0
 49 64  1  0  0  0
 49121  1  0  0  0
 50 51  1  0  0  0
 50122  1  0  0  0
 50123  1  0  0  0
 51 52  1  0  0  0
 51124  1  0  0  0
 51125  1  0  0  0
 52126  1  0  0  0
 52127  1  0  0  0
 53 54  1  0  0  0
 54 55  2  0  0  0
 54128  1  0  0  0
 55 57  1  0  0  0
 55129  1  0  0  0
 56 69  2  0  0  0
 57 58  2  0  0  0
 57130  1  0  0  0
 58131  1  0  0  0
 59 60  1  0  0  0
 59 61  1  0  0  0
 59 62  1  0  0  0
 60132  1  0  0  0
 60133  1  0  0  0
 60134  1  0  0  0
 61135  1  0  0  0
 61136  1  0  0  0
 61137  1  0  0  0
 62138  1  0  0  0
 62139  1  0  0  0
 62140  1  0  0  0
 63 65  1  0  0  0
 63141  1  0  0  0
 63142  1  0  0  0
 63143  1  0  0  0
 64144  1  0  0  0
 65145  1  0  0  0
 68 83  1  0  0  0
 71 72  2  0  0  0
 71 75  1  0  0  0
 71146  1  0  0  0
 72 76  1  0  0  0
 72147  1  0  0  0
 73 74  1  0  0  0
 73 76  2  0  0  0
 73148  1  0  0  0
 74 75  2  0  0  0
 74 79  1  0  0  0
 75 81  1  0  0  0
 76 86  1  0  0  0
 77 78  2  0  0  0
 77 82  1  0  0  0
 77149  1  0  0  0
 78 83  1  0  0  0
 78150  1  0  0  0
 79 85  2  0  0  0
 80 81  1  0  0  0
 80151  1  0  0  0
 80152  1  0  0  0
 80153  1  0  0  0
 81154  1  0  0  0
 81155  1  0  0  0
 82 84  1  0  0  0
 82156  1  0  0  0
 82157  1  0  0  0
 83158  1  0  0  0
 83159  1  0  0  0
 84 86  1  0  0  0
 84160  1  0  0  0
 84161  1  0  0  0
 85162  1  0  0  0
M  ISO  4   1 100  68 101  79 100  83 101
M  END
> <chiral flag>
0

> <version>
0

> <s_m_source_file>
/data/baiqing/PycharmProjects/Reinvent-master-3.2/result/LINK_invent/BTK/process_docking_weight1_custom_product_contain_oxygen_bond_distance_aromatic_linkinvent_7_9_3/rearranged_h_0119.sdf

> <i_m_source_file_index>
60

> <r_mmod_Potential_Energy-OPLS-2005>
162.701141357422

> <r_mmod_Stretch_Energy-OPLS-2005>
44.9216003417969

> <r_mmod_Bend_Energy-OPLS-2005>
114.153717041016

> <r_mmod_Torsional_Energy-OPLS-2005>
230.399703979492

> <r_mmod_Improper_Torsional_Energy-OPLS-2005>
3.90851783752441

> <r_mmod_Van_der_Waal_Energy-OPLS-2005>
166.884033203125

> <r_mmod_Electrostatic_Energy-OPLS-2005>
-218.591369628906

> <r_mmod_Solvation_Energy-OPLS-2005>
-194.591781616211

> <b_mmod_Minimization_Converged-OPLS-2005>
0

> <r_mmod_RMS_Derivative-OPLS-2005>
4.35556268692017

$$$$
60
                    3D
 Structure written by MMmdl.
164172  0  0  1  0            999 V2000
  -30.7951  -14.3239   20.7368 C   0  0  0  0  0  0
  -30.4141  -12.2983   19.3782 C   0  0  0  0  0  0
  -29.4758  -12.5393   18.1834 C   0  0  0  0  0  0
  -28.0040  -12.3829   18.6055 C   0  0  0  0  0  0
  -27.6641  -13.2030   19.8764 C   0  0  2  0  0  0
  -28.7004  -12.9434   20.9898 C   0  0  0  0  0  0
  -25.2593  -13.8162   20.5667 C   0  0  0  0  0  0
  -24.1840  -13.0445   20.9160 C   0  0  0  0  0  0
  -24.6387  -11.6908   20.8722 C   0  0  0  0  0  0
  -23.9054  -10.4296   21.0402 C   0  0  0  0  0  0
  -24.3609   -9.4212   21.9181 C   0  0  0  0  0  0
  -23.6289   -8.2246   22.0754 C   0  0  0  0  0  0
  -22.4269   -8.0283   21.3546 C   0  0  0  0  0  0
  -21.9902   -9.0255   20.4645 C   0  0  0  0  0  0
  -22.7228  -10.2136   20.3054 C   0  0  0  0  0  0
  -21.6851   -6.0738   22.5281 C   0  0  0  0  0  0
  -21.4012   -6.5640   23.8215 C   0  0  0  0  0  0
  -21.3661   -5.6792   24.9174 C   0  0  0  0  0  0
  -21.6044   -4.3054   24.7225 C   0  0  0  0  0  0
  -21.8820   -3.8149   23.4346 C   0  0  0  0  0  0
  -21.9190   -4.6965   22.3404 C   0  0  0  0  0  0
  -22.7861  -13.5246   21.1845 C   0  0  0  0  0  0
  -22.1657   -4.2152   21.0981 F   0  0  0  0  0  0
  -21.5632   -3.4542   25.7740 F   0  0  0  0  0  0
  -30.0482  -13.2264   20.4567 N   0  0  0  0  0  0
  -26.3027  -12.9327   20.3360 N   0  0  0  0  0  0
  -25.9308  -11.6485   20.5740 N   0  0  0  0  0  0
  -22.0501  -12.8235   22.0397 N   0  0  0  0  0  0
  -25.4338  -15.1880   20.4091 N   0  0  0  0  0  0
  -31.7703  -14.6769   20.0651 O   0  0  0  0  0  0
  -21.6638   -6.8881   21.4245 O   0  0  0  0  0  0
  -22.3549  -14.5563   20.6712 O   0  0  0  0  0  0
  -24.6109  -31.8696   23.2126 C   0  0  0  0  0  0
  -25.9013  -32.4835   23.8412 C   0  0  1  0  0  0
  -27.2387  -27.4680   20.0900 C   0  0  0  0  0  0
  -25.5879  -33.8635   24.2353 N   0  0  0  0  0  0
  -23.3982  -30.4906   21.5519 C   0  0  2  0  0  0
  -24.8466  -28.9548   20.1209 C   0  0  0  0  0  0
  -22.7383  -29.4657   22.5009 C   0  0  0  0  0  0
  -18.0258  -28.1375   22.8491 C   0  0  0  0  0  0
  -24.1481  -36.7320   23.2626 C   0  0  0  0  0  0
  -25.9217  -30.8430   21.3609 C   0  0  0  0  0  0
  -26.0023  -29.4759   20.7173 C   0  0  0  0  0  0
  -27.2034  -28.7363   20.7063 C   0  0  0  0  0  0
  -26.0731  -26.9490   19.4944 C   0  0  0  0  0  0
  -24.8733  -27.6863   19.5120 C   0  0  0  0  0  0
  -23.6068  -29.8187   20.1678 C   0  0  0  0  0  0
  -25.4096  -36.3127   24.0340 C   0  0  1  0  0  0
  -20.5844  -28.3657   23.1320 C   0  0  2  0  0  0
  -20.6757  -26.9395   22.5411 C   0  0  0  0  0  0
  -19.5735  -26.6387   21.5206 C   0  0  0  0  0  0
  -18.1912  -26.7923   22.1618 C   0  0  0  0  0  0
  -19.1507  -28.8834   23.2911 C   0  0  0  0  0  0
  -18.9445  -30.1444   23.8919 C   0  0  0  0  0  0
  -17.6450  -30.6590   24.0565 C   0  0  0  0  0  0
  -25.9026  -34.9487   23.5147 C   0  0  0  0  0  0
  -16.5341  -29.9094   23.6323 C   0  0  0  0  0  0
  -16.7248  -28.6507   23.0347 C   0  0  0  0  0  0
  -26.4460  -31.6601   25.0723 C   0  0  0  0  0  0
  -25.3746  -31.3707   26.1494 C   0  0  0  0  0  0
  -27.0260  -30.3042   24.6069 C   0  0  0  0  0  0
  -27.6070  -32.4288   25.7455 C   0  0  0  0  0  0
  -27.5601  -37.1779   24.8437 C   0  0  0  0  0  0
  -21.4114  -29.3033   22.3742 N   0  0  0  0  0  0
  -26.4271  -37.3828   23.9451 N   0  0  0  0  0  0
  -24.6618  -31.0814   22.1015 N   0  0  0  0  0  0
  -23.4158  -28.8185   23.3041 O   0  0  0  0  0  0
  -28.4067  -26.7585   20.0061 O   0  0  0  0  0  0
  -26.5591  -34.8929   22.4712 O   0  0  0  0  0  0
  -23.5313  -32.1437   23.7537 O   0  0  0  0  0  0
  -31.9974  -18.1542   21.8544 C   0  0  0  0  0  0
  -29.5523  -19.2962   22.6077 C   0  0  0  0  0  0
  -31.8221  -19.5503   21.7317 C   0  0  0  0  0  0
  -30.9841  -17.3286   22.3847 C   0  0  0  0  0  0
  -29.7386  -17.9031   22.7435 C   0  0  0  0  0  0
  -30.5914  -20.1237   22.1298 C   0  0  0  0  0  0
  -34.0317  -20.0058   20.6082 C   0  0  0  0  0  0
  -32.8905  -20.4144   21.1897 C   0  0  0  0  0  0
  -28.6083  -17.0628   23.3167 C   0  0  0  0  0  0
  -31.3116  -15.8586   22.6306 C   0  0  0  0  0  0
  -28.6754  -24.4596   20.7163 C   0  0  0  0  0  0
  -29.3990  -23.5614   21.7334 C   0  0  0  0  0  0
  -28.7057  -25.9417   21.1305 C   0  0  0  0  0  0
  -29.4322  -22.0681   21.3649 C   0  0  0  0  0  0
  -30.4852  -14.9079   21.8985 N   0  0  0  0  0  0
  -30.4688  -21.4920   22.1467 O   0  0  0  0  0  0
  -31.4548  -12.4101   19.0680 H   0  0  0  0  0  0
  -30.3217  -11.2712   19.7344 H   0  0  0  0  0  0
  -29.7094  -11.8449   17.3754 H   0  0  0  0  0  0
  -29.6385  -13.5417   17.7839 H   0  0  0  0  0  0
  -27.8172  -11.3235   18.7852 H   0  0  0  0  0  0
  -27.3457  -12.6716   17.7854 H   0  0  0  0  0  0
  -27.7232  -14.2580   19.6068 H   0  0  0  0  0  0
  -28.6571  -11.9008   21.3089 H   0  0  0  0  0  0
  -28.4385  -13.5272   21.8722 H   0  0  0  0  0  0
  -25.2755   -9.5690   22.4751 H   0  0  0  0  0  0
  -24.0002   -7.4637   22.7470 H   0  0  0  0  0  0
  -21.0834   -8.8768   19.8950 H   0  0  0  0  0  0
  -22.3685  -10.9675   19.6162 H   0  0  0  0  0  0
  -21.2004   -7.6147   23.9718 H   0  0  0  0  0  0
  -21.1482   -6.0522   25.9075 H   0  0  0  0  0  0
  -22.0598   -2.7610   23.2846 H   0  0  0  0  0  0
  -22.4111  -11.9890   22.4774 H   0  0  0  0  0  0
  -21.1119  -13.1266   22.2617 H   0  0  0  0  0  0
  -24.6730  -15.8493   20.5203 H   0  0  0  0  0  0
  -26.2964  -15.6237   20.1070 H   0  0  0  0  0  0
  -26.7077  -32.5558   23.1175 H   0  0  0  0  0  0
  -25.0045  -33.9810   25.0507 H   0  0  0  0  0  0
  -22.6874  -31.3071   21.4104 H   0  0  0  0  0  0
  -23.3776  -35.9610   23.3213 H   0  0  0  0  0  0
  -24.3619  -36.9017   22.2060 H   0  0  0  0  0  0
  -23.7163  -37.6471   23.6691 H   0  0  0  0  0  0
  -26.0252  -31.6049   20.5870 H   0  0  0  0  0  0
  -26.8122  -30.9047   21.9738 H   0  0  0  0  0  0
  -28.1014  -29.1399   21.1523 H   0  0  0  0  0  0
  -26.0986  -25.9817   19.0121 H   0  0  0  0  0  0
  -23.9840  -27.2777   19.0523 H   0  0  0  0  0  0
  -23.7138  -30.5913   19.4057 H   0  0  0  0  0  0
  -22.7320  -29.2355   19.8731 H   0  0  0  0  0  0
  -25.1257  -36.1986   25.0825 H   0  0  0  0  0  0
  -20.9931  -28.3213   24.1438 H   0  0  0  0  0  0
  -20.5668  -26.2260   23.3596 H   0  0  0  0  0  0
  -21.6635  -26.7447   22.1202 H   0  0  0  0  0  0
  -19.6914  -25.6304   21.1221 H   0  0  0  0  0  0
  -19.6681  -27.3213   20.6747 H   0  0  0  0  0  0
  -17.4181  -26.6656   21.4024 H   0  0  0  0  0  0
  -18.0329  -26.0062   22.9016 H   0  0  0  0  0  0
  -19.7921  -30.7256   24.2298 H   0  0  0  0  0  0
  -17.5001  -31.6271   24.5164 H   0  0  0  0  0  0
  -15.5347  -30.3007   23.7648 H   0  0  0  0  0  0
  -15.8638  -28.0841   22.7055 H   0  0  0  0  0  0
  -24.5869  -30.7118   25.7833 H   0  0  0  0  0  0
  -24.9000  -32.2862   26.5031 H   0  0  0  0  0  0
  -25.8103  -30.8792   27.0201 H   0  0  0  0  0  0
  -26.2778  -29.6805   24.1161 H   0  0  0  0  0  0
  -27.4076  -29.7287   25.4515 H   0  0  0  0  0  0
  -27.8599  -30.4369   23.9171 H   0  0  0  0  0  0
  -27.2755  -33.3621   26.2021 H   0  0  0  0  0  0
  -28.3877  -32.6780   25.0253 H   0  0  0  0  0  0
  -28.0719  -31.8390   26.5368 H   0  0  0  0  0  0
  -28.2517  -38.0182   24.7676 H   0  0  0  0  0  0
  -28.1203  -36.2735   24.6014 H   0  0  0  0  0  0
  -27.2359  -37.1119   25.8838 H   0  0  0  0  0  0
  -20.9275  -29.8765   21.6972 H   0  0  0  0  0  0
  -26.0155  -38.2874   24.1583 H   0  0  0  0  0  0
  -32.9398  -17.7031   21.5830 H   0  0  0  0  0  0
  -28.6219  -19.7437   22.9281 H   0  0  0  0  0  0
  -34.7518  -20.7295   20.2529 H   0  0  0  0  0  0
  -34.2784  -18.9639   20.4669 H   0  0  0  0  0  0
  -32.7353  -21.4808   21.2792 H   0  0  0  0  0  0
  -27.8131  -17.6891   23.7219 H   0  0  0  0  0  0
  -28.9618  -16.4255   24.1272 H   0  0  0  0  0  0
  -28.1696  -16.4317   22.5433 H   0  0  0  0  0  0
  -31.1933  -15.6575   23.6960 H   0  0  0  0  0  0
  -32.3667  -15.6654   22.4273 H   0  0  0  0  0  0
  -27.6433  -24.1338   20.5820 H   0  0  0  0  0  0
  -29.1622  -24.3503   19.7464 H   0  0  0  0  0  0
  -28.9511  -23.6762   22.7204 H   0  0  0  0  0  0
  -30.4246  -23.9211   21.8276 H   0  0  0  0  0  0
  -29.7061  -26.2174   21.4656 H   0  0  0  0  0  0
  -28.0334  -26.1158   21.9733 H   0  0  0  0  0  0
  -29.6737  -21.9339   20.3096 H   0  0  0  0  0  0
  -28.4603  -21.6070   21.5451 H   0  0  0  0  0  0
  -29.6976  -14.5174   22.3919 H   0  0  0  0  0  0
  1 25  1  0  0  0
  1 30  2  0  0  0
  1 85  1  0  0  0
  2  3  1  0  0  0
  2 25  1  0  0  0
  2 87  1  0  0  0
  2 88  1  0  0  0
  3  4  1  0  0  0
  3 89  1  0  0  0
  3 90  1  0  0  0
  4  5  1  0  0  0
  4 91  1  0  0  0
  4 92  1  0  0  0
  5  6  1  0  0  0
  5 26  1  0  0  0
  5 93  1  0  0  0
  6 25  1  0  0  0
  6 94  1  0  0  0
  6 95  1  0  0  0
  7  8  2  0  0  0
  7 26  1  0  0  0
  7 29  1  0  0  0
  8  9  1  0  0  0
  8 22  1  0  0  0
  9 10  1  0  0  0
  9 27  2  0  0  0
 10 11  2  0  0  0
 10 15  1  0  0  0
 11 12  1  0  0  0
 11 96  1  0  0  0
 12 13  2  0  0  0
 12 97  1  0  0  0
 13 14  1  0  0  0
 13 31  1  0  0  0
 14 15  2  0  0  0
 14 98  1  0  0  0
 15 99  1  0  0  0
 16 17  2  0  0  0
 16 21  1  0  0  0
 16 31  1  0  0  0
 17 18  1  0  0  0
 17100  1  0  0  0
 18 19  2  0  0  0
 18101  1  0  0  0
 19 20  1  0  0  0
 19 24  1  0  0  0
 20 21  2  0  0  0
 20102  1  0  0  0
 21 23  1  0  0  0
 22 28  1  0  0  0
 22 32  2  0  0  0
 26 27  1  0  0  0
 28103  1  0  0  0
 28104  1  0  0  0
 29105  1  0  0  0
 29106  1  0  0  0
 33 34  1  0  0  0
 33 66  1  0  0  0
 33 70  2  0  0  0
 34 36  1  0  0  0
 34 59  1  0  0  0
 34107  1  0  0  0
 35 44  2  0  0  0
 35 45  1  0  0  0
 35 68  1  0  0  0
 36 56  1  0  0  0
 36108  1  0  0  0
 37 39  1  0  0  0
 37 47  1  0  0  0
 37 66  1  0  0  0
 37109  1  0  0  0
 38 43  2  0  0  0
 38 46  1  0  0  0
 38 47  1  0  0  0
 39 64  1  0  0  0
 39 67  2  0  0  0
 40 52  1  0  0  0
 40 53  2  0  0  0
 40 58  1  0  0  0
 41110  1  0  0  0
 41111  1  0  0  0
 41112  1  0  0  0
 41 48  1  0  0  0
 42 43  1  0  0  0
 42 66  1  0  0  0
 42113  1  0  0  0
 42114  1  0  0  0
 43 44  1  0  0  0
 44115  1  0  0  0
 45 46  2  0  0  0
 45116  1  0  0  0
 46117  1  0  0  0
 47118  1  0  0  0
 47119  1  0  0  0
 48 56  1  0  0  0
 48 65  1  0  0  0
 48120  1  0  0  0
 49 50  1  0  0  0
 49 53  1  0  0  0
 49 64  1  0  0  0
 49121  1  0  0  0
 50 51  1  0  0  0
 50122  1  0  0  0
 50123  1  0  0  0
 51 52  1  0  0  0
 51124  1  0  0  0
 51125  1  0  0  0
 52126  1  0  0  0
 52127  1  0  0  0
 53 54  1  0  0  0
 54 55  2  0  0  0
 54128  1  0  0  0
 55 57  1  0  0  0
 55129  1  0  0  0
 56 69  2  0  0  0
 57 58  2  0  0  0
 57130  1  0  0  0
 58131  1  0  0  0
 59 60  1  0  0  0
 59 61  1  0  0  0
 59 62  1  0  0  0
 60132  1  0  0  0
 60133  1  0  0  0
 60134  1  0  0  0
 61135  1  0  0  0
 61136  1  0  0  0
 61137  1  0  0  0
 62138  1  0  0  0
 62139  1  0  0  0
 62140  1  0  0  0
 63 65  1  0  0  0
 63141  1  0  0  0
 63142  1  0  0  0
 63143  1  0  0  0
 64144  1  0  0  0
 65145  1  0  0  0
 68 83  1  0  0  0
 71 73  2  0  0  0
 71 74  1  0  0  0
 71146  1  0  0  0
 72 75  1  0  0  0
 72 76  2  0  0  0
 72147  1  0  0  0
 73 76  1  0  0  0
 73 78  1  0  0  0
 74 75  2  0  0  0
 74 80  1  0  0  0
 75 79  1  0  0  0
 76 86  1  0  0  0
 77 78  2  0  0  0
 77148  1  0  0  0
 77149  1  0  0  0
 78150  1  0  0  0
 79151  1  0  0  0
 79152  1  0  0  0
 79153  1  0  0  0
 80 85  1  0  0  0
 80154  1  0  0  0
 80155  1  0  0  0
 81 82  1  0  0  0
 81 83  1  0  0  0
 81156  1  0  0  0
 81157  1  0  0  0
 82 84  1  0  0  0
 82158  1  0  0  0
 82159  1  0  0  0
 83160  1  0  0  0
 83161  1  0  0  0
 84 86  1  0  0  0
 84162  1  0  0  0
 84163  1  0  0  0
 85164  1  0  0  0
M  ISO  4   1 100  68 101  83 101  85 100
M  END
> <chiral flag>
0

> <version>
0

> <s_m_source_file>
/data/baiqing/PycharmProjects/Reinvent-master-3.2/result/LINK_invent/BTK/process_docking_weight1_custom_product_contain_oxygen_bond_distance_aromatic_linkinvent_7_9_3/rearranged_h_0119.sdf

> <i_m_source_file_index>
61

> <r_mmod_Potential_Energy-OPLS-2005>
-86.1865386962891

> <r_mmod_Stretch_Energy-OPLS-2005>
32.0471305847168

> <r_mmod_Bend_Energy-OPLS-2005>
91.3229751586914

> <r_mmod_Torsional_Energy-OPLS-2005>
253.079284667969

> <r_mmod_Improper_Torsional_Energy-OPLS-2005>
4.00603342056274

> <r_mmod_Van_der_Waal_Energy-OPLS-2005>
151.374801635742

> <r_mmod_Electrostatic_Energy-OPLS-2005>
-416.068328857422

> <r_mmod_Solvation_Energy-OPLS-2005>
-208.971771240234

> <b_mmod_Minimization_Converged-OPLS-2005>
0

> <r_mmod_RMS_Derivative-OPLS-2005>
1.19933152198792

$$$$
61
                    3D
 Structure written by MMmdl.
167175  0  0  1  0            999 V2000
  -30.7573  -14.4723   20.5613 C   0  0  0  0  0  0
  -30.4370  -12.3144   19.3905 C   0  0  0  0  0  0
  -29.4910  -12.4747   18.1850 C   0  0  0  0  0  0
  -28.0176  -12.3422   18.6199 C   0  0  0  0  0  0
  -27.6696  -13.2075   19.8600 C   0  0  2  0  0  0
  -28.7317  -13.0049   20.9711 C   0  0  0  0  0  0
  -25.2535  -13.8024   20.5283 C   0  0  0  0  0  0
  -24.1894  -13.0359   20.9144 C   0  0  0  0  0  0
  -24.6464  -11.6865   20.8806 C   0  0  0  0  0  0
  -23.9075  -10.4285   21.0451 C   0  0  0  0  0  0
  -24.3633   -9.4200   21.9231 C   0  0  0  0  0  0
  -23.6340   -8.2222   22.0768 C   0  0  0  0  0  0
  -22.4329   -8.0279   21.3548 C   0  0  0  0  0  0
  -21.9950   -9.0246   20.4661 C   0  0  0  0  0  0
  -22.7234  -10.2131   20.3098 C   0  0  0  0  0  0
  -21.6850   -6.0761   22.5297 C   0  0  0  0  0  0
  -21.3983   -6.5662   23.8227 C   0  0  0  0  0  0
  -21.3643   -5.6815   24.9200 C   0  0  0  0  0  0
  -21.6058   -4.3068   24.7221 C   0  0  0  0  0  0
  -21.8839   -3.8158   23.4336 C   0  0  0  0  0  0
  -21.9181   -4.6998   22.3397 C   0  0  0  0  0  0
  -22.7907  -13.5168   21.1812 C   0  0  0  0  0  0
  -22.1672   -4.2187   21.0966 F   0  0  0  0  0  0
  -21.5625   -3.4534   25.7712 F   0  0  0  0  0  0
  -30.0569  -13.3143   20.4019 N   0  0  0  0  0  0
  -26.3101  -12.9293   20.3324 N   0  0  0  0  0  0
  -25.9432  -11.6455   20.5944 N   0  0  0  0  0  0
  -22.0565  -12.8220   22.0406 N   0  0  0  0  0  0
  -25.3895  -15.1613   20.2875 N   0  0  0  0  0  0
  -31.8862  -14.6450   20.0983 O   0  0  0  0  0  0
  -21.6660   -6.8908   21.4264 O   0  0  0  0  0  0
  -22.3590  -14.5466   20.6640 O   0  0  0  0  0  0
  -24.6090  -31.8635   23.2095 C   0  0  0  0  0  0
  -25.8900  -32.4823   23.8437 C   0  0  1  0  0  0
  -27.2298  -27.3990   20.1192 C   0  0  0  0  0  0
  -25.5838  -33.8644   24.2346 N   0  0  0  0  0  0
  -23.4062  -30.4820   21.5472 C   0  0  2  0  0  0
  -24.8555  -28.9516   20.1093 C   0  0  0  0  0  0
  -22.7450  -29.4594   22.4944 C   0  0  0  0  0  0
  -18.0284  -28.1377   22.8474 C   0  0  0  0  0  0
  -24.1490  -36.7313   23.2648 C   0  0  0  0  0  0
  -25.9370  -30.8208   21.3654 C   0  0  0  0  0  0
  -26.0176  -29.4545   20.7085 C   0  0  0  0  0  0
  -27.2094  -28.6880   20.7081 C   0  0  0  0  0  0
  -26.0528  -26.9273   19.4912 C   0  0  0  0  0  0
  -24.8716  -27.6927   19.4888 C   0  0  0  0  0  0
  -23.6170  -29.8158   20.1615 C   0  0  0  0  0  0
  -25.4106  -36.3126   24.0371 C   0  0  1  0  0  0
  -20.5893  -28.3625   23.1331 C   0  0  2  0  0  0
  -20.6792  -26.9345   22.5441 C   0  0  0  0  0  0
  -19.5796  -26.6368   21.5211 C   0  0  0  0  0  0
  -18.1946  -26.7940   22.1555 C   0  0  0  0  0  0
  -19.1535  -28.8821   23.2904 C   0  0  0  0  0  0
  -18.9455  -30.1433   23.8902 C   0  0  0  0  0  0
  -17.6451  -30.6581   24.0532 C   0  0  0  0  0  0
  -25.9024  -34.9487   23.5146 C   0  0  0  0  0  0
  -16.5336  -29.9072   23.6331 C   0  0  0  0  0  0
  -16.7273  -28.6502   23.0344 C   0  0  0  0  0  0
  -26.4391  -31.6644   25.0757 C   0  0  0  0  0  0
  -25.3773  -31.3686   26.1594 C   0  0  0  0  0  0
  -27.0089  -30.3083   24.6012 C   0  0  0  0  0  0
  -27.5993  -32.4399   25.7443 C   0  0  0  0  0  0
  -27.5593  -37.1802   24.8458 C   0  0  0  0  0  0
  -21.4154  -29.2954   22.3706 N   0  0  0  0  0  0
  -26.4277  -37.3817   23.9431 N   0  0  0  0  0  0
  -24.6689  -31.0721   22.0978 N   0  0  0  0  0  0
  -23.4218  -28.8127   23.2985 O   0  0  0  0  0  0
  -28.3522  -26.5881   20.1739 O   0  0  0  0  0  0
  -26.5565  -34.8910   22.4698 O   0  0  0  0  0  0
  -23.5264  -32.1336   23.7493 O   0  0  0  0  0  0
  -27.6925  -20.1236   21.3536 C   0  0  0  0  0  0
  -29.9593  -19.2986   21.3037 C   0  0  0  0  0  0
  -27.2098  -18.8123   21.5456 C   0  0  0  0  0  0
  -29.5112  -17.9627   21.5333 C   0  0  0  0  0  0
  -28.1206  -17.7428   21.7905 C   0  0  0  0  0  0
  -29.0745  -20.4112   21.2669 C   0  0  0  0  0  0
  -23.8960  -20.1464   20.5447 C   0  0  0  0  0  0
  -24.9841  -19.3779   20.3792 C   0  0  0  0  0  0
  -28.2341  -15.9676   23.7029 C   0  0  0  0  0  0
  -25.6907  -18.6196   21.4921 C   0  0  0  0  0  0
  -27.5969  -16.4118   22.3671 C   0  0  0  0  0  0
  -30.5722  -16.8294   21.5181 C   0  0  0  0  0  0
  -29.1982  -24.2145   20.6891 C   0  0  0  0  0  0
  -28.1381  -25.3445   20.8969 C   0  0  0  0  0  0
  -28.7104  -22.8509   21.2760 C   0  0  0  0  0  0
  -30.0980  -15.4770   21.1612 N   0  0  0  0  0  0
  -29.5864  -21.7063   21.1026 O   0  0  0  0  0  0
  -31.4757  -12.4123   19.0693 H   0  0  0  0  0  0
  -30.3456  -11.3089   19.8051 H   0  0  0  0  0  0
  -29.7238  -11.7172   17.4329 H   0  0  0  0  0  0
  -29.6531  -13.4414   17.7076 H   0  0  0  0  0  0
  -27.8534  -11.2905   18.8619 H   0  0  0  0  0  0
  -27.3434  -12.5671   17.7913 H   0  0  0  0  0  0
  -27.7090  -14.2502   19.5370 H   0  0  0  0  0  0
  -28.7282  -11.9693   21.3118 H   0  0  0  0  0  0
  -28.5137  -13.5872   21.8631 H   0  0  0  0  0  0
  -25.2783   -9.5686   22.4795 H   0  0  0  0  0  0
  -24.0074   -7.4600   22.7439 H   0  0  0  0  0  0
  -21.0894   -8.8720   19.8954 H   0  0  0  0  0  0
  -22.3676  -10.9677   19.6208 H   0  0  0  0  0  0
  -21.1968   -7.6171   23.9746 H   0  0  0  0  0  0
  -21.1449   -6.0528   25.9107 H   0  0  0  0  0  0
  -22.0622   -2.7621   23.2788 H   0  0  0  0  0  0
  -22.4208  -11.9938   22.4883 H   0  0  0  0  0  0
  -21.1166  -13.1252   22.2586 H   0  0  0  0  0  0
  -24.5201  -15.6706   20.1602 H   0  0  0  0  0  0
  -26.1172  -15.4764   19.6589 H   0  0  0  0  0  0
  -26.6927  -32.5498   23.1169 H   0  0  0  0  0  0
  -25.0140  -33.9907   25.0595 H   0  0  0  0  0  0
  -22.6890  -31.2936   21.4096 H   0  0  0  0  0  0
  -23.3799  -35.9597   23.3302 H   0  0  0  0  0  0
  -24.3624  -36.8920   22.2064 H   0  0  0  0  0  0
  -23.7160  -37.6492   23.6652 H   0  0  0  0  0  0
  -26.0483  -31.5835   20.5940 H   0  0  0  0  0  0
  -26.8261  -30.8757   21.9810 H   0  0  0  0  0  0
  -28.0998  -29.0694   21.1912 H   0  0  0  0  0  0
  -26.0335  -25.9556   19.0210 H   0  0  0  0  0  0
  -23.9798  -27.3047   19.0108 H   0  0  0  0  0  0
  -23.7217  -30.5879   19.3972 H   0  0  0  0  0  0
  -22.7449  -29.2256   19.8724 H   0  0  0  0  0  0
  -25.1281  -36.2013   25.0874 H   0  0  0  0  0  0
  -21.0002  -28.3158   24.1445 H   0  0  0  0  0  0
  -20.5659  -26.2199   23.3623 H   0  0  0  0  0  0
  -21.6643  -26.7404   22.1228 H   0  0  0  0  0  0
  -19.6960  -25.6275   21.1222 H   0  0  0  0  0  0
  -19.6810  -27.3182   20.6744 H   0  0  0  0  0  0
  -17.4268  -26.6743   21.3889 H   0  0  0  0  0  0
  -18.0281  -26.0062   22.8943 H   0  0  0  0  0  0
  -19.7920  -30.7243   24.2295 H   0  0  0  0  0  0
  -17.4997  -31.6269   24.5111 H   0  0  0  0  0  0
  -15.5325  -30.2945   23.7702 H   0  0  0  0  0  0
  -15.8682  -28.0814   22.7065 H   0  0  0  0  0  0
  -24.6072  -30.6828   25.8068 H   0  0  0  0  0  0
  -24.8803  -32.2768   26.5033 H   0  0  0  0  0  0
  -25.8331  -30.9032   27.0350 H   0  0  0  0  0  0
  -26.2475  -29.6986   24.1123 H   0  0  0  0  0  0
  -27.3907  -29.7197   25.4353 H   0  0  0  0  0  0
  -27.8359  -30.4423   23.9034 H   0  0  0  0  0  0
  -27.2644  -33.3767   26.1946 H   0  0  0  0  0  0
  -28.3798  -32.6892   25.0236 H   0  0  0  0  0  0
  -28.0643  -31.8588   26.5414 H   0  0  0  0  0  0
  -28.2606  -38.0098   24.7521 H   0  0  0  0  0  0
  -28.1100  -36.2651   24.6267 H   0  0  0  0  0  0
  -27.2356  -37.1414   25.8867 H   0  0  0  0  0  0
  -20.9320  -29.8618   21.6875 H   0  0  0  0  0  0
  -26.0198  -38.2890   24.1516 H   0  0  0  0  0  0
  -26.9402  -20.8918   21.2854 H   0  0  0  0  0  0
  -31.0178  -19.4753   21.1701 H   0  0  0  0  0  0
  -23.4241  -20.6340   19.7027 H   0  0  0  0  0  0
  -23.4581  -20.3020   21.5200 H   0  0  0  0  0  0
  -25.3857  -19.2528   19.3838 H   0  0  0  0  0  0
  -27.7825  -15.0324   24.0430 H   0  0  0  0  0  0
  -28.0624  -16.7122   24.4802 H   0  0  0  0  0  0
  -29.3067  -15.7918   23.6501 H   0  0  0  0  0  0
  -25.2564  -18.8576   22.4646 H   0  0  0  0  0  0
  -25.4356  -17.5910   21.2605 H   0  0  0  0  0  0
  -27.6670  -15.6440   21.6082 H   0  0  0  0  0  0
  -26.5365  -16.4593   22.5876 H   0  0  0  0  0  0
  -31.0243  -16.7811   22.5107 H   0  0  0  0  0  0
  -31.3844  -17.1188   20.8452 H   0  0  0  0  0  0
  -30.1482  -24.5119   21.1354 H   0  0  0  0  0  0
  -29.3800  -24.0897   19.6210 H   0  0  0  0  0  0
  -28.0915  -25.5853   21.9634 H   0  0  0  0  0  0
  -27.1612  -24.9184   20.6619 H   0  0  0  0  0  0
  -27.7611  -22.6764   20.7755 H   0  0  0  0  0  0
  -28.5004  -22.9681   22.3416 H   0  0  0  0  0  0
  -29.1563  -15.2613   21.4392 H   0  0  0  0  0  0
  1 25  1  0  0  0
  1 30  2  0  0  0
  1 86  1  0  0  0
  2  3  1  0  0  0
  2 25  1  0  0  0
  2 88  1  0  0  0
  2 89  1  0  0  0
  3  4  1  0  0  0
  3 90  1  0  0  0
  3 91  1  0  0  0
  4  5  1  0  0  0
  4 92  1  0  0  0
  4 93  1  0  0  0
  5  6  1  0  0  0
  5 26  1  0  0  0
  5 94  1  0  0  0
  6 25  1  0  0  0
  6 95  1  0  0  0
  6 96  1  0  0  0
  7  8  2  0  0  0
  7 26  1  0  0  0
  7 29  1  0  0  0
  8  9  1  0  0  0
  8 22  1  0  0  0
  9 10  1  0  0  0
  9 27  2  0  0  0
 10 11  2  0  0  0
 10 15  1  0  0  0
 11 12  1  0  0  0
 11 97  1  0  0  0
 12 13  2  0  0  0
 12 98  1  0  0  0
 13 14  1  0  0  0
 13 31  1  0  0  0
 14 15  2  0  0  0
 14 99  1  0  0  0
 15100  1  0  0  0
 16 17  2  0  0  0
 16 21  1  0  0  0
 16 31  1  0  0  0
 17 18  1  0  0  0
 17101  1  0  0  0
 18 19  2  0  0  0
 18102  1  0  0  0
 19 20  1  0  0  0
 19 24  1  0  0  0
 20 21  2  0  0  0
 20103  1  0  0  0
 21 23  1  0  0  0
 22 28  1  0  0  0
 22 32  2  0  0  0
 26 27  1  0  0  0
 28104  1  0  0  0
 28105  1  0  0  0
 29106  1  0  0  0
 29107  1  0  0  0
 33 34  1  0  0  0
 33 66  1  0  0  0
 33 70  2  0  0  0
 34 36  1  0  0  0
 34 59  1  0  0  0
 34108  1  0  0  0
 35 44  2  0  0  0
 35 45  1  0  0  0
 35 68  1  0  0  0
 36 56  1  0  0  0
 36109  1  0  0  0
 37 39  1  0  0  0
 37 47  1  0  0  0
 37 66  1  0  0  0
 37110  1  0  0  0
 38 43  2  0  0  0
 38 46  1  0  0  0
 38 47  1  0  0  0
 39 64  1  0  0  0
 39 67  2  0  0  0
 40 52  1  0  0  0
 40 53  2  0  0  0
 40 58  1  0  0  0
 41111  1  0  0  0
 41112  1  0  0  0
 41113  1  0  0  0
 41 48  1  0  0  0
 42 43  1  0  0  0
 42 66  1  0  0  0
 42114  1  0  0  0
 42115  1  0  0  0
 43 44  1  0  0  0
 44116  1  0  0  0
 45 46  2  0  0  0
 45117  1  0  0  0
 46118  1  0  0  0
 47119  1  0  0  0
 47120  1  0  0  0
 48 56  1  0  0  0
 48 65  1  0  0  0
 48121  1  0  0  0
 49 50  1  0  0  0
 49 53  1  0  0  0
 49 64  1  0  0  0
 49122  1  0  0  0
 50 51  1  0  0  0
 50123  1  0  0  0
 50124  1  0  0  0
 51 52  1  0  0  0
 51125  1  0  0  0
 51126  1  0  0  0
 52127  1  0  0  0
 52128  1  0  0  0
 53 54  1  0  0  0
 54 55  2  0  0  0
 54129  1  0  0  0
 55 57  1  0  0  0
 55130  1  0  0  0
 56 69  2  0  0  0
 57 58  2  0  0  0
 57131  1  0  0  0
 58132  1  0  0  0
 59 60  1  0  0  0
 59 61  1  0  0  0
 59 62  1  0  0  0
 60133  1  0  0  0
 60134  1  0  0  0
 60135  1  0  0  0
 61136  1  0  0  0
 61137  1  0  0  0
 61138  1  0  0  0
 62139  1  0  0  0
 62140  1  0  0  0
 62141  1  0  0  0
 63 65  1  0  0  0
 63142  1  0  0  0
 63143  1  0  0  0
 63144  1  0  0  0
 64145  1  0  0  0
 65146  1  0  0  0
 68 84  1  0  0  0
 71 73  2  0  0  0
 71 76  1  0  0  0
 71147  1  0  0  0
 72 74  1  0  0  0
 72 76  2  0  0  0
 72148  1  0  0  0
 73 75  1  0  0  0
 73 80  1  0  0  0
 74 75  2  0  0  0
 74 82  1  0  0  0
 75 81  1  0  0  0
 76 87  1  0  0  0
 77 78  2  0  0  0
 77149  1  0  0  0
 77150  1  0  0  0
 78 80  1  0  0  0
 78151  1  0  0  0
 79 81  1  0  0  0
 79152  1  0  0  0
 79153  1  0  0  0
 79154  1  0  0  0
 80155  1  0  0  0
 80156  1  0  0  0
 81157  1  0  0  0
 81158  1  0  0  0
 82 86  1  0  0  0
 82159  1  0  0  0
 82160  1  0  0  0
 83 84  1  0  0  0
 83 85  1  0  0  0
 83161  1  0  0  0
 83162  1  0  0  0
 84163  1  0  0  0
 84164  1  0  0  0
 85 87  1  0  0  0
 85165  1  0  0  0
 85166  1  0  0  0
 86167  1  0  0  0
M  ISO  4   1 100  68 101  84 101  86 100
M  END
> <chiral flag>
0

> <version>
0

> <s_m_source_file>
/data/baiqing/PycharmProjects/Reinvent-master-3.2/result/LINK_invent/BTK/process_docking_weight1_custom_product_contain_oxygen_bond_distance_aromatic_linkinvent_7_9_3/rearranged_h_0119.sdf

> <i_m_source_file_index>
62

> <r_mmod_Potential_Energy-OPLS-2005>
-29.677677154541

> <r_mmod_Stretch_Energy-OPLS-2005>
54.889476776123

> <r_mmod_Bend_Energy-OPLS-2005>
117.487098693848

> <r_mmod_Torsional_Energy-OPLS-2005>
242.349472045898

> <r_mmod_Improper_Torsional_Energy-OPLS-2005>
6.60056257247925

> <r_mmod_Van_der_Waal_Energy-OPLS-2005>
163.478057861328

> <r_mmod_Electrostatic_Energy-OPLS-2005>
-438.953765869141

> <r_mmod_Solvation_Energy-OPLS-2005>
-198.000366210938

> <b_mmod_Minimization_Converged-OPLS-2005>
0

> <r_mmod_RMS_Derivative-OPLS-2005>
6.73932218551636

$$$$
62
                    3D
 Structure written by MMmdl.
161169  0  0  1  0            999 V2000
  -30.7233  -14.5198   20.5564 C   0  0  0  0  0  0
  -30.4070  -12.3340   19.4417 C   0  0  0  0  0  0
  -29.4874  -12.4988   18.2157 C   0  0  0  0  0  0
  -28.0112  -12.3539   18.6281 C   0  0  0  0  0  0
  -27.6506  -13.2187   19.8662 C   0  0  2  0  0  0
  -28.6943  -13.0670   20.9969 C   0  0  0  0  0  0
  -25.2488  -13.8130   20.5534 C   0  0  0  0  0  0
  -24.1795  -13.0427   20.9172 C   0  0  0  0  0  0
  -24.6397  -11.6908   20.8810 C   0  0  0  0  0  0
  -23.9081  -10.4286   21.0458 C   0  0  0  0  0  0
  -24.3627   -9.4199   21.9233 C   0  0  0  0  0  0
  -23.6292   -8.2243   22.0791 C   0  0  0  0  0  0
  -22.4281   -8.0293   21.3564 C   0  0  0  0  0  0
  -21.9925   -9.0280   20.4670 C   0  0  0  0  0  0
  -22.7270  -10.2144   20.3095 C   0  0  0  0  0  0
  -21.6840   -6.0755   22.5287 C   0  0  0  0  0  0
  -21.4004   -6.5646   23.8225 C   0  0  0  0  0  0
  -21.3660   -5.6806   24.9186 C   0  0  0  0  0  0
  -21.6037   -4.3071   24.7227 C   0  0  0  0  0  0
  -21.8813   -3.8156   23.4348 C   0  0  0  0  0  0
  -21.9186   -4.6981   22.3408 C   0  0  0  0  0  0
  -22.7825  -13.5248   21.1816 C   0  0  0  0  0  0
  -22.1655   -4.2164   21.0985 F   0  0  0  0  0  0
  -21.5623   -3.4551   25.7735 F   0  0  0  0  0  0
  -30.0192  -13.3563   20.4309 N   0  0  0  0  0  0
  -26.2968  -12.9352   20.3341 N   0  0  0  0  0  0
  -25.9329  -11.6511   20.5856 N   0  0  0  0  0  0
  -22.0445  -12.8301   22.0389 N   0  0  0  0  0  0
  -25.4090  -15.1784   20.3573 N   0  0  0  0  0  0
  -31.8583  -14.6291   20.0878 O   0  0  0  0  0  0
  -21.6639   -6.8900   21.4250 O   0  0  0  0  0  0
  -22.3533  -14.5558   20.6657 O   0  0  0  0  0  0
  -24.6179  -31.8670   23.2049 C   0  0  0  0  0  0
  -25.9049  -32.4829   23.8354 C   0  0  1  0  0  0
  -27.2317  -27.4140   20.1032 C   0  0  0  0  0  0
  -25.5920  -33.8621   24.2304 N   0  0  0  0  0  0
  -23.4095  -30.4882   21.5456 C   0  0  2  0  0  0
  -24.8534  -28.9521   20.1135 C   0  0  0  0  0  0
  -22.7437  -29.4662   22.4957 C   0  0  0  0  0  0
  -18.0297  -28.1413   22.8477 C   0  0  0  0  0  0
  -24.1513  -36.7276   23.2639 C   0  0  0  0  0  0
  -25.9406  -30.8257   21.3628 C   0  0  0  0  0  0
  -26.0166  -29.4593   20.7088 C   0  0  0  0  0  0
  -27.2103  -28.6997   20.6953 C   0  0  0  0  0  0
  -26.0548  -26.9268   19.4973 C   0  0  0  0  0  0
  -24.8693  -27.6850   19.5031 C   0  0  0  0  0  0
  -23.6171  -29.8204   20.1618 C   0  0  0  0  0  0
  -25.4139  -36.3104   24.0332 C   0  0  1  0  0  0
  -20.5897  -28.3689   23.1303 C   0  0  2  0  0  0
  -20.6814  -26.9420   22.5412 C   0  0  0  0  0  0
  -19.5788  -26.6407   21.5232 C   0  0  0  0  0  0
  -18.1955  -26.7966   22.1614 C   0  0  0  0  0  0
  -19.1548  -28.8862   23.2910 C   0  0  0  0  0  0
  -18.9463  -30.1468   23.8924 C   0  0  0  0  0  0
  -17.6462  -30.6600   24.0566 C   0  0  0  0  0  0
  -25.9057  -34.9480   23.5112 C   0  0  0  0  0  0
  -16.5353  -29.9097   23.6325 C   0  0  0  0  0  0
  -16.7284  -28.6526   23.0325 C   0  0  0  0  0  0
  -26.4456  -31.6602   25.0680 C   0  0  0  0  0  0
  -25.3693  -31.3731   26.1396 C   0  0  0  0  0  0
  -27.0281  -30.3059   24.6041 C   0  0  0  0  0  0
  -27.6036  -32.4315   25.7434 C   0  0  0  0  0  0
  -27.5611  -37.1779   24.8455 C   0  0  0  0  0  0
  -21.4167  -29.3033   22.3668 N   0  0  0  0  0  0
  -26.4317  -37.3789   23.9410 N   0  0  0  0  0  0
  -24.6737  -31.0761   22.0954 N   0  0  0  0  0  0
  -23.4183  -28.8224   23.3036 O   0  0  0  0  0  0
  -28.3704  -26.6329   20.1046 O   0  0  0  0  0  0
  -26.5610  -34.8929   22.4673 O   0  0  0  0  0  0
  -23.5344  -32.1395   23.7432 O   0  0  0  0  0  0
  -32.4109  -18.5134   21.5987 C   0  0  0  0  0  0
  -31.9235  -17.2059   21.4481 C   0  0  0  0  0  0
  -29.6642  -18.0802   21.1959 C   0  0  0  0  0  0
  -31.5465  -19.6205   21.5300 C   0  0  0  0  0  0
  -30.5491  -16.9517   21.2250 C   0  0  0  0  0  0
  -30.1620  -19.4177   21.2883 C   0  0  0  0  0  0
  -27.4883  -17.1423   21.9668 C   0  0  0  0  0  0
  -28.2018  -17.9230   21.1397 C   0  0  0  0  0  0
  -32.1315  -20.9923   21.8206 C   0  0  0  0  0  0
  -28.9715  -24.1688   20.1276 C   0  0  0  0  0  0
  -28.8571  -22.8624   20.9718 C   0  0  0  0  0  0
  -28.2366  -25.3692   20.7917 C   0  0  0  0  0  0
  -29.3854  -21.5426   20.3402 C   0  0  0  0  0  0
  -30.0640  -15.5940   21.0654 N   0  0  0  0  0  0
  -29.2600  -20.4757   21.3006 O   0  0  0  0  0  0
  -31.4522  -12.4108   19.1393 H   0  0  0  0  0  0
  -30.2979  -11.3374   19.8710 H   0  0  0  0  0  0
  -29.7341  -11.7560   17.4564 H   0  0  0  0  0  0
  -29.6480  -13.4755   17.7567 H   0  0  0  0  0  0
  -27.8297  -11.2994   18.8412 H   0  0  0  0  0  0
  -27.3563  -12.6103   17.7932 H   0  0  0  0  0  0
  -27.6755  -14.2562   19.5335 H   0  0  0  0  0  0
  -28.6766  -12.0563   21.4070 H   0  0  0  0  0  0
  -28.4501  -13.7288   21.8291 H   0  0  0  0  0  0
  -25.2768   -9.5679   22.4823 H   0  0  0  0  0  0
  -23.9996   -7.4639   22.7521 H   0  0  0  0  0  0
  -21.0865   -8.8817   19.8971 H   0  0  0  0  0  0
  -22.3759  -10.9700   19.6212 H   0  0  0  0  0  0
  -21.1990   -7.6160   23.9722 H   0  0  0  0  0  0
  -21.1477   -6.0546   25.9088 H   0  0  0  0  0  0
  -22.0577   -2.7619   23.2851 H   0  0  0  0  0  0
  -22.3994  -11.9941   22.4794 H   0  0  0  0  0  0
  -21.1083  -13.1411   22.2541 H   0  0  0  0  0  0
  -24.6274  -15.8227   20.4041 H   0  0  0  0  0  0
  -26.2529  -15.6012   19.9925 H   0  0  0  0  0  0
  -26.7105  -32.5505   23.1092 H   0  0  0  0  0  0
  -25.0090  -33.9784   25.0460 H   0  0  0  0  0  0
  -22.7011  -31.3055   21.4031 H   0  0  0  0  0  0
  -23.3826  -35.9556   23.3261 H   0  0  0  0  0  0
  -24.3620  -36.8920   22.2064 H   0  0  0  0  0  0
  -23.7204  -37.6444   23.6657 H   0  0  0  0  0  0
  -26.0660  -31.5915   20.5958 H   0  0  0  0  0  0
  -26.8252  -30.8718   21.9853 H   0  0  0  0  0  0
  -28.1092  -29.0866   21.1550 H   0  0  0  0  0  0
  -26.0525  -25.9517   19.0291 H   0  0  0  0  0  0
  -23.9752  -27.2846   19.0445 H   0  0  0  0  0  0
  -23.7282  -30.5920   19.3992 H   0  0  0  0  0  0
  -22.7436  -29.2380   19.8641 H   0  0  0  0  0  0
  -25.1336  -36.1950   25.0828 H   0  0  0  0  0  0
  -20.9997  -28.3272   24.1427 H   0  0  0  0  0  0
  -20.5809  -26.2281   23.3599 H   0  0  0  0  0  0
  -21.6672  -26.7523   22.1142 H   0  0  0  0  0  0
  -19.6958  -25.6339   21.1226 H   0  0  0  0  0  0
  -19.6759  -27.3245   20.6796 H   0  0  0  0  0  0
  -17.4249  -26.6726   21.3989 H   0  0  0  0  0  0
  -18.0323  -26.0129   22.9023 H   0  0  0  0  0  0
  -19.7943  -30.7281   24.2295 H   0  0  0  0  0  0
  -17.5010  -31.6276   24.5184 H   0  0  0  0  0  0
  -15.5351  -30.2992   23.7667 H   0  0  0  0  0  0
  -15.8687  -28.0856   22.7011 H   0  0  0  0  0  0
  -24.5864  -30.7111   25.7675 H   0  0  0  0  0  0
  -24.8890  -32.2911   26.4799 H   0  0  0  0  0  0
  -25.7999  -30.8877   27.0165 H   0  0  0  0  0  0
  -26.2811  -29.6837   24.1107 H   0  0  0  0  0  0
  -27.4099  -29.7279   25.4464 H   0  0  0  0  0  0
  -27.8617  -30.4420   23.9154 H   0  0  0  0  0  0
  -27.2686  -33.3644   26.1974 H   0  0  0  0  0  0
  -28.3842  -32.6832   25.0244 H   0  0  0  0  0  0
  -28.0688  -31.8453   26.5359 H   0  0  0  0  0  0
  -28.2579  -38.0131   24.7598 H   0  0  0  0  0  0
  -28.1182  -36.2670   24.6197 H   0  0  0  0  0  0
  -27.2326  -37.1276   25.8852 H   0  0  0  0  0  0
  -20.9334  -29.8652   21.6791 H   0  0  0  0  0  0
  -26.0221  -38.2864   24.1445 H   0  0  0  0  0  0
  -33.4644  -18.6575   21.7998 H   0  0  0  0  0  0
  -32.6368  -16.4004   21.5366 H   0  0  0  0  0  0
  -26.4126  -17.0838   21.8813 H   0  0  0  0  0  0
  -27.9581  -16.5634   22.7511 H   0  0  0  0  0  0
  -27.6886  -18.4893   20.3745 H   0  0  0  0  0  0
  -32.3637  -21.5241   20.9004 H   0  0  0  0  0  0
  -33.0623  -20.9037   22.3827 H   0  0  0  0  0  0
  -31.4462  -21.5944   22.4168 H   0  0  0  0  0  0
  -28.5583  -24.0029   19.1331 H   0  0  0  0  0  0
  -30.0232  -24.4209   19.9849 H   0  0  0  0  0  0
  -27.8078  -22.7044   21.2251 H   0  0  0  0  0  0
  -29.3653  -23.0195   21.9238 H   0  0  0  0  0  0
  -28.6300  -25.5139   21.7981 H   0  0  0  0  0  0
  -27.1918  -25.0891   20.9346 H   0  0  0  0  0  0
  -30.3974  -21.6691   19.9621 H   0  0  0  0  0  0
  -28.7746  -21.2855   19.4737 H   0  0  0  0  0  0
  -29.0814  -15.4565   21.2456 H   0  0  0  0  0  0
  1 25  1  0  0  0
  1 30  2  0  0  0
  1 84  1  0  0  0
  2  3  1  0  0  0
  2 25  1  0  0  0
  2 86  1  0  0  0
  2 87  1  0  0  0
  3  4  1  0  0  0
  3 88  1  0  0  0
  3 89  1  0  0  0
  4  5  1  0  0  0
  4 90  1  0  0  0
  4 91  1  0  0  0
  5  6  1  0  0  0
  5 26  1  0  0  0
  5 92  1  0  0  0
  6 25  1  0  0  0
  6 93  1  0  0  0
  6 94  1  0  0  0
  7  8  2  0  0  0
  7 26  1  0  0  0
  7 29  1  0  0  0
  8  9  1  0  0  0
  8 22  1  0  0  0
  9 10  1  0  0  0
  9 27  2  0  0  0
 10 11  2  0  0  0
 10 15  1  0  0  0
 11 12  1  0  0  0
 11 95  1  0  0  0
 12 13  2  0  0  0
 12 96  1  0  0  0
 13 14  1  0  0  0
 13 31  1  0  0  0
 14 15  2  0  0  0
 14 97  1  0  0  0
 15 98  1  0  0  0
 16 17  2  0  0  0
 16 21  1  0  0  0
 16 31  1  0  0  0
 17 18  1  0  0  0
 17 99  1  0  0  0
 18 19  2  0  0  0
 18100  1  0  0  0
 19 20  1  0  0  0
 19 24  1  0  0  0
 20 21  2  0  0  0
 20101  1  0  0  0
 21 23  1  0  0  0
 22 28  1  0  0  0
 22 32  2  0  0  0
 26 27  1  0  0  0
 28102  1  0  0  0
 28103  1  0  0  0
 29104  1  0  0  0
 29105  1  0  0  0
 33 34  1  0  0  0
 33 66  1  0  0  0
 33 70  2  0  0  0
 34 36  1  0  0  0
 34 59  1  0  0  0
 34106  1  0  0  0
 35 44  2  0  0  0
 35 45  1  0  0  0
 35 68  1  0  0  0
 36 56  1  0  0  0
 36107  1  0  0  0
 37 39  1  0  0  0
 37 47  1  0  0  0
 37 66  1  0  0  0
 37108  1  0  0  0
 38 43  2  0  0  0
 38 46  1  0  0  0
 38 47  1  0  0  0
 39 64  1  0  0  0
 39 67  2  0  0  0
 40 52  1  0  0  0
 40 53  2  0  0  0
 40 58  1  0  0  0
 41109  1  0  0  0
 41110  1  0  0  0
 41111  1  0  0  0
 41 48  1  0  0  0
 42 43  1  0  0  0
 42 66  1  0  0  0
 42112  1  0  0  0
 42113  1  0  0  0
 43 44  1  0  0  0
 44114  1  0  0  0
 45 46  2  0  0  0
 45115  1  0  0  0
 46116  1  0  0  0
 47117  1  0  0  0
 47118  1  0  0  0
 48 56  1  0  0  0
 48 65  1  0  0  0
 48119  1  0  0  0
 49 50  1  0  0  0
 49 53  1  0  0  0
 49 64  1  0  0  0
 49120  1  0  0  0
 50 51  1  0  0  0
 50121  1  0  0  0
 50122  1  0  0  0
 51 52  1  0  0  0
 51123  1  0  0  0
 51124  1  0  0  0
 52125  1  0  0  0
 52126  1  0  0  0
 53 54  1  0  0  0
 54 55  2  0  0  0
 54127  1  0  0  0
 55 57  1  0  0  0
 55128  1  0  0  0
 56 69  2  0  0  0
 57 58  2  0  0  0
 57129  1  0  0  0
 58130  1  0  0  0
 59 60  1  0  0  0
 59 61  1  0  0  0
 59 62  1  0  0  0
 60131  1  0  0  0
 60132  1  0  0  0
 60133  1  0  0  0
 61134  1  0  0  0
 61135  1  0  0  0
 61136  1  0  0  0
 62137  1  0  0  0
 62138  1  0  0  0
 62139  1  0  0  0
 63 65  1  0  0  0
 63140  1  0  0  0
 63141  1  0  0  0
 63142  1  0  0  0
 64143  1  0  0  0
 65144  1  0  0  0
 68 82  1  0  0  0
 71 72  2  0  0  0
 71 74  1  0  0  0
 71145  1  0  0  0
 72 75  1  0  0  0
 72146  1  0  0  0
 73 75  2  0  0  0
 73 76  1  0  0  0
 73 78  1  0  0  0
 74 76  2  0  0  0
 74 79  1  0  0  0
 75 84  1  0  0  0
 76 85  1  0  0  0
 77 78  2  0  0  0
 77147  1  0  0  0
 77148  1  0  0  0
 78149  1  0  0  0
 79150  1  0  0  0
 79151  1  0  0  0
 79152  1  0  0  0
 80 81  1  0  0  0
 80 82  1  0  0  0
 80153  1  0  0  0
 80154  1  0  0  0
 81 83  1  0  0  0
 81155  1  0  0  0
 81156  1  0  0  0
 82157  1  0  0  0
 82158  1  0  0  0
 83 85  1  0  0  0
 83159  1  0  0  0
 83160  1  0  0  0
 84161  1  0  0  0
M  ISO  4   1 100  68 101  82 101  84 100
M  END
> <chiral flag>
0

> <version>
0

> <s_m_source_file>
/data/baiqing/PycharmProjects/Reinvent-master-3.2/result/LINK_invent/BTK/process_docking_weight1_custom_product_contain_oxygen_bond_distance_aromatic_linkinvent_7_9_3/rearranged_h_0119.sdf

> <i_m_source_file_index>
63

> <r_mmod_Potential_Energy-OPLS-2005>
31.8201007843018

> <r_mmod_Stretch_Energy-OPLS-2005>
47.1851501464844

> <r_mmod_Bend_Energy-OPLS-2005>
106.121864318848

> <r_mmod_Torsional_Energy-OPLS-2005>
277.190948486328

> <r_mmod_Improper_Torsional_Energy-OPLS-2005>
4.91528367996216

> <r_mmod_Van_der_Waal_Energy-OPLS-2005>
156.973205566406

> <r_mmod_Electrostatic_Energy-OPLS-2005>
-383.986175537109

> <r_mmod_Solvation_Energy-OPLS-2005>
-196.918167114258

> <b_mmod_Minimization_Converged-OPLS-2005>
0

> <r_mmod_RMS_Derivative-OPLS-2005>
3.17777538299561

$$$$
63
                    3D
 Structure written by MMmdl.
163172  0  0  1  0            999 V2000
  -30.7033  -13.2117   20.6964 C   0  0  0  0  0  0
  -30.2617  -12.1966   18.4861 C   0  0  0  0  0  0
  -30.1026  -13.9248   17.7159 C   0  0  0  0  0  0
  -29.0746  -15.3264   18.8034 C   0  0  0  0  0  0
  -27.7436  -14.3411   20.6949 C   0  0  2  0  0  0
  -28.4339  -12.6524   21.2498 C   0  0  0  0  0  0
  -25.0677  -14.1117   20.7656 C   0  0  0  0  0  0
  -24.0862  -13.1788   20.9460 C   0  0  0  0  0  0
  -24.6520  -11.8859   20.8505 C   0  0  0  0  0  0
  -23.9862  -10.5310   20.9780 C   0  0  0  0  0  0
  -24.4098   -9.5214   21.8833 C   0  0  0  0  0  0
  -23.6730   -8.3176   22.0626 C   0  0  0  0  0  0
  -22.4766   -8.0866   21.3435 C   0  0  0  0  0  0
  -22.0546   -9.0736   20.4291 C   0  0  0  0  0  0
  -22.7934  -10.2669   20.2524 C   0  0  0  0  0  0
  -21.7173   -6.1079   22.5231 C   0  0  0  0  0  0
  -21.4240   -6.5873   23.8189 C   0  0  0  0  0  0
  -21.3737   -5.6927   24.9075 C   0  0  0  0  0  0
  -21.6039   -4.3168   24.7071 C   0  0  0  0  0  0
  -21.8772   -3.8345   23.4181 C   0  0  0  0  0  0
  -21.9295   -4.7257   22.3279 C   0  0  0  0  0  0
  -22.6660  -13.5356   21.1871 C   0  0  0  0  0  0
  -22.1714   -4.2456   21.0840 F   0  0  0  0  0  0
  -21.5575   -3.4582   25.7528 F   0  0  0  0  0  0
  -29.8477  -12.3440   20.2056 N   0  0  0  0  0  0
  -26.2886  -13.5357   20.6668 N   0  0  0  0  0  0
  -25.9581  -12.1200   20.6323 N   0  0  0  0  0  0
  -21.9786  -12.7882   22.0416 N   0  0  0  0  0  0
  -25.0336  -15.4813   20.7768 N   0  0  0  0  0  0
  -31.7055  -13.9033   20.3830 O   0  0  0  0  0  0
  -21.7060   -6.9392   21.4252 O   0  0  0  0  0  0
  -22.1845  -14.5375   20.6685 O   0  0  0  0  0  0
  -24.6901  -31.7993   23.1472 C   0  0  0  0  0  0
  -25.9490  -32.4398   23.8003 C   0  0  1  0  0  0
  -26.9743  -26.6673   20.0508 C   0  0  0  0  0  0
  -25.6097  -33.8232   24.1931 N   0  0  0  0  0  0
  -23.4982  -30.4235   21.5144 C   0  0  2  0  0  0
  -24.8825  -28.7792   20.0920 C   0  0  0  0  0  0
  -22.7720  -29.4364   22.4693 C   0  0  0  0  0  0
  -18.0350  -28.1398   22.8429 C   0  0  0  0  0  0
  -24.1567  -36.7221   23.2628 C   0  0  0  0  0  0
  -26.0803  -30.5055   21.3991 C   0  0  0  0  0  0
  -26.0924  -29.0746   20.7302 C   0  0  0  0  0  0
  -27.1551  -28.0281   20.6883 C   0  0  0  0  0  0
  -25.7580  -26.5987   19.3796 C   0  0  0  0  0  0
  -24.7490  -27.5731   19.4048 C   0  0  0  0  0  0
  -23.7216  -29.7596   20.1340 C   0  0  0  0  0  0
  -25.4181  -36.2891   24.0296 C   0  0  1  0  0  0
  -20.5986  -28.3796   23.1110 C   0  0  2  0  0  0
  -20.6847  -26.9484   22.5331 C   0  0  0  0  0  0
  -19.5826  -26.6430   21.5141 C   0  0  0  0  0  0
  -18.2003  -26.7930   22.1579 C   0  0  0  0  0  0
  -19.1597  -28.8909   23.2778 C   0  0  0  0  0  0
  -18.9511  -30.1465   23.8876 C   0  0  0  0  0  0
  -17.6505  -30.6584   24.0552 C   0  0  0  0  0  0
  -25.9153  -34.9260   23.4949 C   0  0  0  0  0  0
  -16.5397  -29.9089   23.6307 C   0  0  0  0  0  0
  -16.7337  -28.6497   23.0351 C   0  0  0  0  0  0
  -26.4665  -31.6315   25.0563 C   0  0  0  0  0  0
  -25.3685  -31.3520   26.1111 C   0  0  0  0  0  0
  -27.0444  -30.2637   24.6288 C   0  0  0  0  0  0
  -27.6232  -32.3960   25.7399 C   0  0  0  0  0  0
  -27.5597  -37.1787   24.8464 C   0  0  0  0  0  0
  -21.4373  -29.3062   22.3450 N   0  0  0  0  0  0
  -26.4313  -37.3635   23.9396 N   0  0  0  0  0  0
  -24.7861  -30.9448   22.0681 N   0  0  0  0  0  0
  -23.4213  -28.7901   23.2954 O   0  0  0  0  0  0
  -27.7368  -25.3540   19.8886 O   0  0  0  0  0  0
  -26.5756  -34.8837   22.4545 O   0  0  0  0  0  0
  -23.5948  -32.1074   23.6453 O   0  0  0  0  0  0
  -25.8737  -15.0583   17.2614 C   0  0  0  0  0  0
  -25.3314  -16.3146   16.8105 C   0  0  0  0  0  0
  -26.8264  -16.5251   18.9276 C   0  0  0  0  0  0
  -26.7647  -14.9705   18.3477 C   0  0  0  0  0  0
  -25.6413  -17.6557   17.2722 C   0  0  0  0  0  0
  -26.4917  -17.9715   18.4019 C   0  0  0  0  0  0
  -27.2879  -22.4275   19.3919 C   0  0  0  0  0  0
  -27.2188  -23.8341   20.0115 C   0  0  0  0  0  0
  -27.8954  -21.9601   18.0613 C   0  0  0  0  0  0
  -27.4522  -20.4413   17.6245 C   0  0  0  0  0  0
  -26.8505  -20.7763   19.7944 C   0  0  1  0  0  0
  -24.9359  -18.7659   16.4982 C   0  0  0  0  0  0
  -25.7161  -20.6692   20.8364 C   0  0  0  0  0  0
  -27.9738  -13.3415   18.6849 C   0  0  0  0  0  0
  -26.8871  -19.5381   18.7082 N   0  0  0  0  0  0
  -29.8145  -13.6709   19.9922 N   0  0  0  0  0  0
  -31.2787  -11.8140   18.3755 H   0  0  0  0  0  0
  -29.6172  -11.4506   18.0202 H   0  0  0  0  0  0
  -29.7624  -13.8717   16.6809 H   0  0  0  0  0  0
  -31.1187  -14.3125   17.6142 H   0  0  0  0  0  0
  -28.8203  -16.0482   18.0246 H   0  0  0  0  0  0
  -29.8020  -15.9831   19.2955 H   0  0  0  0  0  0
  -27.7131  -15.0489   21.5262 H   0  0  0  0  0  0
  -27.9845  -11.6742   21.3071 H   0  0  0  0  0  0
  -28.7588  -12.7873   22.2842 H   0  0  0  0  0  0
  -25.3111   -9.6950   22.4623 H   0  0  0  0  0  0
  -24.0319   -7.5809   22.7657 H   0  0  0  0  0  0
  -21.1524   -8.9220   19.8579 H   0  0  0  0  0  0
  -22.4338  -11.0104   19.5532 H   0  0  0  0  0  0
  -21.2293   -7.6375   23.9821 H   0  0  0  0  0  0
  -21.1566   -6.0573   25.9012 H   0  0  0  0  0  0
  -22.0416   -2.7830   23.2538 H   0  0  0  0  0  0
  -22.4009  -11.9825   22.4800 H   0  0  0  0  0  0
  -21.0261  -13.0265   22.2809 H   0  0  0  0  0  0
  -24.1340  -15.9446   20.8291 H   0  0  0  0  0  0
  -25.7096  -16.0130   20.2474 H   0  0  0  0  0  0
  -26.7513  -32.4821   23.0655 H   0  0  0  0  0  0
  -25.0231  -33.9223   25.0085 H   0  0  0  0  0  0
  -22.8330  -31.2685   21.3433 H   0  0  0  0  0  0
  -23.3790  -35.9575   23.3171 H   0  0  0  0  0  0
  -24.3682  -36.8971   22.2049 H   0  0  0  0  0  0
  -23.7326  -37.6414   23.6727 H   0  0  0  0  0  0
  -26.2615  -31.2145   20.5879 H   0  0  0  0  0  0
  -26.9477  -30.5728   22.0429 H   0  0  0  0  0  0
  -28.0827  -28.2191   21.2097 H   0  0  0  0  0  0
  -25.5292  -25.6784   18.8574 H   0  0  0  0  0  0
  -23.8219  -27.3512   18.8947 H   0  0  0  0  0  0
  -23.9170  -30.5186   19.3742 H   0  0  0  0  0  0
  -22.8110  -29.2470   19.8158 H   0  0  0  0  0  0
  -25.1352  -36.1703   25.0778 H   0  0  0  0  0  0
  -21.0062  -28.3381   24.1248 H   0  0  0  0  0  0
  -20.5695  -26.2410   23.3554 H   0  0  0  0  0  0
  -21.6709  -26.7442   22.1148 H   0  0  0  0  0  0
  -19.6999  -25.6346   21.1155 H   0  0  0  0  0  0
  -19.6746  -27.3240   20.6652 H   0  0  0  0  0  0
  -17.4252  -26.6594   21.4025 H   0  0  0  0  0  0
  -18.0517  -26.0102   22.9011 H   0  0  0  0  0  0
  -19.7987  -30.7239   24.2316 H   0  0  0  0  0  0
  -17.5064  -31.6267   24.5155 H   0  0  0  0  0  0
  -15.5389  -30.2979   23.7658 H   0  0  0  0  0  0
  -15.8732  -28.0786   22.7121 H   0  0  0  0  0  0
  -24.6231  -30.6489   25.7380 H   0  0  0  0  0  0
  -24.8497  -32.2616   26.4095 H   0  0  0  0  0  0
  -25.7895  -30.9059   27.0128 H   0  0  0  0  0  0
  -26.3124  -29.6439   24.1121 H   0  0  0  0  0  0
  -27.3691  -29.6875   25.4962 H   0  0  0  0  0  0
  -27.9176  -30.3709   23.9854 H   0  0  0  0  0  0
  -27.3056  -33.3459   26.1686 H   0  0  0  0  0  0
  -28.4278  -32.6041   25.0330 H   0  0  0  0  0  0
  -28.0579  -31.8112   26.5530 H   0  0  0  0  0  0
  -28.2556  -38.0140   24.7512 H   0  0  0  0  0  0
  -28.1176  -36.2660   24.6311 H   0  0  0  0  0  0
  -27.2326  -37.1419   25.8874 H   0  0  0  0  0  0
  -20.9615  -29.8890   21.6688 H   0  0  0  0  0  0
  -26.0175  -38.2724   24.1317 H   0  0  0  0  0  0
  -25.6159  -14.1541   16.7262 H   0  0  0  0  0  0
  -24.6493  -16.2348   15.9778 H   0  0  0  0  0  0
  -27.4148  -16.6607   19.8248 H   0  0  0  0  0  0
  -26.7188  -23.8062   20.9680 H   0  0  0  0  0  0
  -28.9817  -22.0050   18.1610 H   0  0  0  0  0  0
  -27.6329  -22.6824   17.2858 H   0  0  0  0  0  0
  -28.2734  -19.9539   17.0841 H   0  0  0  0  0  0
  -26.6946  -20.6064   16.8598 H   0  0  0  0  0  0
  -27.7349  -20.5082   20.3826 H   0  0  0  0  0  0
  -25.5826  -19.2119   15.7422 H   0  0  0  0  0  0
  -24.5721  -19.5424   17.1719 H   0  0  0  0  0  0
  -24.0618  -18.3871   15.9699 H   0  0  0  0  0  0
  -24.7315  -20.8712   20.4059 H   0  0  0  0  0  0
  -25.8497  -21.3631   21.6717 H   0  0  0  0  0  0
  -25.6963  -19.6741   21.2847 H   0  0  0  0  0  0
  -28.0576  -12.9976   17.6511 H   0  0  0  0  0  0
  -27.4779  -12.4056   18.9119 H   0  0  0  0  0  0
  -30.1111  -14.6164   19.8225 H   0  0  0  0  0  0
  1 25  1  0  0  0
  1 30  2  0  0  0
  1 86  1  0  0  0
  2  3  1  0  0  0
  2 25  1  0  0  0
  2 87  1  0  0  0
  2 88  1  0  0  0
  3  4  1  0  0  0
  3 89  1  0  0  0
  3 90  1  0  0  0
  4  5  1  0  0  0
  4 91  1  0  0  0
  4 92  1  0  0  0
  5  6  1  0  0  0
  5 26  1  0  0  0
  5 93  1  0  0  0
  6 25  1  0  0  0
  6 94  1  0  0  0
  6 95  1  0  0  0
  7  8  2  0  0  0
  7 26  1  0  0  0
  7 29  1  0  0  0
  8  9  1  0  0  0
  8 22  1  0  0  0
  9 10  1  0  0  0
  9 27  2  0  0  0
 10 11  2  0  0  0
 10 15  1  0  0  0
 11 12  1  0  0  0
 11 96  1  0  0  0
 12 13  2  0  0  0
 12 97  1  0  0  0
 13 14  1  0  0  0
 13 31  1  0  0  0
 14 15  2  0  0  0
 14 98  1  0  0  0
 15 99  1  0  0  0
 16 17  2  0  0  0
 16 21  1  0  0  0
 16 31  1  0  0  0
 17 18  1  0  0  0
 17100  1  0  0  0
 18 19  2  0  0  0
 18101  1  0  0  0
 19 20  1  0  0  0
 19 24  1  0  0  0
 20 21  2  0  0  0
 20102  1  0  0  0
 21 23  1  0  0  0
 22 28  1  0  0  0
 22 32  2  0  0  0
 26 27  1  0  0  0
 28103  1  0  0  0
 28104  1  0  0  0
 29105  1  0  0  0
 29106  1  0  0  0
 33 34  1  0  0  0
 33 66  1  0  0  0
 33 70  2  0  0  0
 34 36  1  0  0  0
 34 59  1  0  0  0
 34107  1  0  0  0
 35 44  2  0  0  0
 35 45  1  0  0  0
 35 68  1  0  0  0
 36 56  1  0  0  0
 36108  1  0  0  0
 37 39  1  0  0  0
 37 47  1  0  0  0
 37 66  1  0  0  0
 37109  1  0  0  0
 38 43  2  0  0  0
 38 46  1  0  0  0
 38 47  1  0  0  0
 39 64  1  0  0  0
 39 67  2  0  0  0
 40 52  1  0  0  0
 40 53  2  0  0  0
 40 58  1  0  0  0
 41110  1  0  0  0
 41111  1  0  0  0
 41112  1  0  0  0
 41 48  1  0  0  0
 42 43  1  0  0  0
 42 66  1  0  0  0
 42113  1  0  0  0
 42114  1  0  0  0
 43 44  1  0  0  0
 44115  1  0  0  0
 45 46  2  0  0  0
 45116  1  0  0  0
 46117  1  0  0  0
 47118  1  0  0  0
 47119  1  0  0  0
 48 56  1  0  0  0
 48 65  1  0  0  0
 48120  1  0  0  0
 49 50  1  0  0  0
 49 53  1  0  0  0
 49 64  1  0  0  0
 49121  1  0  0  0
 50 51  1  0  0  0
 50122  1  0  0  0
 50123  1  0  0  0
 51 52  1  0  0  0
 51124  1  0  0  0
 51125  1  0  0  0
 52126  1  0  0  0
 52127  1  0  0  0
 53 54  1  0  0  0
 54 55  2  0  0  0
 54128  1  0  0  0
 55 57  1  0  0  0
 55129  1  0  0  0
 56 69  2  0  0  0
 57 58  2  0  0  0
 57130  1  0  0  0
 58131  1  0  0  0
 59 60  1  0  0  0
 59 61  1  0  0  0
 59 62  1  0  0  0
 60132  1  0  0  0
 60133  1  0  0  0
 60134  1  0  0  0
 61135  1  0  0  0
 61136  1  0  0  0
 61137  1  0  0  0
 62138  1  0  0  0
 62139  1  0  0  0
 62140  1  0  0  0
 63 65  1  0  0  0
 63141  1  0  0  0
 63142  1  0  0  0
 63143  1  0  0  0
 64144  1  0  0  0
 65145  1  0  0  0
 68 78  1  0  0  0
 71 72  2  0  0  0
 71 74  1  0  0  0
 71146  1  0  0  0
 72 75  1  0  0  0
 72147  1  0  0  0
 73 74  2  0  0  0
 73 76  1  0  0  0
 73148  1  0  0  0
 74 84  1  0  0  0
 75 76  2  0  0  0
 75 82  1  0  0  0
 76 85  1  0  0  0
 77 78  2  0  0  0
 77 79  1  0  0  0
 77 81  1  0  0  0
 78149  1  0  0  0
 79 80  1  0  0  0
 79150  1  0  0  0
 79151  1  0  0  0
 80 85  1  0  0  0
 80152  1  0  0  0
 80153  1  0  0  0
 81 83  1  0  0  0
 81 85  1  0  0  0
 81154  1  0  0  0
 82155  1  0  0  0
 82156  1  0  0  0
 82157  1  0  0  0
 83158  1  0  0  0
 83159  1  0  0  0
 83160  1  0  0  0
 84 86  1  0  0  0
 84161  1  0  0  0
 84162  1  0  0  0
 86163  1  0  0  0
M  ISO  4   1 100  68 101  78 101  86 100
M  END
> <chiral flag>
0

> <version>
0

> <s_m_source_file>
/data/baiqing/PycharmProjects/Reinvent-master-3.2/result/LINK_invent/BTK/process_docking_weight1_custom_product_contain_oxygen_bond_distance_aromatic_linkinvent_7_9_3/rearranged_h_0119.sdf

> <i_m_source_file_index>
64

> <r_mmod_Potential_Energy-OPLS-2005>
9957.5009765625

> <r_mmod_Stretch_Energy-OPLS-2005>
4349.82763671875

> <r_mmod_Bend_Energy-OPLS-2005>
1369.83557128906

> <r_mmod_Torsional_Energy-OPLS-2005>
390.881469726562

> <r_mmod_Improper_Torsional_Energy-OPLS-2005>
44.6652221679688

> <r_mmod_Van_der_Waal_Energy-OPLS-2005>
2077.40771484375

> <r_mmod_Electrostatic_Energy-OPLS-2005>
-487.992095947266

> <r_mmod_Solvation_Energy-OPLS-2005>
-202.411987304688

> <b_mmod_Minimization_Converged-OPLS-2005>
0

> <r_mmod_RMS_Derivative-OPLS-2005>
14.7639923095703

$$$$
64
                    3D
 Structure written by MMmdl.
161169  0  0  1  0            999 V2000
  -30.6499  -14.5289   20.5940 C   0  0  0  0  0  0
  -30.4383  -12.3554   19.4144 C   0  0  0  0  0  0
  -29.4910  -12.5107   18.2052 C   0  0  0  0  0  0
  -28.0199  -12.3347   18.6315 C   0  0  0  0  0  0
  -27.6574  -13.1936   19.8708 C   0  0  2  0  0  0
  -28.6997  -12.9811   20.9907 C   0  0  0  0  0  0
  -25.2599  -13.8128   20.5687 C   0  0  0  0  0  0
  -24.1831  -13.0429   20.9180 C   0  0  0  0  0  0
  -24.6358  -11.6884   20.8733 C   0  0  0  0  0  0
  -23.9017  -10.4283   21.0412 C   0  0  0  0  0  0
  -24.3577   -9.4207   21.9189 C   0  0  0  0  0  0
  -23.6270   -8.2238   22.0755 C   0  0  0  0  0  0
  -22.4257   -8.0269   21.3539 C   0  0  0  0  0  0
  -21.9883   -9.0234   20.4639 C   0  0  0  0  0  0
  -22.7196  -10.2121   20.3052 C   0  0  0  0  0  0
  -21.6847   -6.0723   22.5272 C   0  0  0  0  0  0
  -21.4007   -6.5631   23.8203 C   0  0  0  0  0  0
  -21.3657   -5.6786   24.9168 C   0  0  0  0  0  0
  -21.6050   -4.3048   24.7222 C   0  0  0  0  0  0
  -21.8820   -3.8135   23.4341 C   0  0  0  0  0  0
  -21.9192   -4.6954   22.3398 C   0  0  0  0  0  0
  -22.7855  -13.5247   21.1832 C   0  0  0  0  0  0
  -22.1662   -4.2142   21.0974 F   0  0  0  0  0  0
  -21.5634   -3.4531   25.7735 F   0  0  0  0  0  0
  -30.0197  -13.3292   20.4386 N   0  0  0  0  0  0
  -26.2994  -12.9252   20.3334 N   0  0  0  0  0  0
  -25.9274  -11.6430   20.5772 N   0  0  0  0  0  0
  -22.0473  -12.8238   22.0362 N   0  0  0  0  0  0
  -25.4369  -15.1839   20.4075 N   0  0  0  0  0  0
  -31.7842  -14.7401   20.1523 O   0  0  0  0  0  0
  -21.6626   -6.8863   21.4230 O   0  0  0  0  0  0
  -22.3554  -14.5566   20.6691 O   0  0  0  0  0  0
  -24.6132  -31.8636   23.2023 C   0  0  0  0  0  0
  -25.9013  -32.4816   23.8319 C   0  0  1  0  0  0
  -27.2417  -27.3940   20.1145 C   0  0  0  0  0  0
  -25.5861  -33.8599   24.2271 N   0  0  0  0  0  0
  -23.4032  -30.4820   21.5427 C   0  0  2  0  0  0
  -24.8548  -28.9401   20.1088 C   0  0  0  0  0  0
  -22.7412  -29.4602   22.4963 C   0  0  0  0  0  0
  -18.0284  -28.1362   22.8508 C   0  0  0  0  0  0
  -24.1490  -36.7262   23.2649 C   0  0  0  0  0  0
  -25.9301  -30.8263   21.3522 C   0  0  0  0  0  0
  -26.0114  -29.4519   20.7092 C   0  0  0  0  0  0
  -27.2023  -28.6865   20.7061 C   0  0  0  0  0  0
  -26.0636  -26.9046   19.5059 C   0  0  0  0  0  0
  -24.8804  -27.6718   19.5003 C   0  0  0  0  0  0
  -23.6141  -29.8035   20.1606 C   0  0  0  0  0  0
  -25.4107  -36.3072   24.0338 C   0  0  1  0  0  0
  -20.5874  -28.3629   23.1323 C   0  0  2  0  0  0
  -20.6764  -26.9363   22.5408 C   0  0  0  0  0  0
  -19.5751  -26.6369   21.5211 C   0  0  0  0  0  0
  -18.1931  -26.7915   22.1623 C   0  0  0  0  0  0
  -19.1527  -28.8809   23.2920 C   0  0  0  0  0  0
  -18.9471  -30.1425   23.8924 C   0  0  0  0  0  0
  -17.6478  -30.6587   24.0550 C   0  0  0  0  0  0
  -25.9039  -34.9466   23.5092 C   0  0  0  0  0  0
  -16.5374  -29.9082   23.6330 C   0  0  0  0  0  0
  -16.7269  -28.6487   23.0367 C   0  0  0  0  0  0
  -26.4447  -31.6613   25.0662 C   0  0  0  0  0  0
  -25.3702  -31.3674   26.1401 C   0  0  0  0  0  0
  -27.0278  -30.3088   24.5966 C   0  0  0  0  0  0
  -27.6037  -32.4326   25.7421 C   0  0  0  0  0  0
  -27.5570  -37.1775   24.8476 C   0  0  0  0  0  0
  -21.4140  -29.3003   22.3716 N   0  0  0  0  0  0
  -26.4283  -37.3769   23.9433 N   0  0  0  0  0  0
  -24.6674  -31.0731   22.0925 N   0  0  0  0  0  0
  -23.4211  -28.8147   23.2978 O   0  0  0  0  0  0
  -28.4249  -26.6715   20.1786 O   0  0  0  0  0  0
  -26.5615  -34.8933   22.4673 O   0  0  0  0  0  0
  -23.5309  -32.1370   23.7410 O   0  0  0  0  0  0
  -31.3337  -18.4902   22.8980 C   0  0  0  0  0  0
  -29.6716  -17.9671   20.7211 C   0  0  0  0  0  0
  -30.8479  -19.5797   22.1348 C   0  0  0  0  0  0
  -31.0359  -17.1512   22.5703 C   0  0  0  0  0  0
  -30.2286  -16.8710   21.4424 C   0  0  0  0  0  0
  -29.9509  -19.3277   21.0560 C   0  0  0  0  0  0
  -31.6818  -21.3599   23.7007 C   0  0  0  0  0  0
  -31.2996  -20.9412   22.4817 C   0  0  0  0  0  0
  -31.5968  -16.0429   23.4520 C   0  0  0  0  0  0
  -28.2929  -24.1093   20.4907 C   0  0  0  0  0  0
  -28.9585  -22.7801   19.9830 C   0  0  0  0  0  0
  -28.5905  -25.3578   19.5914 C   0  0  0  0  0  0
  -28.7260  -21.4798   20.8204 C   0  0  0  0  0  0
  -29.8757  -15.5157   21.1138 N   0  0  0  0  0  0
  -29.4184  -20.3368   20.2491 O   0  0  0  0  0  0
  -31.4733  -12.5052   19.1007 H   0  0  0  0  0  0
  -30.3909  -11.3428   19.8176 H   0  0  0  0  0  0
  -29.7474  -11.7868   17.4307 H   0  0  0  0  0  0
  -29.6208  -13.4960   17.7561 H   0  0  0  0  0  0
  -27.8680  -11.2784   18.8616 H   0  0  0  0  0  0
  -27.3518  -12.5616   17.8007 H   0  0  0  0  0  0
  -27.6987  -14.2369   19.5569 H   0  0  0  0  0  0
  -28.7017  -11.9369   21.3088 H   0  0  0  0  0  0
  -28.4478  -13.5549   21.8839 H   0  0  0  0  0  0
  -25.2727   -9.5695   22.4762 H   0  0  0  0  0  0
  -23.9985   -7.4629   22.7469 H   0  0  0  0  0  0
  -21.0824   -8.8733   19.8939 H   0  0  0  0  0  0
  -22.3654  -10.9649   19.6154 H   0  0  0  0  0  0
  -21.1993   -7.6137   23.9704 H   0  0  0  0  0  0
  -21.1482   -6.0515   25.9072 H   0  0  0  0  0  0
  -22.0607   -2.7597   23.2835 H   0  0  0  0  0  0
  -22.4055  -11.9882   22.4735 H   0  0  0  0  0  0
  -21.1081  -13.1258   22.2538 H   0  0  0  0  0  0
  -24.6760  -15.8456   20.5229 H   0  0  0  0  0  0
  -26.2888  -15.6151   20.0709 H   0  0  0  0  0  0
  -26.7064  -32.5562   23.1076 H   0  0  0  0  0  0
  -25.0008  -33.9752   25.0410 H   0  0  0  0  0  0
  -22.6927  -31.2968   21.3945 H   0  0  0  0  0  0
  -23.3791  -35.9558   23.3313 H   0  0  0  0  0  0
  -24.3576  -36.8860   22.2061 H   0  0  0  0  0  0
  -23.7209  -37.6452   23.6657 H   0  0  0  0  0  0
  -26.0343  -31.5866   20.5746 H   0  0  0  0  0  0
  -26.8219  -30.8913   21.9650 H   0  0  0  0  0  0
  -28.0951  -29.0801   21.1745 H   0  0  0  0  0  0
  -26.0365  -25.9247   19.0511 H   0  0  0  0  0  0
  -23.9921  -27.2691   19.0341 H   0  0  0  0  0  0
  -23.7093  -30.5730   19.3943 H   0  0  0  0  0  0
  -22.7441  -29.2066   19.8788 H   0  0  0  0  0  0
  -25.1283  -36.1902   25.0824 H   0  0  0  0  0  0
  -20.9972  -28.3191   24.1441 H   0  0  0  0  0  0
  -20.5646  -26.2220   23.3571 H   0  0  0  0  0  0
  -21.6623  -26.7363   22.1212 H   0  0  0  0  0  0
  -19.6890  -25.6278   21.1233 H   0  0  0  0  0  0
  -19.6744  -27.3184   20.6761 H   0  0  0  0  0  0
  -17.4192  -26.6701   21.4041 H   0  0  0  0  0  0
  -18.0329  -26.0023   22.8982 H   0  0  0  0  0  0
  -19.7945  -30.7207   24.2335 H   0  0  0  0  0  0
  -17.5044  -31.6285   24.5094 H   0  0  0  0  0  0
  -15.5371  -30.2997   23.7610 H   0  0  0  0  0  0
  -15.8686  -28.0794   22.7102 H   0  0  0  0  0  0
  -24.5964  -30.6938   25.7711 H   0  0  0  0  0  0
  -24.8802  -32.2797   26.4816 H   0  0  0  0  0  0
  -25.8053  -30.8887   27.0191 H   0  0  0  0  0  0
  -26.2789  -29.6874   24.1048 H   0  0  0  0  0  0
  -27.4164  -29.7285   25.4348 H   0  0  0  0  0  0
  -27.8554  -30.4507   23.9008 H   0  0  0  0  0  0
  -27.2717  -33.3701   26.1899 H   0  0  0  0  0  0
  -28.3883  -32.6756   25.0240 H   0  0  0  0  0  0
  -28.0649  -31.8497   26.5404 H   0  0  0  0  0  0
  -28.2545  -38.0116   24.7527 H   0  0  0  0  0  0
  -28.1081  -36.2625   24.6261 H   0  0  0  0  0  0
  -27.2268  -37.1345   25.8874 H   0  0  0  0  0  0
  -20.9297  -29.8671   21.6907 H   0  0  0  0  0  0
  -26.0157  -38.2823   24.1521 H   0  0  0  0  0  0
  -31.9895  -18.6739   23.7364 H   0  0  0  0  0  0
  -29.0162  -17.7643   19.8855 H   0  0  0  0  0  0
  -32.0227  -22.3736   23.8574 H   0  0  0  0  0  0
  -31.6575  -20.7135   24.5679 H   0  0  0  0  0  0
  -31.3473  -21.6463   21.6622 H   0  0  0  0  0  0
  -31.9694  -16.4340   24.3997 H   0  0  0  0  0  0
  -32.4257  -15.5456   22.9487 H   0  0  0  0  0  0
  -30.8319  -15.3034   23.6882 H   0  0  0  0  0  0
  -28.6499  -24.3080   21.5016 H   0  0  0  0  0  0
  -27.2130  -23.9747   20.5693 H   0  0  0  0  0  0
  -30.0331  -22.9454   19.9119 H   0  0  0  0  0  0
  -28.6198  -22.5891   18.9657 H   0  0  0  0  0  0
  -28.0926  -25.2866   18.6260 H   0  0  0  0  0  0
  -29.6535  -25.3166   19.3544 H   0  0  0  0  0  0
  -27.6611  -21.2471   20.8172 H   0  0  0  0  0  0
  -28.9772  -21.6533   21.8640 H   0  0  0  0  0  0
  -28.9226  -15.2518   21.3099 H   0  0  0  0  0  0
  1 25  1  0  0  0
  1 30  2  0  0  0
  1 84  1  0  0  0
  2  3  1  0  0  0
  2 25  1  0  0  0
  2 86  1  0  0  0
  2 87  1  0  0  0
  3  4  1  0  0  0
  3 88  1  0  0  0
  3 89  1  0  0  0
  4  5  1  0  0  0
  4 90  1  0  0  0
  4 91  1  0  0  0
  5  6  1  0  0  0
  5 26  1  0  0  0
  5 92  1  0  0  0
  6 25  1  0  0  0
  6 93  1  0  0  0
  6 94  1  0  0  0
  7  8  2  0  0  0
  7 26  1  0  0  0
  7 29  1  0  0  0
  8  9  1  0  0  0
  8 22  1  0  0  0
  9 10  1  0  0  0
  9 27  2  0  0  0
 10 11  2  0  0  0
 10 15  1  0  0  0
 11 12  1  0  0  0
 11 95  1  0  0  0
 12 13  2  0  0  0
 12 96  1  0  0  0
 13 14  1  0  0  0
 13 31  1  0  0  0
 14 15  2  0  0  0
 14 97  1  0  0  0
 15 98  1  0  0  0
 16 17  2  0  0  0
 16 21  1  0  0  0
 16 31  1  0  0  0
 17 18  1  0  0  0
 17 99  1  0  0  0
 18 19  2  0  0  0
 18100  1  0  0  0
 19 20  1  0  0  0
 19 24  1  0  0  0
 20 21  2  0  0  0
 20101  1  0  0  0
 21 23  1  0  0  0
 22 28  1  0  0  0
 22 32  2  0  0  0
 26 27  1  0  0  0
 28102  1  0  0  0
 28103  1  0  0  0
 29104  1  0  0  0
 29105  1  0  0  0
 33 34  1  0  0  0
 33 66  1  0  0  0
 33 70  2  0  0  0
 34 36  1  0  0  0
 34 59  1  0  0  0
 34106  1  0  0  0
 35 44  2  0  0  0
 35 45  1  0  0  0
 35 68  1  0  0  0
 36 56  1  0  0  0
 36107  1  0  0  0
 37 39  1  0  0  0
 37 47  1  0  0  0
 37 66  1  0  0  0
 37108  1  0  0  0
 38 43  2  0  0  0
 38 46  1  0  0  0
 38 47  1  0  0  0
 39 64  1  0  0  0
 39 67  2  0  0  0
 40 52  1  0  0  0
 40 53  2  0  0  0
 40 58  1  0  0  0
 41109  1  0  0  0
 41110  1  0  0  0
 41111  1  0  0  0
 41 48  1  0  0  0
 42 43  1  0  0  0
 42 66  1  0  0  0
 42112  1  0  0  0
 42113  1  0  0  0
 43 44  1  0  0  0
 44114  1  0  0  0
 45 46  2  0  0  0
 45115  1  0  0  0
 46116  1  0  0  0
 47117  1  0  0  0
 47118  1  0  0  0
 48 56  1  0  0  0
 48 65  1  0  0  0
 48119  1  0  0  0
 49 50  1  0  0  0
 49 53  1  0  0  0
 49 64  1  0  0  0
 49120  1  0  0  0
 50 51  1  0  0  0
 50121  1  0  0  0
 50122  1  0  0  0
 51 52  1  0  0  0
 51123  1  0  0  0
 51124  1  0  0  0
 52125  1  0  0  0
 52126  1  0  0  0
 53 54  1  0  0  0
 54 55  2  0  0  0
 54127  1  0  0  0
 55 57  1  0  0  0
 55128  1  0  0  0
 56 69  2  0  0  0
 57 58  2  0  0  0
 57129  1  0  0  0
 58130  1  0  0  0
 59 60  1  0  0  0
 59 61  1  0  0  0
 59 62  1  0  0  0
 60131  1  0  0  0
 60132  1  0  0  0
 60133  1  0  0  0
 61134  1  0  0  0
 61135  1  0  0  0
 61136  1  0  0  0
 62137  1  0  0  0
 62138  1  0  0  0
 62139  1  0  0  0
 63 65  1  0  0  0
 63140  1  0  0  0
 63141  1  0  0  0
 63142  1  0  0  0
 64143  1  0  0  0
 65144  1  0  0  0
 68 82  1  0  0  0
 71 73  2  0  0  0
 71 74  1  0  0  0
 71145  1  0  0  0
 72 75  1  0  0  0
 72 76  2  0  0  0
 72146  1  0  0  0
 73 76  1  0  0  0
 73 78  1  0  0  0
 74 75  2  0  0  0
 74 79  1  0  0  0
 75 84  1  0  0  0
 76 85  1  0  0  0
 77 78  2  0  0  0
 77147  1  0  0  0
 77148  1  0  0  0
 78149  1  0  0  0
 79150  1  0  0  0
 79151  1  0  0  0
 79152  1  0  0  0
 80 81  1  0  0  0
 80 82  1  0  0  0
 80153  1  0  0  0
 80154  1  0  0  0
 81 83  1  0  0  0
 81155  1  0  0  0
 81156  1  0  0  0
 82157  1  0  0  0
 82158  1  0  0  0
 83 85  1  0  0  0
 83159  1  0  0  0
 83160  1  0  0  0
 84161  1  0  0  0
M  ISO  4   1 100  68 101  82 101  84 100
M  END
> <chiral flag>
0

> <version>
0

> <s_m_source_file>
/data/baiqing/PycharmProjects/Reinvent-master-3.2/result/LINK_invent/BTK/process_docking_weight1_custom_product_contain_oxygen_bond_distance_aromatic_linkinvent_7_9_3/rearranged_h_0119.sdf

> <i_m_source_file_index>
65

> <r_mmod_Potential_Energy-OPLS-2005>
20.3605880737305

> <r_mmod_Stretch_Energy-OPLS-2005>
52.3996353149414

> <r_mmod_Bend_Energy-OPLS-2005>
127.672225952148

> <r_mmod_Torsional_Energy-OPLS-2005>
252.531356811523

> <r_mmod_Improper_Torsional_Energy-OPLS-2005>
4.381103515625

> <r_mmod_Van_der_Waal_Energy-OPLS-2005>
150.787734985352

> <r_mmod_Electrostatic_Energy-OPLS-2005>
-382.277435302734

> <r_mmod_Solvation_Energy-OPLS-2005>
-206.593307495117

> <b_mmod_Minimization_Converged-OPLS-2005>
0

> <r_mmod_RMS_Derivative-OPLS-2005>
3.57265901565552

$$$$
65
                    3D
 Structure written by MMmdl.
160168  0  0  1  0            999 V2000
  -30.6316  -14.7806   20.3841 C   0  0  0  0  0  0
  -30.4300  -12.4652   19.4621 C   0  0  0  0  0  0
  -29.4980  -12.4238   18.2312 C   0  0  0  0  0  0
  -28.0272  -12.2792   18.6641 C   0  0  0  0  0  0
  -27.6307  -13.2270   19.8294 C   0  0  2  0  0  0
  -28.6873  -13.2288   20.9530 C   0  0  0  0  0  0
  -25.2485  -13.8217   20.5712 C   0  0  0  0  0  0
  -24.1757  -13.0454   20.9197 C   0  0  0  0  0  0
  -24.6342  -11.6931   20.8741 C   0  0  0  0  0  0
  -23.9030  -10.4300   21.0396 C   0  0  0  0  0  0
  -24.3590   -9.4220   21.9173 C   0  0  0  0  0  0
  -23.6273   -8.2254   22.0749 C   0  0  0  0  0  0
  -22.4260   -8.0285   21.3537 C   0  0  0  0  0  0
  -21.9872   -9.0256   20.4638 C   0  0  0  0  0  0
  -22.7197  -10.2142   20.3044 C   0  0  0  0  0  0
  -21.6871   -6.0722   22.5271 C   0  0  0  0  0  0
  -21.4036   -6.5624   23.8201 C   0  0  0  0  0  0
  -21.3660   -5.6770   24.9162 C   0  0  0  0  0  0
  -21.6036   -4.3033   24.7214 C   0  0  0  0  0  0
  -21.8832   -3.8124   23.4344 C   0  0  0  0  0  0
  -21.9197   -4.6946   22.3395 C   0  0  0  0  0  0
  -22.7769  -13.5246   21.1848 C   0  0  0  0  0  0
  -22.1654   -4.2118   21.0974 F   0  0  0  0  0  0
  -21.5609   -3.4523   25.7734 F   0  0  0  0  0  0
  -29.9720  -13.5700   20.3327 N   0  0  0  0  0  0
  -26.2887  -12.9399   20.3272 N   0  0  0  0  0  0
  -25.9279  -11.6550   20.5791 N   0  0  0  0  0  0
  -22.0415  -12.8243   22.0413 N   0  0  0  0  0  0
  -25.4187  -15.1940   20.4175 N   0  0  0  0  0  0
  -31.8607  -14.7900   20.2662 O   0  0  0  0  0  0
  -21.6649   -6.8869   21.4230 O   0  0  0  0  0  0
  -22.3461  -14.5554   20.6701 O   0  0  0  0  0  0
  -24.6316  -31.8572   23.1991 C   0  0  0  0  0  0
  -25.9145  -32.4760   23.8351 C   0  0  1  0  0  0
  -27.2173  -27.2705   20.1297 C   0  0  0  0  0  0
  -25.5944  -33.8563   24.2277 N   0  0  0  0  0  0
  -23.4288  -30.4825   21.5401 C   0  0  2  0  0  0
  -24.8763  -28.9296   20.1114 C   0  0  0  0  0  0
  -22.7503  -29.4644   22.4883 C   0  0  0  0  0  0
  -18.0310  -28.1417   22.8466 C   0  0  0  0  0  0
  -24.1486  -36.7276   23.2639 C   0  0  0  0  0  0
  -25.9754  -30.7728   21.3806 C   0  0  0  0  0  0
  -26.0482  -29.3953   20.7226 C   0  0  0  0  0  0
  -27.2241  -28.5781   20.7221 C   0  0  0  0  0  0
  -26.0302  -26.8822   19.4706 C   0  0  0  0  0  0
  -24.8715  -27.6799   19.4750 C   0  0  0  0  0  0
  -23.6475  -29.8163   20.1570 C   0  0  0  0  0  0
  -25.4118  -36.3070   24.0323 C   0  0  1  0  0  0
  -20.5908  -28.3738   23.1236 C   0  0  2  0  0  0
  -20.6800  -26.9452   22.5388 C   0  0  0  0  0  0
  -19.5772  -26.6401   21.5200 C   0  0  0  0  0  0
  -18.1957  -26.7960   22.1612 C   0  0  0  0  0  0
  -19.1562  -28.8892   23.2851 C   0  0  0  0  0  0
  -18.9487  -30.1477   23.8885 C   0  0  0  0  0  0
  -17.6483  -30.6599   24.0578 C   0  0  0  0  0  0
  -25.9057  -34.9439   23.5093 C   0  0  0  0  0  0
  -16.5372  -29.9094   23.6347 C   0  0  0  0  0  0
  -16.7297  -28.6529   23.0342 C   0  0  0  0  0  0
  -26.4519  -31.6577   25.0733 C   0  0  0  0  0  0
  -25.3734  -31.3711   26.1436 C   0  0  0  0  0  0
  -27.0388  -30.2994   24.6235 C   0  0  0  0  0  0
  -27.6082  -32.4327   25.7510 C   0  0  0  0  0  0
  -27.5580  -37.1795   24.8468 C   0  0  0  0  0  0
  -21.4213  -29.3092   22.3618 N   0  0  0  0  0  0
  -26.4295  -37.3766   23.9405 N   0  0  0  0  0  0
  -24.6969  -31.0559   22.0963 N   0  0  0  0  0  0
  -23.4193  -28.8179   23.2985 O   0  0  0  0  0  0
  -28.2911  -26.3544   20.1746 O   0  0  0  0  0  0
  -26.5622  -34.8907   22.4658 O   0  0  0  0  0  0
  -23.5465  -32.1381   23.7289 O   0  0  0  0  0  0
  -31.0696  -18.7308   22.3540 C   0  0  0  0  0  0
  -30.8069  -17.4682   21.7905 C   0  0  0  0  0  0
  -29.3852  -18.5633   20.1431 C   0  0  0  0  0  0
  -30.5806  -19.9269   21.7886 C   0  0  0  0  0  0
  -30.0066  -17.3150   20.6359 C   0  0  0  0  0  0
  -29.6929  -19.8925   20.6819 C   0  0  0  0  0  0
  -28.3189  -19.3108   17.9864 C   0  0  0  0  0  0
  -28.3779  -18.5077   19.0621 C   0  0  0  0  0  0
  -28.9237  -23.7365   20.2144 C   0  0  0  0  0  0
  -31.1165  -21.2324   22.3555 C   0  0  0  0  0  0
  -29.7732  -15.9701   18.5363 C   0  0  0  0  0  0
  -27.9459  -24.9465   20.5872 C   0  0  0  0  0  0
  -28.6201  -22.2594   20.7651 C   0  0  0  0  0  0
  -29.9329  -15.9430   20.0043 N   0  0  0  0  0  0
  -29.9205  -23.9422   19.5111 O   0  0  0  0  0  0
  -29.2680  -21.1111   20.0622 O   0  0  0  0  0  0
  -31.4669  -12.5892   19.1430 H   0  0  0  0  0  0
  -30.3926  -11.5211   20.0085 H   0  0  0  0  0  0
  -29.7804  -11.5894   17.5886 H   0  0  0  0  0  0
  -29.6059  -13.3101   17.6115 H   0  0  0  0  0  0
  -27.8912  -11.2444   18.9780 H   0  0  0  0  0  0
  -27.3665  -12.4193   17.8072 H   0  0  0  0  0  0
  -27.6010  -14.2305   19.4096 H   0  0  0  0  0  0
  -28.7367  -12.2535   21.4394 H   0  0  0  0  0  0
  -28.4356  -13.9585   21.7247 H   0  0  0  0  0  0
  -25.2738   -9.5707   22.4733 H   0  0  0  0  0  0
  -23.9977   -7.4657   22.7489 H   0  0  0  0  0  0
  -21.0783   -8.8782   19.8967 H   0  0  0  0  0  0
  -22.3642  -10.9674   19.6142 H   0  0  0  0  0  0
  -21.2064   -7.6130   23.9708 H   0  0  0  0  0  0
  -21.1443   -6.0492   25.9066 H   0  0  0  0  0  0
  -22.0611   -2.7582   23.2855 H   0  0  0  0  0  0
  -22.4035  -11.9931   22.4820 H   0  0  0  0  0  0
  -21.1042  -13.1279   22.2634 H   0  0  0  0  0  0
  -24.6591  -15.8533   20.5598 H   0  0  0  0  0  0
  -26.2868  -15.6392   20.1472 H   0  0  0  0  0  0
  -26.7222  -32.5421   23.1103 H   0  0  0  0  0  0
  -25.0104  -33.9711   25.0434 H   0  0  0  0  0  0
  -22.7252  -31.3046   21.3922 H   0  0  0  0  0  0
  -23.3745  -35.9608   23.3306 H   0  0  0  0  0  0
  -24.3576  -36.8894   22.2053 H   0  0  0  0  0  0
  -23.7237  -37.6475   23.6662 H   0  0  0  0  0  0
  -26.1190  -31.5355   20.6135 H   0  0  0  0  0  0
  -26.8504  -30.8192   22.0172 H   0  0  0  0  0  0
  -28.1205  -28.9267   21.2157 H   0  0  0  0  0  0
  -25.9783  -25.9405   18.9438 H   0  0  0  0  0  0
  -23.9781  -27.3234   18.9807 H   0  0  0  0  0  0
  -23.7744  -30.5900   19.3989 H   0  0  0  0  0  0
  -22.7665  -29.2493   19.8524 H   0  0  0  0  0  0
  -25.1300  -36.1917   25.0815 H   0  0  0  0  0  0
  -21.0017  -28.3324   24.1356 H   0  0  0  0  0  0
  -20.5698  -26.2353   23.3596 H   0  0  0  0  0  0
  -21.6673  -26.7482   22.1186 H   0  0  0  0  0  0
  -19.6923  -25.6307   21.1244 H   0  0  0  0  0  0
  -19.6700  -27.3200   20.6701 H   0  0  0  0  0  0
  -17.4231  -26.6693   21.4012 H   0  0  0  0  0  0
  -18.0374  -26.0120   22.9028 H   0  0  0  0  0  0
  -19.7962  -30.7302   24.2241 H   0  0  0  0  0  0
  -17.5042  -31.6274   24.5202 H   0  0  0  0  0  0
  -15.5372  -30.3002   23.7681 H   0  0  0  0  0  0
  -15.8703  -28.0853   22.7043 H   0  0  0  0  0  0
  -24.5927  -30.7053   25.7738 H   0  0  0  0  0  0
  -24.8901  -32.2871   26.4846 H   0  0  0  0  0  0
  -25.8037  -30.8893   27.0223 H   0  0  0  0  0  0
  -26.2988  -29.6727   24.1243 H   0  0  0  0  0  0
  -27.4047  -29.7284   25.4780 H   0  0  0  0  0  0
  -27.8873  -30.4274   23.9510 H   0  0  0  0  0  0
  -27.2696  -33.3634   26.2072 H   0  0  0  0  0  0
  -28.3889  -32.6870   25.0331 H   0  0  0  0  0  0
  -28.0745  -31.8457   26.5428 H   0  0  0  0  0  0
  -28.2600  -38.0089   24.7512 H   0  0  0  0  0  0
  -28.1073  -36.2620   24.6302 H   0  0  0  0  0  0
  -27.2295  -37.1452   25.8870 H   0  0  0  0  0  0
  -20.9398  -29.8807   21.6815 H   0  0  0  0  0  0
  -26.0168  -38.2839   24.1399 H   0  0  0  0  0  0
  -31.7319  -18.7802   23.2078 H   0  0  0  0  0  0
  -31.2971  -16.6177   22.2387 H   0  0  0  0  0  0
  -27.5259  -19.2090   17.2587 H   0  0  0  0  0  0
  -29.0589  -20.0782   17.8091 H   0  0  0  0  0  0
  -27.6100  -17.7574   19.1826 H   0  0  0  0  0  0
  -32.0562  -21.0686   22.8828 H   0  0  0  0  0  0
  -30.4197  -21.6723   23.0676 H   0  0  0  0  0  0
  -31.3212  -21.9469   21.5577 H   0  0  0  0  0  0
  -30.1256  -16.9072   18.1067 H   0  0  0  0  0  0
  -30.3800  -15.2343   18.0096 H   0  0  0  0  0  0
  -28.7345  -15.8234   18.2426 H   0  0  0  0  0  0
  -27.8282  -24.9495   21.6709 H   0  0  0  0  0  0
  -26.9717  -24.6568   20.2021 H   0  0  0  0  0  0
  -27.5434  -22.1106   20.6756 H   0  0  0  0  0  0
  -28.8224  -22.2377   21.8314 H   0  0  0  0  0  0
  1 25  1  0  0  0
  1 30  2  0  0  0
  1 84  1  0  0  0
  2  3  1  0  0  0
  2 25  1  0  0  0
  2 87  1  0  0  0
  2 88  1  0  0  0
  3  4  1  0  0  0
  3 89  1  0  0  0
  3 90  1  0  0  0
  4  5  1  0  0  0
  4 91  1  0  0  0
  4 92  1  0  0  0
  5  6  1  0  0  0
  5 26  1  0  0  0
  5 93  1  0  0  0
  6 25  1  0  0  0
  6 94  1  0  0  0
  6 95  1  0  0  0
  7  8  2  0  0  0
  7 26  1  0  0  0
  7 29  1  0  0  0
  8  9  1  0  0  0
  8 22  1  0  0  0
  9 10  1  0  0  0
  9 27  2  0  0  0
 10 11  2  0  0  0
 10 15  1  0  0  0
 11 12  1  0  0  0
 11 96  1  0  0  0
 12 13  2  0  0  0
 12 97  1  0  0  0
 13 14  1  0  0  0
 13 31  1  0  0  0
 14 15  2  0  0  0
 14 98  1  0  0  0
 15 99  1  0  0  0
 16 17  2  0  0  0
 16 21  1  0  0  0
 16 31  1  0  0  0
 17 18  1  0  0  0
 17100  1  0  0  0
 18 19  2  0  0  0
 18101  1  0  0  0
 19 20  1  0  0  0
 19 24  1  0  0  0
 20 21  2  0  0  0
 20102  1  0  0  0
 21 23  1  0  0  0
 22 28  1  0  0  0
 22 32  2  0  0  0
 26 27  1  0  0  0
 28103  1  0  0  0
 28104  1  0  0  0
 29105  1  0  0  0
 29106  1  0  0  0
 33 34  1  0  0  0
 33 66  1  0  0  0
 33 70  2  0  0  0
 34 36  1  0  0  0
 34 59  1  0  0  0
 34107  1  0  0  0
 35 44  2  0  0  0
 35 45  1  0  0  0
 35 68  1  0  0  0
 36 56  1  0  0  0
 36108  1  0  0  0
 37 39  1  0  0  0
 37 47  1  0  0  0
 37 66  1  0  0  0
 37109  1  0  0  0
 38 43  2  0  0  0
 38 46  1  0  0  0
 38 47  1  0  0  0
 39 64  1  0  0  0
 39 67  2  0  0  0
 40 52  1  0  0  0
 40 53  2  0  0  0
 40 58  1  0  0  0
 41110  1  0  0  0
 41111  1  0  0  0
 41112  1  0  0  0
 41 48  1  0  0  0
 42 43  1  0  0  0
 42 66  1  0  0  0
 42113  1  0  0  0
 42114  1  0  0  0
 43 44  1  0  0  0
 44115  1  0  0  0
 45 46  2  0  0  0
 45116  1  0  0  0
 46117  1  0  0  0
 47118  1  0  0  0
 47119  1  0  0  0
 48 56  1  0  0  0
 48 65  1  0  0  0
 48120  1  0  0  0
 49 50  1  0  0  0
 49 53  1  0  0  0
 49 64  1  0  0  0
 49121  1  0  0  0
 50 51  1  0  0  0
 50122  1  0  0  0
 50123  1  0  0  0
 51 52  1  0  0  0
 51124  1  0  0  0
 51125  1  0  0  0
 52126  1  0  0  0
 52127  1  0  0  0
 53 54  1  0  0  0
 54 55  2  0  0  0
 54128  1  0  0  0
 55 57  1  0  0  0
 55129  1  0  0  0
 56 69  2  0  0  0
 57 58  2  0  0  0
 57130  1  0  0  0
 58131  1  0  0  0
 59 60  1  0  0  0
 59 61  1  0  0  0
 59 62  1  0  0  0
 60132  1  0  0  0
 60133  1  0  0  0
 60134  1  0  0  0
 61135  1  0  0  0
 61136  1  0  0  0
 61137  1  0  0  0
 62138  1  0  0  0
 62139  1  0  0  0
 62140  1  0  0  0
 63 65  1  0  0  0
 63141  1  0  0  0
 63142  1  0  0  0
 63143  1  0  0  0
 64144  1  0  0  0
 65145  1  0  0  0
 68 82  1  0  0  0
 71 72  2  0  0  0
 71 74  1  0  0  0
 71146  1  0  0  0
 72 75  1  0  0  0
 72147  1  0  0  0
 73 75  2  0  0  0
 73 76  1  0  0  0
 73 78  1  0  0  0
 74 76  2  0  0  0
 74 80  1  0  0  0
 75 84  1  0  0  0
 76 86  1  0  0  0
 77 78  2  0  0  0
 77148  1  0  0  0
 77149  1  0  0  0
 78150  1  0  0  0
 79 82  1  0  0  0
 79 83  1  0  0  0
 79 85  2  0  0  0
 80151  1  0  0  0
 80152  1  0  0  0
 80153  1  0  0  0
 81 84  1  0  0  0
 81154  1  0  0  0
 81155  1  0  0  0
 81156  1  0  0  0
 82157  1  0  0  0
 82158  1  0  0  0
 83 86  1  0  0  0
 83159  1  0  0  0
 83160  1  0  0  0
M  ISO  4   1 100  68 101  82 101  84 100
M  END
> <chiral flag>
0

> <version>
0

> <s_m_source_file>
/data/baiqing/PycharmProjects/Reinvent-master-3.2/result/LINK_invent/BTK/process_docking_weight1_custom_product_contain_oxygen_bond_distance_aromatic_linkinvent_7_9_3/rearranged_h_0119.sdf

> <i_m_source_file_index>
66

> <r_mmod_Potential_Energy-OPLS-2005>
485.365112304688

> <r_mmod_Stretch_Energy-OPLS-2005>
143.098052978516

> <r_mmod_Bend_Energy-OPLS-2005>
179.624160766602

> <r_mmod_Torsional_Energy-OPLS-2005>
351.723388671875

> <r_mmod_Improper_Torsional_Energy-OPLS-2005>
22.2578258514404

> <r_mmod_Van_der_Waal_Energy-OPLS-2005>
158.271820068359

> <r_mmod_Electrostatic_Energy-OPLS-2005>
-252.373001098633

> <r_mmod_Solvation_Energy-OPLS-2005>
-222.409393310547

> <b_mmod_Minimization_Converged-OPLS-2005>
0

> <r_mmod_RMS_Derivative-OPLS-2005>
2.62457919120789

$$$$
66
                    3D
 Structure written by MMmdl.
163172  0  0  1  0            999 V2000
  -30.6877  -14.6290   20.5084 C   0  0  0  0  0  0
  -30.4209  -12.3920   19.4542 C   0  0  0  0  0  0
  -29.4980  -12.4750   18.2222 C   0  0  0  0  0  0
  -28.0205  -12.3353   18.6399 C   0  0  0  0  0  0
  -27.6426  -13.2199   19.8602 C   0  0  2  0  0  0
  -28.6934  -13.1311   20.9869 C   0  0  0  0  0  0
  -25.2516  -13.8177   20.5739 C   0  0  0  0  0  0
  -24.1787  -13.0432   20.9219 C   0  0  0  0  0  0
  -24.6362  -11.6904   20.8762 C   0  0  0  0  0  0
  -23.9046  -10.4279   21.0414 C   0  0  0  0  0  0
  -24.3601   -9.4195   21.9191 C   0  0  0  0  0  0
  -23.6281   -8.2227   22.0754 C   0  0  0  0  0  0
  -22.4264   -8.0269   21.3543 C   0  0  0  0  0  0
  -21.9899   -9.0240   20.4645 C   0  0  0  0  0  0
  -22.7221  -10.2122   20.3057 C   0  0  0  0  0  0
  -21.6842   -6.0730   22.5277 C   0  0  0  0  0  0
  -21.4005   -6.5635   23.8211 C   0  0  0  0  0  0
  -21.3659   -5.6793   24.9176 C   0  0  0  0  0  0
  -21.6049   -4.3054   24.7228 C   0  0  0  0  0  0
  -21.8818   -3.8143   23.4345 C   0  0  0  0  0  0
  -21.9184   -4.6960   22.3401 C   0  0  0  0  0  0
  -22.7808  -13.5221   21.1873 C   0  0  0  0  0  0
  -22.1661   -4.2147   21.0977 F   0  0  0  0  0  0
  -21.5635   -3.4538   25.7742 F   0  0  0  0  0  0
  -30.0001  -13.4489   20.3959 N   0  0  0  0  0  0
  -26.2941  -12.9355   20.3376 N   0  0  0  0  0  0
  -25.9293  -11.6506   20.5804 N   0  0  0  0  0  0
  -22.0459  -12.8205   22.0427 N   0  0  0  0  0  0
  -25.4241  -15.1901   20.4178 N   0  0  0  0  0  0
  -31.8622  -14.7148   20.1451 O   0  0  0  0  0  0
  -21.6626   -6.8870   21.4238 O   0  0  0  0  0  0
  -22.3492  -14.5528   20.6723 O   0  0  0  0  0  0
  -24.6243  -31.8610   23.2044 C   0  0  0  0  0  0
  -25.9097  -32.4789   23.8365 C   0  0  1  0  0  0
  -27.2218  -27.3370   20.1223 C   0  0  0  0  0  0
  -25.5917  -33.8589   24.2294 N   0  0  0  0  0  0
  -23.4178  -30.4839   21.5458 C   0  0  2  0  0  0
  -24.8665  -28.9427   20.1098 C   0  0  0  0  0  0
  -22.7466  -29.4623   22.4941 C   0  0  0  0  0  0
  -18.0282  -28.1380   22.8487 C   0  0  0  0  0  0
  -24.1486  -36.7299   23.2639 C   0  0  0  0  0  0
  -25.9572  -30.7979   21.3727 C   0  0  0  0  0  0
  -26.0341  -29.4264   20.7159 C   0  0  0  0  0  0
  -27.2192  -28.6345   20.7138 C   0  0  0  0  0  0
  -26.0413  -26.9067   19.4801 C   0  0  0  0  0  0
  -24.8704  -27.6870   19.4823 C   0  0  0  0  0  0
  -23.6328  -29.8196   20.1603 C   0  0  0  0  0  0
  -25.4110  -36.3091   24.0332 C   0  0  1  0  0  0
  -20.5880  -28.3684   23.1286 C   0  0  2  0  0  0
  -20.6771  -26.9410   22.5407 C   0  0  0  0  0  0
  -19.5746  -26.6386   21.5207 C   0  0  0  0  0  0
  -18.1925  -26.7925   22.1622 C   0  0  0  0  0  0
  -19.1534  -28.8850   23.2883 C   0  0  0  0  0  0
  -18.9461  -30.1452   23.8901 C   0  0  0  0  0  0
  -17.6462  -30.6588   24.0561 C   0  0  0  0  0  0
  -25.9046  -34.9457   23.5114 C   0  0  0  0  0  0
  -16.5351  -29.9085   23.6330 C   0  0  0  0  0  0
  -16.7270  -28.6500   23.0357 C   0  0  0  0  0  0
  -26.4489  -31.6591   25.0727 C   0  0  0  0  0  0
  -25.3732  -31.3717   26.1460 C   0  0  0  0  0  0
  -27.0337  -30.3023   24.6169 C   0  0  0  0  0  0
  -27.6054  -32.4324   25.7494 C   0  0  0  0  0  0
  -27.5578  -37.1803   24.8466 C   0  0  0  0  0  0
  -21.4182  -29.3041   22.3687 N   0  0  0  0  0  0
  -26.4290  -37.3783   23.9412 N   0  0  0  0  0  0
  -24.6851  -31.0634   22.0986 N   0  0  0  0  0  0
  -23.4196  -28.8163   23.3017 O   0  0  0  0  0  0
  -28.3120  -26.4633   20.1671 O   0  0  0  0  0  0
  -26.5606  -34.8916   22.4677 O   0  0  0  0  0  0
  -23.5409  -32.1400   23.7383 O   0  0  0  0  0  0
  -28.3801  -17.3926   17.9371 C   0  0  0  0  0  0
  -29.0198  -16.4557   18.7555 C   0  0  0  0  0  0
  -29.3915  -18.2060   20.4097 C   0  0  0  0  0  0
  -28.7767  -19.2061   19.5636 C   0  0  0  0  0  0
  -28.2154  -18.7317   18.3373 C   0  0  0  0  0  0
  -29.4969  -16.8133   20.0303 C   0  0  0  0  0  0
  -29.1616  -21.7855   18.9342 C   0  0  0  0  0  0
  -29.0405  -21.2609   21.3217 C   0  0  0  0  0  0
  -28.5640  -23.2174   19.1357 C   0  0  0  0  0  0
  -28.5202  -22.7216   21.5975 C   0  0  0  0  0  0
  -28.5861  -20.7359   19.9387 C   0  0  2  0  0  0
  -28.8416  -23.8334   20.5317 C   0  0  2  0  0  0
  -27.3751  -19.5912   17.4002 C   0  0  0  0  0  0
  -28.0392  -25.1780   20.8410 C   0  0  0  0  0  0
  -30.0263  -15.7650   20.8978 N   0  0  0  0  0  0
  -31.4635  -12.4923   19.1482 H   0  0  0  0  0  0
  -30.3424  -11.4129   19.9293 H   0  0  0  0  0  0
  -29.7551  -11.6899   17.5104 H   0  0  0  0  0  0
  -29.6566  -13.4170   17.6975 H   0  0  0  0  0  0
  -27.8512  -11.2858   18.8830 H   0  0  0  0  0  0
  -27.3668  -12.5580   17.7956 H   0  0  0  0  0  0
  -27.6343  -14.2462   19.5053 H   0  0  0  0  0  0
  -28.7081  -12.1339   21.4286 H   0  0  0  0  0  0
  -28.4466  -13.8215   21.7956 H   0  0  0  0  0  0
  -25.2745   -9.5675   22.4769 H   0  0  0  0  0  0
  -23.9990   -7.4612   22.7463 H   0  0  0  0  0  0
  -21.0834   -8.8749   19.8945 H   0  0  0  0  0  0
  -22.3673  -10.9661   19.6168 H   0  0  0  0  0  0
  -21.1995   -7.6143   23.9709 H   0  0  0  0  0  0
  -21.1495   -6.0532   25.9081 H   0  0  0  0  0  0
  -22.0598   -2.7603   23.2846 H   0  0  0  0  0  0
  -22.4085  -11.9866   22.4809 H   0  0  0  0  0  0
  -21.1072  -13.1217   22.2642 H   0  0  0  0  0  0
  -24.6637  -15.8494   20.5406 H   0  0  0  0  0  0
  -26.2916  -15.6304   20.1351 H   0  0  0  0  0  0
  -26.7168  -32.5468   23.1117 H   0  0  0  0  0  0
  -25.0071  -33.9742   25.0442 H   0  0  0  0  0  0
  -22.7110  -31.3040   21.4031 H   0  0  0  0  0  0
  -23.3747  -35.9634   23.3306 H   0  0  0  0  0  0
  -24.3578  -36.8917   22.2055 H   0  0  0  0  0  0
  -23.7241  -37.6502   23.6659 H   0  0  0  0  0  0
  -26.0839  -31.5617   20.6041 H   0  0  0  0  0  0
  -26.8394  -30.8488   21.9989 H   0  0  0  0  0  0
  -28.1144  -28.9960   21.2013 H   0  0  0  0  0  0
  -26.0154  -25.9426   18.9916 H   0  0  0  0  0  0
  -23.9771  -27.3117   19.0016 H   0  0  0  0  0  0
  -23.7496  -30.5967   19.4042 H   0  0  0  0  0  0
  -22.7540  -29.2470   19.8586 H   0  0  0  0  0  0
  -25.1289  -36.1947   25.0825 H   0  0  0  0  0  0
  -20.9970  -28.3259   24.1407 H   0  0  0  0  0  0
  -20.5674  -26.2296   23.3605 H   0  0  0  0  0  0
  -21.6642  -26.7439   22.1204 H   0  0  0  0  0  0
  -19.6910  -25.6295   21.1243 H   0  0  0  0  0  0
  -19.6689  -27.3196   20.6736 H   0  0  0  0  0  0
  -17.4195  -26.6675   21.4022 H   0  0  0  0  0  0
  -18.0326  -26.0062   22.9018 H   0  0  0  0  0  0
  -19.7937  -30.7265   24.2279 H   0  0  0  0  0  0
  -17.5015  -31.6270   24.5157 H   0  0  0  0  0  0
  -15.5352  -30.2990   23.7651 H   0  0  0  0  0  0
  -15.8669  -28.0819   22.7079 H   0  0  0  0  0  0
  -24.5917  -30.7051   25.7792 H   0  0  0  0  0  0
  -24.8904  -32.2874   26.4884 H   0  0  0  0  0  0
  -25.8066  -30.8904   27.0237 H   0  0  0  0  0  0
  -26.2910  -29.6774   24.1196 H   0  0  0  0  0  0
  -27.4049  -29.7278   25.4665 H   0  0  0  0  0  0
  -27.8769  -30.4324   23.9382 H   0  0  0  0  0  0
  -27.2676  -33.3631   26.2065 H   0  0  0  0  0  0
  -28.3865  -32.6876   25.0321 H   0  0  0  0  0  0
  -28.0718  -31.8451   26.5414 H   0  0  0  0  0  0
  -28.2596  -38.0099   24.7508 H   0  0  0  0  0  0
  -28.1072  -36.2630   24.6296 H   0  0  0  0  0  0
  -27.2293  -37.1457   25.8867 H   0  0  0  0  0  0
  -20.9357  -29.8769   21.6903 H   0  0  0  0  0  0
  -26.0174  -38.2861   24.1408 H   0  0  0  0  0  0
  -27.9784  -17.0583   16.9902 H   0  0  0  0  0  0
  -29.0985  -15.4451   18.3921 H   0  0  0  0  0  0
  -29.7680  -18.5108   21.3755 H   0  0  0  0  0  0
  -30.2486  -21.8173   19.0200 H   0  0  0  0  0  0
  -28.9784  -21.5019   17.9036 H   0  0  0  0  0  0
  -28.6621  -20.6025   22.1045 H   0  0  0  0  0  0
  -30.1286  -21.2286   21.3939 H   0  0  0  0  0  0
  -27.4866  -23.1737   18.9696 H   0  0  0  0  0  0
  -28.9539  -23.8862   18.3679 H   0  0  0  0  0  0
  -28.8927  -23.0482   22.5690 H   0  0  0  0  0  0
  -27.4366  -22.6644   21.7098 H   0  0  0  0  0  0
  -27.5020  -20.8530   19.9467 H   0  0  0  0  0  0
  -29.9083  -24.0543   20.5964 H   0  0  0  0  0  0
  -26.6037  -18.9850   16.9239 H   0  0  0  0  0  0
  -27.9906  -20.0057   16.6020 H   0  0  0  0  0  0
  -26.8516  -20.4018   17.9036 H   0  0  0  0  0  0
  -28.1946  -25.3967   21.8984 H   0  0  0  0  0  0
  -26.9812  -24.9230   20.7811 H   0  0  0  0  0  0
  -30.4314  -16.1418   21.7426 H   0  0  0  0  0  0
  1 25  1  0  0  0
  1 30  2  0  0  0
  1 85  1  0  0  0
  2  3  1  0  0  0
  2 25  1  0  0  0
  2 86  1  0  0  0
  2 87  1  0  0  0
  3  4  1  0  0  0
  3 88  1  0  0  0
  3 89  1  0  0  0
  4  5  1  0  0  0
  4 90  1  0  0  0
  4 91  1  0  0  0
  5  6  1  0  0  0
  5 26  1  0  0  0
  5 92  1  0  0  0
  6 25  1  0  0  0
  6 93  1  0  0  0
  6 94  1  0  0  0
  7  8  2  0  0  0
  7 26  1  0  0  0
  7 29  1  0  0  0
  8  9  1  0  0  0
  8 22  1  0  0  0
  9 10  1  0  0  0
  9 27  2  0  0  0
 10 11  2  0  0  0
 10 15  1  0  0  0
 11 12  1  0  0  0
 11 95  1  0  0  0
 12 13  2  0  0  0
 12 96  1  0  0  0
 13 14  1  0  0  0
 13 31  1  0  0  0
 14 15  2  0  0  0
 14 97  1  0  0  0
 15 98  1  0  0  0
 16 17  2  0  0  0
 16 21  1  0  0  0
 16 31  1  0  0  0
 17 18  1  0  0  0
 17 99  1  0  0  0
 18 19  2  0  0  0
 18100  1  0  0  0
 19 20  1  0  0  0
 19 24  1  0  0  0
 20 21  2  0  0  0
 20101  1  0  0  0
 21 23  1  0  0  0
 22 28  1  0  0  0
 22 32  2  0  0  0
 26 27  1  0  0  0
 28102  1  0  0  0
 28103  1  0  0  0
 29104  1  0  0  0
 29105  1  0  0  0
 33 34  1  0  0  0
 33 66  1  0  0  0
 33 70  2  0  0  0
 34 36  1  0  0  0
 34 59  1  0  0  0
 34106  1  0  0  0
 35 44  2  0  0  0
 35 45  1  0  0  0
 35 68  1  0  0  0
 36 56  1  0  0  0
 36107  1  0  0  0
 37 39  1  0  0  0
 37 47  1  0  0  0
 37 66  1  0  0  0
 37108  1  0  0  0
 38 43  2  0  0  0
 38 46  1  0  0  0
 38 47  1  0  0  0
 39 64  1  0  0  0
 39 67  2  0  0  0
 40 52  1  0  0  0
 40 53  2  0  0  0
 40 58  1  0  0  0
 41109  1  0  0  0
 41110  1  0  0  0
 41111  1  0  0  0
 41 48  1  0  0  0
 42 43  1  0  0  0
 42 66  1  0  0  0
 42112  1  0  0  0
 42113  1  0  0  0
 43 44  1  0  0  0
 44114  1  0  0  0
 45 46  2  0  0  0
 45115  1  0  0  0
 46116  1  0  0  0
 47117  1  0  0  0
 47118  1  0  0  0
 48 56  1  0  0  0
 48 65  1  0  0  0
 48119  1  0  0  0
 49 50  1  0  0  0
 49 53  1  0  0  0
 49 64  1  0  0  0
 49120  1  0  0  0
 50 51  1  0  0  0
 50121  1  0  0  0
 50122  1  0  0  0
 51 52  1  0  0  0
 51123  1  0  0  0
 51124  1  0  0  0
 52125  1  0  0  0
 52126  1  0  0  0
 53 54  1  0  0  0
 54 55  2  0  0  0
 54127  1  0  0  0
 55 57  1  0  0  0
 55128  1  0  0  0
 56 69  2  0  0  0
 57 58  2  0  0  0
 57129  1  0  0  0
 58130  1  0  0  0
 59 60  1  0  0  0
 59 61  1  0  0  0
 59 62  1  0  0  0
 60131  1  0  0  0
 60132  1  0  0  0
 60133  1  0  0  0
 61134  1  0  0  0
 61135  1  0  0  0
 61136  1  0  0  0
 62137  1  0  0  0
 62138  1  0  0  0
 62139  1  0  0  0
 63 65  1  0  0  0
 63140  1  0  0  0
 63141  1  0  0  0
 63142  1  0  0  0
 64143  1  0  0  0
 65144  1  0  0  0
 68 84  1  0  0  0
 71 72  2  0  0  0
 71 75  1  0  0  0
 71145  1  0  0  0
 72 76  1  0  0  0
 72146  1  0  0  0
 73 74  1  0  0  0
 73 76  2  0  0  0
 73147  1  0  0  0
 74 75  2  0  0  0
 74 81  1  0  0  0
 75 83  1  0  0  0
 76 85  1  0  0  0
 77 79  1  0  0  0
 77 81  1  0  0  0
 77148  1  0  0  0
 77149  1  0  0  0
 78 80  1  0  0  0
 78 81  1  0  0  0
 78150  1  0  0  0
 78151  1  0  0  0
 79 82  1  0  0  0
 79152  1  0  0  0
 79153  1  0  0  0
 80 82  1  0  0  0
 80154  1  0  0  0
 80155  1  0  0  0
 81156  1  0  0  0
 82 84  1  0  0  0
 82157  1  0  0  0
 83158  1  0  0  0
 83159  1  0  0  0
 83160  1  0  0  0
 84161  1  0  0  0
 84162  1  0  0  0
 85163  1  0  0  0
M  ISO  4   1 100  68 101  84 101  85 100
M  END
> <chiral flag>
0

> <version>
0

> <s_m_source_file>
/data/baiqing/PycharmProjects/Reinvent-master-3.2/result/LINK_invent/BTK/process_docking_weight1_custom_product_contain_oxygen_bond_distance_aromatic_linkinvent_7_9_3/rearranged_h_0119.sdf

> <i_m_source_file_index>
67

> <r_mmod_Potential_Energy-OPLS-2005>
173.934448242188

> <r_mmod_Stretch_Energy-OPLS-2005>
80.7616806030273

> <r_mmod_Bend_Energy-OPLS-2005>
153.144744873047

> <r_mmod_Torsional_Energy-OPLS-2005>
306.802764892578

> <r_mmod_Improper_Torsional_Energy-OPLS-2005>
6.16624641418457

> <r_mmod_Van_der_Waal_Energy-OPLS-2005>
147.726425170898

> <r_mmod_Electrostatic_Energy-OPLS-2005>
-378.651092529297

> <r_mmod_Solvation_Energy-OPLS-2005>
-191.08576965332

> <b_mmod_Minimization_Converged-OPLS-2005>
0

> <r_mmod_RMS_Derivative-OPLS-2005>
0.906200289726257

$$$$
67
                    3D
 Structure written by MMmdl.
160168  0  0  1  0            999 V2000
  -30.7024  -14.4825   20.6014 C   0  0  0  0  0  0
  -30.4290  -12.3185   19.4303 C   0  0  0  0  0  0
  -29.4991  -12.5179   18.2141 C   0  0  0  0  0  0
  -28.0185  -12.3792   18.6192 C   0  0  0  0  0  0
  -27.6674  -13.2076   19.8836 C   0  0  2  0  0  0
  -28.7106  -12.9799   21.0033 C   0  0  0  0  0  0
  -25.2618  -13.8170   20.5711 C   0  0  0  0  0  0
  -24.1858  -13.0453   20.9198 C   0  0  0  0  0  0
  -24.6385  -11.6915   20.8724 C   0  0  0  0  0  0
  -23.9036  -10.4313   21.0386 C   0  0  0  0  0  0
  -24.3602   -9.4233   21.9164 C   0  0  0  0  0  0
  -23.6286   -8.2260   22.0733 C   0  0  0  0  0  0
  -22.4260   -8.0292   21.3540 C   0  0  0  0  0  0
  -21.9898   -9.0248   20.4628 C   0  0  0  0  0  0
  -22.7210  -10.2142   20.3026 C   0  0  0  0  0  0
  -21.6857   -6.0743   22.5281 C   0  0  0  0  0  0
  -21.4011   -6.5645   23.8213 C   0  0  0  0  0  0
  -21.3670   -5.6798   24.9179 C   0  0  0  0  0  0
  -21.6040   -4.3055   24.7221 C   0  0  0  0  0  0
  -21.8820   -3.8147   23.4340 C   0  0  0  0  0  0
  -21.9190   -4.6970   22.3402 C   0  0  0  0  0  0
  -22.7874  -13.5245   21.1837 C   0  0  0  0  0  0
  -22.1660   -4.2164   21.0975 F   0  0  0  0  0  0
  -21.5636   -3.4536   25.7732 F   0  0  0  0  0  0
  -30.0461  -13.2930   20.4650 N   0  0  0  0  0  0
  -26.3056  -12.9323   20.3419 N   0  0  0  0  0  0
  -25.9322  -11.6479   20.5785 N   0  0  0  0  0  0
  -22.0497  -12.8235   22.0394 N   0  0  0  0  0  0
  -25.4347  -15.1894   20.4138 N   0  0  0  0  0  0
  -31.7796  -14.7173   20.0454 O   0  0  0  0  0  0
  -21.6633   -6.8885   21.4241 O   0  0  0  0  0  0
  -22.3570  -14.5557   20.6692 O   0  0  0  0  0  0
  -24.6194  -31.8657   23.2054 C   0  0  0  0  0  0
  -25.9079  -32.4816   23.8361 C   0  0  1  0  0  0
  -27.2418  -27.4096   20.1059 C   0  0  0  0  0  0
  -25.5955  -33.8612   24.2321 N   0  0  0  0  0  0
  -23.4092  -30.4815   21.5489 C   0  0  2  0  0  0
  -24.8583  -28.9354   20.1203 C   0  0  0  0  0  0
  -22.7441  -29.4627   22.5033 C   0  0  0  0  0  0
  -18.0299  -28.1380   22.8533 C   0  0  0  0  0  0
  -24.1500  -36.7299   23.2627 C   0  0  0  0  0  0
  -25.9372  -30.8209   21.3604 C   0  0  0  0  0  0
  -26.0176  -29.4476   20.7191 C   0  0  0  0  0  0
  -27.2124  -28.6900   20.7129 C   0  0  0  0  0  0
  -26.0701  -26.9174   19.4983 C   0  0  0  0  0  0
  -24.8807  -27.6705   19.5068 C   0  0  0  0  0  0
  -23.6168  -29.7980   20.1698 C   0  0  0  0  0  0
  -25.4127  -36.3110   24.0334 C   0  0  1  0  0  0
  -20.5881  -28.3669   23.1333 C   0  0  2  0  0  0
  -20.6802  -26.9386   22.5464 C   0  0  0  0  0  0
  -19.5756  -26.6364   21.5284 C   0  0  0  0  0  0
  -18.1941  -26.7906   22.1718 C   0  0  0  0  0  0
  -19.1542  -28.8874   23.2911 C   0  0  0  0  0  0
  -18.9463  -30.1525   23.8825 C   0  0  0  0  0  0
  -17.6442  -30.6602   24.0539 C   0  0  0  0  0  0
  -25.9039  -34.9467   23.5120 C   0  0  0  0  0  0
  -16.5339  -29.9060   23.6368 C   0  0  0  0  0  0
  -16.7293  -28.6498   23.0370 C   0  0  0  0  0  0
  -26.4506  -31.6567   25.0681 C   0  0  0  0  0  0
  -25.3790  -31.3638   26.1428 C   0  0  0  0  0  0
  -27.0361  -30.3021   24.6054 C   0  0  0  0  0  0
  -27.6109  -32.4257   25.7436 C   0  0  0  0  0  0
  -27.5597  -37.1813   24.8481 C   0  0  0  0  0  0
  -21.4169  -29.3005   22.3731 N   0  0  0  0  0  0
  -26.4318  -37.3793   23.9405 N   0  0  0  0  0  0
  -24.6740  -31.0724   22.0959 N   0  0  0  0  0  0
  -23.4195  -28.8183   23.3114 O   0  0  0  0  0  0
  -28.3830  -26.6352   20.0455 O   0  0  0  0  0  0
  -26.5563  -34.8919   22.4658 O   0  0  0  0  0  0
  -23.5388  -32.1400   23.7461 O   0  0  0  0  0  0
  -30.3726  -19.1401   21.8195 C   0  0  0  0  0  0
  -30.5771  -17.7507   22.0116 C   0  0  0  0  0  0
  -29.2814  -17.3063   20.0194 C   0  0  0  0  0  0
  -29.6106  -19.6498   20.7379 C   0  0  0  0  0  0
  -29.0804  -18.6962   19.8176 C   0  0  0  0  0  0
  -30.0212  -16.8137   21.1153 C   0  0  0  0  0  0
  -29.3883  -21.1378   20.6790 C   0  0  0  0  0  0
  -28.3027  -21.8052   20.2146 C   0  0  0  0  0  0
  -28.3221  -19.1058   18.5678 C   0  0  0  0  0  0
  -29.6089  -26.3869   22.0603 C   0  0  0  0  0  0
  -28.0330  -23.3253   20.1357 C   0  0  0  0  0  0
  -29.0920  -24.3024   20.7160 C   0  0  0  0  0  0
  -28.5793  -25.7204   21.1385 C   0  0  2  0  0  0
  -30.0880  -15.4061   21.3711 N   0  0  0  0  0  0
  -31.4747  -12.4160   19.1324 H   0  0  0  0  0  0
  -30.3273  -11.3055   19.8221 H   0  0  0  0  0  0
  -29.7414  -11.7940   17.4353 H   0  0  0  0  0  0
  -29.6696  -13.5047   17.7802 H   0  0  0  0  0  0
  -27.8243  -11.3227   18.8032 H   0  0  0  0  0  0
  -27.3695  -12.6669   17.7906 H   0  0  0  0  0  0
  -27.7137  -14.2601   19.5992 H   0  0  0  0  0  0
  -28.6900  -11.9380   21.3264 H   0  0  0  0  0  0
  -28.4642  -13.5634   21.8910 H   0  0  0  0  0  0
  -25.2751   -9.5740   22.4727 H   0  0  0  0  0  0
  -24.0024   -7.4657   22.7439 H   0  0  0  0  0  0
  -21.0836   -8.8721   19.8933 H   0  0  0  0  0  0
  -22.3629  -10.9657   19.6128 H   0  0  0  0  0  0
  -21.1993   -7.6151   23.9731 H   0  0  0  0  0  0
  -21.1502   -6.0520   25.9091 H   0  0  0  0  0  0
  -22.0590   -2.7608   23.2818 H   0  0  0  0  0  0
  -22.4074  -11.9911   22.4834 H   0  0  0  0  0  0
  -21.1100  -13.1257   22.2535 H   0  0  0  0  0  0
  -24.6763  -15.8505   20.5365 H   0  0  0  0  0  0
  -26.3008  -15.6311   20.1302 H   0  0  0  0  0  0
  -26.7130  -32.5522   23.1108 H   0  0  0  0  0  0
  -25.0291  -33.9799   25.0586 H   0  0  0  0  0  0
  -22.7033  -31.3028   21.4046 H   0  0  0  0  0  0
  -23.3793  -35.9614   23.3304 H   0  0  0  0  0  0
  -24.3591  -36.8883   22.2039 H   0  0  0  0  0  0
  -23.7205  -37.6498   23.6614 H   0  0  0  0  0  0
  -26.0505  -31.5819   20.5866 H   0  0  0  0  0  0
  -26.8228  -30.8792   21.9801 H   0  0  0  0  0  0
  -28.1070  -29.0876   21.1718 H   0  0  0  0  0  0
  -26.0870  -25.9500   19.0164 H   0  0  0  0  0  0
  -23.9911  -27.2758   19.0362 H   0  0  0  0  0  0
  -23.7074  -30.5624   19.3975 H   0  0  0  0  0  0
  -22.7437  -29.2037   19.8925 H   0  0  0  0  0  0
  -25.1306  -36.1981   25.0833 H   0  0  0  0  0  0
  -20.9965  -28.3218   24.1447 H   0  0  0  0  0  0
  -20.5706  -26.2282   23.3683 H   0  0  0  0  0  0
  -21.6689  -26.7429   22.1288 H   0  0  0  0  0  0
  -19.6930  -25.6266   21.1337 H   0  0  0  0  0  0
  -19.6655  -27.3201   20.6828 H   0  0  0  0  0  0
  -17.4196  -26.6607   21.4141 H   0  0  0  0  0  0
  -18.0352  -26.0083   22.9158 H   0  0  0  0  0  0
  -19.7929  -30.7414   24.2099 H   0  0  0  0  0  0
  -17.4963  -31.6275   24.5124 H   0  0  0  0  0  0
  -15.5321  -30.2890   23.7778 H   0  0  0  0  0  0
  -15.8719  -28.0802   22.7071 H   0  0  0  0  0  0
  -24.6035  -30.6897   25.7774 H   0  0  0  0  0  0
  -24.8913  -32.2771   26.4834 H   0  0  0  0  0  0
  -25.8163  -30.8854   27.0194 H   0  0  0  0  0  0
  -26.2913  -29.6779   24.1110 H   0  0  0  0  0  0
  -27.4157  -29.7254   25.4502 H   0  0  0  0  0  0
  -27.8725  -30.4384   23.9193 H   0  0  0  0  0  0
  -27.2781  -33.3587   26.1995 H   0  0  0  0  0  0
  -28.3925  -32.6740   25.0237 H   0  0  0  0  0  0
  -28.0782  -31.8358   26.5336 H   0  0  0  0  0  0
  -28.2636  -38.0096   24.7554 H   0  0  0  0  0  0
  -28.1060  -36.2632   24.6292 H   0  0  0  0  0  0
  -27.2314  -37.1439   25.8882 H   0  0  0  0  0  0
  -20.9369  -29.8603   21.6832 H   0  0  0  0  0  0
  -26.0214  -38.2887   24.1369 H   0  0  0  0  0  0
  -30.7957  -19.8275   22.5388 H   0  0  0  0  0  0
  -31.1468  -17.4085   22.8649 H   0  0  0  0  0  0
  -28.8458  -16.6023   19.3264 H   0  0  0  0  0  0
  -30.2139  -21.7301   21.0466 H   0  0  0  0  0  0
  -27.4680  -21.2229   19.8561 H   0  0  0  0  0  0
  -28.3316  -18.3046   17.8288 H   0  0  0  0  0  0
  -28.7748  -19.9806   18.1004 H   0  0  0  0  0  0
  -27.2794  -19.3177   18.8001 H   0  0  0  0  0  0
  -29.7841  -25.7875   22.9529 H   0  0  0  0  0  0
  -29.2791  -27.3699   22.3957 H   0  0  0  0  0  0
  -30.5644  -26.5022   21.5461 H   0  0  0  0  0  0
  -27.0869  -23.4939   20.6502 H   0  0  0  0  0  0
  -27.8461  -23.5797   19.0914 H   0  0  0  0  0  0
  -29.9348  -24.4007   20.0294 H   0  0  0  0  0  0
  -29.4999  -23.8393   21.6133 H   0  0  0  0  0  0
  -27.6527  -25.5961   21.7047 H   0  0  0  0  0  0
  -29.3195  -15.0334   21.9059 H   0  0  0  0  0  0
  1 25  1  0  0  0
  1 30  2  0  0  0
  1 84  1  0  0  0
  2  3  1  0  0  0
  2 25  1  0  0  0
  2 85  1  0  0  0
  2 86  1  0  0  0
  3  4  1  0  0  0
  3 87  1  0  0  0
  3 88  1  0  0  0
  4  5  1  0  0  0
  4 89  1  0  0  0
  4 90  1  0  0  0
  5  6  1  0  0  0
  5 26  1  0  0  0
  5 91  1  0  0  0
  6 25  1  0  0  0
  6 92  1  0  0  0
  6 93  1  0  0  0
  7  8  2  0  0  0
  7 26  1  0  0  0
  7 29  1  0  0  0
  8  9  1  0  0  0
  8 22  1  0  0  0
  9 10  1  0  0  0
  9 27  2  0  0  0
 10 11  2  0  0  0
 10 15  1  0  0  0
 11 12  1  0  0  0
 11 94  1  0  0  0
 12 13  2  0  0  0
 12 95  1  0  0  0
 13 14  1  0  0  0
 13 31  1  0  0  0
 14 15  2  0  0  0
 14 96  1  0  0  0
 15 97  1  0  0  0
 16 17  2  0  0  0
 16 21  1  0  0  0
 16 31  1  0  0  0
 17 18  1  0  0  0
 17 98  1  0  0  0
 18 19  2  0  0  0
 18 99  1  0  0  0
 19 20  1  0  0  0
 19 24  1  0  0  0
 20 21  2  0  0  0
 20100  1  0  0  0
 21 23  1  0  0  0
 22 28  1  0  0  0
 22 32  2  0  0  0
 26 27  1  0  0  0
 28101  1  0  0  0
 28102  1  0  0  0
 29103  1  0  0  0
 29104  1  0  0  0
 33 34  1  0  0  0
 33 66  1  0  0  0
 33 70  2  0  0  0
 34 36  1  0  0  0
 34 59  1  0  0  0
 34105  1  0  0  0
 35 44  2  0  0  0
 35 45  1  0  0  0
 35 68  1  0  0  0
 36 56  1  0  0  0
 36106  1  0  0  0
 37 39  1  0  0  0
 37 47  1  0  0  0
 37 66  1  0  0  0
 37107  1  0  0  0
 38 43  2  0  0  0
 38 46  1  0  0  0
 38 47  1  0  0  0
 39 64  1  0  0  0
 39 67  2  0  0  0
 40 52  1  0  0  0
 40 53  2  0  0  0
 40 58  1  0  0  0
 41108  1  0  0  0
 41109  1  0  0  0
 41110  1  0  0  0
 41 48  1  0  0  0
 42 43  1  0  0  0
 42 66  1  0  0  0
 42111  1  0  0  0
 42112  1  0  0  0
 43 44  1  0  0  0
 44113  1  0  0  0
 45 46  2  0  0  0
 45114  1  0  0  0
 46115  1  0  0  0
 47116  1  0  0  0
 47117  1  0  0  0
 48 56  1  0  0  0
 48 65  1  0  0  0
 48118  1  0  0  0
 49 50  1  0  0  0
 49 53  1  0  0  0
 49 64  1  0  0  0
 49119  1  0  0  0
 50 51  1  0  0  0
 50120  1  0  0  0
 50121  1  0  0  0
 51 52  1  0  0  0
 51122  1  0  0  0
 51123  1  0  0  0
 52124  1  0  0  0
 52125  1  0  0  0
 53 54  1  0  0  0
 54 55  2  0  0  0
 54126  1  0  0  0
 55 57  1  0  0  0
 55127  1  0  0  0
 56 69  2  0  0  0
 57 58  2  0  0  0
 57128  1  0  0  0
 58129  1  0  0  0
 59 60  1  0  0  0
 59 61  1  0  0  0
 59 62  1  0  0  0
 60130  1  0  0  0
 60131  1  0  0  0
 60132  1  0  0  0
 61133  1  0  0  0
 61134  1  0  0  0
 61135  1  0  0  0
 62136  1  0  0  0
 62137  1  0  0  0
 62138  1  0  0  0
 63 65  1  0  0  0
 63139  1  0  0  0
 63140  1  0  0  0
 63141  1  0  0  0
 64142  1  0  0  0
 65143  1  0  0  0
 68 83  1  0  0  0
 71 72  2  0  0  0
 71 74  1  0  0  0
 71144  1  0  0  0
 72 76  1  0  0  0
 72145  1  0  0  0
 73 75  1  0  0  0
 73 76  2  0  0  0
 73146  1  0  0  0
 74 75  2  0  0  0
 74 77  1  0  0  0
 75 79  1  0  0  0
 76 84  1  0  0  0
 77 78  2  0  0  0
 77147  1  0  0  0
 78 81  1  0  0  0
 78148  1  0  0  0
 79149  1  0  0  0
 79150  1  0  0  0
 79151  1  0  0  0
 80152  1  0  0  0
 80153  1  0  0  0
 80154  1  0  0  0
 80 83  1  0  0  0
 81 82  1  0  0  0
 81155  1  0  0  0
 81156  1  0  0  0
 82 83  1  0  0  0
 82157  1  0  0  0
 82158  1  0  0  0
 83159  1  0  0  0
 84160  1  0  0  0
M  ISO  4   1 100  68 101  83 101  84 100
M  END
> <chiral flag>
0

> <version>
0

> <s_m_source_file>
/data/baiqing/PycharmProjects/Reinvent-master-3.2/result/LINK_invent/BTK/process_docking_weight1_custom_product_contain_oxygen_bond_distance_aromatic_linkinvent_7_9_3/rearranged_h_0119.sdf

> <i_m_source_file_index>
68

> <r_mmod_Potential_Energy-OPLS-2005>
3.27593159675598

> <r_mmod_Stretch_Energy-OPLS-2005>
45.3914070129395

> <r_mmod_Bend_Energy-OPLS-2005>
109.128211975098

> <r_mmod_Torsional_Energy-OPLS-2005>
274.542266845703

> <r_mmod_Improper_Torsional_Energy-OPLS-2005>
4.35554981231689

> <r_mmod_Van_der_Waal_Energy-OPLS-2005>
141.234466552734

> <r_mmod_Electrostatic_Energy-OPLS-2005>
-382.769134521484

> <r_mmod_Solvation_Energy-OPLS-2005>
-202.071884155273

> <b_mmod_Minimization_Converged-OPLS-2005>
0

> <r_mmod_RMS_Derivative-OPLS-2005>
3.7262442111969

$$$$
68
                    3D
 Structure written by MMmdl.
163171  0  0  1  0            999 V2000
  -30.6497  -14.6122   20.4736 C   0  0  0  0  0  0
  -30.4304  -12.3724   19.4474 C   0  0  0  0  0  0
  -29.4939  -12.4561   18.2189 C   0  0  0  0  0  0
  -28.0240  -12.2647   18.6454 C   0  0  0  0  0  0
  -27.6431  -13.1678   19.8457 C   0  0  2  0  0  0
  -28.6891  -13.0427   20.9777 C   0  0  0  0  0  0
  -25.2629  -13.8063   20.5683 C   0  0  0  0  0  0
  -24.1814  -13.0394   20.9151 C   0  0  0  0  0  0
  -24.6309  -11.6853   20.8738 C   0  0  0  0  0  0
  -23.8970  -10.4267   21.0404 C   0  0  0  0  0  0
  -24.3565   -9.4188   21.9162 C   0  0  0  0  0  0
  -23.6261   -8.2221   22.0733 C   0  0  0  0  0  0
  -22.4230   -8.0268   21.3548 C   0  0  0  0  0  0
  -21.9860   -9.0228   20.4626 C   0  0  0  0  0  0
  -22.7168  -10.2111   20.3025 C   0  0  0  0  0  0
  -21.6843   -6.0738   22.5292 C   0  0  0  0  0  0
  -21.4030   -6.5653   23.8227 C   0  0  0  0  0  0
  -21.3649   -5.6794   24.9184 C   0  0  0  0  0  0
  -21.6032   -4.3064   24.7228 C   0  0  0  0  0  0
  -21.8811   -3.8156   23.4356 C   0  0  0  0  0  0
  -21.9196   -4.6971   22.3410 C   0  0  0  0  0  0
  -22.7877  -13.5261   21.1872 C   0  0  0  0  0  0
  -22.1670   -4.2166   21.0986 F   0  0  0  0  0  0
  -21.5598   -3.4532   25.7729 F   0  0  0  0  0  0
  -30.0006  -13.4016   20.4167 N   0  0  0  0  0  0
  -26.2940  -12.9116   20.3273 N   0  0  0  0  0  0
  -25.9212  -11.6337   20.5776 N   0  0  0  0  0  0
  -22.0557  -12.8207   22.0443 N   0  0  0  0  0  0
  -25.4504  -15.1746   20.4166 N   0  0  0  0  0  0
  -31.8540  -14.6878   20.2141 O   0  0  0  0  0  0
  -21.6621   -6.8866   21.4236 O   0  0  0  0  0  0
  -22.3578  -14.5597   20.6767 O   0  0  0  0  0  0
  -24.6126  -31.8699   23.2131 C   0  0  0  0  0  0
  -25.9021  -32.4835   23.8417 C   0  0  1  0  0  0
  -27.2421  -27.4433   20.1116 C   0  0  0  0  0  0
  -25.5902  -33.8641   24.2346 N   0  0  0  0  0  0
  -23.3997  -30.4918   21.5544 C   0  0  2  0  0  0
  -24.8507  -28.9531   20.1248 C   0  0  0  0  0  0
  -22.7368  -29.4664   22.5011 C   0  0  0  0  0  0
  -18.0242  -28.1356   22.8520 C   0  0  0  0  0  0
  -24.1485  -36.7313   23.2661 C   0  0  0  0  0  0
  -25.9275  -30.8419   21.3622 C   0  0  0  0  0  0
  -26.0101  -29.4755   20.7109 C   0  0  0  0  0  0
  -27.2116  -28.7300   20.7000 C   0  0  0  0  0  0
  -26.0679  -26.9288   19.5251 C   0  0  0  0  0  0
  -24.8714  -27.6759   19.5360 C   0  0  0  0  0  0
  -23.6070  -29.8172   20.1707 C   0  0  0  0  0  0
  -25.4117  -36.3124   24.0345 C   0  0  1  0  0  0
  -20.5840  -28.3659   23.1336 C   0  0  2  0  0  0
  -20.6726  -26.9400   22.5451 C   0  0  0  0  0  0
  -19.5705  -26.6374   21.5242 C   0  0  0  0  0  0
  -18.1866  -26.7910   22.1624 C   0  0  0  0  0  0
  -19.1501  -28.8827   23.2917 C   0  0  0  0  0  0
  -18.9436  -30.1428   23.8930 C   0  0  0  0  0  0
  -17.6449  -30.6599   24.0568 C   0  0  0  0  0  0
  -25.9049  -34.9489   23.5151 C   0  0  0  0  0  0
  -16.5332  -29.9098   23.6352 C   0  0  0  0  0  0
  -16.7232  -28.6487   23.0405 C   0  0  0  0  0  0
  -26.4459  -31.6608   25.0756 C   0  0  0  0  0  0
  -25.3703  -31.3604   26.1462 C   0  0  0  0  0  0
  -27.0396  -30.3079   24.6167 C   0  0  0  0  0  0
  -27.5999  -32.4363   25.7549 C   0  0  0  0  0  0
  -27.5574  -37.1817   24.8472 C   0  0  0  0  0  0
  -21.4101  -29.3022   22.3724 N   0  0  0  0  0  0
  -26.4281  -37.3826   23.9433 N   0  0  0  0  0  0
  -24.6651  -31.0810   22.1029 N   0  0  0  0  0  0
  -23.4132  -28.8217   23.3069 O   0  0  0  0  0  0
  -28.4007  -26.6996   20.0823 O   0  0  0  0  0  0
  -26.5610  -34.8945   22.4708 O   0  0  0  0  0  0
  -23.5324  -32.1424   23.7525 O   0  0  0  0  0  0
  -31.9354  -18.8317   19.1024 C   0  0  0  0  0  0
  -30.0992  -18.4004   21.1352 C   0  0  0  0  0  0
  -31.2717  -17.5771   19.1708 C   0  0  0  0  0  0
  -31.6458  -19.8873   19.9975 C   0  0  0  0  0  0
  -30.4510  -17.2886   20.3079 C   0  0  0  0  0  0
  -30.5966  -19.7090   20.9251 C   0  0  0  0  0  0
  -32.3132  -16.6837   17.0394 C   0  0  0  0  0  0
  -33.4058  -21.5305   19.1908 C   0  0  0  0  0  0
  -31.4201  -16.6269   18.0402 C   0  0  0  0  0  0
  -32.3909  -21.1680   19.9928 C   0  0  0  0  0  0
  -29.7981  -15.9417   20.6040 C   0  0  0  0  0  0
  -28.8397  -24.2846   20.4498 C   0  0  0  0  0  0
  -29.2956  -23.1755   21.4477 C   0  0  0  0  0  0
  -28.5057  -25.6655   21.0779 C   0  0  0  0  0  0
  -29.3604  -21.7508   20.8272 C   0  0  0  0  0  0
  -28.5761  -15.9914   20.9409 N   0  0  0  0  0  0
  -30.0714  -20.7814   21.6326 O   0  0  0  0  0  0
  -31.4651  -12.5039   19.1319 H   0  0  0  0  0  0
  -30.3806  -11.3848   19.9090 H   0  0  0  0  0  0
  -29.7710  -11.6956   17.4874 H   0  0  0  0  0  0
  -29.6041  -13.4168   17.7151 H   0  0  0  0  0  0
  -27.8920  -11.2156   18.9181 H   0  0  0  0  0  0
  -27.3503  -12.4357   17.8052 H   0  0  0  0  0  0
  -27.6522  -14.1774   19.4463 H   0  0  0  0  0  0
  -28.7174  -12.0209   21.3590 H   0  0  0  0  0  0
  -28.4288  -13.6542   21.8412 H   0  0  0  0  0  0
  -25.2736   -9.5695   22.4693 H   0  0  0  0  0  0
  -24.0028   -7.4598   22.7404 H   0  0  0  0  0  0
  -21.0826   -8.8688   19.8910 H   0  0  0  0  0  0
  -22.3614  -10.9632   19.6108 H   0  0  0  0  0  0
  -21.2053   -7.6158   23.9737 H   0  0  0  0  0  0
  -21.1462   -6.0520   25.9079 H   0  0  0  0  0  0
  -22.0597   -2.7625   23.2822 H   0  0  0  0  0  0
  -22.4253  -11.9908   22.4838 H   0  0  0  0  0  0
  -21.1150  -13.1127   22.2639 H   0  0  0  0  0  0
  -24.7178  -15.8537   20.5911 H   0  0  0  0  0  0
  -26.3784  -15.5843   20.3407 H   0  0  0  0  0  0
  -26.7109  -32.5559   23.1196 H   0  0  0  0  0  0
  -25.0015  -33.9812   25.0465 H   0  0  0  0  0  0
  -22.6904  -31.3095   21.4177 H   0  0  0  0  0  0
  -23.3776  -35.9614   23.3319 H   0  0  0  0  0  0
  -24.3546  -36.8957   22.2074 H   0  0  0  0  0  0
  -23.7201  -37.6498   23.6691 H   0  0  0  0  0  0
  -26.0386  -31.6149   20.5997 H   0  0  0  0  0  0
  -26.8128  -30.8949   21.9849 H   0  0  0  0  0  0
  -28.1094  -29.1338   21.1479 H   0  0  0  0  0  0
  -26.0822  -25.9511   19.0676 H   0  0  0  0  0  0
  -23.9736  -27.2614   19.1005 H   0  0  0  0  0  0
  -23.6990  -30.5908   19.4075 H   0  0  0  0  0  0
  -22.7307  -29.2269   19.8914 H   0  0  0  0  0  0
  -25.1283  -36.1992   25.0830 H   0  0  0  0  0  0
  -20.9927  -28.3255   24.1456 H   0  0  0  0  0  0
  -20.5645  -26.2279   23.3629 H   0  0  0  0  0  0
  -21.6593  -26.7432   22.1258 H   0  0  0  0  0  0
  -19.6880  -25.6301   21.1231 H   0  0  0  0  0  0
  -19.6635  -27.3207   20.6789 H   0  0  0  0  0  0
  -17.4163  -26.6734   21.3988 H   0  0  0  0  0  0
  -18.0196  -26.0018   22.8970 H   0  0  0  0  0  0
  -19.7931  -30.7222   24.2304 H   0  0  0  0  0  0
  -17.5035  -31.6284   24.5158 H   0  0  0  0  0  0
  -15.5337  -30.3032   23.7672 H   0  0  0  0  0  0
  -15.8603  -28.0808   22.7164 H   0  0  0  0  0  0
  -24.6076  -30.6727   25.7785 H   0  0  0  0  0  0
  -24.8622  -32.2672   26.4761 H   0  0  0  0  0  0
  -25.8074  -30.8956   27.0316 H   0  0  0  0  0  0
  -26.3000  -29.6733   24.1286 H   0  0  0  0  0  0
  -27.4266  -29.7405   25.4647 H   0  0  0  0  0  0
  -27.8755  -30.4454   23.9303 H   0  0  0  0  0  0
  -27.2629  -33.3725   26.2013 H   0  0  0  0  0  0
  -28.3869  -32.6810   25.0406 H   0  0  0  0  0  0
  -28.0604  -31.8564   26.5561 H   0  0  0  0  0  0
  -28.2569  -38.0145   24.7590 H   0  0  0  0  0  0
  -28.1091  -36.2670   24.6234 H   0  0  0  0  0  0
  -27.2273  -37.1407   25.8869 H   0  0  0  0  0  0
  -20.9247  -29.8739   21.6952 H   0  0  0  0  0  0
  -26.0166  -38.2888   24.1512 H   0  0  0  0  0  0
  -32.6444  -19.0154   18.3107 H   0  0  0  0  0  0
  -29.3889  -18.2738   21.9387 H   0  0  0  0  0  0
  -32.3023  -15.9297   16.2651 H   0  0  0  0  0  0
  -33.0662  -17.4519   16.9569 H   0  0  0  0  0  0
  -33.8597  -22.5049   19.3072 H   0  0  0  0  0  0
  -33.8104  -20.8962   18.4187 H   0  0  0  0  0  0
  -30.7132  -15.8110   17.9959 H   0  0  0  0  0  0
  -32.0895  -21.8894   20.7411 H   0  0  0  0  0  0
  -27.9701  -23.9398   19.8899 H   0  0  0  0  0  0
  -29.6352  -24.4245   19.7175 H   0  0  0  0  0  0
  -28.6327  -23.1540   22.3153 H   0  0  0  0  0  0
  -30.2807  -23.4457   21.8284 H   0  0  0  0  0  0
  -29.3020  -25.9572   21.7629 H   0  0  0  0  0  0
  -27.5956  -25.5871   21.6787 H   0  0  0  0  0  0
  -29.7849  -21.8251   19.8273 H   0  0  0  0  0  0
  -28.3423  -21.3834   20.6817 H   0  0  0  0  0  0
  -28.2628  -16.9541   20.9317 H   0  0  0  0  0  0
  1 25  1  0  0  0
  1 30  2  0  0  0
  1 81  1  0  0  0
  2  3  1  0  0  0
  2 25  1  0  0  0
  2 88  1  0  0  0
  2 89  1  0  0  0
  3  4  1  0  0  0
  3 90  1  0  0  0
  3 91  1  0  0  0
  4  5  1  0  0  0
  4 92  1  0  0  0
  4 93  1  0  0  0
  5  6  1  0  0  0
  5 26  1  0  0  0
  5 94  1  0  0  0
  6 25  1  0  0  0
  6 95  1  0  0  0
  6 96  1  0  0  0
  7  8  2  0  0  0
  7 26  1  0  0  0
  7 29  1  0  0  0
  8  9  1  0  0  0
  8 22  1  0  0  0
  9 10  1  0  0  0
  9 27  2  0  0  0
 10 11  2  0  0  0
 10 15  1  0  0  0
 11 12  1  0  0  0
 11 97  1  0  0  0
 12 13  2  0  0  0
 12 98  1  0  0  0
 13 14  1  0  0  0
 13 31  1  0  0  0
 14 15  2  0  0  0
 14 99  1  0  0  0
 15100  1  0  0  0
 16 17  2  0  0  0
 16 21  1  0  0  0
 16 31  1  0  0  0
 17 18  1  0  0  0
 17101  1  0  0  0
 18 19  2  0  0  0
 18102  1  0  0  0
 19 20  1  0  0  0
 19 24  1  0  0  0
 20 21  2  0  0  0
 20103  1  0  0  0
 21 23  1  0  0  0
 22 28  1  0  0  0
 22 32  2  0  0  0
 26 27  1  0  0  0
 28104  1  0  0  0
 28105  1  0  0  0
 29106  1  0  0  0
 29107  1  0  0  0
 33 34  1  0  0  0
 33 66  1  0  0  0
 33 70  2  0  0  0
 34 36  1  0  0  0
 34 59  1  0  0  0
 34108  1  0  0  0
 35 44  2  0  0  0
 35 45  1  0  0  0
 35 68  1  0  0  0
 36 56  1  0  0  0
 36109  1  0  0  0
 37 39  1  0  0  0
 37 47  1  0  0  0
 37 66  1  0  0  0
 37110  1  0  0  0
 38 43  2  0  0  0
 38 46  1  0  0  0
 38 47  1  0  0  0
 39 64  1  0  0  0
 39 67  2  0  0  0
 40 52  1  0  0  0
 40 53  2  0  0  0
 40 58  1  0  0  0
 41111  1  0  0  0
 41112  1  0  0  0
 41113  1  0  0  0
 41 48  1  0  0  0
 42 43  1  0  0  0
 42 66  1  0  0  0
 42114  1  0  0  0
 42115  1  0  0  0
 43 44  1  0  0  0
 44116  1  0  0  0
 45 46  2  0  0  0
 45117  1  0  0  0
 46118  1  0  0  0
 47119  1  0  0  0
 47120  1  0  0  0
 48 56  1  0  0  0
 48 65  1  0  0  0
 48121  1  0  0  0
 49 50  1  0  0  0
 49 53  1  0  0  0
 49 64  1  0  0  0
 49122  1  0  0  0
 50 51  1  0  0  0
 50123  1  0  0  0
 50124  1  0  0  0
 51 52  1  0  0  0
 51125  1  0  0  0
 51126  1  0  0  0
 52127  1  0  0  0
 52128  1  0  0  0
 53 54  1  0  0  0
 54 55  2  0  0  0
 54129  1  0  0  0
 55 57  1  0  0  0
 55130  1  0  0  0
 56 69  2  0  0  0
 57 58  2  0  0  0
 57131  1  0  0  0
 58132  1  0  0  0
 59 60  1  0  0  0
 59 61  1  0  0  0
 59 62  1  0  0  0
 60133  1  0  0  0
 60134  1  0  0  0
 60135  1  0  0  0
 61136  1  0  0  0
 61137  1  0  0  0
 61138  1  0  0  0
 62139  1  0  0  0
 62140  1  0  0  0
 62141  1  0  0  0
 63 65  1  0  0  0
 63142  1  0  0  0
 63143  1  0  0  0
 63144  1  0  0  0
 64145  1  0  0  0
 65146  1  0  0  0
 68 84  1  0  0  0
 71 73  2  0  0  0
 71 74  1  0  0  0
 71147  1  0  0  0
 72 75  2  0  0  0
 72 76  1  0  0  0
 72148  1  0  0  0
 73 75  1  0  0  0
 73 79  1  0  0  0
 74 76  2  0  0  0
 74 80  1  0  0  0
 75 81  1  0  0  0
 76 87  1  0  0  0
 77 79  2  0  0  0
 77149  1  0  0  0
 77150  1  0  0  0
 78 80  2  0  0  0
 78151  1  0  0  0
 78152  1  0  0  0
 79153  1  0  0  0
 80154  1  0  0  0
 81 86  2  0  0  0
 82 83  1  0  0  0
 82 84  1  0  0  0
 82155  1  0  0  0
 82156  1  0  0  0
 83 85  1  0  0  0
 83157  1  0  0  0
 83158  1  0  0  0
 84159  1  0  0  0
 84160  1  0  0  0
 85 87  1  0  0  0
 85161  1  0  0  0
 85162  1  0  0  0
 86163  1  0  0  0
M  ISO  4   1 100  68 101  81 100  84 101
M  END
> <chiral flag>
0

> <version>
0

> <s_m_source_file>
/data/baiqing/PycharmProjects/Reinvent-master-3.2/result/LINK_invent/BTK/process_docking_weight1_custom_product_contain_oxygen_bond_distance_aromatic_linkinvent_7_9_3/rearranged_h_0119.sdf

> <i_m_source_file_index>
69

> <r_mmod_Potential_Energy-OPLS-2005>
229.705032348633

> <r_mmod_Stretch_Energy-OPLS-2005>
60.9431037902832

> <r_mmod_Bend_Energy-OPLS-2005>
119.279098510742

> <r_mmod_Torsional_Energy-OPLS-2005>
280.767059326172

> <r_mmod_Improper_Torsional_Energy-OPLS-2005>
6.53505229949951

> <r_mmod_Van_der_Waal_Energy-OPLS-2005>
172.320495605469

> <r_mmod_Electrostatic_Energy-OPLS-2005>
-254.035537719727

> <r_mmod_Solvation_Energy-OPLS-2005>
-187.688888549805

> <b_mmod_Minimization_Converged-OPLS-2005>
0

> <r_mmod_RMS_Derivative-OPLS-2005>
4.51774930953979

$$$$
69
                    3D
 Structure written by MMmdl.
160169  0  0  1  0            999 V2000
  -30.6269  -14.7791   20.4651 C   0  0  0  0  0  0
  -30.4293  -12.4783   19.4837 C   0  0  0  0  0  0
  -29.5100  -12.5139   18.2437 C   0  0  0  0  0  0
  -28.0389  -12.3294   18.6597 C   0  0  0  0  0  0
  -27.6405  -13.2379   19.8529 C   0  0  2  0  0  0
  -28.6863  -13.1984   20.9897 C   0  0  0  0  0  0
  -25.2495  -13.8207   20.5714 C   0  0  0  0  0  0
  -24.1792  -13.0443   20.9206 C   0  0  0  0  0  0
  -24.6391  -11.6923   20.8749 C   0  0  0  0  0  0
  -23.9073  -10.4294   21.0399 C   0  0  0  0  0  0
  -24.3619   -9.4212   21.9181 C   0  0  0  0  0  0
  -23.6293   -8.2247   22.0752 C   0  0  0  0  0  0
  -22.4281   -8.0281   21.3538 C   0  0  0  0  0  0
  -21.9917   -9.0256   20.4643 C   0  0  0  0  0  0
  -22.7243  -10.2134   20.3050 C   0  0  0  0  0  0
  -21.6856   -6.0737   22.5276 C   0  0  0  0  0  0
  -21.4018   -6.5638   23.8211 C   0  0  0  0  0  0
  -21.3665   -5.6789   24.9171 C   0  0  0  0  0  0
  -21.6042   -4.3051   24.7217 C   0  0  0  0  0  0
  -21.8820   -3.8147   23.4338 C   0  0  0  0  0  0
  -21.9195   -4.6966   22.3396 C   0  0  0  0  0  0
  -22.7814  -13.5223   21.1859 C   0  0  0  0  0  0
  -22.1663   -4.2154   21.0974 F   0  0  0  0  0  0
  -21.5630   -3.4535   25.7728 F   0  0  0  0  0  0
  -29.9840  -13.5561   20.4028 N   0  0  0  0  0  0
  -26.2936  -12.9429   20.3317 N   0  0  0  0  0  0
  -25.9327  -11.6567   20.5777 N   0  0  0  0  0  0
  -22.0456  -12.8216   22.0415 N   0  0  0  0  0  0
  -25.4167  -15.1930   20.4127 N   0  0  0  0  0  0
  -31.8007  -14.8381   20.0936 O   0  0  0  0  0  0
  -21.6641   -6.8878   21.4237 O   0  0  0  0  0  0
  -22.3498  -14.5526   20.6700 O   0  0  0  0  0  0
  -24.6366  -31.8533   23.1974 C   0  0  0  0  0  0
  -25.9191  -32.4735   23.8326 C   0  0  1  0  0  0
  -27.2165  -27.2367   20.1273 C   0  0  0  0  0  0
  -25.5978  -33.8538   24.2254 N   0  0  0  0  0  0
  -23.4352  -30.4774   21.5398 C   0  0  2  0  0  0
  -24.8856  -28.9270   20.1022 C   0  0  0  0  0  0
  -22.7539  -29.4598   22.4873 C   0  0  0  0  0  0
  -18.0312  -28.1387   22.8490 C   0  0  0  0  0  0
  -24.1475  -36.7245   23.2633 C   0  0  0  0  0  0
  -25.9853  -30.7554   21.3863 C   0  0  0  0  0  0
  -26.0600  -29.3789   20.7214 C   0  0  0  0  0  0
  -27.2311  -28.5454   20.7285 C   0  0  0  0  0  0
  -26.0268  -26.8735   19.4582 C   0  0  0  0  0  0
  -24.8753  -27.6821   19.4584 C   0  0  0  0  0  0
  -23.6576  -29.8178   20.1538 C   0  0  0  0  0  0
  -25.4103  -36.3042   24.0326 C   0  0  1  0  0  0
  -20.5923  -28.3708   23.1238 C   0  0  2  0  0  0
  -20.6793  -26.9416   22.5396 C   0  0  0  0  0  0
  -19.5762  -26.6380   21.5209 C   0  0  0  0  0  0
  -18.1947  -26.7930   22.1624 C   0  0  0  0  0  0
  -19.1570  -28.8867   23.2859 C   0  0  0  0  0  0
  -18.9484  -30.1470   23.8868 C   0  0  0  0  0  0
  -17.6482  -30.6585   24.0564 C   0  0  0  0  0  0
  -25.9065  -34.9419   23.5083 C   0  0  0  0  0  0
  -16.5374  -29.9076   23.6343 C   0  0  0  0  0  0
  -16.7298  -28.6497   23.0362 C   0  0  0  0  0  0
  -26.4542  -31.6568   25.0729 C   0  0  0  0  0  0
  -25.3762  -31.3746   26.1453 C   0  0  0  0  0  0
  -27.0405  -30.2974   24.6265 C   0  0  0  0  0  0
  -27.6082  -32.4316   25.7519 C   0  0  0  0  0  0
  -27.5569  -37.1772   24.8462 C   0  0  0  0  0  0
  -21.4242  -29.3045   22.3611 N   0  0  0  0  0  0
  -26.4260  -37.3765   23.9438 N   0  0  0  0  0  0
  -24.7045  -31.0469   22.0969 N   0  0  0  0  0  0
  -23.4221  -28.8151   23.2999 O   0  0  0  0  0  0
  -28.2112  -26.2234   20.2296 O   0  0  0  0  0  0
  -26.5619  -34.8905   22.4642 O   0  0  0  0  0  0
  -23.5509  -32.1361   23.7255 O   0  0  0  0  0  0
  -31.8075  -19.1845   21.5871 C   0  0  0  0  0  0
  -30.9420  -20.2176   21.1786 C   0  0  0  0  0  0
  -29.3789  -18.5080   20.4743 C   0  0  0  0  0  0
  -31.4800  -17.8124   21.4785 C   0  0  0  0  0  0
  -29.6701  -19.9453   20.6397 C   0  0  0  0  0  0
  -30.2631  -17.3986   20.8568 C   0  0  0  0  0  0
  -28.0122  -23.6238   20.8628 C   0  0  0  0  0  0
  -27.7386  -25.0047   20.8202 C   0  0  0  0  0  0
  -27.0056  -22.8018   21.6578 C   0  0  0  0  0  0
  -29.0822  -22.5914   20.2678 C   0  0  0  0  0  0
  -26.3698  -21.7579   20.7317 C   0  0  0  0  0  0
  -27.3592  -20.6731   20.2739 C   0  0  0  0  0  0
  -32.4632  -16.8485   22.1261 C   0  0  0  0  0  0
  -28.7680  -21.0744   20.3645 N   0  0  0  0  0  0
  -29.8908  -15.9403   20.7315 N   0  0  0  0  0  0
  -31.4705  -12.5925   19.1779 H   0  0  0  0  0  0
  -30.3724  -11.5082   19.9800 H   0  0  0  0  0  0
  -29.7991  -11.7382   17.5331 H   0  0  0  0  0  0
  -29.6289  -13.4662   17.7245 H   0  0  0  0  0  0
  -27.9048  -11.2826   18.9351 H   0  0  0  0  0  0
  -27.3789  -12.5062   17.8099 H   0  0  0  0  0  0
  -27.6281  -14.2546   19.4596 H   0  0  0  0  0  0
  -28.7306  -12.2079   21.4457 H   0  0  0  0  0  0
  -28.4145  -13.8902   21.7883 H   0  0  0  0  0  0
  -25.2758   -9.5699   22.4762 H   0  0  0  0  0  0
  -24.0002   -7.4642   22.7475 H   0  0  0  0  0  0
  -21.0852   -8.8774   19.8948 H   0  0  0  0  0  0
  -22.3694  -10.9673   19.6164 H   0  0  0  0  0  0
  -21.2010   -7.6145   23.9714 H   0  0  0  0  0  0
  -21.1490   -6.0517   25.9073 H   0  0  0  0  0  0
  -22.0593   -2.7610   23.2834 H   0  0  0  0  0  0
  -22.4082  -11.9892   22.4822 H   0  0  0  0  0  0
  -21.1074  -13.1250   22.2614 H   0  0  0  0  0  0
  -24.6435  -15.8424   20.5092 H   0  0  0  0  0  0
  -26.2628  -15.6353   20.0791 H   0  0  0  0  0  0
  -26.7271  -32.5383   23.1075 H   0  0  0  0  0  0
  -25.0181  -33.9665   25.0438 H   0  0  0  0  0  0
  -22.7333  -31.3013   21.3958 H   0  0  0  0  0  0
  -23.3755  -35.9557   23.3274 H   0  0  0  0  0  0
  -24.3560  -36.8881   22.2050 H   0  0  0  0  0  0
  -23.7199  -37.6429   23.6664 H   0  0  0  0  0  0
  -26.1355  -31.5179   20.6211 H   0  0  0  0  0  0
  -26.8567  -30.7989   22.0275 H   0  0  0  0  0  0
  -28.1184  -28.8722   21.2515 H   0  0  0  0  0  0
  -25.9640  -25.9079   18.9765 H   0  0  0  0  0  0
  -23.9780  -27.3285   18.9688 H   0  0  0  0  0  0
  -23.7880  -30.5976   19.4028 H   0  0  0  0  0  0
  -22.7736  -29.2588   19.8419 H   0  0  0  0  0  0
  -25.1282  -36.1866   25.0815 H   0  0  0  0  0  0
  -21.0036  -28.3298   24.1351 H   0  0  0  0  0  0
  -20.5691  -26.2325   23.3612 H   0  0  0  0  0  0
  -21.6658  -26.7423   22.1193 H   0  0  0  0  0  0
  -19.6908  -25.6289   21.1239 H   0  0  0  0  0  0
  -19.6688  -27.3181   20.6730 H   0  0  0  0  0  0
  -17.4220  -26.6694   21.4018 H   0  0  0  0  0  0
  -18.0335  -26.0065   22.9011 H   0  0  0  0  0  0
  -19.7962  -30.7308   24.2194 H   0  0  0  0  0  0
  -17.5035  -31.6257   24.5178 H   0  0  0  0  0  0
  -15.5371  -30.2971   23.7674 H   0  0  0  0  0  0
  -15.8699  -28.0808   22.7082 H   0  0  0  0  0  0
  -24.5940  -30.7081   25.7805 H   0  0  0  0  0  0
  -24.8964  -32.2932   26.4841 H   0  0  0  0  0  0
  -25.8089  -30.8964   27.0251 H   0  0  0  0  0  0
  -26.3013  -29.6711   24.1264 H   0  0  0  0  0  0
  -27.4030  -29.7256   25.4819 H   0  0  0  0  0  0
  -27.8914  -30.4221   23.9563 H   0  0  0  0  0  0
  -27.2674  -33.3624   26.2065 H   0  0  0  0  0  0
  -28.3920  -32.6865   25.0373 H   0  0  0  0  0  0
  -28.0730  -31.8470   26.5471 H   0  0  0  0  0  0
  -28.2561  -38.0099   24.7569 H   0  0  0  0  0  0
  -28.1090  -36.2637   24.6205 H   0  0  0  0  0  0
  -27.2304  -37.1318   25.8867 H   0  0  0  0  0  0
  -20.9431  -29.8752   21.6797 H   0  0  0  0  0  0
  -26.0120  -38.2813   24.1521 H   0  0  0  0  0  0
  -32.7452  -19.4667   22.0462 H   0  0  0  0  0  0
  -31.2667  -21.2325   21.3477 H   0  0  0  0  0  0
  -28.4286  -18.2305   20.0436 H   0  0  0  0  0  0
  -26.8782  -25.2852   21.4128 H   0  0  0  0  0  0
  -26.2173  -23.4147   22.0954 H   0  0  0  0  0  0
  -27.5104  -22.3189   22.4962 H   0  0  0  0  0  0
  -30.0239  -22.8085   20.7687 H   0  0  0  0  0  0
  -29.2405  -22.8442   19.2186 H   0  0  0  0  0  0
  -25.9553  -22.2631   19.8578 H   0  0  0  0  0  0
  -25.5219  -21.2844   21.2286 H   0  0  0  0  0  0
  -27.1258  -20.3475   19.2582 H   0  0  0  0  0  0
  -27.1864  -19.8126   20.9218 H   0  0  0  0  0  0
  -33.0203  -17.3379   22.9258 H   0  0  0  0  0  0
  -33.1926  -16.4923   21.3989 H   0  0  0  0  0  0
  -31.9604  -15.9975   22.5829 H   0  0  0  0  0  0
  -28.9048  -15.7547   20.8307 H   0  0  0  0  0  0
  1 25  1  0  0  0
  1 30  2  0  0  0
  1 85  1  0  0  0
  2  3  1  0  0  0
  2 25  1  0  0  0
  2 86  1  0  0  0
  2 87  1  0  0  0
  3  4  1  0  0  0
  3 88  1  0  0  0
  3 89  1  0  0  0
  4  5  1  0  0  0
  4 90  1  0  0  0
  4 91  1  0  0  0
  5  6  1  0  0  0
  5 26  1  0  0  0
  5 92  1  0  0  0
  6 25  1  0  0  0
  6 93  1  0  0  0
  6 94  1  0  0  0
  7  8  2  0  0  0
  7 26  1  0  0  0
  7 29  1  0  0  0
  8  9  1  0  0  0
  8 22  1  0  0  0
  9 10  1  0  0  0
  9 27  2  0  0  0
 10 11  2  0  0  0
 10 15  1  0  0  0
 11 12  1  0  0  0
 11 95  1  0  0  0
 12 13  2  0  0  0
 12 96  1  0  0  0
 13 14  1  0  0  0
 13 31  1  0  0  0
 14 15  2  0  0  0
 14 97  1  0  0  0
 15 98  1  0  0  0
 16 17  2  0  0  0
 16 21  1  0  0  0
 16 31  1  0  0  0
 17 18  1  0  0  0
 17 99  1  0  0  0
 18 19  2  0  0  0
 18100  1  0  0  0
 19 20  1  0  0  0
 19 24  1  0  0  0
 20 21  2  0  0  0
 20101  1  0  0  0
 21 23  1  0  0  0
 22 28  1  0  0  0
 22 32  2  0  0  0
 26 27  1  0  0  0
 28102  1  0  0  0
 28103  1  0  0  0
 29104  1  0  0  0
 29105  1  0  0  0
 33 34  1  0  0  0
 33 66  1  0  0  0
 33 70  2  0  0  0
 34 36  1  0  0  0
 34 59  1  0  0  0
 34106  1  0  0  0
 35 44  2  0  0  0
 35 45  1  0  0  0
 35 68  1  0  0  0
 36 56  1  0  0  0
 36107  1  0  0  0
 37 39  1  0  0  0
 37 47  1  0  0  0
 37 66  1  0  0  0
 37108  1  0  0  0
 38 43  2  0  0  0
 38 46  1  0  0  0
 38 47  1  0  0  0
 39 64  1  0  0  0
 39 67  2  0  0  0
 40 52  1  0  0  0
 40 53  2  0  0  0
 40 58  1  0  0  0
 41109  1  0  0  0
 41110  1  0  0  0
 41111  1  0  0  0
 41 48  1  0  0  0
 42 43  1  0  0  0
 42 66  1  0  0  0
 42112  1  0  0  0
 42113  1  0  0  0
 43 44  1  0  0  0
 44114  1  0  0  0
 45 46  2  0  0  0
 45115  1  0  0  0
 46116  1  0  0  0
 47117  1  0  0  0
 47118  1  0  0  0
 48 56  1  0  0  0
 48 65  1  0  0  0
 48119  1  0  0  0
 49 50  1  0  0  0
 49 53  1  0  0  0
 49 64  1  0  0  0
 49120  1  0  0  0
 50 51  1  0  0  0
 50121  1  0  0  0
 50122  1  0  0  0
 51 52  1  0  0  0
 51123  1  0  0  0
 51124  1  0  0  0
 52125  1  0  0  0
 52126  1  0  0  0
 53 54  1  0  0  0
 54 55  2  0  0  0
 54127  1  0  0  0
 55 57  1  0  0  0
 55128  1  0  0  0
 56 69  2  0  0  0
 57 58  2  0  0  0
 57129  1  0  0  0
 58130  1  0  0  0
 59 60  1  0  0  0
 59 61  1  0  0  0
 59 62  1  0  0  0
 60131  1  0  0  0
 60132  1  0  0  0
 60133  1  0  0  0
 61134  1  0  0  0
 61135  1  0  0  0
 61136  1  0  0  0
 62137  1  0  0  0
 62138  1  0  0  0
 62139  1  0  0  0
 63 65  1  0  0  0
 63140  1  0  0  0
 63141  1  0  0  0
 63142  1  0  0  0
 64143  1  0  0  0
 65144  1  0  0  0
 68 78  1  0  0  0
 71 72  2  0  0  0
 71 74  1  0  0  0
 71145  1  0  0  0
 72 75  1  0  0  0
 72146  1  0  0  0
 73 75  2  0  0  0
 73 76  1  0  0  0
 73147  1  0  0  0
 74 76  2  0  0  0
 74 83  1  0  0  0
 75 84  1  0  0  0
 76 85  1  0  0  0
 77 78  2  0  0  0
 77 79  1  0  0  0
 77 80  1  0  0  0
 78148  1  0  0  0
 79 81  1  0  0  0
 79149  1  0  0  0
 79150  1  0  0  0
 80 84  1  0  0  0
 80151  1  0  0  0
 80152  1  0  0  0
 81 82  1  0  0  0
 81153  1  0  0  0
 81154  1  0  0  0
 82 84  1  0  0  0
 82155  1  0  0  0
 82156  1  0  0  0
 83157  1  0  0  0
 83158  1  0  0  0
 83159  1  0  0  0
 85160  1  0  0  0
M  ISO  4   1 100  68 101  78 101  85 100
M  END
> <chiral flag>
0

> <version>
0

> <s_m_source_file>
/data/baiqing/PycharmProjects/Reinvent-master-3.2/result/LINK_invent/BTK/process_docking_weight1_custom_product_contain_oxygen_bond_distance_aromatic_linkinvent_7_9_3/rearranged_h_0119.sdf

> <i_m_source_file_index>
70

> <r_mmod_Potential_Energy-OPLS-2005>
363.580718994141

> <r_mmod_Stretch_Energy-OPLS-2005>
159.104110717773

> <r_mmod_Bend_Energy-OPLS-2005>
253.467834472656

> <r_mmod_Torsional_Energy-OPLS-2005>
246.738006591797

> <r_mmod_Improper_Torsional_Energy-OPLS-2005>
5.75021886825562

> <r_mmod_Van_der_Waal_Energy-OPLS-2005>
167.644454956055

> <r_mmod_Electrostatic_Energy-OPLS-2005>
-365.527526855469

> <r_mmod_Solvation_Energy-OPLS-2005>
-217.379653930664

> <b_mmod_Minimization_Converged-OPLS-2005>
0

> <r_mmod_RMS_Derivative-OPLS-2005>
1.34117352962494

$$$$
70
                    3D
 Structure written by MMmdl.
155163  0  0  1  0            999 V2000
  -30.6911  -14.5192   20.3981 C   0  0  0  0  0  0
  -30.4201  -12.2727   19.4434 C   0  0  0  0  0  0
  -29.4925  -12.3652   18.2118 C   0  0  0  0  0  0
  -28.0037  -12.3072   18.6187 C   0  0  0  0  0  0
  -27.6412  -13.1927   19.8432 C   0  0  2  0  0  0
  -28.6988  -13.0922   20.9654 C   0  0  0  0  0  0
  -25.2570  -13.8093   20.5768 C   0  0  0  0  0  0
  -24.1800  -13.0401   20.9186 C   0  0  0  0  0  0
  -24.6348  -11.6864   20.8770 C   0  0  0  0  0  0
  -23.9024  -10.4264   21.0432 C   0  0  0  0  0  0
  -24.3572   -9.4179   21.9204 C   0  0  0  0  0  0
  -23.6265   -8.2215   22.0768 C   0  0  0  0  0  0
  -22.4254   -8.0259   21.3547 C   0  0  0  0  0  0
  -21.9896   -9.0225   20.4654 C   0  0  0  0  0  0
  -22.7212  -10.2105   20.3057 C   0  0  0  0  0  0
  -21.6858   -6.0723   22.5267 C   0  0  0  0  0  0
  -21.4003   -6.5626   23.8201 C   0  0  0  0  0  0
  -21.3650   -5.6765   24.9153 C   0  0  0  0  0  0
  -21.6036   -4.3028   24.7209 C   0  0  0  0  0  0
  -21.8838   -3.8136   23.4323 C   0  0  0  0  0  0
  -21.9203   -4.6962   22.3392 C   0  0  0  0  0  0
  -22.7832  -13.5252   21.1822 C   0  0  0  0  0  0
  -22.1663   -4.2157   21.0960 F   0  0  0  0  0  0
  -21.5629   -3.4509   25.7716 F   0  0  0  0  0  0
  -30.0263  -13.3311   20.3831 N   0  0  0  0  0  0
  -26.2948  -12.9228   20.3335 N   0  0  0  0  0  0
  -25.9271  -11.6413   20.5799 N   0  0  0  0  0  0
  -22.0430  -12.8278   22.0356 N   0  0  0  0  0  0
  -25.4295  -15.1830   20.4341 N   0  0  0  0  0  0
  -31.9176  -14.6066   20.3078 O   0  0  0  0  0  0
  -21.6624   -6.8864   21.4233 O   0  0  0  0  0  0
  -22.3553  -14.5588   20.6674 O   0  0  0  0  0  0
  -24.6130  -31.8660   23.2108 C   0  0  0  0  0  0
  -25.9024  -32.4807   23.8409 C   0  0  1  0  0  0
  -27.2232  -27.4385   20.1060 C   0  0  0  0  0  0
  -25.5895  -33.8610   24.2348 N   0  0  0  0  0  0
  -23.4023  -30.4854   21.5512 C   0  0  2  0  0  0
  -24.8476  -28.9538   20.1141 C   0  0  0  0  0  0
  -22.7421  -29.4620   22.5027 C   0  0  0  0  0  0
  -18.0264  -28.1347   22.8508 C   0  0  0  0  0  0
  -24.1465  -36.7268   23.2649 C   0  0  0  0  0  0
  -25.9281  -30.8345   21.3597 C   0  0  0  0  0  0
  -26.0065  -29.4683   20.7109 C   0  0  0  0  0  0
  -27.2012  -28.7155   20.7055 C   0  0  0  0  0  0
  -26.0533  -26.9323   19.5043 C   0  0  0  0  0  0
  -24.8653  -27.6847   19.5050 C   0  0  0  0  0  0
  -23.6069  -29.8133   20.1660 C   0  0  0  0  0  0
  -25.4090  -36.3100   24.0363 C   0  0  1  0  0  0
  -20.5854  -28.3606   23.1321 C   0  0  2  0  0  0
  -20.6725  -26.9329   22.5419 C   0  0  0  0  0  0
  -19.5693  -26.6351   21.5208 C   0  0  0  0  0  0
  -18.1884  -26.7898   22.1626 C   0  0  0  0  0  0
  -19.1520  -28.8806   23.2908 C   0  0  0  0  0  0
  -18.9444  -30.1422   23.8902 C   0  0  0  0  0  0
  -17.6443  -30.6563   24.0557 C   0  0  0  0  0  0
  -25.9023  -34.9464   23.5148 C   0  0  0  0  0  0
  -16.5337  -29.9049   23.6340 C   0  0  0  0  0  0
  -16.7260  -28.6458   23.0381 C   0  0  0  0  0  0
  -26.4461  -31.6573   25.0727 C   0  0  0  0  0  0
  -25.3745  -31.3636   26.1495 C   0  0  0  0  0  0
  -27.0271  -30.3040   24.6049 C   0  0  0  0  0  0
  -27.6072  -32.4261   25.7470 C   0  0  0  0  0  0
  -27.5573  -37.1789   24.8474 C   0  0  0  0  0  0
  -21.4150  -29.2977   22.3756 N   0  0  0  0  0  0
  -26.4266  -37.3797   23.9440 N   0  0  0  0  0  0
  -24.6671  -31.0765   22.0992 N   0  0  0  0  0  0
  -23.4185  -28.8164   23.3071 O   0  0  0  0  0  0
  -28.3572  -26.6706   20.1092 O   0  0  0  0  0  0
  -26.5577  -34.8908   22.4697 O   0  0  0  0  0  0
  -23.5329  -32.1414   23.7488 O   0  0  0  0  0  0
  -30.4198  -18.6642   22.1226 C   0  0  0  0  0  0
  -30.4659  -17.3550   21.5900 C   0  0  0  0  0  0
  -28.5886  -19.1918   20.6459 C   0  0  0  0  0  0
  -29.4972  -19.6097   21.6326 C   0  0  0  0  0  0
  -29.6407  -16.9641   20.5017 C   0  0  0  0  0  0
  -28.6553  -17.9131   20.0612 C   0  0  0  0  0  0
  -29.5335  -21.0215   22.0752 C   0  0  0  0  0  0
  -28.8718  -22.0333   21.4664 C   0  0  0  0  0  0
  -28.8370  -24.4522   20.8535 C   0  0  0  0  0  0
  -28.4028  -25.7050   21.0858 C   0  0  0  0  0  0
  -29.9033  -15.6745   19.7567 C   0  0  0  0  0  0
  -28.9268  -23.4314   21.9199 C   0  0  0  0  0  0
  -27.6576  -17.6794   18.9249 C   0  0  0  0  0  0
  -29.5799  -15.5827   18.5357 N   0  0  0  0  0  0
  -29.0279  -23.7286   23.1144 O   0  0  0  0  0  0
  -31.4643  -12.3595   19.1358 H   0  0  0  0  0  0
  -30.3264  -11.2965   19.9212 H   0  0  0  0  0  0
  -29.7110  -11.5409   17.5317 H   0  0  0  0  0  0
  -29.7014  -13.2618   17.6316 H   0  0  0  0  0  0
  -27.7733  -11.2639   18.8362 H   0  0  0  0  0  0
  -27.3789  -12.5785   17.7661 H   0  0  0  0  0  0
  -27.6204  -14.2121   19.4730 H   0  0  0  0  0  0
  -28.6764  -12.1093   21.4395 H   0  0  0  0  0  0
  -28.4855  -13.8169   21.7535 H   0  0  0  0  0  0
  -25.2710   -9.5640   22.4781 H   0  0  0  0  0  0
  -23.9966   -7.4618   22.7492 H   0  0  0  0  0  0
  -21.0819   -8.8721   19.8978 H   0  0  0  0  0  0
  -22.3671  -10.9624   19.6149 H   0  0  0  0  0  0
  -21.1959   -7.6130   23.9706 H   0  0  0  0  0  0
  -21.1460   -6.0482   25.9058 H   0  0  0  0  0  0
  -22.0632   -2.7608   23.2802 H   0  0  0  0  0  0
  -22.4030  -11.9920   22.4732 H   0  0  0  0  0  0
  -21.1055  -13.1321   22.2553 H   0  0  0  0  0  0
  -24.6707  -15.8374   20.5846 H   0  0  0  0  0  0
  -26.3052  -15.6338   20.2106 H   0  0  0  0  0  0
  -26.7105  -32.5513   23.1189 H   0  0  0  0  0  0
  -25.0167  -33.9787   25.0581 H   0  0  0  0  0  0
  -22.6908  -31.3014   21.4102 H   0  0  0  0  0  0
  -23.3759  -35.9568   23.3318 H   0  0  0  0  0  0
  -24.3568  -36.8861   22.2058 H   0  0  0  0  0  0
  -23.7159  -37.6453   23.6645 H   0  0  0  0  0  0
  -26.0363  -31.5934   20.5853 H   0  0  0  0  0  0
  -26.8178  -30.8932   21.9730 H   0  0  0  0  0  0
  -28.0995  -29.0974   21.1690 H   0  0  0  0  0  0
  -26.0618  -25.9533   19.0457 H   0  0  0  0  0  0
  -23.9714  -27.2849   19.0437 H   0  0  0  0  0  0
  -23.7065  -30.5814   19.3986 H   0  0  0  0  0  0
  -22.7349  -29.2222   19.8776 H   0  0  0  0  0  0
  -25.1268  -36.1975   25.0864 H   0  0  0  0  0  0
  -20.9947  -28.3115   24.1430 H   0  0  0  0  0  0
  -20.5572  -26.2198   23.3606 H   0  0  0  0  0  0
  -21.6600  -26.7330   22.1212 H   0  0  0  0  0  0
  -19.6831  -25.6267   21.1208 H   0  0  0  0  0  0
  -19.6634  -27.3192   20.6754 H   0  0  0  0  0  0
  -17.4154  -26.6685   21.4023 H   0  0  0  0  0  0
  -18.0267  -26.0023   22.8997 H   0  0  0  0  0  0
  -19.7921  -30.7243   24.2256 H   0  0  0  0  0  0
  -17.4989  -31.6241   24.5142 H   0  0  0  0  0  0
  -15.5339  -30.2935   23.7668 H   0  0  0  0  0  0
  -15.8653  -28.0762   22.7120 H   0  0  0  0  0  0
  -24.5895  -30.7034   25.7794 H   0  0  0  0  0  0
  -24.8987  -32.2770   26.5081 H   0  0  0  0  0  0
  -25.8119  -30.8675   27.0172 H   0  0  0  0  0  0
  -26.2774  -29.6804   24.1184 H   0  0  0  0  0  0
  -27.4158  -29.7286   25.4454 H   0  0  0  0  0  0
  -27.8561  -30.4411   23.9110 H   0  0  0  0  0  0
  -27.2789  -33.3621   26.2004 H   0  0  0  0  0  0
  -28.3909  -32.6691   25.0282 H   0  0  0  0  0  0
  -28.0693  -31.8377   26.5409 H   0  0  0  0  0  0
  -28.2565  -38.0122   24.7600 H   0  0  0  0  0  0
  -28.1102  -36.2658   24.6208 H   0  0  0  0  0  0
  -27.2304  -37.1318   25.8881 H   0  0  0  0  0  0
  -20.9325  -29.8682   21.6956 H   0  0  0  0  0  0
  -26.0150  -38.2857   24.1518 H   0  0  0  0  0  0
  -31.1313  -18.9491   22.8848 H   0  0  0  0  0  0
  -31.2050  -16.6760   21.9892 H   0  0  0  0  0  0
  -27.8406  -19.8786   20.2829 H   0  0  0  0  0  0
  -30.1475  -21.2363   22.9389 H   0  0  0  0  0  0
  -28.2604  -21.8587   20.5957 H   0  0  0  0  0  0
  -29.1399  -24.1615   19.8578 H   0  0  0  0  0  0
  -28.0557  -26.0565   22.0496 H   0  0  0  0  0  0
  -26.8596  -18.4239   18.9277 H   0  0  0  0  0  0
  -27.1795  -16.7049   18.9938 H   0  0  0  0  0  0
  -28.1521  -17.7660   17.9553 H   0  0  0  0  0  0
  -29.1245  -16.4363   18.2430 H   0  0  0  0  0  0
  1 25  1  0  0  0
  1 30  2  0  0  0
  1 81  1  0  0  0
  2  3  1  0  0  0
  2 25  1  0  0  0
  2 86  1  0  0  0
  2 87  1  0  0  0
  3  4  1  0  0  0
  3 88  1  0  0  0
  3 89  1  0  0  0
  4  5  1  0  0  0
  4 90  1  0  0  0
  4 91  1  0  0  0
  5  6  1  0  0  0
  5 26  1  0  0  0
  5 92  1  0  0  0
  6 25  1  0  0  0
  6 93  1  0  0  0
  6 94  1  0  0  0
  7  8  2  0  0  0
  7 26  1  0  0  0
  7 29  1  0  0  0
  8  9  1  0  0  0
  8 22  1  0  0  0
  9 10  1  0  0  0
  9 27  2  0  0  0
 10 11  2  0  0  0
 10 15  1  0  0  0
 11 12  1  0  0  0
 11 95  1  0  0  0
 12 13  2  0  0  0
 12 96  1  0  0  0
 13 14  1  0  0  0
 13 31  1  0  0  0
 14 15  2  0  0  0
 14 97  1  0  0  0
 15 98  1  0  0  0
 16 17  2  0  0  0
 16 21  1  0  0  0
 16 31  1  0  0  0
 17 18  1  0  0  0
 17 99  1  0  0  0
 18 19  2  0  0  0
 18100  1  0  0  0
 19 20  1  0  0  0
 19 24  1  0  0  0
 20 21  2  0  0  0
 20101  1  0  0  0
 21 23  1  0  0  0
 22 28  1  0  0  0
 22 32  2  0  0  0
 26 27  1  0  0  0
 28102  1  0  0  0
 28103  1  0  0  0
 29104  1  0  0  0
 29105  1  0  0  0
 33 34  1  0  0  0
 33 66  1  0  0  0
 33 70  2  0  0  0
 34 36  1  0  0  0
 34 59  1  0  0  0
 34106  1  0  0  0
 35 44  2  0  0  0
 35 45  1  0  0  0
 35 68  1  0  0  0
 36 56  1  0  0  0
 36107  1  0  0  0
 37 39  1  0  0  0
 37 47  1  0  0  0
 37 66  1  0  0  0
 37108  1  0  0  0
 38 43  2  0  0  0
 38 46  1  0  0  0
 38 47  1  0  0  0
 39 64  1  0  0  0
 39 67  2  0  0  0
 40 52  1  0  0  0
 40 53  2  0  0  0
 40 58  1  0  0  0
 41109  1  0  0  0
 41110  1  0  0  0
 41111  1  0  0  0
 41 48  1  0  0  0
 42 43  1  0  0  0
 42 66  1  0  0  0
 42112  1  0  0  0
 42113  1  0  0  0
 43 44  1  0  0  0
 44114  1  0  0  0
 45 46  2  0  0  0
 45115  1  0  0  0
 46116  1  0  0  0
 47117  1  0  0  0
 47118  1  0  0  0
 48 56  1  0  0  0
 48 65  1  0  0  0
 48119  1  0  0  0
 49 50  1  0  0  0
 49 53  1  0  0  0
 49 64  1  0  0  0
 49120  1  0  0  0
 50 51  1  0  0  0
 50121  1  0  0  0
 50122  1  0  0  0
 51 52  1  0  0  0
 51123  1  0  0  0
 51124  1  0  0  0
 52125  1  0  0  0
 52126  1  0  0  0
 53 54  1  0  0  0
 54 55  2  0  0  0
 54127  1  0  0  0
 55 57  1  0  0  0
 55128  1  0  0  0
 56 69  2  0  0  0
 57 58  2  0  0  0
 57129  1  0  0  0
 58130  1  0  0  0
 59 60  1  0  0  0
 59 61  1  0  0  0
 59 62  1  0  0  0
 60131  1  0  0  0
 60132  1  0  0  0
 60133  1  0  0  0
 61134  1  0  0  0
 61135  1  0  0  0
 61136  1  0  0  0
 62137  1  0  0  0
 62138  1  0  0  0
 62139  1  0  0  0
 63 65  1  0  0  0
 63140  1  0  0  0
 63141  1  0  0  0
 63142  1  0  0  0
 64143  1  0  0  0
 65144  1  0  0  0
 68 80  1  0  0  0
 71 72  2  0  0  0
 71 74  1  0  0  0
 71145  1  0  0  0
 72 75  1  0  0  0
 72146  1  0  0  0
 73 74  2  0  0  0
 73 76  1  0  0  0
 73147  1  0  0  0
 74 77  1  0  0  0
 75 76  2  0  0  0
 75 81  1  0  0  0
 76 83  1  0  0  0
 77 78  2  0  0  0
 77148  1  0  0  0
 78 82  1  0  0  0
 78149  1  0  0  0
 79 80  2  0  0  0
 79 82  1  0  0  0
 79150  1  0  0  0
 80151  1  0  0  0
 81 84  2  0  0  0
 82 85  2  0  0  0
 83152  1  0  0  0
 83153  1  0  0  0
 83154  1  0  0  0
 84155  1  0  0  0
M  ISO  4   1 100  68 101  80 101  81 100
M  END
> <chiral flag>
0

> <version>
0

> <s_m_source_file>
/data/baiqing/PycharmProjects/Reinvent-master-3.2/result/LINK_invent/BTK/process_docking_weight1_custom_product_contain_oxygen_bond_distance_aromatic_linkinvent_7_9_3/rearranged_h_0119.sdf

> <i_m_source_file_index>
71

> <r_mmod_Potential_Energy-OPLS-2005>
224.942626953125

> <r_mmod_Stretch_Energy-OPLS-2005>
41.5077781677246

> <r_mmod_Bend_Energy-OPLS-2005>
103.111061096191

> <r_mmod_Torsional_Energy-OPLS-2005>
277.528106689453

> <r_mmod_Improper_Torsional_Energy-OPLS-2005>
25.9986991882324

> <r_mmod_Van_der_Waal_Energy-OPLS-2005>
167.953063964844

> <r_mmod_Electrostatic_Energy-OPLS-2005>
-217.790084838867

> <r_mmod_Solvation_Energy-OPLS-2005>
-209.084518432617

> <b_mmod_Minimization_Converged-OPLS-2005>
0

> <r_mmod_RMS_Derivative-OPLS-2005>
3.97979593276978

$$$$
71
                    3D
 Structure written by MMmdl.
159167  0  0  1  0            999 V2000
  -30.6683  -14.6202   20.4693 C   0  0  0  0  0  0
  -30.4172  -12.3721   19.4636 C   0  0  0  0  0  0
  -29.5032  -12.5051   18.2252 C   0  0  0  0  0  0
  -28.0222  -12.3533   18.6266 C   0  0  0  0  0  0
  -27.6430  -13.2279   19.8520 C   0  0  2  0  0  0
  -28.6868  -13.1078   20.9840 C   0  0  0  0  0  0
  -25.2509  -13.8199   20.5694 C   0  0  0  0  0  0
  -24.1794  -13.0442   20.9199 C   0  0  0  0  0  0
  -24.6381  -11.6917   20.8728 C   0  0  0  0  0  0
  -23.9062  -10.4291   21.0393 C   0  0  0  0  0  0
  -24.3619   -9.4212   21.9173 C   0  0  0  0  0  0
  -23.6295   -8.2247   22.0748 C   0  0  0  0  0  0
  -22.4279   -8.0276   21.3540 C   0  0  0  0  0  0
  -21.9911   -9.0247   20.4643 C   0  0  0  0  0  0
  -22.7233  -10.2126   20.3046 C   0  0  0  0  0  0
  -21.6852   -6.0735   22.5280 C   0  0  0  0  0  0
  -21.4009   -6.5640   23.8212 C   0  0  0  0  0  0
  -21.3665   -5.6793   24.9176 C   0  0  0  0  0  0
  -21.6049   -4.3056   24.7226 C   0  0  0  0  0  0
  -21.8816   -3.8146   23.4347 C   0  0  0  0  0  0
  -21.9190   -4.6963   22.3406 C   0  0  0  0  0  0
  -22.7810  -13.5222   21.1865 C   0  0  0  0  0  0
  -22.1655   -4.2149   21.0987 F   0  0  0  0  0  0
  -21.5638   -3.4541   25.7742 F   0  0  0  0  0  0
  -30.0071  -13.4196   20.4213 N   0  0  0  0  0  0
  -26.2930  -12.9400   20.3272 N   0  0  0  0  0  0
  -25.9310  -11.6544   20.5727 N   0  0  0  0  0  0
  -22.0456  -12.8209   22.0426 N   0  0  0  0  0  0
  -25.4201  -15.1927   20.4120 N   0  0  0  0  0  0
  -31.8595  -14.6729   20.1498 O   0  0  0  0  0  0
  -21.6645   -6.8871   21.4240 O   0  0  0  0  0  0
  -22.3487  -14.5523   20.6708 O   0  0  0  0  0  0
  -24.6247  -31.8622   23.2022 C   0  0  0  0  0  0
  -25.9108  -32.4789   23.8359 C   0  0  1  0  0  0
  -27.2213  -27.3445   20.1197 C   0  0  0  0  0  0
  -25.5931  -33.8589   24.2285 N   0  0  0  0  0  0
  -23.4186  -30.4863   21.5425 C   0  0  2  0  0  0
  -24.8675  -28.9472   20.1047 C   0  0  0  0  0  0
  -22.7468  -29.4653   22.4913 C   0  0  0  0  0  0
  -18.0295  -28.1397   22.8498 C   0  0  0  0  0  0
  -24.1487  -36.7302   23.2631 C   0  0  0  0  0  0
  -25.9570  -30.8015   21.3708 C   0  0  0  0  0  0
  -26.0334  -29.4311   20.7140 C   0  0  0  0  0  0
  -27.2186  -28.6402   20.7135 C   0  0  0  0  0  0
  -26.0436  -26.9125   19.4755 C   0  0  0  0  0  0
  -24.8726  -27.6925   19.4742 C   0  0  0  0  0  0
  -23.6322  -29.8218   20.1568 C   0  0  0  0  0  0
  -25.4108  -36.3090   24.0325 C   0  0  1  0  0  0
  -20.5895  -28.3714   23.1269 C   0  0  2  0  0  0
  -20.6779  -26.9432   22.5410 C   0  0  0  0  0  0
  -19.5746  -26.6396   21.5221 C   0  0  0  0  0  0
  -18.1926  -26.7946   22.1632 C   0  0  0  0  0  0
  -19.1546  -28.8870   23.2889 C   0  0  0  0  0  0
  -18.9472  -30.1470   23.8910 C   0  0  0  0  0  0
  -17.6465  -30.6596   24.0576 C   0  0  0  0  0  0
  -25.9054  -34.9462   23.5108 C   0  0  0  0  0  0
  -16.5362  -29.9098   23.6324 C   0  0  0  0  0  0
  -16.7279  -28.6517   23.0350 C   0  0  0  0  0  0
  -26.4494  -31.6590   25.0725 C   0  0  0  0  0  0
  -25.3735  -31.3712   26.1453 C   0  0  0  0  0  0
  -27.0318  -30.3006   24.6169 C   0  0  0  0  0  0
  -27.6054  -32.4318   25.7506 C   0  0  0  0  0  0
  -27.5588  -37.1791   24.8449 C   0  0  0  0  0  0
  -21.4185  -29.3073   22.3663 N   0  0  0  0  0  0
  -26.4275  -37.3798   23.9427 N   0  0  0  0  0  0
  -24.6854  -31.0656   22.0962 N   0  0  0  0  0  0
  -23.4193  -28.8187   23.2993 O   0  0  0  0  0  0
  -28.3045  -26.4646   20.1703 O   0  0  0  0  0  0
  -26.5622  -34.8931   22.4671 O   0  0  0  0  0  0
  -23.5414  -32.1422   23.7357 O   0  0  0  0  0  0
  -30.1790  -20.9857   20.7921 C   0  0  0  0  0  0
  -28.5067  -18.7865   20.3822 C   0  0  0  0  0  0
  -28.8047  -21.2571   20.5902 C   0  0  0  0  0  0
  -29.8794  -18.5144   20.5989 C   0  0  0  0  0  0
  -30.7071  -19.6596   20.8125 C   0  0  0  0  0  0
  -27.9786  -20.1131   20.3556 C   0  0  0  0  0  0
  -30.4539  -17.1060   20.5753 C   0  0  0  0  0  0
  -28.2333  -22.6650   20.6710 C   0  0  0  0  0  0
  -29.8695  -15.8664   20.6638 C   0  0  0  0  0  0
  -28.7998  -23.9107   20.6056 C   0  0  0  0  0  0
  -32.1972  -19.4998   21.0773 C   0  0  0  0  0  0
  -25.6329  -20.2600   21.3255 C   0  0  0  0  0  0
  -26.4923  -20.2646   20.0560 C   0  0  0  0  0  0
  -28.0201  -25.2278   20.9175 C   0  0  0  0  0  0
  -31.4658  -12.4506   19.1712 H   0  0  0  0  0  0
  -30.3102  -11.3840   19.9148 H   0  0  0  0  0  0
  -29.7668  -11.7575   17.4759 H   0  0  0  0  0  0
  -29.6581  -13.4784   17.7543 H   0  0  0  0  0  0
  -27.8480  -11.3006   18.8521 H   0  0  0  0  0  0
  -27.3758  -12.5918   17.7805 H   0  0  0  0  0  0
  -27.6497  -14.2591   19.5007 H   0  0  0  0  0  0
  -28.6862  -12.0964   21.3929 H   0  0  0  0  0  0
  -28.4444  -13.7682   21.8177 H   0  0  0  0  0  0
  -25.2763   -9.5701   22.4756 H   0  0  0  0  0  0
  -24.0014   -7.4644   22.7472 H   0  0  0  0  0  0
  -21.0840   -8.8751   19.8955 H   0  0  0  0  0  0
  -22.3679  -10.9662   19.6158 H   0  0  0  0  0  0
  -21.1992   -7.6143   23.9721 H   0  0  0  0  0  0
  -21.1494   -6.0522   25.9084 H   0  0  0  0  0  0
  -22.0591   -2.7610   23.2849 H   0  0  0  0  0  0
  -22.4055  -11.9871   22.4831 H   0  0  0  0  0  0
  -21.1071  -13.1223   22.2634 H   0  0  0  0  0  0
  -24.6528  -15.8459   20.5267 H   0  0  0  0  0  0
  -26.2722  -15.6332   20.0902 H   0  0  0  0  0  0
  -26.7184  -32.5474   23.1121 H   0  0  0  0  0  0
  -25.0075  -33.9736   25.0424 H   0  0  0  0  0  0
  -22.7135  -31.3076   21.3983 H   0  0  0  0  0  0
  -23.3766  -35.9615   23.3249 H   0  0  0  0  0  0
  -24.3599  -36.8969   22.2057 H   0  0  0  0  0  0
  -23.7211  -37.6474   23.6690 H   0  0  0  0  0  0
  -26.0852  -31.5638   20.6014 H   0  0  0  0  0  0
  -26.8385  -30.8514   21.9983 H   0  0  0  0  0  0
  -28.1116  -29.0009   21.2035 H   0  0  0  0  0  0
  -26.0208  -25.9462   18.9906 H   0  0  0  0  0  0
  -23.9816  -27.3199   18.9865 H   0  0  0  0  0  0
  -23.7445  -30.5978   19.3980 H   0  0  0  0  0  0
  -22.7549  -29.2447   19.8583 H   0  0  0  0  0  0
  -25.1279  -36.1938   25.0815 H   0  0  0  0  0  0
  -21.0007  -28.3305   24.1383 H   0  0  0  0  0  0
  -20.5687  -26.2335   23.3624 H   0  0  0  0  0  0
  -21.6644  -26.7458   22.1193 H   0  0  0  0  0  0
  -19.6898  -25.6306   21.1252 H   0  0  0  0  0  0
  -19.6668  -27.3208   20.6753 H   0  0  0  0  0  0
  -17.4199  -26.6722   21.4027 H   0  0  0  0  0  0
  -18.0307  -26.0086   22.9019 H   0  0  0  0  0  0
  -19.7946  -30.7293   24.2279 H   0  0  0  0  0  0
  -17.5017  -31.6273   24.5178 H   0  0  0  0  0  0
  -15.5360  -30.3002   23.7640 H   0  0  0  0  0  0
  -15.8686  -28.0839   22.7049 H   0  0  0  0  0  0
  -24.5918  -30.7053   25.7777 H   0  0  0  0  0  0
  -24.8925  -32.2870   26.4897 H   0  0  0  0  0  0
  -25.8069  -30.8878   27.0217 H   0  0  0  0  0  0
  -26.2878  -29.6770   24.1191 H   0  0  0  0  0  0
  -27.3999  -29.7247   25.4673 H   0  0  0  0  0  0
  -27.8765  -30.4272   23.9391 H   0  0  0  0  0  0
  -27.2657  -33.3605   26.2104 H   0  0  0  0  0  0
  -28.3863  -32.6897   25.0341 H   0  0  0  0  0  0
  -28.0729  -31.8437   26.5412 H   0  0  0  0  0  0
  -28.2542  -38.0152   24.7586 H   0  0  0  0  0  0
  -28.1147  -36.2689   24.6151 H   0  0  0  0  0  0
  -27.2331  -37.1282   25.8853 H   0  0  0  0  0  0
  -20.9361  -29.8813   21.6887 H   0  0  0  0  0  0
  -26.0152  -38.2856   24.1493 H   0  0  0  0  0  0
  -30.8446  -21.8185   20.9711 H   0  0  0  0  0  0
  -27.8376  -17.9567   20.2039 H   0  0  0  0  0  0
  -31.5215  -17.0932   20.4116 H   0  0  0  0  0  0
  -27.1762  -22.6820   20.8884 H   0  0  0  0  0  0
  -28.8074  -15.8060   20.8405 H   0  0  0  0  0  0
  -29.8532  -24.0148   20.3907 H   0  0  0  0  0  0
  -32.6466  -20.4352   21.4129 H   0  0  0  0  0  0
  -32.7189  -19.1886   20.1717 H   0  0  0  0  0  0
  -32.3789  -18.7578   21.8557 H   0  0  0  0  0  0
  -24.5808  -20.4041   21.0793 H   0  0  0  0  0  0
  -25.9252  -21.0549   22.0121 H   0  0  0  0  0  0
  -25.7218  -19.3122   21.8565 H   0  0  0  0  0  0
  -26.1730  -19.4486   19.4057 H   0  0  0  0  0  0
  -26.3157  -21.1699   19.4747 H   0  0  0  0  0  0
  -28.2326  -25.4570   21.9625 H   0  0  0  0  0  0
  -26.9586  -24.9777   20.8981 H   0  0  0  0  0  0
  1 25  1  0  0  0
  1 30  2  0  0  0
  1 79  1  0  0  0
  2  3  1  0  0  0
  2 25  1  0  0  0
  2 85  1  0  0  0
  2 86  1  0  0  0
  3  4  1  0  0  0
  3 87  1  0  0  0
  3 88  1  0  0  0
  4  5  1  0  0  0
  4 89  1  0  0  0
  4 90  1  0  0  0
  5  6  1  0  0  0
  5 26  1  0  0  0
  5 91  1  0  0  0
  6 25  1  0  0  0
  6 92  1  0  0  0
  6 93  1  0  0  0
  7  8  2  0  0  0
  7 26  1  0  0  0
  7 29  1  0  0  0
  8  9  1  0  0  0
  8 22  1  0  0  0
  9 10  1  0  0  0
  9 27  2  0  0  0
 10 11  2  0  0  0
 10 15  1  0  0  0
 11 12  1  0  0  0
 11 94  1  0  0  0
 12 13  2  0  0  0
 12 95  1  0  0  0
 13 14  1  0  0  0
 13 31  1  0  0  0
 14 15  2  0  0  0
 14 96  1  0  0  0
 15 97  1  0  0  0
 16 17  2  0  0  0
 16 21  1  0  0  0
 16 31  1  0  0  0
 17 18  1  0  0  0
 17 98  1  0  0  0
 18 19  2  0  0  0
 18 99  1  0  0  0
 19 20  1  0  0  0
 19 24  1  0  0  0
 20 21  2  0  0  0
 20100  1  0  0  0
 21 23  1  0  0  0
 22 28  1  0  0  0
 22 32  2  0  0  0
 26 27  1  0  0  0
 28101  1  0  0  0
 28102  1  0  0  0
 29103  1  0  0  0
 29104  1  0  0  0
 33 34  1  0  0  0
 33 66  1  0  0  0
 33 70  2  0  0  0
 34 36  1  0  0  0
 34 59  1  0  0  0
 34105  1  0  0  0
 35 44  2  0  0  0
 35 45  1  0  0  0
 35 68  1  0  0  0
 36 56  1  0  0  0
 36106  1  0  0  0
 37 39  1  0  0  0
 37 47  1  0  0  0
 37 66  1  0  0  0
 37107  1  0  0  0
 38 43  2  0  0  0
 38 46  1  0  0  0
 38 47  1  0  0  0
 39 64  1  0  0  0
 39 67  2  0  0  0
 40 52  1  0  0  0
 40 53  2  0  0  0
 40 58  1  0  0  0
 41108  1  0  0  0
 41109  1  0  0  0
 41110  1  0  0  0
 41 48  1  0  0  0
 42 43  1  0  0  0
 42 66  1  0  0  0
 42111  1  0  0  0
 42112  1  0  0  0
 43 44  1  0  0  0
 44113  1  0  0  0
 45 46  2  0  0  0
 45114  1  0  0  0
 46115  1  0  0  0
 47116  1  0  0  0
 47117  1  0  0  0
 48 56  1  0  0  0
 48 65  1  0  0  0
 48118  1  0  0  0
 49 50  1  0  0  0
 49 53  1  0  0  0
 49 64  1  0  0  0
 49119  1  0  0  0
 50 51  1  0  0  0
 50120  1  0  0  0
 50121  1  0  0  0
 51 52  1  0  0  0
 51122  1  0  0  0
 51123  1  0  0  0
 52124  1  0  0  0
 52125  1  0  0  0
 53 54  1  0  0  0
 54 55  2  0  0  0
 54126  1  0  0  0
 55 57  1  0  0  0
 55127  1  0  0  0
 56 69  2  0  0  0
 57 58  2  0  0  0
 57128  1  0  0  0
 58129  1  0  0  0
 59 60  1  0  0  0
 59 61  1  0  0  0
 59 62  1  0  0  0
 60130  1  0  0  0
 60131  1  0  0  0
 60132  1  0  0  0
 61133  1  0  0  0
 61134  1  0  0  0
 61135  1  0  0  0
 62136  1  0  0  0
 62137  1  0  0  0
 62138  1  0  0  0
 63 65  1  0  0  0
 63139  1  0  0  0
 63140  1  0  0  0
 63141  1  0  0  0
 64142  1  0  0  0
 65143  1  0  0  0
 68 84  1  0  0  0
 71 73  2  0  0  0
 71 75  1  0  0  0
 71144  1  0  0  0
 72 74  1  0  0  0
 72 76  2  0  0  0
 72145  1  0  0  0
 73 76  1  0  0  0
 73 78  1  0  0  0
 74 75  2  0  0  0
 74 77  1  0  0  0
 75 81  1  0  0  0
 76 83  1  0  0  0
 77 79  2  0  0  0
 77146  1  0  0  0
 78 80  2  0  0  0
 78147  1  0  0  0
 79148  1  0  0  0
 80 84  1  0  0  0
 80149  1  0  0  0
 81150  1  0  0  0
 81151  1  0  0  0
 81152  1  0  0  0
 82 83  1  0  0  0
 82153  1  0  0  0
 82154  1  0  0  0
 82155  1  0  0  0
 83156  1  0  0  0
 83157  1  0  0  0
 84158  1  0  0  0
 84159  1  0  0  0
M  ISO  4   1 100  68 101  79 100  84 101
M  END
> <chiral flag>
0

> <version>
0

> <s_m_source_file>
/data/baiqing/PycharmProjects/Reinvent-master-3.2/result/LINK_invent/BTK/process_docking_weight1_custom_product_contain_oxygen_bond_distance_aromatic_linkinvent_7_9_3/rearranged_h_0119.sdf

> <i_m_source_file_index>
72

> <r_mmod_Potential_Energy-OPLS-2005>
74.2391357421875

> <r_mmod_Stretch_Energy-OPLS-2005>
70.9369354248047

> <r_mmod_Bend_Energy-OPLS-2005>
127.300636291504

> <r_mmod_Torsional_Energy-OPLS-2005>
211.194427490234

> <r_mmod_Improper_Torsional_Energy-OPLS-2005>
6.93011665344238

> <r_mmod_Van_der_Waal_Energy-OPLS-2005>
151.7822265625

> <r_mmod_Electrostatic_Energy-OPLS-2005>
-352.996734619141

> <r_mmod_Solvation_Energy-OPLS-2005>
-187.670333862305

> <b_mmod_Minimization_Converged-OPLS-2005>
0

> <r_mmod_RMS_Derivative-OPLS-2005>
1.63930976390839

$$$$
72
                    3D
 Structure written by MMmdl.
161170  0  0  1  0            999 V2000
  -30.7249  -14.4443   20.6661 C   0  0  0  0  0  0
  -30.4239  -12.3292   19.4060 C   0  0  0  0  0  0
  -29.4923  -12.5440   18.1983 C   0  0  0  0  0  0
  -28.0161  -12.3882   18.6104 C   0  0  0  0  0  0
  -27.6657  -13.2074   19.8795 C   0  0  2  0  0  0
  -28.7024  -12.9606   20.9952 C   0  0  0  0  0  0
  -25.2608  -13.8164   20.5689 C   0  0  0  0  0  0
  -24.1844  -13.0433   20.9158 C   0  0  0  0  0  0
  -24.6408  -11.6904   20.8717 C   0  0  0  0  0  0
  -23.9071  -10.4288   21.0404 C   0  0  0  0  0  0
  -24.3628   -9.4204   21.9183 C   0  0  0  0  0  0
  -23.6303   -8.2238   22.0759 C   0  0  0  0  0  0
  -22.4281   -8.0288   21.3552 C   0  0  0  0  0  0
  -21.9912   -9.0256   20.4649 C   0  0  0  0  0  0
  -22.7244  -10.2132   20.3050 C   0  0  0  0  0  0
  -21.6850   -6.0740   22.5278 C   0  0  0  0  0  0
  -21.4010   -6.5641   23.8217 C   0  0  0  0  0  0
  -21.3662   -5.6801   24.9176 C   0  0  0  0  0  0
  -21.6046   -4.3061   24.7226 C   0  0  0  0  0  0
  -21.8821   -3.8150   23.4341 C   0  0  0  0  0  0
  -21.9192   -4.6967   22.3402 C   0  0  0  0  0  0
  -22.7866  -13.5236   21.1833 C   0  0  0  0  0  0
  -22.1668   -4.2161   21.0980 F   0  0  0  0  0  0
  -21.5623   -3.4545   25.7739 F   0  0  0  0  0  0
  -30.0388  -13.2831   20.4600 N   0  0  0  0  0  0
  -26.3047  -12.9334   20.3372 N   0  0  0  0  0  0
  -25.9332  -11.6486   20.5728 N   0  0  0  0  0  0
  -22.0512  -12.8224   22.0400 N   0  0  0  0  0  0
  -25.4343  -15.1884   20.4170 N   0  0  0  0  0  0
  -31.7408  -14.7266   20.0235 O   0  0  0  0  0  0
  -21.6631   -6.8889   21.4249 O   0  0  0  0  0  0
  -22.3550  -14.5550   20.6702 O   0  0  0  0  0  0
  -24.6167  -31.8666   23.2090 C   0  0  0  0  0  0
  -25.9051  -32.4815   23.8391 C   0  0  1  0  0  0
  -27.2332  -27.4122   20.0974 C   0  0  0  0  0  0
  -25.5907  -33.8615   24.2329 N   0  0  0  0  0  0
  -23.4062  -30.4899   21.5505 C   0  0  2  0  0  0
  -24.8524  -28.9519   20.1165 C   0  0  0  0  0  0
  -22.7421  -29.4657   22.4989 C   0  0  0  0  0  0
  -18.0278  -28.1373   22.8493 C   0  0  0  0  0  0
  -24.1486  -36.7314   23.2643 C   0  0  0  0  0  0
  -25.9373  -30.8240   21.3667 C   0  0  0  0  0  0
  -26.0140  -29.4551   20.7162 C   0  0  0  0  0  0
  -27.2070  -28.6913   20.7060 C   0  0  0  0  0  0
  -26.0537  -26.9343   19.4825 C   0  0  0  0  0  0
  -24.8674  -27.6900   19.4989 C   0  0  0  0  0  0
  -23.6155  -29.8214   20.1657 C   0  0  0  0  0  0
  -25.4108  -36.3109   24.0340 C   0  0  1  0  0  0
  -20.5870  -28.3668   23.1317 C   0  0  2  0  0  0
  -20.6766  -26.9401   22.5421 C   0  0  0  0  0  0
  -19.5745  -26.6384   21.5215 C   0  0  0  0  0  0
  -18.1922  -26.7922   22.1617 C   0  0  0  0  0  0
  -19.1526  -28.8835   23.2901 C   0  0  0  0  0  0
  -18.9450  -30.1442   23.8909 C   0  0  0  0  0  0
  -17.6451  -30.6578   24.0567 C   0  0  0  0  0  0
  -25.9036  -34.9471   23.5129 C   0  0  0  0  0  0
  -16.5345  -29.9085   23.6320 C   0  0  0  0  0  0
  -16.7268  -28.6501   23.0346 C   0  0  0  0  0  0
  -26.4478  -31.6601   25.0728 C   0  0  0  0  0  0
  -25.3750  -31.3706   26.1488 C   0  0  0  0  0  0
  -27.0317  -30.3044   24.6112 C   0  0  0  0  0  0
  -27.6050  -32.4324   25.7488 C   0  0  0  0  0  0
  -27.5581  -37.1815   24.8463 C   0  0  0  0  0  0
  -21.4153  -29.3034   22.3725 N   0  0  0  0  0  0
  -26.4294  -37.3792   23.9408 N   0  0  0  0  0  0
  -24.6717  -31.0750   22.1001 N   0  0  0  0  0  0
  -23.4177  -28.8197   23.3038 O   0  0  0  0  0  0
  -28.3918  -26.6549   20.0795 O   0  0  0  0  0  0
  -26.5596  -34.8921   22.4688 O   0  0  0  0  0  0
  -23.5356  -32.1425   23.7469 O   0  0  0  0  0  0
  -29.4470  -17.3211   19.3889 C   0  0  0  0  0  0
  -29.3971  -18.3212   18.3987 C   0  0  0  0  0  0
  -30.4453  -18.9233   20.9132 C   0  0  0  0  0  0
  -29.9647  -17.6122   20.6656 C   0  0  0  0  0  0
  -30.4279  -19.9427   19.9233 C   0  0  0  0  0  0
  -29.8966  -19.6217   18.6405 C   0  0  0  0  0  0
  -29.2590  -24.4071   19.9259 C   0  0  0  0  0  0
  -29.9875  -16.6042   21.7533 C   0  0  0  0  0  0
  -28.2912  -25.2861   20.2717 C   0  0  0  0  0  0
  -30.2394  -15.2691   21.7705 C   0  0  0  0  0  0
  -31.1870  -21.2278   20.1978 C   0  0  0  0  0  0
  -30.5857  -24.7841   19.3370 C   0  0  0  0  0  0
  -29.2431  -22.8920   20.1194 C   0  0  0  0  0  0
  -31.5013  -23.6096   19.6909 C   0  0  0  0  0  0
  -29.9087  -20.5978   17.4703 C   0  0  0  0  0  0
  -30.6406  -22.4524   19.9661 N   0  0  0  0  0  0
  -32.3698  -21.1161   20.5381 O   0  0  0  0  0  0
  -31.4673  -12.4375   19.1039 H   0  0  0  0  0  0
  -30.3311  -11.3081   19.7802 H   0  0  0  0  0  0
  -29.7359  -11.8375   17.4044 H   0  0  0  0  0  0
  -29.6539  -13.5415   17.7868 H   0  0  0  0  0  0
  -27.8272  -11.3287   18.7862 H   0  0  0  0  0  0
  -27.3640  -12.6795   17.7862 H   0  0  0  0  0  0
  -27.7195  -14.2607   19.6049 H   0  0  0  0  0  0
  -28.6795  -11.9150   21.3056 H   0  0  0  0  0  0
  -28.4281  -13.5291   21.8824 H   0  0  0  0  0  0
  -25.2778   -9.5669   22.4752 H   0  0  0  0  0  0
  -24.0007   -7.4625   22.7474 H   0  0  0  0  0  0
  -21.0843   -8.8781   19.8954 H   0  0  0  0  0  0
  -22.3718  -10.9675   19.6156 H   0  0  0  0  0  0
  -21.2006   -7.6152   23.9721 H   0  0  0  0  0  0
  -21.1487   -6.0526   25.9081 H   0  0  0  0  0  0
  -22.0600   -2.7611   23.2834 H   0  0  0  0  0  0
  -22.4128  -11.9861   22.4729 H   0  0  0  0  0  0
  -21.1144  -13.1261   22.2646 H   0  0  0  0  0  0
  -24.6731  -15.8489   20.5327 H   0  0  0  0  0  0
  -26.3041  -15.6303   20.1457 H   0  0  0  0  0  0
  -26.7126  -32.5514   23.1159 H   0  0  0  0  0  0
  -25.0064  -33.9774   25.0479 H   0  0  0  0  0  0
  -22.6962  -31.3074   21.4107 H   0  0  0  0  0  0
  -23.3742  -35.9651   23.3306 H   0  0  0  0  0  0
  -24.3584  -36.8926   22.2056 H   0  0  0  0  0  0
  -23.7237  -37.6519   23.6657 H   0  0  0  0  0  0
  -26.0508  -31.5867   20.5951 H   0  0  0  0  0  0
  -26.8248  -30.8794   21.9859 H   0  0  0  0  0  0
  -28.1041  -29.0756   21.1706 H   0  0  0  0  0  0
  -26.0451  -25.9732   18.9886 H   0  0  0  0  0  0
  -23.9768  -27.2986   19.0278 H   0  0  0  0  0  0
  -23.7248  -30.5957   19.4051 H   0  0  0  0  0  0
  -22.7386  -29.2426   19.8693 H   0  0  0  0  0  0
  -25.1282  -36.1979   25.0833 H   0  0  0  0  0  0
  -20.9965  -28.3229   24.1435 H   0  0  0  0  0  0
  -20.5671  -26.2269   23.3605 H   0  0  0  0  0  0
  -21.6640  -26.7442   22.1213 H   0  0  0  0  0  0
  -19.6909  -25.6299   21.1239 H   0  0  0  0  0  0
  -19.6692  -27.3202   20.6750 H   0  0  0  0  0  0
  -17.4202  -26.6684   21.4011 H   0  0  0  0  0  0
  -18.0311  -26.0059   22.9002 H   0  0  0  0  0  0
  -19.7927  -30.7256   24.2285 H   0  0  0  0  0  0
  -17.5006  -31.6259   24.5168 H   0  0  0  0  0  0
  -15.5345  -30.2987   23.7636 H   0  0  0  0  0  0
  -15.8671  -28.0827   22.7047 H   0  0  0  0  0  0
  -24.5877  -30.7121   25.7818 H   0  0  0  0  0  0
  -24.9011  -32.2870   26.5013 H   0  0  0  0  0  0
  -25.8105  -30.8799   27.0203 H   0  0  0  0  0  0
  -26.2870  -29.6797   24.1180 H   0  0  0  0  0  0
  -27.4101  -29.7292   25.4573 H   0  0  0  0  0  0
  -27.8693  -30.4365   23.9262 H   0  0  0  0  0  0
  -27.2664  -33.3600   26.2116 H   0  0  0  0  0  0
  -28.3833  -32.6932   25.0303 H   0  0  0  0  0  0
  -28.0759  -31.8428   26.5365 H   0  0  0  0  0  0
  -28.2611  -38.0102   24.7501 H   0  0  0  0  0  0
  -28.1068  -36.2633   24.6304 H   0  0  0  0  0  0
  -27.2302  -37.1485   25.8869 H   0  0  0  0  0  0
  -20.9313  -29.8744   21.6944 H   0  0  0  0  0  0
  -26.0184  -38.2874   24.1395 H   0  0  0  0  0  0
  -29.0660  -16.3347   19.1659 H   0  0  0  0  0  0
  -28.9969  -18.0694   17.4257 H   0  0  0  0  0  0
  -30.8760  -19.1472   21.8791 H   0  0  0  0  0  0
  -29.6952  -17.0172   22.7088 H   0  0  0  0  0  0
  -27.3618  -24.9832   20.7355 H   0  0  0  0  0  0
  -30.1113  -14.7684   22.7191 H   0  0  0  0  0  0
  -30.9567  -25.7390   19.7119 H   0  0  0  0  0  0
  -30.4721  -24.8612   18.2548 H   0  0  0  0  0  0
  -28.6006  -22.4264   19.3740 H   0  0  0  0  0  0
  -28.8628  -22.6343   21.1093 H   0  0  0  0  0  0
  -32.0849  -23.8393   20.5843 H   0  0  0  0  0  0
  -32.2022  -23.3999   18.8807 H   0  0  0  0  0  0
  -29.8647  -20.0642   16.5210 H   0  0  0  0  0  0
  -30.8149  -21.2030   17.4460 H   0  0  0  0  0  0
  -29.0435  -21.2587   17.5067 H   0  0  0  0  0  0
  1 25  1  0  0  0
  1 30  2  0  0  0
  1 80  1  0  0  0
  2  3  1  0  0  0
  2 25  1  0  0  0
  2 88  1  0  0  0
  2 89  1  0  0  0
  3  4  1  0  0  0
  3 90  1  0  0  0
  3 91  1  0  0  0
  4  5  1  0  0  0
  4 92  1  0  0  0
  4 93  1  0  0  0
  5  6  1  0  0  0
  5 26  1  0  0  0
  5 94  1  0  0  0
  6 25  1  0  0  0
  6 95  1  0  0  0
  6 96  1  0  0  0
  7  8  2  0  0  0
  7 26  1  0  0  0
  7 29  1  0  0  0
  8  9  1  0  0  0
  8 22  1  0  0  0
  9 10  1  0  0  0
  9 27  2  0  0  0
 10 11  2  0  0  0
 10 15  1  0  0  0
 11 12  1  0  0  0
 11 97  1  0  0  0
 12 13  2  0  0  0
 12 98  1  0  0  0
 13 14  1  0  0  0
 13 31  1  0  0  0
 14 15  2  0  0  0
 14 99  1  0  0  0
 15100  1  0  0  0
 16 17  2  0  0  0
 16 21  1  0  0  0
 16 31  1  0  0  0
 17 18  1  0  0  0
 17101  1  0  0  0
 18 19  2  0  0  0
 18102  1  0  0  0
 19 20  1  0  0  0
 19 24  1  0  0  0
 20 21  2  0  0  0
 20103  1  0  0  0
 21 23  1  0  0  0
 22 28  1  0  0  0
 22 32  2  0  0  0
 26 27  1  0  0  0
 28104  1  0  0  0
 28105  1  0  0  0
 29106  1  0  0  0
 29107  1  0  0  0
 33 34  1  0  0  0
 33 66  1  0  0  0
 33 70  2  0  0  0
 34 36  1  0  0  0
 34 59  1  0  0  0
 34108  1  0  0  0
 35 44  2  0  0  0
 35 45  1  0  0  0
 35 68  1  0  0  0
 36 56  1  0  0  0
 36109  1  0  0  0
 37 39  1  0  0  0
 37 47  1  0  0  0
 37 66  1  0  0  0
 37110  1  0  0  0
 38 43  2  0  0  0
 38 46  1  0  0  0
 38 47  1  0  0  0
 39 64  1  0  0  0
 39 67  2  0  0  0
 40 52  1  0  0  0
 40 53  2  0  0  0
 40 58  1  0  0  0
 41111  1  0  0  0
 41112  1  0  0  0
 41113  1  0  0  0
 41 48  1  0  0  0
 42 43  1  0  0  0
 42 66  1  0  0  0
 42114  1  0  0  0
 42115  1  0  0  0
 43 44  1  0  0  0
 44116  1  0  0  0
 45 46  2  0  0  0
 45117  1  0  0  0
 46118  1  0  0  0
 47119  1  0  0  0
 47120  1  0  0  0
 48 56  1  0  0  0
 48 65  1  0  0  0
 48121  1  0  0  0
 49 50  1  0  0  0
 49 53  1  0  0  0
 49 64  1  0  0  0
 49122  1  0  0  0
 50 51  1  0  0  0
 50123  1  0  0  0
 50124  1  0  0  0
 51 52  1  0  0  0
 51125  1  0  0  0
 51126  1  0  0  0
 52127  1  0  0  0
 52128  1  0  0  0
 53 54  1  0  0  0
 54 55  2  0  0  0
 54129  1  0  0  0
 55 57  1  0  0  0
 55130  1  0  0  0
 56 69  2  0  0  0
 57 58  2  0  0  0
 57131  1  0  0  0
 58132  1  0  0  0
 59 60  1  0  0  0
 59 61  1  0  0  0
 59 62  1  0  0  0
 60133  1  0  0  0
 60134  1  0  0  0
 60135  1  0  0  0
 61136  1  0  0  0
 61137  1  0  0  0
 61138  1  0  0  0
 62139  1  0  0  0
 62140  1  0  0  0
 62141  1  0  0  0
 63 65  1  0  0  0
 63142  1  0  0  0
 63143  1  0  0  0
 63144  1  0  0  0
 64145  1  0  0  0
 65146  1  0  0  0
 68 79  1  0  0  0
 71 72  2  0  0  0
 71 74  1  0  0  0
 71147  1  0  0  0
 72 76  1  0  0  0
 72148  1  0  0  0
 73 74  2  0  0  0
 73 75  1  0  0  0
 73149  1  0  0  0
 74 78  1  0  0  0
 75 76  2  0  0  0
 75 81  1  0  0  0
 76 85  1  0  0  0
 77 79  2  0  0  0
 77 82  1  0  0  0
 77 83  1  0  0  0
 78 80  2  0  0  0
 78150  1  0  0  0
 79151  1  0  0  0
 80152  1  0  0  0
 81 86  1  0  0  0
 81 87  2  0  0  0
 82 84  1  0  0  0
 82153  1  0  0  0
 82154  1  0  0  0
 83 86  1  0  0  0
 83155  1  0  0  0
 83156  1  0  0  0
 84 86  1  0  0  0
 84157  1  0  0  0
 84158  1  0  0  0
 85159  1  0  0  0
 85160  1  0  0  0
 85161  1  0  0  0
M  ISO  4   1 100  68 101  79 101  80 100
M  END
> <chiral flag>
0

> <version>
0

> <s_m_source_file>
/data/baiqing/PycharmProjects/Reinvent-master-3.2/result/LINK_invent/BTK/process_docking_weight1_custom_product_contain_oxygen_bond_distance_aromatic_linkinvent_7_9_3/rearranged_h_0119.sdf

> <i_m_source_file_index>
73

> <r_mmod_Potential_Energy-OPLS-2005>
119.183052062988

> <r_mmod_Stretch_Energy-OPLS-2005>
42.8837203979492

> <r_mmod_Bend_Energy-OPLS-2005>
139.328506469727

> <r_mmod_Torsional_Energy-OPLS-2005>
276.658874511719

> <r_mmod_Improper_Torsional_Energy-OPLS-2005>
5.55845260620117

> <r_mmod_Van_der_Waal_Energy-OPLS-2005>
146.287536621094

> <r_mmod_Electrostatic_Energy-OPLS-2005>
-291.510894775391

> <r_mmod_Solvation_Energy-OPLS-2005>
-212.00715637207

> <b_mmod_Minimization_Converged-OPLS-2005>
0

> <r_mmod_RMS_Derivative-OPLS-2005>
1.46323812007904

$$$$
73
                    3D
 Structure written by MMmdl.
161169  0  0  1  0            999 V2000
  -30.6774  -14.5239   20.5242 C   0  0  0  0  0  0
  -30.4206  -12.3286   19.4244 C   0  0  0  0  0  0
  -29.4925  -12.5076   18.2054 C   0  0  0  0  0  0
  -28.0149  -12.3603   18.6201 C   0  0  0  0  0  0
  -27.6571  -13.2106   19.8692 C   0  0  2  0  0  0
  -28.7015  -13.0196   20.9919 C   0  0  0  0  0  0
  -25.2594  -13.8166   20.5715 C   0  0  0  0  0  0
  -24.1855  -13.0439   20.9200 C   0  0  0  0  0  0
  -24.6410  -11.6904   20.8746 C   0  0  0  0  0  0
  -23.9080  -10.4291   21.0404 C   0  0  0  0  0  0
  -24.3637   -9.4209   21.9176 C   0  0  0  0  0  0
  -23.6311   -8.2250   22.0750 C   0  0  0  0  0  0
  -22.4280   -8.0291   21.3551 C   0  0  0  0  0  0
  -21.9922   -9.0261   20.4647 C   0  0  0  0  0  0
  -22.7252  -10.2135   20.3055 C   0  0  0  0  0  0
  -21.6858   -6.0751   22.5290 C   0  0  0  0  0  0
  -21.4013   -6.5650   23.8227 C   0  0  0  0  0  0
  -21.3660   -5.6798   24.9181 C   0  0  0  0  0  0
  -21.6045   -4.3063   24.7225 C   0  0  0  0  0  0
  -21.8821   -3.8160   23.4342 C   0  0  0  0  0  0
  -21.9201   -4.6983   22.3408 C   0  0  0  0  0  0
  -22.7875  -13.5232   21.1859 C   0  0  0  0  0  0
  -22.1668   -4.2180   21.0980 F   0  0  0  0  0  0
  -21.5625   -3.4539   25.7730 F   0  0  0  0  0  0
  -30.0269  -13.3285   20.4328 N   0  0  0  0  0  0
  -26.3019  -12.9340   20.3362 N   0  0  0  0  0  0
  -25.9337  -11.6495   20.5777 N   0  0  0  0  0  0
  -22.0527  -12.8210   22.0396 N   0  0  0  0  0  0
  -25.4312  -15.1897   20.4144 N   0  0  0  0  0  0
  -31.8257  -14.6758   20.0988 O   0  0  0  0  0  0
  -21.6647   -6.8890   21.4246 O   0  0  0  0  0  0
  -22.3560  -14.5546   20.6712 O   0  0  0  0  0  0
  -24.6192  -31.8661   23.2077 C   0  0  0  0  0  0
  -25.9080  -32.4808   23.8375 C   0  0  1  0  0  0
  -27.2283  -27.3996   20.1138 C   0  0  0  0  0  0
  -25.5928  -33.8606   24.2309 N   0  0  0  0  0  0
  -23.4077  -30.4885   21.5508 C   0  0  2  0  0  0
  -24.8549  -28.9512   20.1146 C   0  0  0  0  0  0
  -22.7437  -29.4650   22.5003 C   0  0  0  0  0  0
  -18.0279  -28.1362   22.8512 C   0  0  0  0  0  0
  -24.1490  -36.7306   23.2633 C   0  0  0  0  0  0
  -25.9411  -30.8192   21.3709 C   0  0  0  0  0  0
  -26.0172  -29.4533   20.7147 C   0  0  0  0  0  0
  -27.2106  -28.6886   20.7035 C   0  0  0  0  0  0
  -26.0516  -26.9227   19.4993 C   0  0  0  0  0  0
  -24.8696  -27.6882   19.4973 C   0  0  0  0  0  0
  -23.6171  -29.8198   20.1657 C   0  0  0  0  0  0
  -25.4114  -36.3105   24.0334 C   0  0  1  0  0  0
  -20.5872  -28.3664   23.1328 C   0  0  2  0  0  0
  -20.6777  -26.9403   22.5423 C   0  0  0  0  0  0
  -19.5750  -26.6384   21.5222 C   0  0  0  0  0  0
  -18.1926  -26.7918   22.1630 C   0  0  0  0  0  0
  -19.1524  -28.8829   23.2917 C   0  0  0  0  0  0
  -18.9448  -30.1437   23.8924 C   0  0  0  0  0  0
  -17.6447  -30.6574   24.0563 C   0  0  0  0  0  0
  -25.9048  -34.9472   23.5120 C   0  0  0  0  0  0
  -16.5342  -29.9070   23.6323 C   0  0  0  0  0  0
  -16.7266  -28.6476   23.0374 C   0  0  0  0  0  0
  -26.4498  -31.6599   25.0722 C   0  0  0  0  0  0
  -25.3732  -31.3712   26.1448 C   0  0  0  0  0  0
  -27.0354  -30.3035   24.6147 C   0  0  0  0  0  0
  -27.6078  -32.4333   25.7470 C   0  0  0  0  0  0
  -27.5597  -37.1795   24.8453 C   0  0  0  0  0  0
  -21.4163  -29.3023   22.3730 N   0  0  0  0  0  0
  -26.4296  -37.3796   23.9412 N   0  0  0  0  0  0
  -24.6735  -31.0725   22.1004 N   0  0  0  0  0  0
  -23.4193  -28.8200   23.3064 O   0  0  0  0  0  0
  -28.3723  -26.6208   20.1067 O   0  0  0  0  0  0
  -26.5620  -34.8928   22.4684 O   0  0  0  0  0  0
  -23.5379  -32.1447   23.7454 O   0  0  0  0  0  0
  -31.1974  -18.9442   19.7741 C   0  0  0  0  0  0
  -30.9322  -17.5559   19.8066 C   0  0  0  0  0  0
  -29.6510  -17.8667   21.8347 C   0  0  0  0  0  0
  -30.7353  -19.8178   20.7849 C   0  0  0  0  0  0
  -29.9360  -19.2603   21.8193 C   0  0  0  0  0  0
  -30.1904  -16.9827   20.8676 C   0  0  0  0  0  0
  -31.8186  -24.6435   21.7056 C   0  0  0  0  0  0
  -31.3359  -21.1822   20.8245 C   0  0  0  0  0  0
  -31.9430  -23.4563   21.0897 C   0  0  0  0  0  0
  -30.8820  -22.4626   20.9434 C   0  0  0  0  0  0
  -29.4637  -20.1143   22.9828 C   0  0  0  0  0  0
  -29.4098  -22.9223   20.9326 C   0  0  0  0  0  0
  -29.1067  -24.1975   20.0528 C   0  0  0  0  0  0
  -28.2671  -25.3200   20.7418 C   0  0  0  0  0  0
  -29.9393  -15.5661   20.9827 N   0  0  0  0  0  0
  -31.4639  -12.4259   19.1206 H   0  0  0  0  0  0
  -30.3215  -11.3220   19.8319 H   0  0  0  0  0  0
  -29.7376  -11.7769   17.4340 H   0  0  0  0  0  0
  -29.6553  -13.4884   17.7550 H   0  0  0  0  0  0
  -27.8310  -11.3046   18.8241 H   0  0  0  0  0  0
  -27.3623  -12.6212   17.7859 H   0  0  0  0  0  0
  -27.6897  -14.2548   19.5583 H   0  0  0  0  0  0
  -28.6872  -11.9914   21.3564 H   0  0  0  0  0  0
  -28.4610  -13.6397   21.8559 H   0  0  0  0  0  0
  -25.2784   -9.5694   22.4745 H   0  0  0  0  0  0
  -24.0045   -7.4636   22.7451 H   0  0  0  0  0  0
  -21.0867   -8.8763   19.8938 H   0  0  0  0  0  0
  -22.3715  -10.9671   19.6168 H   0  0  0  0  0  0
  -21.1992   -7.6158   23.9735 H   0  0  0  0  0  0
  -21.1476   -6.0524   25.9089 H   0  0  0  0  0  0
  -22.0599   -2.7626   23.2833 H   0  0  0  0  0  0
  -22.4154  -11.9883   22.4800 H   0  0  0  0  0  0
  -21.1148  -13.1221   22.2609 H   0  0  0  0  0  0
  -24.6629  -15.8432   20.5209 H   0  0  0  0  0  0
  -26.2847  -15.6318   20.0960 H   0  0  0  0  0  0
  -26.7141  -32.5517   23.1124 H   0  0  0  0  0  0
  -25.0080  -33.9749   25.0458 H   0  0  0  0  0  0
  -22.6974  -31.3058   21.4106 H   0  0  0  0  0  0
  -23.3763  -35.9627   23.3277 H   0  0  0  0  0  0
  -24.3564  -36.8946   22.2047 H   0  0  0  0  0  0
  -23.7224  -37.6492   23.6668 H   0  0  0  0  0  0
  -26.0678  -31.5858   20.6057 H   0  0  0  0  0  0
  -26.8221  -30.8633   21.9993 H   0  0  0  0  0  0
  -28.1094  -29.0737   21.1650 H   0  0  0  0  0  0
  -26.0487  -25.9554   19.0179 H   0  0  0  0  0  0
  -23.9804  -27.2996   19.0194 H   0  0  0  0  0  0
  -23.7255  -30.5950   19.4061 H   0  0  0  0  0  0
  -22.7404  -29.2389   19.8727 H   0  0  0  0  0  0
  -25.1293  -36.1954   25.0829 H   0  0  0  0  0  0
  -20.9957  -28.3215   24.1453 H   0  0  0  0  0  0
  -20.5693  -26.2269   23.3607 H   0  0  0  0  0  0
  -21.6646  -26.7467   22.1197 H   0  0  0  0  0  0
  -19.6917  -25.6296   21.1244 H   0  0  0  0  0  0
  -19.6675  -27.3212   20.6762 H   0  0  0  0  0  0
  -17.4214  -26.6715   21.4008 H   0  0  0  0  0  0
  -18.0298  -26.0026   22.8984 H   0  0  0  0  0  0
  -19.7915  -30.7254   24.2311 H   0  0  0  0  0  0
  -17.4989  -31.6253   24.5163 H   0  0  0  0  0  0
  -15.5340  -30.2979   23.7603 H   0  0  0  0  0  0
  -15.8679  -28.0772   22.7114 H   0  0  0  0  0  0
  -24.5879  -30.7119   25.7728 H   0  0  0  0  0  0
  -24.8957  -32.2881   26.4919 H   0  0  0  0  0  0
  -25.8036  -30.8807   27.0189 H   0  0  0  0  0  0
  -26.2921  -29.6748   24.1239 H   0  0  0  0  0  0
  -27.4144  -29.7321   25.4627 H   0  0  0  0  0  0
  -27.8743  -30.4323   23.9306 H   0  0  0  0  0  0
  -27.2708  -33.3625   26.2075 H   0  0  0  0  0  0
  -28.3865  -32.6916   25.0280 H   0  0  0  0  0  0
  -28.0796  -31.8453   26.5352 H   0  0  0  0  0  0
  -28.2599  -38.0114   24.7573 H   0  0  0  0  0  0
  -28.1124  -36.2658   24.6206 H   0  0  0  0  0  0
  -27.2324  -37.1352   25.8854 H   0  0  0  0  0  0
  -20.9347  -29.8679   21.6885 H   0  0  0  0  0  0
  -26.0191  -38.2878   24.1409 H   0  0  0  0  0  0
  -31.8286  -19.3296   18.9849 H   0  0  0  0  0  0
  -31.3374  -16.9393   19.0170 H   0  0  0  0  0  0
  -29.0576  -17.4614   22.6430 H   0  0  0  0  0  0
  -32.6538  -25.3277   21.7537 H   0  0  0  0  0  0
  -30.8976  -24.9547   22.1739 H   0  0  0  0  0  0
  -32.4141  -21.0898   20.8248 H   0  0  0  0  0  0
  -32.9098  -23.2372   20.6573 H   0  0  0  0  0  0
  -29.1193  -19.4980   23.8142 H   0  0  0  0  0  0
  -28.6387  -20.7559   22.6759 H   0  0  0  0  0  0
  -30.2734  -20.7423   23.3573 H   0  0  0  0  0  0
  -29.1275  -23.1120   21.9685 H   0  0  0  0  0  0
  -28.7819  -22.0940   20.5999 H   0  0  0  0  0  0
  -28.6002  -23.8871   19.1379 H   0  0  0  0  0  0
  -30.0317  -24.6497   19.7002 H   0  0  0  0  0  0
  -28.6144  -25.4558   21.7661 H   0  0  0  0  0  0
  -27.2355  -24.9785   20.8337 H   0  0  0  0  0  0
  -29.0722  -15.3042   21.4245 H   0  0  0  0  0  0
  1 25  1  0  0  0
  1 30  2  0  0  0
  1 85  1  0  0  0
  2  3  1  0  0  0
  2 25  1  0  0  0
  2 86  1  0  0  0
  2 87  1  0  0  0
  3  4  1  0  0  0
  3 88  1  0  0  0
  3 89  1  0  0  0
  4  5  1  0  0  0
  4 90  1  0  0  0
  4 91  1  0  0  0
  5  6  1  0  0  0
  5 26  1  0  0  0
  5 92  1  0  0  0
  6 25  1  0  0  0
  6 93  1  0  0  0
  6 94  1  0  0  0
  7  8  2  0  0  0
  7 26  1  0  0  0
  7 29  1  0  0  0
  8  9  1  0  0  0
  8 22  1  0  0  0
  9 10  1  0  0  0
  9 27  2  0  0  0
 10 11  2  0  0  0
 10 15  1  0  0  0
 11 12  1  0  0  0
 11 95  1  0  0  0
 12 13  2  0  0  0
 12 96  1  0  0  0
 13 14  1  0  0  0
 13 31  1  0  0  0
 14 15  2  0  0  0
 14 97  1  0  0  0
 15 98  1  0  0  0
 16 17  2  0  0  0
 16 21  1  0  0  0
 16 31  1  0  0  0
 17 18  1  0  0  0
 17 99  1  0  0  0
 18 19  2  0  0  0
 18100  1  0  0  0
 19 20  1  0  0  0
 19 24  1  0  0  0
 20 21  2  0  0  0
 20101  1  0  0  0
 21 23  1  0  0  0
 22 28  1  0  0  0
 22 32  2  0  0  0
 26 27  1  0  0  0
 28102  1  0  0  0
 28103  1  0  0  0
 29104  1  0  0  0
 29105  1  0  0  0
 33 34  1  0  0  0
 33 66  1  0  0  0
 33 70  2  0  0  0
 34 36  1  0  0  0
 34 59  1  0  0  0
 34106  1  0  0  0
 35 44  2  0  0  0
 35 45  1  0  0  0
 35 68  1  0  0  0
 36 56  1  0  0  0
 36107  1  0  0  0
 37 39  1  0  0  0
 37 47  1  0  0  0
 37 66  1  0  0  0
 37108  1  0  0  0
 38 43  2  0  0  0
 38 46  1  0  0  0
 38 47  1  0  0  0
 39 64  1  0  0  0
 39 67  2  0  0  0
 40 52  1  0  0  0
 40 53  2  0  0  0
 40 58  1  0  0  0
 41109  1  0  0  0
 41110  1  0  0  0
 41111  1  0  0  0
 41 48  1  0  0  0
 42 43  1  0  0  0
 42 66  1  0  0  0
 42112  1  0  0  0
 42113  1  0  0  0
 43 44  1  0  0  0
 44114  1  0  0  0
 45 46  2  0  0  0
 45115  1  0  0  0
 46116  1  0  0  0
 47117  1  0  0  0
 47118  1  0  0  0
 48 56  1  0  0  0
 48 65  1  0  0  0
 48119  1  0  0  0
 49 50  1  0  0  0
 49 53  1  0  0  0
 49 64  1  0  0  0
 49120  1  0  0  0
 50 51  1  0  0  0
 50121  1  0  0  0
 50122  1  0  0  0
 51 52  1  0  0  0
 51123  1  0  0  0
 51124  1  0  0  0
 52125  1  0  0  0
 52126  1  0  0  0
 53 54  1  0  0  0
 54 55  2  0  0  0
 54127  1  0  0  0
 55 57  1  0  0  0
 55128  1  0  0  0
 56 69  2  0  0  0
 57 58  2  0  0  0
 57129  1  0  0  0
 58130  1  0  0  0
 59 60  1  0  0  0
 59 61  1  0  0  0
 59 62  1  0  0  0
 60131  1  0  0  0
 60132  1  0  0  0
 60133  1  0  0  0
 61134  1  0  0  0
 61135  1  0  0  0
 61136  1  0  0  0
 62137  1  0  0  0
 62138  1  0  0  0
 62139  1  0  0  0
 63 65  1  0  0  0
 63140  1  0  0  0
 63141  1  0  0  0
 63142  1  0  0  0
 64143  1  0  0  0
 65144  1  0  0  0
 68 84  1  0  0  0
 71 72  2  0  0  0
 71 74  1  0  0  0
 71145  1  0  0  0
 72 76  1  0  0  0
 72146  1  0  0  0
 73 75  1  0  0  0
 73 76  2  0  0  0
 73147  1  0  0  0
 74 75  2  0  0  0
 74 78  1  0  0  0
 75 81  1  0  0  0
 76 85  1  0  0  0
 77 79  2  0  0  0
 77148  1  0  0  0
 77149  1  0  0  0
 78 80  2  0  0  0
 78150  1  0  0  0
 79 80  1  0  0  0
 79151  1  0  0  0
 80 82  1  0  0  0
 81152  1  0  0  0
 81153  1  0  0  0
 81154  1  0  0  0
 82 83  1  0  0  0
 82155  1  0  0  0
 82156  1  0  0  0
 83 84  1  0  0  0
 83157  1  0  0  0
 83158  1  0  0  0
 84159  1  0  0  0
 84160  1  0  0  0
 85161  1  0  0  0
M  ISO  4   1 100  68 101  84 101  85 100
M  END
> <chiral flag>
0

> <version>
0

> <s_m_source_file>
/data/baiqing/PycharmProjects/Reinvent-master-3.2/result/LINK_invent/BTK/process_docking_weight1_custom_product_contain_oxygen_bond_distance_aromatic_linkinvent_7_9_3/rearranged_h_0119.sdf

> <i_m_source_file_index>
74

> <r_mmod_Potential_Energy-OPLS-2005>
59.8966255187988

> <r_mmod_Stretch_Energy-OPLS-2005>
48.7912063598633

> <r_mmod_Bend_Energy-OPLS-2005>
128.409469604492

> <r_mmod_Torsional_Energy-OPLS-2005>
284.9580078125

> <r_mmod_Improper_Torsional_Energy-OPLS-2005>
5.68495893478394

> <r_mmod_Van_der_Waal_Energy-OPLS-2005>
154.355758666992

> <r_mmod_Electrostatic_Energy-OPLS-2005>
-384.779235839844

> <r_mmod_Solvation_Energy-OPLS-2005>
-197.227691650391

> <b_mmod_Minimization_Converged-OPLS-2005>
0

> <r_mmod_RMS_Derivative-OPLS-2005>
2.05378127098083

$$$$
74
                    3D
 Structure written by MMmdl.
160168  0  0  1  0            999 V2000
  -30.7211  -14.4339   20.5904 C   0  0  0  0  0  0
  -30.4245  -12.2678   19.4095 C   0  0  0  0  0  0
  -29.4937  -12.5032   18.2027 C   0  0  0  0  0  0
  -28.0132  -12.3699   18.6150 C   0  0  0  0  0  0
  -27.6648  -13.1943   19.8837 C   0  0  2  0  0  0
  -28.6994  -12.9496   21.0032 C   0  0  0  0  0  0
  -25.2597  -13.8131   20.5690 C   0  0  0  0  0  0
  -24.1830  -13.0422   20.9158 C   0  0  0  0  0  0
  -24.6373  -11.6888   20.8722 C   0  0  0  0  0  0
  -23.9042  -10.4284   21.0401 C   0  0  0  0  0  0
  -24.3602   -9.4206   21.9180 C   0  0  0  0  0  0
  -23.6283   -8.2240   22.0753 C   0  0  0  0  0  0
  -22.4267   -8.0277   21.3544 C   0  0  0  0  0  0
  -21.9896   -9.0245   20.4644 C   0  0  0  0  0  0
  -22.7217  -10.2127   20.3050 C   0  0  0  0  0  0
  -21.6850   -6.0731   22.5280 C   0  0  0  0  0  0
  -21.4011   -6.5636   23.8212 C   0  0  0  0  0  0
  -21.3661   -5.6790   24.9176 C   0  0  0  0  0  0
  -21.6047   -4.3053   24.7227 C   0  0  0  0  0  0
  -21.8820   -3.8144   23.4349 C   0  0  0  0  0  0
  -21.9194   -4.6960   22.3404 C   0  0  0  0  0  0
  -22.7859  -13.5233   21.1835 C   0  0  0  0  0  0
  -22.1660   -4.2144   21.0982 F   0  0  0  0  0  0
  -21.5635   -3.4539   25.7741 F   0  0  0  0  0  0
  -30.0379  -13.2174   20.4561 N   0  0  0  0  0  0
  -26.3029  -12.9281   20.3395 N   0  0  0  0  0  0
  -25.9293  -11.6449   20.5757 N   0  0  0  0  0  0
  -22.0502  -12.8231   22.0395 N   0  0  0  0  0  0
  -25.4328  -15.1848   20.4148 N   0  0  0  0  0  0
  -31.8168  -14.6930   20.0832 O   0  0  0  0  0  0
  -21.6636   -6.8871   21.4240 O   0  0  0  0  0  0
  -22.3552  -14.5549   20.6698 O   0  0  0  0  0  0
  -24.6113  -31.8699   23.2122 C   0  0  0  0  0  0
  -25.9019  -32.4834   23.8409 C   0  0  1  0  0  0
  -27.2435  -27.4694   20.0785 C   0  0  0  0  0  0
  -25.5886  -33.8633   24.2342 N   0  0  0  0  0  0
  -23.3986  -30.4924   21.5515 C   0  0  2  0  0  0
  -24.8468  -28.9599   20.1156 C   0  0  0  0  0  0
  -22.7392  -29.4665   22.5003 C   0  0  0  0  0  0
  -18.0268  -28.1376   22.8495 C   0  0  0  0  0  0
  -24.1486  -36.7323   23.2637 C   0  0  0  0  0  0
  -25.9240  -30.8414   21.3637 C   0  0  0  0  0  0
  -26.0023  -29.4759   20.7158 C   0  0  0  0  0  0
  -27.2001  -28.7301   20.7091 C   0  0  0  0  0  0
  -26.0701  -26.9523   19.4879 C   0  0  0  0  0  0
  -24.8722  -27.6928   19.5054 C   0  0  0  0  0  0
  -23.6065  -29.8228   20.1662 C   0  0  0  0  0  0
  -25.4106  -36.3121   24.0340 C   0  0  1  0  0  0
  -20.5854  -28.3658   23.1328 C   0  0  2  0  0  0
  -20.6759  -26.9399   22.5419 C   0  0  0  0  0  0
  -19.5738  -26.6386   21.5214 C   0  0  0  0  0  0
  -18.1916  -26.7924   22.1624 C   0  0  0  0  0  0
  -19.1515  -28.8835   23.2908 C   0  0  0  0  0  0
  -18.9445  -30.1444   23.8915 C   0  0  0  0  0  0
  -17.6449  -30.6585   24.0568 C   0  0  0  0  0  0
  -25.9031  -34.9483   23.5139 C   0  0  0  0  0  0
  -16.5341  -29.9089   23.6325 C   0  0  0  0  0  0
  -16.7259  -28.6505   23.0347 C   0  0  0  0  0  0
  -26.4460  -31.6605   25.0725 C   0  0  0  0  0  0
  -25.3735  -31.3693   26.1478 C   0  0  0  0  0  0
  -27.0292  -30.3055   24.6080 C   0  0  0  0  0  0
  -27.6040  -32.4318   25.7483 C   0  0  0  0  0  0
  -27.5584  -37.1812   24.8463 C   0  0  0  0  0  0
  -21.4124  -29.3029   22.3738 N   0  0  0  0  0  0
  -26.4295  -37.3802   23.9409 N   0  0  0  0  0  0
  -24.6624  -31.0820   22.1013 N   0  0  0  0  0  0
  -23.4173  -28.8211   23.3040 O   0  0  0  0  0  0
  -28.4156  -26.7534   20.0739 O   0  0  0  0  0  0
  -26.5592  -34.8928   22.4699 O   0  0  0  0  0  0
  -23.5312  -32.1440   23.7531 O   0  0  0  0  0  0
  -31.1389  -18.7777   22.0144 C   0  0  0  0  0  0
  -29.8580  -18.8315   19.9569 C   0  0  0  0  0  0
  -30.6019  -19.5190   20.9401 C   0  0  0  0  0  0
  -30.9424  -17.3810   22.1084 C   0  0  0  0  0  0
  -29.6578  -17.4386   20.0333 C   0  0  0  0  0  0
  -30.2107  -16.6972   21.1082 C   0  0  0  0  0  0
  -30.8104  -20.9818   20.8840 C   0  0  0  0  0  0
  -30.2074  -21.8358   20.0329 C   0  0  0  0  0  0
  -30.4858  -23.2587   19.9869 C   0  0  0  0  0  0
  -29.9048  -24.0686   19.0840 C   0  0  0  0  0  0
  -31.5175  -16.6212   23.2899 C   0  0  0  0  0  0
  -28.8256  -16.7703   18.9534 C   0  0  0  0  0  0
  -30.1834  -25.5527   18.9251 C   0  0  0  0  0  0
  -28.9091  -26.4023   18.7863 C   0  0  0  0  0  0
  -29.9499  -15.3497   21.2332 O   0  0  0  0  0  0
  -31.4695  -12.3794   19.1143 H   0  0  0  0  0  0
  -30.3226  -11.2463   19.7792 H   0  0  0  0  0  0
  -29.7236  -11.7932   17.4068 H   0  0  0  0  0  0
  -29.6719  -13.4953   17.7857 H   0  0  0  0  0  0
  -27.8133  -11.3129   18.7953 H   0  0  0  0  0  0
  -27.3654  -12.6635   17.7883 H   0  0  0  0  0  0
  -27.7178  -14.2434   19.6049 H   0  0  0  0  0  0
  -28.6528  -11.9126   21.3393 H   0  0  0  0  0  0
  -28.4713  -13.5504   21.8848 H   0  0  0  0  0  0
  -25.2750   -9.5685   22.4751 H   0  0  0  0  0  0
  -23.9996   -7.4633   22.7473 H   0  0  0  0  0  0
  -21.0829   -8.8759   19.8947 H   0  0  0  0  0  0
  -22.3676  -10.9666   19.6158 H   0  0  0  0  0  0
  -21.1997   -7.6142   23.9712 H   0  0  0  0  0  0
  -21.1486   -6.0522   25.9078 H   0  0  0  0  0  0
  -22.0599   -2.7606   23.2853 H   0  0  0  0  0  0
  -22.4113  -11.9884   22.4771 H   0  0  0  0  0  0
  -21.1124  -13.1263   22.2609 H   0  0  0  0  0  0
  -24.6729  -15.8448   20.5389 H   0  0  0  0  0  0
  -26.3046  -15.6266   20.1554 H   0  0  0  0  0  0
  -26.7093  -32.5563   23.1183 H   0  0  0  0  0  0
  -25.0042  -33.9802   25.0489 H   0  0  0  0  0  0
  -22.6861  -31.3080   21.4126 H   0  0  0  0  0  0
  -23.3747  -35.9658   23.3306 H   0  0  0  0  0  0
  -24.3581  -36.8931   22.2051 H   0  0  0  0  0  0
  -23.7240  -37.6531   23.6645 H   0  0  0  0  0  0
  -26.0316  -31.6058   20.5930 H   0  0  0  0  0  0
  -26.8138  -30.8981   21.9789 H   0  0  0  0  0  0
  -28.0941  -29.1247   21.1719 H   0  0  0  0  0  0
  -26.0748  -25.9760   19.0244 H   0  0  0  0  0  0
  -23.9814  -27.2847   19.0484 H   0  0  0  0  0  0
  -23.7110  -30.5967   19.4049 H   0  0  0  0  0  0
  -22.7319  -29.2390   19.8728 H   0  0  0  0  0  0
  -25.1280  -36.1994   25.0833 H   0  0  0  0  0  0
  -20.9945  -28.3222   24.1448 H   0  0  0  0  0  0
  -20.5671  -26.2264   23.3601 H   0  0  0  0  0  0
  -21.6630  -26.7448   22.1211 H   0  0  0  0  0  0
  -19.6902  -25.6301   21.1230 H   0  0  0  0  0  0
  -19.6681  -27.3208   20.6754 H   0  0  0  0  0  0
  -17.4188  -26.6680   21.4022 H   0  0  0  0  0  0
  -18.0312  -26.0061   22.9014 H   0  0  0  0  0  0
  -19.7921  -30.7254   24.2292 H   0  0  0  0  0  0
  -17.5005  -31.6267   24.5166 H   0  0  0  0  0  0
  -15.5342  -30.2999   23.7637 H   0  0  0  0  0  0
  -15.8659  -28.0834   22.7048 H   0  0  0  0  0  0
  -24.5905  -30.7047   25.7809 H   0  0  0  0  0  0
  -24.8931  -32.2844   26.4953 H   0  0  0  0  0  0
  -25.8099  -30.8839   27.0217 H   0  0  0  0  0  0
  -26.2831  -29.6819   24.1142 H   0  0  0  0  0  0
  -27.4084  -29.7285   25.4523 H   0  0  0  0  0  0
  -27.8652  -30.4388   23.9209 H   0  0  0  0  0  0
  -27.2663  -33.3603   26.2101 H   0  0  0  0  0  0
  -28.3828  -32.6904   25.0296 H   0  0  0  0  0  0
  -28.0734  -31.8418   26.5367 H   0  0  0  0  0  0
  -28.2599  -38.0112   24.7523 H   0  0  0  0  0  0
  -28.1082  -36.2645   24.6274 H   0  0  0  0  0  0
  -27.2303  -37.1449   25.8866 H   0  0  0  0  0  0
  -20.9281  -29.8749   21.6961 H   0  0  0  0  0  0
  -26.0189  -38.2881   24.1412 H   0  0  0  0  0  0
  -31.7021  -19.2893   22.7828 H   0  0  0  0  0  0
  -29.4278  -19.3645   19.1229 H   0  0  0  0  0  0
  -31.5306  -21.3811   21.5852 H   0  0  0  0  0  0
  -29.4772  -21.4587   19.3326 H   0  0  0  0  0  0
  -31.1928  -23.6792   20.6895 H   0  0  0  0  0  0
  -29.1957  -23.6526   18.3809 H   0  0  0  0  0  0
  -31.9902  -17.2922   24.0072 H   0  0  0  0  0  0
  -32.2690  -15.9069   22.9522 H   0  0  0  0  0  0
  -30.7323  -16.0721   23.8104 H   0  0  0  0  0  0
  -28.6784  -17.4306   18.0982 H   0  0  0  0  0  0
  -27.8425  -16.5171   19.3457 H   0  0  0  0  0  0
  -29.3045  -15.8657   18.5815 H   0  0  0  0  0  0
  -30.7665  -25.6585   18.0095 H   0  0  0  0  0  0
  -30.8138  -25.9242   19.7339 H   0  0  0  0  0  0
  -28.1700  -25.8768   18.1805 H   0  0  0  0  0  0
  -29.1503  -27.3250   18.2559 H   0  0  0  0  0  0
  1 25  1  0  0  0
  1 30  2  0  0  0
  1 85  1  0  0  0
  2  3  1  0  0  0
  2 25  1  0  0  0
  2 86  1  0  0  0
  2 87  1  0  0  0
  3  4  1  0  0  0
  3 88  1  0  0  0
  3 89  1  0  0  0
  4  5  1  0  0  0
  4 90  1  0  0  0
  4 91  1  0  0  0
  5  6  1  0  0  0
  5 26  1  0  0  0
  5 92  1  0  0  0
  6 25  1  0  0  0
  6 93  1  0  0  0
  6 94  1  0  0  0
  7  8  2  0  0  0
  7 26  1  0  0  0
  7 29  1  0  0  0
  8  9  1  0  0  0
  8 22  1  0  0  0
  9 10  1  0  0  0
  9 27  2  0  0  0
 10 11  2  0  0  0
 10 15  1  0  0  0
 11 12  1  0  0  0
 11 95  1  0  0  0
 12 13  2  0  0  0
 12 96  1  0  0  0
 13 14  1  0  0  0
 13 31  1  0  0  0
 14 15  2  0  0  0
 14 97  1  0  0  0
 15 98  1  0  0  0
 16 17  2  0  0  0
 16 21  1  0  0  0
 16 31  1  0  0  0
 17 18  1  0  0  0
 17 99  1  0  0  0
 18 19  2  0  0  0
 18100  1  0  0  0
 19 20  1  0  0  0
 19 24  1  0  0  0
 20 21  2  0  0  0
 20101  1  0  0  0
 21 23  1  0  0  0
 22 28  1  0  0  0
 22 32  2  0  0  0
 26 27  1  0  0  0
 28102  1  0  0  0
 28103  1  0  0  0
 29104  1  0  0  0
 29105  1  0  0  0
 33 34  1  0  0  0
 33 66  1  0  0  0
 33 70  2  0  0  0
 34 36  1  0  0  0
 34 59  1  0  0  0
 34106  1  0  0  0
 35 44  2  0  0  0
 35 45  1  0  0  0
 35 68  1  0  0  0
 36 56  1  0  0  0
 36107  1  0  0  0
 37 39  1  0  0  0
 37 47  1  0  0  0
 37 66  1  0  0  0
 37108  1  0  0  0
 38 43  2  0  0  0
 38 46  1  0  0  0
 38 47  1  0  0  0
 39 64  1  0  0  0
 39 67  2  0  0  0
 40 52  1  0  0  0
 40 53  2  0  0  0
 40 58  1  0  0  0
 41109  1  0  0  0
 41110  1  0  0  0
 41111  1  0  0  0
 41 48  1  0  0  0
 42 43  1  0  0  0
 42 66  1  0  0  0
 42112  1  0  0  0
 42113  1  0  0  0
 43 44  1  0  0  0
 44114  1  0  0  0
 45 46  2  0  0  0
 45115  1  0  0  0
 46116  1  0  0  0
 47117  1  0  0  0
 47118  1  0  0  0
 48 56  1  0  0  0
 48 65  1  0  0  0
 48119  1  0  0  0
 49 50  1  0  0  0
 49 53  1  0  0  0
 49 64  1  0  0  0
 49120  1  0  0  0
 50 51  1  0  0  0
 50121  1  0  0  0
 50122  1  0  0  0
 51 52  1  0  0  0
 51123  1  0  0  0
 51124  1  0  0  0
 52125  1  0  0  0
 52126  1  0  0  0
 53 54  1  0  0  0
 54 55  2  0  0  0
 54127  1  0  0  0
 55 57  1  0  0  0
 55128  1  0  0  0
 56 69  2  0  0  0
 57 58  2  0  0  0
 57129  1  0  0  0
 58130  1  0  0  0
 59 60  1  0  0  0
 59 61  1  0  0  0
 59 62  1  0  0  0
 60131  1  0  0  0
 60132  1  0  0  0
 60133  1  0  0  0
 61134  1  0  0  0
 61135  1  0  0  0
 61136  1  0  0  0
 62137  1  0  0  0
 62138  1  0  0  0
 62139  1  0  0  0
 63 65  1  0  0  0
 63140  1  0  0  0
 63141  1  0  0  0
 63142  1  0  0  0
 64143  1  0  0  0
 65144  1  0  0  0
 68 84  1  0  0  0
 71 73  2  0  0  0
 71 74  1  0  0  0
 71145  1  0  0  0
 72 73  1  0  0  0
 72 75  2  0  0  0
 72146  1  0  0  0
 73 77  1  0  0  0
 74 76  2  0  0  0
 74 81  1  0  0  0
 75 76  1  0  0  0
 75 82  1  0  0  0
 76 85  1  0  0  0
 77 78  2  0  0  0
 77147  1  0  0  0
 78 79  1  0  0  0
 78148  1  0  0  0
 79 80  2  0  0  0
 79149  1  0  0  0
 80 83  1  0  0  0
 80150  1  0  0  0
 81151  1  0  0  0
 81152  1  0  0  0
 81153  1  0  0  0
 82154  1  0  0  0
 82155  1  0  0  0
 82156  1  0  0  0
 83 84  1  0  0  0
 83157  1  0  0  0
 83158  1  0  0  0
 84159  1  0  0  0
 84160  1  0  0  0
M  ISO  4   1 100  68 101  84 101  85 100
M  END
> <chiral flag>
0

> <version>
0

> <s_m_source_file>
/data/baiqing/PycharmProjects/Reinvent-master-3.2/result/LINK_invent/BTK/process_docking_weight1_custom_product_contain_oxygen_bond_distance_aromatic_linkinvent_7_9_3/rearranged_h_0119.sdf

> <i_m_source_file_index>
75

> <r_mmod_Potential_Energy-OPLS-2005>
-26.2935676574707

> <r_mmod_Stretch_Energy-OPLS-2005>
32.3837738037109

> <r_mmod_Bend_Energy-OPLS-2005>
84.1080932617188

> <r_mmod_Torsional_Energy-OPLS-2005>
187.648056030273

> <r_mmod_Improper_Torsional_Energy-OPLS-2005>
3.65483403205872

> <r_mmod_Van_der_Waal_Energy-OPLS-2005>
148.686462402344

> <r_mmod_Electrostatic_Energy-OPLS-2005>
-303.648254394531

> <r_mmod_Solvation_Energy-OPLS-2005>
-187.184585571289

> <b_mmod_Minimization_Converged-OPLS-2005>
0

> <r_mmod_RMS_Derivative-OPLS-2005>
0.457966774702072

$$$$
75
                    3D
 Structure written by MMmdl.
169177  0  0  1  0            999 V2000
  -30.7614  -14.4147   20.5291 C   0  0  0  0  0  0
  -30.3805  -12.2429   19.4333 C   0  0  0  0  0  0
  -29.4919  -12.4985   18.2038 C   0  0  0  0  0  0
  -28.0082  -12.3645   18.5975 C   0  0  0  0  0  0
  -27.6531  -13.1987   19.8612 C   0  0  2  0  0  0
  -28.6948  -13.0037   20.9937 C   0  0  0  0  0  0
  -25.2599  -13.8143   20.5671 C   0  0  0  0  0  0
  -24.1831  -13.0420   20.9246 C   0  0  0  0  0  0
  -24.6360  -11.6884   20.8761 C   0  0  0  0  0  0
  -23.9017  -10.4229   21.0402 C   0  0  0  0  0  0
  -24.3571   -9.4156   21.9166 C   0  0  0  0  0  0
  -23.6255   -8.2189   22.0747 C   0  0  0  0  0  0
  -22.4252   -8.0232   21.3531 C   0  0  0  0  0  0
  -21.9872   -9.0181   20.4641 C   0  0  0  0  0  0
  -22.7199  -10.2079   20.3050 C   0  0  0  0  0  0
  -21.6838   -6.0705   22.5273 C   0  0  0  0  0  0
  -21.3985   -6.5608   23.8226 C   0  0  0  0  0  0
  -21.3716   -5.6789   24.9190 C   0  0  0  0  0  0
  -21.6061   -4.3034   24.7232 C   0  0  0  0  0  0
  -21.8788   -3.8114   23.4328 C   0  0  0  0  0  0
  -21.9171   -4.6922   22.3403 C   0  0  0  0  0  0
  -22.7869  -13.5254   21.1946 C   0  0  0  0  0  0
  -22.1649   -4.2122   21.0971 F   0  0  0  0  0  0
  -21.5676   -3.4527   25.7735 F   0  0  0  0  0  0
  -30.0322  -13.2661   20.4255 N   0  0  0  0  0  0
  -26.2951  -12.9271   20.3227 N   0  0  0  0  0  0
  -25.9251  -11.6426   20.5602 N   0  0  0  0  0  0
  -22.0479  -12.8144   22.0433 N   0  0  0  0  0  0
  -25.4311  -15.1820   20.4143 N   0  0  0  0  0  0
  -31.9251  -14.5174   20.1340 O   0  0  0  0  0  0
  -21.6640   -6.8807   21.4237 O   0  0  0  0  0  0
  -22.3500  -14.5513   20.6836 O   0  0  0  0  0  0
  -24.6187  -31.8635   23.2045 C   0  0  0  0  0  0
  -25.9046  -32.4787   23.8354 C   0  0  1  0  0  0
  -27.2419  -27.4074   20.0845 C   0  0  0  0  0  0
  -25.5885  -33.8601   24.2291 N   0  0  0  0  0  0
  -23.4095  -30.4818   21.5451 C   0  0  2  0  0  0
  -24.8602  -28.9389   20.1262 C   0  0  0  0  0  0
  -22.7405  -29.4631   22.4990 C   0  0  0  0  0  0
  -18.0237  -28.1461   22.8618 C   0  0  0  0  0  0
  -24.1513  -36.7321   23.2619 C   0  0  0  0  0  0
  -25.9416  -30.8159   21.3679 C   0  0  0  0  0  0
  -26.0185  -29.4449   20.7193 C   0  0  0  0  0  0
  -27.2074  -28.6811   20.7073 C   0  0  0  0  0  0
  -26.0600  -26.9289   19.4805 C   0  0  0  0  0  0
  -24.8719  -27.6760   19.5082 C   0  0  0  0  0  0
  -23.6282  -29.8062   20.1636 C   0  0  0  0  0  0
  -25.4125  -36.3085   24.0322 C   0  0  1  0  0  0
  -20.5868  -28.3662   23.1375 C   0  0  2  0  0  0
  -20.6733  -26.9405   22.5376 C   0  0  0  0  0  0
  -19.5609  -26.6428   21.5241 C   0  0  0  0  0  0
  -18.1826  -26.7966   22.1781 C   0  0  0  0  0  0
  -19.1529  -28.8883   23.2999 C   0  0  0  0  0  0
  -18.9584  -30.1513   23.8962 C   0  0  0  0  0  0
  -17.6512  -30.6569   24.0607 C   0  0  0  0  0  0
  -25.9060  -34.9464   23.5106 C   0  0  0  0  0  0
  -16.5346  -29.9088   23.6519 C   0  0  0  0  0  0
  -16.7237  -28.6549   23.0522 C   0  0  0  0  0  0
  -26.4468  -31.6564   25.0693 C   0  0  0  0  0  0
  -25.3760  -31.3689   26.1470 C   0  0  0  0  0  0
  -27.0319  -30.3011   24.6074 C   0  0  0  0  0  0
  -27.6015  -32.4293   25.7449 C   0  0  0  0  0  0
  -27.5591  -37.1797   24.8453 C   0  0  0  0  0  0
  -21.4133  -29.3104   22.3873 N   0  0  0  0  0  0
  -26.4294  -37.3745   23.9400 N   0  0  0  0  0  0
  -24.6718  -31.0740   22.0940 N   0  0  0  0  0  0
  -23.4218  -28.8121   23.2976 O   0  0  0  0  0  0
  -28.4188  -26.6812   20.1079 O   0  0  0  0  0  0
  -26.5585  -34.8911   22.4679 O   0  0  0  0  0  0
  -23.5360  -32.1399   23.7442 O   0  0  0  0  0  0
  -29.6510  -19.0327   19.9879 C   0  0  0  0  0  0
  -28.7406  -17.9159   21.9365 C   0  0  0  0  0  0
  -28.4783  -19.8035   19.8521 C   0  0  0  0  0  0
  -29.7026  -17.9730   20.9246 C   0  0  0  0  0  0
  -27.5670  -18.6809   21.8192 C   0  0  0  0  0  0
  -27.3453  -19.4006   20.6106 C   0  0  0  0  0  0
  -25.2349  -20.6193   24.0085 C   0  0  0  0  0  0
  -28.4234  -20.7459   18.7181 C   0  0  0  0  0  0
  -26.3723  -20.1768   23.4484 C   0  0  0  0  0  0
  -28.6286  -22.0777   18.7612 C   0  0  0  0  0  0
  -28.1058  -24.1872   20.1588 C   0  0  0  0  0  0
  -24.6828  -19.3846   20.5519 C   0  0  0  0  0  0
  -26.6435  -18.7445   23.0260 C   0  0  0  0  0  0
  -26.0219  -19.2758   19.8368 C   0  0  0  0  0  0
  -30.7262  -16.8639   20.8357 C   0  0  0  0  0  0
  -28.9578  -22.9046   20.0086 C   0  0  0  0  0  0
  -28.5403  -25.4493   19.3635 C   0  0  0  0  0  0
  -30.0999  -15.5277   20.8703 N   0  0  0  0  0  0
  -27.1346  -24.2092   20.9215 O   0  0  0  0  0  0
  -31.4390  -12.2463   19.1829 H   0  0  0  0  0  0
  -30.1678  -11.2396   19.8122 H   0  0  0  0  0  0
  -29.7455  -11.8216   17.3887 H   0  0  0  0  0  0
  -29.6838  -13.5019   17.8267 H   0  0  0  0  0  0
  -27.8335  -11.3051   18.7942 H   0  0  0  0  0  0
  -27.3699  -12.6406   17.7554 H   0  0  0  0  0  0
  -27.6929  -14.2413   19.5547 H   0  0  0  0  0  0
  -28.6365  -11.9778   21.3771 H   0  0  0  0  0  0
  -28.4846  -13.6553   21.8471 H   0  0  0  0  0  0
  -25.2700   -9.5614   22.4758 H   0  0  0  0  0  0
  -23.9993   -7.4550   22.7408 H   0  0  0  0  0  0
  -21.0842   -8.8626   19.8892 H   0  0  0  0  0  0
  -22.3623  -10.9610   19.6154 H   0  0  0  0  0  0
  -21.1932   -7.6110   23.9718 H   0  0  0  0  0  0
  -21.1654   -6.0510   25.9121 H   0  0  0  0  0  0
  -22.0521   -2.7566   23.2834 H   0  0  0  0  0  0
  -22.4120  -11.9843   22.4836 H   0  0  0  0  0  0
  -21.1103  -13.1125   22.2682 H   0  0  0  0  0  0
  -24.6516  -15.8238   20.5074 H   0  0  0  0  0  0
  -26.2740  -15.6314   20.0837 H   0  0  0  0  0  0
  -26.7155  -32.5513   23.1152 H   0  0  0  0  0  0
  -25.0100  -33.9748   25.0491 H   0  0  0  0  0  0
  -22.7034  -31.2955   21.3837 H   0  0  0  0  0  0
  -23.3730  -35.9692   23.3297 H   0  0  0  0  0  0
  -24.3587  -36.8922   22.2006 H   0  0  0  0  0  0
  -23.7309  -37.6556   23.6668 H   0  0  0  0  0  0
  -26.0592  -31.5711   20.5880 H   0  0  0  0  0  0
  -26.8336  -30.8789   21.9807 H   0  0  0  0  0  0
  -28.1063  -29.0699   21.1651 H   0  0  0  0  0  0
  -26.0360  -25.9660   18.9993 H   0  0  0  0  0  0
  -23.9767  -27.2767   19.0493 H   0  0  0  0  0  0
  -23.7708  -30.5696   19.3999 H   0  0  0  0  0  0
  -22.7534  -29.2305   19.8551 H   0  0  0  0  0  0
  -25.1302  -36.1891   25.0788 H   0  0  0  0  0  0
  -20.9960  -28.3092   24.1490 H   0  0  0  0  0  0
  -20.5474  -26.2333   23.3611 H   0  0  0  0  0  0
  -21.6611  -26.7257   22.1280 H   0  0  0  0  0  0
  -19.6665  -25.6374   21.1197 H   0  0  0  0  0  0
  -19.6629  -27.3271   20.6772 H   0  0  0  0  0  0
  -17.4141  -26.6796   21.4165 H   0  0  0  0  0  0
  -18.0288  -26.0156   22.9243 H   0  0  0  0  0  0
  -19.8047  -30.7346   24.2398 H   0  0  0  0  0  0
  -17.5072  -31.6240   24.5122 H   0  0  0  0  0  0
  -15.5346  -30.2934   23.8040 H   0  0  0  0  0  0
  -15.8639  -28.0796   22.7323 H   0  0  0  0  0  0
  -24.5925  -30.7019   25.7873 H   0  0  0  0  0  0
  -24.8966  -32.2850   26.4908 H   0  0  0  0  0  0
  -25.8124  -30.8865   27.0228 H   0  0  0  0  0  0
  -26.2910  -29.6753   24.1093 H   0  0  0  0  0  0
  -27.4088  -29.7189   25.4490 H   0  0  0  0  0  0
  -27.8705  -30.4327   23.9240 H   0  0  0  0  0  0
  -27.2626  -33.3598   26.2025 H   0  0  0  0  0  0
  -28.3823  -32.6828   25.0277 H   0  0  0  0  0  0
  -28.0752  -31.8424   26.5322 H   0  0  0  0  0  0
  -28.2566  -38.0118   24.7491 H   0  0  0  0  0  0
  -28.1124  -36.2633   24.6328 H   0  0  0  0  0  0
  -27.2325  -37.1527   25.8854 H   0  0  0  0  0  0
  -20.9287  -29.9077   21.7323 H   0  0  0  0  0  0
  -26.0181  -38.2826   24.1360 H   0  0  0  0  0  0
  -30.4629  -19.1966   19.2948 H   0  0  0  0  0  0
  -28.8970  -17.2237   22.7500 H   0  0  0  0  0  0
  -25.1183  -21.6591   24.2828 H   0  0  0  0  0  0
  -24.4002  -19.9627   24.2041 H   0  0  0  0  0  0
  -28.2141  -20.2950   17.7588 H   0  0  0  0  0  0
  -27.1900  -20.8674   23.2961 H   0  0  0  0  0  0
  -28.5895  -22.6124   17.8181 H   0  0  0  0  0  0
  -24.5516  -20.3722   20.9936 H   0  0  0  0  0  0
  -24.5250  -18.5966   21.2788 H   0  0  0  0  0  0
  -23.8895  -19.2184   19.8245 H   0  0  0  0  0  0
  -27.1364  -18.2518   23.8602 H   0  0  0  0  0  0
  -25.7284  -18.1790   22.8987 H   0  0  0  0  0  0
  -26.0466  -18.2879   19.3685 H   0  0  0  0  0  0
  -25.9803  -19.9877   19.0152 H   0  0  0  0  0  0
  -31.3206  -17.0153   19.9256 H   0  0  0  0  0  0
  -31.4179  -16.9272   21.6728 H   0  0  0  0  0  0
  -29.9993  -23.2127   19.9275 H   0  0  0  0  0  0
  -28.8723  -22.2902   20.9103 H   0  0  0  0  0  0
  -28.0364  -25.5047   18.4009 H   0  0  0  0  0  0
  -29.5930  -25.3278   19.1308 H   0  0  0  0  0  0
  -29.1002  -15.4635   21.0008 H   0  0  0  0  0  0
  1 25  1  0  0  0
  1 30  2  0  0  0
  1 88  1  0  0  0
  2  3  1  0  0  0
  2 25  1  0  0  0
  2 90  1  0  0  0
  2 91  1  0  0  0
  3  4  1  0  0  0
  3 92  1  0  0  0
  3 93  1  0  0  0
  4  5  1  0  0  0
  4 94  1  0  0  0
  4 95  1  0  0  0
  5  6  1  0  0  0
  5 26  1  0  0  0
  5 96  1  0  0  0
  6 25  1  0  0  0
  6 97  1  0  0  0
  6 98  1  0  0  0
  7  8  2  0  0  0
  7 26  1  0  0  0
  7 29  1  0  0  0
  8  9  1  0  0  0
  8 22  1  0  0  0
  9 10  1  0  0  0
  9 27  2  0  0  0
 10 11  2  0  0  0
 10 15  1  0  0  0
 11 12  1  0  0  0
 11 99  1  0  0  0
 12 13  2  0  0  0
 12100  1  0  0  0
 13 14  1  0  0  0
 13 31  1  0  0  0
 14 15  2  0  0  0
 14101  1  0  0  0
 15102  1  0  0  0
 16 17  2  0  0  0
 16 21  1  0  0  0
 16 31  1  0  0  0
 17 18  1  0  0  0
 17103  1  0  0  0
 18 19  2  0  0  0
 18104  1  0  0  0
 19 20  1  0  0  0
 19 24  1  0  0  0
 20 21  2  0  0  0
 20105  1  0  0  0
 21 23  1  0  0  0
 22 28  1  0  0  0
 22 32  2  0  0  0
 26 27  1  0  0  0
 28106  1  0  0  0
 28107  1  0  0  0
 29108  1  0  0  0
 29109  1  0  0  0
 33 34  1  0  0  0
 33 66  1  0  0  0
 33 70  2  0  0  0
 34 36  1  0  0  0
 34 59  1  0  0  0
 34110  1  0  0  0
 35 44  2  0  0  0
 35 45  1  0  0  0
 35 68  1  0  0  0
 36 56  1  0  0  0
 36111  1  0  0  0
 37 39  1  0  0  0
 37 47  1  0  0  0
 37 66  1  0  0  0
 37112  1  0  0  0
 38 43  2  0  0  0
 38 46  1  0  0  0
 38 47  1  0  0  0
 39 64  1  0  0  0
 39 67  2  0  0  0
 40 52  1  0  0  0
 40 53  2  0  0  0
 40 58  1  0  0  0
 41113  1  0  0  0
 41114  1  0  0  0
 41115  1  0  0  0
 41 48  1  0  0  0
 42 43  1  0  0  0
 42 66  1  0  0  0
 42116  1  0  0  0
 42117  1  0  0  0
 43 44  1  0  0  0
 44118  1  0  0  0
 45 46  2  0  0  0
 45119  1  0  0  0
 46120  1  0  0  0
 47121  1  0  0  0
 47122  1  0  0  0
 48 56  1  0  0  0
 48 65  1  0  0  0
 48123  1  0  0  0
 49 50  1  0  0  0
 49 53  1  0  0  0
 49 64  1  0  0  0
 49124  1  0  0  0
 50 51  1  0  0  0
 50125  1  0  0  0
 50126  1  0  0  0
 51 52  1  0  0  0
 51127  1  0  0  0
 51128  1  0  0  0
 52129  1  0  0  0
 52130  1  0  0  0
 53 54  1  0  0  0
 54 55  2  0  0  0
 54131  1  0  0  0
 55 57  1  0  0  0
 55132  1  0  0  0
 56 69  2  0  0  0
 57 58  2  0  0  0
 57133  1  0  0  0
 58134  1  0  0  0
 59 60  1  0  0  0
 59 61  1  0  0  0
 59 62  1  0  0  0
 60135  1  0  0  0
 60136  1  0  0  0
 60137  1  0  0  0
 61138  1  0  0  0
 61139  1  0  0  0
 61140  1  0  0  0
 62141  1  0  0  0
 62142  1  0  0  0
 62143  1  0  0  0
 63 65  1  0  0  0
 63144  1  0  0  0
 63145  1  0  0  0
 63146  1  0  0  0
 64147  1  0  0  0
 65148  1  0  0  0
 68 87  1  0  0  0
 71 73  2  0  0  0
 71 74  1  0  0  0
 71149  1  0  0  0
 72 74  2  0  0  0
 72 75  1  0  0  0
 72150  1  0  0  0
 73 76  1  0  0  0
 73 78  1  0  0  0
 74 85  1  0  0  0
 75 76  2  0  0  0
 75 83  1  0  0  0
 76 84  1  0  0  0
 77 79  2  0  0  0
 77151  1  0  0  0
 77152  1  0  0  0
 78 80  2  0  0  0
 78153  1  0  0  0
 79 83  1  0  0  0
 79154  1  0  0  0
 80 86  1  0  0  0
 80155  1  0  0  0
 81 86  1  0  0  0
 81 87  1  0  0  0
 81 89  2  0  0  0
 82 84  1  0  0  0
 82156  1  0  0  0
 82157  1  0  0  0
 82158  1  0  0  0
 83159  1  0  0  0
 83160  1  0  0  0
 84161  1  0  0  0
 84162  1  0  0  0
 85 88  1  0  0  0
 85163  1  0  0  0
 85164  1  0  0  0
 86165  1  0  0  0
 86166  1  0  0  0
 87167  1  0  0  0
 87168  1  0  0  0
 88169  1  0  0  0
M  ISO  4   1 100  68 101  87 101  88 100
M  END
> <chiral flag>
0

> <version>
0

> <s_m_source_file>
/data/baiqing/PycharmProjects/Reinvent-master-3.2/result/LINK_invent/BTK/process_docking_weight1_custom_product_contain_oxygen_bond_distance_aromatic_linkinvent_7_9_3/rearranged_h_0119.sdf

> <i_m_source_file_index>
76

> <r_mmod_Potential_Energy-OPLS-2005>
76.9738159179688

> <r_mmod_Stretch_Energy-OPLS-2005>
41.8619613647461

> <r_mmod_Bend_Energy-OPLS-2005>
127.888023376465

> <r_mmod_Torsional_Energy-OPLS-2005>
340.358703613281

> <r_mmod_Improper_Torsional_Energy-OPLS-2005>
13.8076305389404

> <r_mmod_Van_der_Waal_Energy-OPLS-2005>
145.404098510742

> <r_mmod_Electrostatic_Energy-OPLS-2005>
-398.482299804688

> <r_mmod_Solvation_Energy-OPLS-2005>
-212.810836791992

> <b_mmod_Minimization_Converged-OPLS-2005>
0

> <r_mmod_RMS_Derivative-OPLS-2005>
12.3944501876831

$$$$
76
                    3D
 Structure written by MMmdl.
160168  0  0  1  0            999 V2000
  -30.6798  -14.6202   20.3592 C   0  0  0  0  0  0
  -30.4264  -12.3572   19.4384 C   0  0  0  0  0  0
  -29.4923  -12.4576   18.2130 C   0  0  0  0  0  0
  -28.0171  -12.2994   18.6352 C   0  0  0  0  0  0
  -27.6291  -13.2005   19.8352 C   0  0  2  0  0  0
  -28.6960  -13.1563   20.9542 C   0  0  0  0  0  0
  -25.2343  -13.7947   20.5873 C   0  0  0  0  0  0
  -24.1675  -13.0209   20.9337 C   0  0  0  0  0  0
  -24.6324  -11.6737   20.8805 C   0  0  0  0  0  0
  -23.9019  -10.4160   21.0432 C   0  0  0  0  0  0
  -24.3577   -9.4096   21.9210 C   0  0  0  0  0  0
  -23.6247   -8.2147   22.0757 C   0  0  0  0  0  0
  -22.4230   -8.0216   21.3537 C   0  0  0  0  0  0
  -21.9865   -9.0185   20.4638 C   0  0  0  0  0  0
  -22.7200  -10.2050   20.3060 C   0  0  0  0  0  0
  -21.6823   -6.0699   22.5281 C   0  0  0  0  0  0
  -21.3991   -6.5613   23.8213 C   0  0  0  0  0  0
  -21.3649   -5.6773   24.9178 C   0  0  0  0  0  0
  -21.6043   -4.3036   24.7231 C   0  0  0  0  0  0
  -21.8826   -3.8122   23.4358 C   0  0  0  0  0  0
  -21.9181   -4.6933   22.3408 C   0  0  0  0  0  0
  -22.7700  -13.5041   21.1941 C   0  0  0  0  0  0
  -22.1657   -4.2124   21.0987 F   0  0  0  0  0  0
  -21.5635   -3.4523   25.7749 F   0  0  0  0  0  0
  -30.0256  -13.4180   20.3744 N   0  0  0  0  0  0
  -26.2837  -12.9217   20.3291 N   0  0  0  0  0  0
  -25.9242  -11.6370   20.5753 N   0  0  0  0  0  0
  -22.0324  -12.8089   22.0520 N   0  0  0  0  0  0
  -25.3544  -15.1659   20.4501 N   0  0  0  0  0  0
  -31.9055  -14.6854   20.2929 O   0  0  0  0  0  0
  -21.6583   -6.8827   21.4241 O   0  0  0  0  0  0
  -22.3429  -14.5354   20.6752 O   0  0  0  0  0  0
  -24.6160  -31.8644   23.2070 C   0  0  0  0  0  0
  -25.9043  -32.4805   23.8378 C   0  0  1  0  0  0
  -27.2540  -27.4064   20.0944 C   0  0  0  0  0  0
  -25.5890  -33.8605   24.2306 N   0  0  0  0  0  0
  -23.4078  -30.4843   21.5460 C   0  0  2  0  0  0
  -24.8613  -28.9466   20.1082 C   0  0  0  0  0  0
  -22.7425  -29.4628   22.4962 C   0  0  0  0  0  0
  -18.0274  -28.1375   22.8490 C   0  0  0  0  0  0
  -24.1488  -36.7312   23.2640 C   0  0  0  0  0  0
  -25.9388  -30.8158   21.3708 C   0  0  0  0  0  0
  -26.0164  -29.4468   20.7198 C   0  0  0  0  0  0
  -27.2054  -28.6769   20.7238 C   0  0  0  0  0  0
  -26.0824  -26.9363   19.4584 C   0  0  0  0  0  0
  -24.8907  -27.6901   19.4772 C   0  0  0  0  0  0
  -23.6212  -29.8137   20.1606 C   0  0  0  0  0  0
  -25.4109  -36.3104   24.0336 C   0  0  1  0  0  0
  -20.5869  -28.3664   23.1312 C   0  0  2  0  0  0
  -20.6767  -26.9395   22.5422 C   0  0  0  0  0  0
  -19.5749  -26.6376   21.5214 C   0  0  0  0  0  0
  -18.1924  -26.7920   22.1621 C   0  0  0  0  0  0
  -19.1526  -28.8835   23.2898 C   0  0  0  0  0  0
  -18.9452  -30.1442   23.8910 C   0  0  0  0  0  0
  -17.6456  -30.6582   24.0565 C   0  0  0  0  0  0
  -25.9037  -34.9469   23.5120 C   0  0  0  0  0  0
  -16.5346  -29.9086   23.6324 C   0  0  0  0  0  0
  -16.7264  -28.6502   23.0346 C   0  0  0  0  0  0
  -26.4471  -31.6598   25.0718 C   0  0  0  0  0  0
  -25.3733  -31.3715   26.1465 C   0  0  0  0  0  0
  -27.0312  -30.3034   24.6125 C   0  0  0  0  0  0
  -27.6042  -32.4327   25.7478 C   0  0  0  0  0  0
  -27.5579  -37.1809   24.8464 C   0  0  0  0  0  0
  -21.4149  -29.3024   22.3711 N   0  0  0  0  0  0
  -26.4293  -37.3789   23.9406 N   0  0  0  0  0  0
  -24.6718  -31.0710   22.0993 N   0  0  0  0  0  0
  -23.4180  -28.8178   23.3026 O   0  0  0  0  0  0
  -28.4232  -26.6598   20.1756 O   0  0  0  0  0  0
  -26.5607  -34.8924   22.4687 O   0  0  0  0  0  0
  -23.5345  -32.1417   23.7443 O   0  0  0  0  0  0
  -27.3633  -19.2720   18.3403 C   0  0  0  0  0  0
  -29.7019  -19.6216   19.7968 C   0  0  0  0  0  0
  -27.9826  -18.1552   18.9229 C   0  0  0  0  0  0
  -29.2014  -18.2814   19.6531 C   0  0  0  0  0  0
  -27.8818  -20.5630   18.4709 C   0  0  0  0  0  0
  -29.0500  -20.7774   19.2443 C   0  0  0  0  0  0
  -26.6365  -16.4807   17.6324 C   0  0  0  0  0  0
  -27.2963  -16.8876   18.7315 C   0  0  0  0  0  0
  -29.9824  -17.0837   20.2030 C   0  0  0  0  0  0
  -29.8678  -15.7553   19.8732 C   0  0  0  0  0  0
  -27.1676  -21.6486   17.6927 C   0  0  0  0  0  0
  -28.2331  -24.2230   19.2539 C   0  0  0  0  0  0
  -28.7772  -25.6867   19.1698 C   0  0  0  0  0  0
  -28.9499  -23.1028   20.0906 C   0  0  0  0  0  0
  -29.6251  -22.0468   19.3491 O   0  0  0  0  0  0
  -31.4680  -12.4561   19.1266 H   0  0  0  0  0  0
  -30.3428  -11.3807   19.9167 H   0  0  0  0  0  0
  -29.7516  -11.6880   17.4843 H   0  0  0  0  0  0
  -29.6353  -13.4143   17.7085 H   0  0  0  0  0  0
  -27.8657  -11.2515   18.8974 H   0  0  0  0  0  0
  -27.3592  -12.4975   17.7877 H   0  0  0  0  0  0
  -27.5855  -14.1994   19.4303 H   0  0  0  0  0  0
  -28.6941  -12.1830   21.4466 H   0  0  0  0  0  0
  -28.4647  -13.8950   21.7243 H   0  0  0  0  0  0
  -25.2720   -9.5565   22.4780 H   0  0  0  0  0  0
  -23.9940   -7.4527   22.7467 H   0  0  0  0  0  0
  -21.0793   -8.8700   19.8947 H   0  0  0  0  0  0
  -22.3675  -10.9593   19.6165 H   0  0  0  0  0  0
  -21.1978   -7.6119   23.9709 H   0  0  0  0  0  0
  -21.1468   -6.0502   25.9079 H   0  0  0  0  0  0
  -22.0621   -2.7585   23.2862 H   0  0  0  0  0  0
  -22.3908  -11.9766   22.4957 H   0  0  0  0  0  0
  -21.0953  -13.1151   22.2709 H   0  0  0  0  0  0
  -24.5273  -15.7492   20.5086 H   0  0  0  0  0  0
  -26.0972  -15.6027   19.9261 H   0  0  0  0  0  0
  -26.7109  -32.5512   23.1135 H   0  0  0  0  0  0
  -25.0030  -33.9765   25.0443 H   0  0  0  0  0  0
  -22.6978  -31.3017   21.4029 H   0  0  0  0  0  0
  -23.3743  -35.9651   23.3310 H   0  0  0  0  0  0
  -24.3579  -36.8922   22.2052 H   0  0  0  0  0  0
  -23.7248  -37.6522   23.6652 H   0  0  0  0  0  0
  -26.0576  -31.5790   20.6007 H   0  0  0  0  0  0
  -26.8234  -30.8700   21.9929 H   0  0  0  0  0  0
  -28.0902  -29.0549   21.2173 H   0  0  0  0  0  0
  -26.0649  -25.9822   18.9571 H   0  0  0  0  0  0
  -24.0043  -27.3006   18.9956 H   0  0  0  0  0  0
  -23.7304  -30.5881   19.4010 H   0  0  0  0  0  0
  -22.7464  -29.2329   19.8637 H   0  0  0  0  0  0
  -25.1287  -36.1965   25.0828 H   0  0  0  0  0  0
  -20.9959  -28.3233   24.1433 H   0  0  0  0  0  0
  -20.5672  -26.2267   23.3610 H   0  0  0  0  0  0
  -21.6638  -26.7438   22.1215 H   0  0  0  0  0  0
  -19.6913  -25.6289   21.1239 H   0  0  0  0  0  0
  -19.6695  -27.3192   20.6751 H   0  0  0  0  0  0
  -17.4199  -26.6671   21.4020 H   0  0  0  0  0  0
  -18.0322  -26.0060   22.9015 H   0  0  0  0  0  0
  -19.7931  -30.7251   24.2288 H   0  0  0  0  0  0
  -17.5013  -31.6264   24.5164 H   0  0  0  0  0  0
  -15.5349  -30.2994   23.7641 H   0  0  0  0  0  0
  -15.8663  -28.0828   22.7052 H   0  0  0  0  0  0
  -24.5891  -30.7082   25.7797 H   0  0  0  0  0  0
  -24.8946  -32.2882   26.4925 H   0  0  0  0  0  0
  -25.8082  -30.8866   27.0215 H   0  0  0  0  0  0
  -26.2868  -29.6785   24.1175 H   0  0  0  0  0  0
  -27.4065  -29.7282   25.4600 H   0  0  0  0  0  0
  -27.8712  -30.4341   23.9296 H   0  0  0  0  0  0
  -27.2652  -33.3615   26.2079 H   0  0  0  0  0  0
  -28.3836  -32.6909   25.0295 H   0  0  0  0  0  0
  -28.0730  -31.8440   26.5375 H   0  0  0  0  0  0
  -28.2604  -38.0100   24.7504 H   0  0  0  0  0  0
  -28.1069  -36.2631   24.6298 H   0  0  0  0  0  0
  -27.2296  -37.1470   25.8868 H   0  0  0  0  0  0
  -20.9311  -29.8741   21.6926 H   0  0  0  0  0  0
  -26.0183  -38.2868   24.1401 H   0  0  0  0  0  0
  -26.4531  -19.1352   17.7741 H   0  0  0  0  0  0
  -30.6287  -19.7677   20.3315 H   0  0  0  0  0  0
  -26.1399  -15.5214   17.6064 H   0  0  0  0  0  0
  -26.5826  -17.0885   16.7405 H   0  0  0  0  0  0
  -27.3306  -16.2730   19.6073 H   0  0  0  0  0  0
  -30.7201  -17.3334   20.9534 H   0  0  0  0  0  0
  -29.1863  -15.4703   19.1016 H   0  0  0  0  0  0
  -26.6251  -22.3173   18.3576 H   0  0  0  0  0  0
  -26.4299  -21.2288   17.0089 H   0  0  0  0  0  0
  -27.8737  -22.1959   17.0708 H   0  0  0  0  0  0
  -28.2677  -23.9078   18.2185 H   0  0  0  0  0  0
  -27.1812  -24.2361   19.5297 H   0  0  0  0  0  0
  -28.4823  -26.1064   18.2060 H   0  0  0  0  0  0
  -29.8655  -25.6458   19.1264 H   0  0  0  0  0  0
  -28.2267  -22.6476   20.7695 H   0  0  0  0  0  0
  -29.6923  -23.5706   20.7379 H   0  0  0  0  0  0
  1 25  1  0  0  0
  1 30  2  0  0  0
  1 80  1  0  0  0
  2  3  1  0  0  0
  2 25  1  0  0  0
  2 86  1  0  0  0
  2 87  1  0  0  0
  3  4  1  0  0  0
  3 88  1  0  0  0
  3 89  1  0  0  0
  4  5  1  0  0  0
  4 90  1  0  0  0
  4 91  1  0  0  0
  5  6  1  0  0  0
  5 26  1  0  0  0
  5 92  1  0  0  0
  6 25  1  0  0  0
  6 93  1  0  0  0
  6 94  1  0  0  0
  7  8  2  0  0  0
  7 26  1  0  0  0
  7 29  1  0  0  0
  8  9  1  0  0  0
  8 22  1  0  0  0
  9 10  1  0  0  0
  9 27  2  0  0  0
 10 11  2  0  0  0
 10 15  1  0  0  0
 11 12  1  0  0  0
 11 95  1  0  0  0
 12 13  2  0  0  0
 12 96  1  0  0  0
 13 14  1  0  0  0
 13 31  1  0  0  0
 14 15  2  0  0  0
 14 97  1  0  0  0
 15 98  1  0  0  0
 16 17  2  0  0  0
 16 21  1  0  0  0
 16 31  1  0  0  0
 17 18  1  0  0  0
 17 99  1  0  0  0
 18 19  2  0  0  0
 18100  1  0  0  0
 19 20  1  0  0  0
 19 24  1  0  0  0
 20 21  2  0  0  0
 20101  1  0  0  0
 21 23  1  0  0  0
 22 28  1  0  0  0
 22 32  2  0  0  0
 26 27  1  0  0  0
 28102  1  0  0  0
 28103  1  0  0  0
 29104  1  0  0  0
 29105  1  0  0  0
 33 34  1  0  0  0
 33 66  1  0  0  0
 33 70  2  0  0  0
 34 36  1  0  0  0
 34 59  1  0  0  0
 34106  1  0  0  0
 35 44  2  0  0  0
 35 45  1  0  0  0
 35 68  1  0  0  0
 36 56  1  0  0  0
 36107  1  0  0  0
 37 39  1  0  0  0
 37 47  1  0  0  0
 37 66  1  0  0  0
 37108  1  0  0  0
 38 43  2  0  0  0
 38 46  1  0  0  0
 38 47  1  0  0  0
 39 64  1  0  0  0
 39 67  2  0  0  0
 40 52  1  0  0  0
 40 53  2  0  0  0
 40 58  1  0  0  0
 41109  1  0  0  0
 41110  1  0  0  0
 41111  1  0  0  0
 41 48  1  0  0  0
 42 43  1  0  0  0
 42 66  1  0  0  0
 42112  1  0  0  0
 42113  1  0  0  0
 43 44  1  0  0  0
 44114  1  0  0  0
 45 46  2  0  0  0
 45115  1  0  0  0
 46116  1  0  0  0
 47117  1  0  0  0
 47118  1  0  0  0
 48 56  1  0  0  0
 48 65  1  0  0  0
 48119  1  0  0  0
 49 50  1  0  0  0
 49 53  1  0  0  0
 49 64  1  0  0  0
 49120  1  0  0  0
 50 51  1  0  0  0
 50121  1  0  0  0
 50122  1  0  0  0
 51 52  1  0  0  0
 51123  1  0  0  0
 51124  1  0  0  0
 52125  1  0  0  0
 52126  1  0  0  0
 53 54  1  0  0  0
 54 55  2  0  0  0
 54127  1  0  0  0
 55 57  1  0  0  0
 55128  1  0  0  0
 56 69  2  0  0  0
 57 58  2  0  0  0
 57129  1  0  0  0
 58130  1  0  0  0
 59 60  1  0  0  0
 59 61  1  0  0  0
 59 62  1  0  0  0
 60131  1  0  0  0
 60132  1  0  0  0
 60133  1  0  0  0
 61134  1  0  0  0
 61135  1  0  0  0
 61136  1  0  0  0
 62137  1  0  0  0
 62138  1  0  0  0
 62139  1  0  0  0
 63 65  1  0  0  0
 63140  1  0  0  0
 63141  1  0  0  0
 63142  1  0  0  0
 64143  1  0  0  0
 65144  1  0  0  0
 68 83  1  0  0  0
 71 73  2  0  0  0
 71 75  1  0  0  0
 71145  1  0  0  0
 72 74  2  0  0  0
 72 76  1  0  0  0
 72146  1  0  0  0
 73 74  1  0  0  0
 73 78  1  0  0  0
 74 79  1  0  0  0
 75 76  2  0  0  0
 75 81  1  0  0  0
 76 85  1  0  0  0
 77 78  2  0  0  0
 77147  1  0  0  0
 77148  1  0  0  0
 78149  1  0  0  0
 79 80  2  0  0  0
 79150  1  0  0  0
 80151  1  0  0  0
 81152  1  0  0  0
 81153  1  0  0  0
 81154  1  0  0  0
 82 83  1  0  0  0
 82 84  1  0  0  0
 82155  1  0  0  0
 82156  1  0  0  0
 83157  1  0  0  0
 83158  1  0  0  0
 84 85  1  0  0  0
 84159  1  0  0  0
 84160  1  0  0  0
M  ISO  4   1 100  68 101  80 100  83 101
M  END
> <chiral flag>
0

> <version>
0

> <s_m_source_file>
/data/baiqing/PycharmProjects/Reinvent-master-3.2/result/LINK_invent/BTK/process_docking_weight1_custom_product_contain_oxygen_bond_distance_aromatic_linkinvent_7_9_3/rearranged_h_0119.sdf

> <i_m_source_file_index>
77

> <r_mmod_Potential_Energy-OPLS-2005>
185.286544799805

> <r_mmod_Stretch_Energy-OPLS-2005>
61.5637969970703

> <r_mmod_Bend_Energy-OPLS-2005>
152.474273681641

> <r_mmod_Torsional_Energy-OPLS-2005>
275.695434570312

> <r_mmod_Improper_Torsional_Energy-OPLS-2005>
19.9745807647705

> <r_mmod_Van_der_Waal_Energy-OPLS-2005>
169.13655090332

> <r_mmod_Electrostatic_Energy-OPLS-2005>
-349.849609375

> <r_mmod_Solvation_Energy-OPLS-2005>
-194.246704101562

> <b_mmod_Minimization_Converged-OPLS-2005>
0

> <r_mmod_RMS_Derivative-OPLS-2005>
1.36590015888214

$$$$
77
                    3D
 Structure written by MMmdl.
157165  0  0  1  0            999 V2000
  -30.7367  -14.4470   20.6666 C   0  0  0  0  0  0
  -30.4214  -12.3300   19.4247 C   0  0  0  0  0  0
  -29.4928  -12.5294   18.2106 C   0  0  0  0  0  0
  -28.0147  -12.3805   18.6184 C   0  0  0  0  0  0
  -27.6625  -13.2073   19.8833 C   0  0  2  0  0  0
  -28.6972  -12.9620   21.0032 C   0  0  0  0  0  0
  -25.2549  -13.8137   20.5607 C   0  0  0  0  0  0
  -24.1818  -13.0432   20.9137 C   0  0  0  0  0  0
  -24.6383  -11.6899   20.8726 C   0  0  0  0  0  0
  -23.9050  -10.4291   21.0402 C   0  0  0  0  0  0
  -24.3602   -9.4214   21.9186 C   0  0  0  0  0  0
  -23.6285   -8.2249   22.0760 C   0  0  0  0  0  0
  -22.4270   -8.0278   21.3547 C   0  0  0  0  0  0
  -21.9901   -9.0248   20.4644 C   0  0  0  0  0  0
  -22.7223  -10.2133   20.3051 C   0  0  0  0  0  0
  -21.6847   -6.0729   22.5277 C   0  0  0  0  0  0
  -21.4008   -6.5633   23.8213 C   0  0  0  0  0  0
  -21.3654   -5.6787   24.9177 C   0  0  0  0  0  0
  -21.6043   -4.3052   24.7227 C   0  0  0  0  0  0
  -21.8821   -3.8144   23.4351 C   0  0  0  0  0  0
  -21.9197   -4.6960   22.3402 C   0  0  0  0  0  0
  -22.7848  -13.5237   21.1823 C   0  0  0  0  0  0
  -22.1664   -4.2146   21.0977 F   0  0  0  0  0  0
  -21.5631   -3.4538   25.7739 F   0  0  0  0  0  0
  -30.0339  -13.2893   20.4756 N   0  0  0  0  0  0
  -26.3019  -12.9332   20.3385 N   0  0  0  0  0  0
  -25.9316  -11.6488   20.5774 N   0  0  0  0  0  0
  -22.0498  -12.8248   22.0395 N   0  0  0  0  0  0
  -25.4209  -15.1835   20.3908 N   0  0  0  0  0  0
  -31.7743  -14.7034   20.0434 O   0  0  0  0  0  0
  -21.6639   -6.8872   21.4239 O   0  0  0  0  0  0
  -22.3526  -14.5540   20.6670 O   0  0  0  0  0  0
  -24.6167  -31.8658   23.2154 C   0  0  0  0  0  0
  -25.9072  -32.4789   23.8432 C   0  0  1  0  0  0
  -27.2324  -27.4276   20.0909 C   0  0  0  0  0  0
  -25.5948  -33.8587   24.2379 N   0  0  0  0  0  0
  -23.4036  -30.4937   21.5544 C   0  0  2  0  0  0
  -24.8467  -28.9591   20.1142 C   0  0  0  0  0  0
  -22.7420  -29.4653   22.4997 C   0  0  0  0  0  0
  -18.0274  -28.1370   22.8511 C   0  0  0  0  0  0
  -24.1474  -36.7294   23.2654 C   0  0  0  0  0  0
  -25.9347  -30.8268   21.3731 C   0  0  0  0  0  0
  -26.0067  -29.4639   20.7130 C   0  0  0  0  0  0
  -27.1984  -28.7040   20.7003 C   0  0  0  0  0  0
  -26.0450  -26.9298   19.5033 C   0  0  0  0  0  0
  -24.8604  -27.6908   19.5097 C   0  0  0  0  0  0
  -23.6124  -29.8301   20.1671 C   0  0  0  0  0  0
  -25.4092  -36.3080   24.0360 C   0  0  1  0  0  0
  -20.5864  -28.3664   23.1325 C   0  0  2  0  0  0
  -20.6760  -26.9405   22.5414 C   0  0  0  0  0  0
  -19.5728  -26.6381   21.5214 C   0  0  0  0  0  0
  -18.1907  -26.7931   22.1615 C   0  0  0  0  0  0
  -19.1524  -28.8840   23.2911 C   0  0  0  0  0  0
  -18.9451  -30.1459   23.8898 C   0  0  0  0  0  0
  -17.6448  -30.6582   24.0572 C   0  0  0  0  0  0
  -25.9022  -34.9444   23.5152 C   0  0  0  0  0  0
  -16.5339  -29.9073   23.6347 C   0  0  0  0  0  0
  -16.7260  -28.6489   23.0369 C   0  0  0  0  0  0
  -26.4545  -31.6566   25.0748 C   0  0  0  0  0  0
  -25.3843  -31.3579   26.1508 C   0  0  0  0  0  0
  -27.0481  -30.3040   24.6137 C   0  0  0  0  0  0
  -27.6102  -32.4333   25.7498 C   0  0  0  0  0  0
  -27.5579  -37.1781   24.8476 C   0  0  0  0  0  0
  -21.4148  -29.3022   22.3725 N   0  0  0  0  0  0
  -26.4271  -37.3779   23.9444 N   0  0  0  0  0  0
  -24.6694  -31.0758   22.1057 N   0  0  0  0  0  0
  -23.4189  -28.8172   23.3026 O   0  0  0  0  0  0
  -28.4232  -26.7246   20.1115 O   0  0  0  0  0  0
  -26.5542  -34.8893   22.4685 O   0  0  0  0  0  0
  -23.5360  -32.1422   23.7548 O   0  0  0  0  0  0
  -30.5906  -17.5934   20.4921 C   0  0  0  0  0  0
  -30.1814  -18.8574   20.0142 C   0  0  0  0  0  0
  -28.0546  -18.5620   21.1235 C   0  0  0  0  0  0
  -29.7395  -16.7703   21.2740 C   0  0  0  0  0  0
  -28.4502  -17.2912   21.6204 C   0  0  0  0  0  0
  -28.8946  -19.3488   20.3114 C   0  0  0  0  0  0
  -26.4279  -17.0583   23.1262 C   0  0  0  0  0  0
  -27.5119  -16.5579   22.5068 C   0  0  0  0  0  0
  -28.8385  -21.6744   20.0272 C   0  0  0  0  0  0
  -30.2408  -15.4246   21.7450 C   0  0  0  0  0  0
  -28.3618  -24.2327   20.1240 C   0  0  0  0  0  0
  -28.3497  -22.9299   19.3028 C   0  0  0  0  0  0
  -28.5761  -25.5327   19.3194 C   0  0  0  0  0  0
  -30.2638  -15.1213   22.9786 N   0  0  0  0  0  0
  -28.3886  -20.5175   19.7222 N   0  0  0  0  0  0
  -28.1784  -24.2455   21.3473 O   0  0  0  0  0  0
  -31.4632  -12.4414   19.1204 H   0  0  0  0  0  0
  -30.3385  -11.3123   19.8071 H   0  0  0  0  0  0
  -29.7374  -11.8091   17.4288 H   0  0  0  0  0  0
  -29.6574  -13.5182   17.7794 H   0  0  0  0  0  0
  -27.8234  -11.3229   18.8009 H   0  0  0  0  0  0
  -27.3656  -12.6663   17.7901 H   0  0  0  0  0  0
  -27.7150  -14.2607   19.6060 H   0  0  0  0  0  0
  -28.6776  -11.9166   21.3124 H   0  0  0  0  0  0
  -28.4234  -13.5201   21.8953 H   0  0  0  0  0  0
  -25.2743   -9.5701   22.4761 H   0  0  0  0  0  0
  -23.9987   -7.4651   22.7491 H   0  0  0  0  0  0
  -21.0829   -8.8764   19.8946 H   0  0  0  0  0  0
  -22.3679  -10.9668   19.6154 H   0  0  0  0  0  0
  -21.1993   -7.6143   23.9708 H   0  0  0  0  0  0
  -21.1469   -6.0520   25.9076 H   0  0  0  0  0  0
  -22.0606   -2.7606   23.2851 H   0  0  0  0  0  0
  -22.4119  -11.9913   22.4792 H   0  0  0  0  0  0
  -21.1119  -13.1283   22.2608 H   0  0  0  0  0  0
  -24.6696  -15.8414   20.5642 H   0  0  0  0  0  0
  -26.3000  -15.6372   20.1819 H   0  0  0  0  0  0
  -26.7118  -32.5508   23.1174 H   0  0  0  0  0  0
  -25.0225  -33.9749   25.0609 H   0  0  0  0  0  0
  -22.6922  -31.3118   21.4196 H   0  0  0  0  0  0
  -23.3751  -35.9613   23.3268 H   0  0  0  0  0  0
  -24.3567  -36.8953   22.2077 H   0  0  0  0  0  0
  -23.7195  -37.6468   23.6703 H   0  0  0  0  0  0
  -26.0578  -31.5991   20.6127 H   0  0  0  0  0  0
  -26.8182  -30.8674   21.9988 H   0  0  0  0  0  0
  -28.0945  -29.0944   21.1619 H   0  0  0  0  0  0
  -26.0026  -25.9517   19.0484 H   0  0  0  0  0  0
  -23.9645  -27.2941   19.0519 H   0  0  0  0  0  0
  -23.7276  -30.6107   19.4149 H   0  0  0  0  0  0
  -22.7336  -29.2568   19.8670 H   0  0  0  0  0  0
  -25.1248  -36.1941   25.0856 H   0  0  0  0  0  0
  -20.9958  -28.3229   24.1447 H   0  0  0  0  0  0
  -20.5692  -26.2270   23.3590 H   0  0  0  0  0  0
  -21.6630  -26.7464   22.1189 H   0  0  0  0  0  0
  -19.6888  -25.6298   21.1230 H   0  0  0  0  0  0
  -19.6663  -27.3212   20.6760 H   0  0  0  0  0  0
  -17.4203  -26.6752   21.3983 H   0  0  0  0  0  0
  -18.0244  -26.0047   22.8973 H   0  0  0  0  0  0
  -19.7922  -30.7298   24.2231 H   0  0  0  0  0  0
  -17.4993  -31.6250   24.5207 H   0  0  0  0  0  0
  -15.5328  -30.2959   23.7690 H   0  0  0  0  0  0
  -15.8660  -28.0804   22.7072 H   0  0  0  0  0  0
  -24.6068  -30.6865   25.7846 H   0  0  0  0  0  0
  -24.8984  -32.2682   26.5025 H   0  0  0  0  0  0
  -25.8264  -30.8729   27.0226 H   0  0  0  0  0  0
  -26.3034  -29.6589   24.1467 H   0  0  0  0  0  0
  -27.4600  -29.7459   25.4562 H   0  0  0  0  0  0
  -27.8687  -30.4398   23.9086 H   0  0  0  0  0  0
  -27.2733  -33.3661   26.2033 H   0  0  0  0  0  0
  -28.3926  -32.6849   25.0322 H   0  0  0  0  0  0
  -28.0775  -31.8504   26.5443 H   0  0  0  0  0  0
  -28.2555  -38.0123   24.7605 H   0  0  0  0  0  0
  -28.1121  -36.2658   24.6212 H   0  0  0  0  0  0
  -27.2310  -37.1332   25.8880 H   0  0  0  0  0  0
  -20.9323  -29.8734   21.6929 H   0  0  0  0  0  0
  -26.0151  -38.2848   24.1496 H   0  0  0  0  0  0
  -31.5846  -17.2548   20.2392 H   0  0  0  0  0  0
  -30.8534  -19.4273   19.3874 H   0  0  0  0  0  0
  -27.0669  -18.9440   21.3355 H   0  0  0  0  0  0
  -25.8089  -16.4178   23.7379 H   0  0  0  0  0  0
  -26.1264  -18.0914   23.0510 H   0  0  0  0  0  0
  -27.6946  -15.5067   22.6633 H   0  0  0  0  0  0
  -29.6026  -21.8319   20.7950 H   0  0  0  0  0  0
  -27.3310  -22.7623   18.9550 H   0  0  0  0  0  0
  -28.9622  -23.0778   18.4146 H   0  0  0  0  0  0
  -27.9515  -25.5422   18.4274 H   0  0  0  0  0  0
  -29.6038  -25.5196   18.9577 H   0  0  0  0  0  0
  -29.9080  -15.8870   23.5392 H   0  0  0  0  0  0
  1 25  1  0  0  0
  1 30  2  0  0  0
  1 80  1  0  0  0
  2  3  1  0  0  0
  2 25  1  0  0  0
  2 87  1  0  0  0
  2 88  1  0  0  0
  3  4  1  0  0  0
  3 89  1  0  0  0
  3 90  1  0  0  0
  4  5  1  0  0  0
  4 91  1  0  0  0
  4 92  1  0  0  0
  5  6  1  0  0  0
  5 26  1  0  0  0
  5 93  1  0  0  0
  6 25  1  0  0  0
  6 94  1  0  0  0
  6 95  1  0  0  0
  7  8  2  0  0  0
  7 26  1  0  0  0
  7 29  1  0  0  0
  8  9  1  0  0  0
  8 22  1  0  0  0
  9 10  1  0  0  0
  9 27  2  0  0  0
 10 11  2  0  0  0
 10 15  1  0  0  0
 11 12  1  0  0  0
 11 96  1  0  0  0
 12 13  2  0  0  0
 12 97  1  0  0  0
 13 14  1  0  0  0
 13 31  1  0  0  0
 14 15  2  0  0  0
 14 98  1  0  0  0
 15 99  1  0  0  0
 16 17  2  0  0  0
 16 21  1  0  0  0
 16 31  1  0  0  0
 17 18  1  0  0  0
 17100  1  0  0  0
 18 19  2  0  0  0
 18101  1  0  0  0
 19 20  1  0  0  0
 19 24  1  0  0  0
 20 21  2  0  0  0
 20102  1  0  0  0
 21 23  1  0  0  0
 22 28  1  0  0  0
 22 32  2  0  0  0
 26 27  1  0  0  0
 28103  1  0  0  0
 28104  1  0  0  0
 29105  1  0  0  0
 29106  1  0  0  0
 33 34  1  0  0  0
 33 66  1  0  0  0
 33 70  2  0  0  0
 34 36  1  0  0  0
 34 59  1  0  0  0
 34107  1  0  0  0
 35 44  2  0  0  0
 35 45  1  0  0  0
 35 68  1  0  0  0
 36 56  1  0  0  0
 36108  1  0  0  0
 37 39  1  0  0  0
 37 47  1  0  0  0
 37 66  1  0  0  0
 37109  1  0  0  0
 38 43  2  0  0  0
 38 46  1  0  0  0
 38 47  1  0  0  0
 39 64  1  0  0  0
 39 67  2  0  0  0
 40 52  1  0  0  0
 40 53  2  0  0  0
 40 58  1  0  0  0
 41110  1  0  0  0
 41111  1  0  0  0
 41112  1  0  0  0
 41 48  1  0  0  0
 42 43  1  0  0  0
 42 66  1  0  0  0
 42113  1  0  0  0
 42114  1  0  0  0
 43 44  1  0  0  0
 44115  1  0  0  0
 45 46  2  0  0  0
 45116  1  0  0  0
 46117  1  0  0  0
 47118  1  0  0  0
 47119  1  0  0  0
 48 56  1  0  0  0
 48 65  1  0  0  0
 48120  1  0  0  0
 49 50  1  0  0  0
 49 53  1  0  0  0
 49 64  1  0  0  0
 49121  1  0  0  0
 50 51  1  0  0  0
 50122  1  0  0  0
 50123  1  0  0  0
 51 52  1  0  0  0
 51124  1  0  0  0
 51125  1  0  0  0
 52126  1  0  0  0
 52127  1  0  0  0
 53 54  1  0  0  0
 54 55  2  0  0  0
 54128  1  0  0  0
 55 57  1  0  0  0
 55129  1  0  0  0
 56 69  2  0  0  0
 57 58  2  0  0  0
 57130  1  0  0  0
 58131  1  0  0  0
 59 60  1  0  0  0
 59 61  1  0  0  0
 59 62  1  0  0  0
 60132  1  0  0  0
 60133  1  0  0  0
 60134  1  0  0  0
 61135  1  0  0  0
 61136  1  0  0  0
 61137  1  0  0  0
 62138  1  0  0  0
 62139  1  0  0  0
 62140  1  0  0  0
 63 65  1  0  0  0
 63141  1  0  0  0
 63142  1  0  0  0
 63143  1  0  0  0
 64144  1  0  0  0
 65145  1  0  0  0
 68 83  1  0  0  0
 71 72  2  0  0  0
 71 74  1  0  0  0
 71146  1  0  0  0
 72 76  1  0  0  0
 72147  1  0  0  0
 73 75  1  0  0  0
 73 76  2  0  0  0
 73148  1  0  0  0
 74 75  2  0  0  0
 74 80  1  0  0  0
 75 78  1  0  0  0
 76 85  1  0  0  0
 77 78  2  0  0  0
 77149  1  0  0  0
 77150  1  0  0  0
 78151  1  0  0  0
 79 82  1  0  0  0
 79 85  2  0  0  0
 79152  1  0  0  0
 80 84  2  0  0  0
 81 82  1  0  0  0
 81 83  1  0  0  0
 81 86  2  0  0  0
 82153  1  0  0  0
 82154  1  0  0  0
 83155  1  0  0  0
 83156  1  0  0  0
 84157  1  0  0  0
M  ISO  4   1 100  68 101  80 100  83 101
M  END
> <chiral flag>
0

> <version>
0

> <s_m_source_file>
/data/baiqing/PycharmProjects/Reinvent-master-3.2/result/LINK_invent/BTK/process_docking_weight1_custom_product_contain_oxygen_bond_distance_aromatic_linkinvent_7_9_3/rearranged_h_0119.sdf

> <i_m_source_file_index>
78

> <r_mmod_Potential_Energy-OPLS-2005>
114.749717712402

> <r_mmod_Stretch_Energy-OPLS-2005>
46.244026184082

> <r_mmod_Bend_Energy-OPLS-2005>
115.726211547852

> <r_mmod_Torsional_Energy-OPLS-2005>
234.497817993164

> <r_mmod_Improper_Torsional_Energy-OPLS-2005>
2.65417647361755

> <r_mmod_Van_der_Waal_Energy-OPLS-2005>
155.676712036133

> <r_mmod_Electrostatic_Energy-OPLS-2005>
-233.075988769531

> <r_mmod_Solvation_Energy-OPLS-2005>
-218.219329833984

> <b_mmod_Minimization_Converged-OPLS-2005>
0

> <r_mmod_RMS_Derivative-OPLS-2005>
1.95901870727539

$$$$
78
                    3D
 Structure written by MMmdl.
162170  0  0  1  0            999 V2000
  -30.7013  -14.4632   20.5767 C   0  0  0  0  0  0
  -30.4227  -12.3051   19.4188 C   0  0  0  0  0  0
  -29.4933  -12.5054   18.2043 C   0  0  0  0  0  0
  -28.0143  -12.3668   18.6168 C   0  0  0  0  0  0
  -27.6618  -13.2048   19.8752 C   0  0  2  0  0  0
  -28.7027  -12.9818   20.9950 C   0  0  0  0  0  0
  -25.2592  -13.8161   20.5673 C   0  0  0  0  0  0
  -24.1840  -13.0440   20.9170 C   0  0  0  0  0  0
  -24.6390  -11.6905   20.8734 C   0  0  0  0  0  0
  -23.9056  -10.4295   21.0403 C   0  0  0  0  0  0
  -24.3612   -9.4212   21.9181 C   0  0  0  0  0  0
  -23.6290   -8.2246   22.0754 C   0  0  0  0  0  0
  -22.4272   -8.0282   21.3543 C   0  0  0  0  0  0
  -21.9905   -9.0254   20.4646 C   0  0  0  0  0  0
  -22.7230  -10.2134   20.3053 C   0  0  0  0  0  0
  -21.6853   -6.0737   22.5279 C   0  0  0  0  0  0
  -21.4013   -6.5641   23.8212 C   0  0  0  0  0  0
  -21.3658   -5.6793   24.9176 C   0  0  0  0  0  0
  -21.6044   -4.3057   24.7225 C   0  0  0  0  0  0
  -21.8820   -3.8149   23.4347 C   0  0  0  0  0  0
  -21.9193   -4.6965   22.3403 C   0  0  0  0  0  0
  -22.7865  -13.5243   21.1837 C   0  0  0  0  0  0
  -22.1662   -4.2152   21.0980 F   0  0  0  0  0  0
  -21.5629   -3.4540   25.7737 F   0  0  0  0  0  0
  -30.0331  -13.2866   20.4418 N   0  0  0  0  0  0
  -26.3026  -12.9324   20.3367 N   0  0  0  0  0  0
  -25.9316  -11.6485   20.5766 N   0  0  0  0  0  0
  -22.0504  -12.8233   22.0393 N   0  0  0  0  0  0
  -25.4323  -15.1874   20.4075 N   0  0  0  0  0  0
  -31.8242  -14.6579   20.1035 O   0  0  0  0  0  0
  -21.6637   -6.8878   21.4240 O   0  0  0  0  0  0
  -22.3549  -14.5549   20.6691 O   0  0  0  0  0  0
  -24.6137  -31.8686   23.2106 C   0  0  0  0  0  0
  -25.9034  -32.4824   23.8401 C   0  0  1  0  0  0
  -27.2360  -27.4456   20.0937 C   0  0  0  0  0  0
  -25.5888  -33.8623   24.2329 N   0  0  0  0  0  0
  -23.4026  -30.4907   21.5501 C   0  0  2  0  0  0
  -24.8526  -28.9586   20.1118 C   0  0  0  0  0  0
  -22.7411  -29.4658   22.4992 C   0  0  0  0  0  0
  -18.0269  -28.1380   22.8491 C   0  0  0  0  0  0
  -24.1487  -36.7319   23.2639 C   0  0  0  0  0  0
  -25.9309  -30.8361   21.3647 C   0  0  0  0  0  0
  -26.0110  -29.4712   20.7118 C   0  0  0  0  0  0
  -27.2084  -28.7196   20.7051 C   0  0  0  0  0  0
  -26.0683  -26.9457   19.4857 C   0  0  0  0  0  0
  -24.8756  -27.6942   19.4957 C   0  0  0  0  0  0
  -23.6118  -29.8221   20.1645 C   0  0  0  0  0  0
  -25.4106  -36.3114   24.0339 C   0  0  1  0  0  0
  -20.5858  -28.3664   23.1318 C   0  0  2  0  0  0
  -20.6762  -26.9399   22.5421 C   0  0  0  0  0  0
  -19.5741  -26.6387   21.5218 C   0  0  0  0  0  0
  -18.1915  -26.7928   22.1622 C   0  0  0  0  0  0
  -19.1518  -28.8841   23.2902 C   0  0  0  0  0  0
  -18.9445  -30.1447   23.8912 C   0  0  0  0  0  0
  -17.6449  -30.6586   24.0562 C   0  0  0  0  0  0
  -25.9031  -34.9476   23.5130 C   0  0  0  0  0  0
  -16.5342  -29.9088   23.6326 C   0  0  0  0  0  0
  -16.7258  -28.6505   23.0349 C   0  0  0  0  0  0
  -26.4472  -31.6600   25.0723 C   0  0  0  0  0  0
  -25.3742  -31.3686   26.1468 C   0  0  0  0  0  0
  -27.0315  -30.3045   24.6104 C   0  0  0  0  0  0
  -27.6057  -32.4321   25.7473 C   0  0  0  0  0  0
  -27.5585  -37.1802   24.8459 C   0  0  0  0  0  0
  -21.4139  -29.3028   22.3726 N   0  0  0  0  0  0
  -26.4295  -37.3795   23.9411 N   0  0  0  0  0  0
  -24.6668  -31.0788   22.1004 N   0  0  0  0  0  0
  -23.4184  -28.8205   23.3036 O   0  0  0  0  0  0
  -28.3629  -26.6588   20.1042 O   0  0  0  0  0  0
  -26.5596  -34.8922   22.4693 O   0  0  0  0  0  0
  -23.5331  -32.1438   23.7503 O   0  0  0  0  0  0
  -28.5055  -18.1255   24.3327 C   0  0  0  0  0  0
  -29.2698  -19.0502   21.8053 C   0  0  0  0  0  0
  -28.1259  -19.4212   23.9350 C   0  0  0  0  0  0
  -29.2741  -17.2898   23.5024 C   0  0  0  0  0  0
  -29.6352  -17.7348   22.2042 C   0  0  0  0  0  0
  -28.5289  -19.9089   22.6633 C   0  0  0  0  0  0
  -26.3769  -21.1272   24.6082 C   0  0  0  0  0  0
  -27.2878  -20.1789   24.8897 C   0  0  0  0  0  0
  -28.9334  -24.4285   21.0358 C   0  0  0  0  0  0
  -28.1807  -23.3318   21.2677 C   0  0  0  0  0  0
  -29.7051  -15.9431   24.0641 C   0  0  0  0  0  0
  -30.4565  -16.8565   21.2484 C   0  0  0  0  0  0
  -28.4622  -25.8596   21.2893 C   0  0  0  0  0  0
  -28.6185  -21.8720   21.1715 C   0  0  0  0  0  0
  -30.0025  -15.4646   21.1365 N   0  0  0  0  0  0
  -28.1963  -21.2185   22.3650 O   0  0  0  0  0  0
  -31.4669  -12.4070   19.1172 H   0  0  0  0  0  0
  -30.3258  -11.2931   19.8151 H   0  0  0  0  0  0
  -29.7326  -11.7828   17.4232 H   0  0  0  0  0  0
  -29.6616  -13.4923   17.7698 H   0  0  0  0  0  0
  -27.8220  -11.3107   18.8095 H   0  0  0  0  0  0
  -27.3646  -12.6456   17.7861 H   0  0  0  0  0  0
  -27.7073  -14.2533   19.5800 H   0  0  0  0  0  0
  -28.6780  -11.9457   21.3354 H   0  0  0  0  0  0
  -28.4635  -13.5807   21.8741 H   0  0  0  0  0  0
  -25.2759   -9.5689   22.4752 H   0  0  0  0  0  0
  -24.0004   -7.4636   22.7472 H   0  0  0  0  0  0
  -21.0839   -8.8771   19.8949 H   0  0  0  0  0  0
  -22.3693  -10.9672   19.6161 H   0  0  0  0  0  0
  -21.2004   -7.6148   23.9717 H   0  0  0  0  0  0
  -21.1480   -6.0523   25.9077 H   0  0  0  0  0  0
  -22.0600   -2.7611   23.2846 H   0  0  0  0  0  0
  -22.4117  -11.9891   22.4775 H   0  0  0  0  0  0
  -21.1121  -13.1260   22.2598 H   0  0  0  0  0  0
  -24.6687  -15.8455   20.5183 H   0  0  0  0  0  0
  -26.2904  -15.6267   20.0990 H   0  0  0  0  0  0
  -26.7107  -32.5546   23.1172 H   0  0  0  0  0  0
  -25.0045  -33.9797   25.0477 H   0  0  0  0  0  0
  -22.6908  -31.3068   21.4107 H   0  0  0  0  0  0
  -23.3751  -35.9649   23.3303 H   0  0  0  0  0  0
  -24.3586  -36.8941   22.2055 H   0  0  0  0  0  0
  -23.7237  -37.6521   23.6659 H   0  0  0  0  0  0
  -26.0444  -31.6034   20.5974 H   0  0  0  0  0  0
  -26.8179  -30.8892   21.9840 H   0  0  0  0  0  0
  -28.1021  -29.1062   21.1745 H   0  0  0  0  0  0
  -26.0811  -25.9707   19.0185 H   0  0  0  0  0  0
  -23.9854  -27.2940   19.0296 H   0  0  0  0  0  0
  -23.7137  -30.5966   19.4039 H   0  0  0  0  0  0
  -22.7376  -29.2379   19.8719 H   0  0  0  0  0  0
  -25.1281  -36.1978   25.0833 H   0  0  0  0  0  0
  -20.9949  -28.3234   24.1441 H   0  0  0  0  0  0
  -20.5680  -26.2268   23.3608 H   0  0  0  0  0  0
  -21.6631  -26.7455   22.1203 H   0  0  0  0  0  0
  -19.6905  -25.6306   21.1235 H   0  0  0  0  0  0
  -19.6683  -27.3211   20.6758 H   0  0  0  0  0  0
  -17.4189  -26.6684   21.4020 H   0  0  0  0  0  0
  -18.0309  -26.0069   22.9015 H   0  0  0  0  0  0
  -19.7921  -30.7257   24.2294 H   0  0  0  0  0  0
  -17.5000  -31.6265   24.5162 H   0  0  0  0  0  0
  -15.5343  -30.2989   23.7649 H   0  0  0  0  0  0
  -15.8657  -28.0829   22.7061 H   0  0  0  0  0  0
  -24.5912  -30.7047   25.7787 H   0  0  0  0  0  0
  -24.8935  -32.2829   26.4951 H   0  0  0  0  0  0
  -25.8094  -30.8817   27.0203 H   0  0  0  0  0  0
  -26.2862  -29.6778   24.1191 H   0  0  0  0  0  0
  -27.4125  -29.7304   25.4560 H   0  0  0  0  0  0
  -27.8674  -30.4371   23.9232 H   0  0  0  0  0  0
  -27.2698  -33.3621   26.2069 H   0  0  0  0  0  0
  -28.3845  -32.6884   25.0279 H   0  0  0  0  0  0
  -28.0746  -31.8430   26.5365 H   0  0  0  0  0  0
  -28.2587  -38.0115   24.7537 H   0  0  0  0  0  0
  -28.1100  -36.2650   24.6249 H   0  0  0  0  0  0
  -27.2306  -37.1407   25.8861 H   0  0  0  0  0  0
  -20.9309  -29.8729   21.6926 H   0  0  0  0  0  0
  -26.0188  -38.2875   24.1414 H   0  0  0  0  0  0
  -28.2071  -17.7672   25.3085 H   0  0  0  0  0  0
  -29.5803  -19.4011   20.8318 H   0  0  0  0  0  0
  -25.8350  -21.6208   25.4023 H   0  0  0  0  0  0
  -26.1451  -21.4280   23.5975 H   0  0  0  0  0  0
  -27.4458  -19.9430   25.9335 H   0  0  0  0  0  0
  -29.9492  -24.3177   20.6842 H   0  0  0  0  0  0
  -27.1569  -23.4696   21.5866 H   0  0  0  0  0  0
  -29.6634  -15.9396   25.1536 H   0  0  0  0  0  0
  -30.7318  -15.7052   23.7852 H   0  0  0  0  0  0
  -29.0500  -15.1484   23.7084 H   0  0  0  0  0  0
  -31.4947  -16.8772   21.5853 H   0  0  0  0  0  0
  -30.4509  -17.2964   20.2497 H   0  0  0  0  0  0
  -29.1723  -26.3369   21.9656 H   0  0  0  0  0  0
  -27.5135  -25.8174   21.8297 H   0  0  0  0  0  0
  -29.7005  -21.8086   21.0488 H   0  0  0  0  0  0
  -28.1447  -21.4072   20.3058 H   0  0  0  0  0  0
  -29.0722  -15.2567   21.4630 H   0  0  0  0  0  0
  1 25  1  0  0  0
  1 30  2  0  0  0
  1 85  1  0  0  0
  2  3  1  0  0  0
  2 25  1  0  0  0
  2 87  1  0  0  0
  2 88  1  0  0  0
  3  4  1  0  0  0
  3 89  1  0  0  0
  3 90  1  0  0  0
  4  5  1  0  0  0
  4 91  1  0  0  0
  4 92  1  0  0  0
  5  6  1  0  0  0
  5 26  1  0  0  0
  5 93  1  0  0  0
  6 25  1  0  0  0
  6 94  1  0  0  0
  6 95  1  0  0  0
  7  8  2  0  0  0
  7 26  1  0  0  0
  7 29  1  0  0  0
  8  9  1  0  0  0
  8 22  1  0  0  0
  9 10  1  0  0  0
  9 27  2  0  0  0
 10 11  2  0  0  0
 10 15  1  0  0  0
 11 12  1  0  0  0
 11 96  1  0  0  0
 12 13  2  0  0  0
 12 97  1  0  0  0
 13 14  1  0  0  0
 13 31  1  0  0  0
 14 15  2  0  0  0
 14 98  1  0  0  0
 15 99  1  0  0  0
 16 17  2  0  0  0
 16 21  1  0  0  0
 16 31  1  0  0  0
 17 18  1  0  0  0
 17100  1  0  0  0
 18 19  2  0  0  0
 18101  1  0  0  0
 19 20  1  0  0  0
 19 24  1  0  0  0
 20 21  2  0  0  0
 20102  1  0  0  0
 21 23  1  0  0  0
 22 28  1  0  0  0
 22 32  2  0  0  0
 26 27  1  0  0  0
 28103  1  0  0  0
 28104  1  0  0  0
 29105  1  0  0  0
 29106  1  0  0  0
 33 34  1  0  0  0
 33 66  1  0  0  0
 33 70  2  0  0  0
 34 36  1  0  0  0
 34 59  1  0  0  0
 34107  1  0  0  0
 35 44  2  0  0  0
 35 45  1  0  0  0
 35 68  1  0  0  0
 36 56  1  0  0  0
 36108  1  0  0  0
 37 39  1  0  0  0
 37 47  1  0  0  0
 37 66  1  0  0  0
 37109  1  0  0  0
 38 43  2  0  0  0
 38 46  1  0  0  0
 38 47  1  0  0  0
 39 64  1  0  0  0
 39 67  2  0  0  0
 40 52  1  0  0  0
 40 53  2  0  0  0
 40 58  1  0  0  0
 41110  1  0  0  0
 41111  1  0  0  0
 41112  1  0  0  0
 41 48  1  0  0  0
 42 43  1  0  0  0
 42 66  1  0  0  0
 42113  1  0  0  0
 42114  1  0  0  0
 43 44  1  0  0  0
 44115  1  0  0  0
 45 46  2  0  0  0
 45116  1  0  0  0
 46117  1  0  0  0
 47118  1  0  0  0
 47119  1  0  0  0
 48 56  1  0  0  0
 48 65  1  0  0  0
 48120  1  0  0  0
 49 50  1  0  0  0
 49 53  1  0  0  0
 49 64  1  0  0  0
 49121  1  0  0  0
 50 51  1  0  0  0
 50122  1  0  0  0
 50123  1  0  0  0
 51 52  1  0  0  0
 51124  1  0  0  0
 51125  1  0  0  0
 52126  1  0  0  0
 52127  1  0  0  0
 53 54  1  0  0  0
 54 55  2  0  0  0
 54128  1  0  0  0
 55 57  1  0  0  0
 55129  1  0  0  0
 56 69  2  0  0  0
 57 58  2  0  0  0
 57130  1  0  0  0
 58131  1  0  0  0
 59 60  1  0  0  0
 59 61  1  0  0  0
 59 62  1  0  0  0
 60132  1  0  0  0
 60133  1  0  0  0
 60134  1  0  0  0
 61135  1  0  0  0
 61136  1  0  0  0
 61137  1  0  0  0
 62138  1  0  0  0
 62139  1  0  0  0
 62140  1  0  0  0
 63 65  1  0  0  0
 63141  1  0  0  0
 63142  1  0  0  0
 63143  1  0  0  0
 64144  1  0  0  0
 65145  1  0  0  0
 68 83  1  0  0  0
 71 73  2  0  0  0
 71 74  1  0  0  0
 71146  1  0  0  0
 72 75  1  0  0  0
 72 76  2  0  0  0
 72147  1  0  0  0
 73 76  1  0  0  0
 73 78  1  0  0  0
 74 75  2  0  0  0
 74 81  1  0  0  0
 75 82  1  0  0  0
 76 86  1  0  0  0
 77 78  2  0  0  0
 77148  1  0  0  0
 77149  1  0  0  0
 78150  1  0  0  0
 79 80  2  0  0  0
 79 83  1  0  0  0
 79151  1  0  0  0
 80 84  1  0  0  0
 80152  1  0  0  0
 81153  1  0  0  0
 81154  1  0  0  0
 81155  1  0  0  0
 82 85  1  0  0  0
 82156  1  0  0  0
 82157  1  0  0  0
 83158  1  0  0  0
 83159  1  0  0  0
 84 86  1  0  0  0
 84160  1  0  0  0
 84161  1  0  0  0
 85162  1  0  0  0
M  ISO  4   1 100  68 101  83 101  85 100
M  END
> <chiral flag>
0

> <version>
0

> <s_m_source_file>
/data/baiqing/PycharmProjects/Reinvent-master-3.2/result/LINK_invent/BTK/process_docking_weight1_custom_product_contain_oxygen_bond_distance_aromatic_linkinvent_7_9_3/rearranged_h_0119.sdf

> <i_m_source_file_index>
79

> <r_mmod_Potential_Energy-OPLS-2005>
-76.7990951538086

> <r_mmod_Stretch_Energy-OPLS-2005>
37.7090911865234

> <r_mmod_Bend_Energy-OPLS-2005>
107.545249938965

> <r_mmod_Torsional_Energy-OPLS-2005>
226.084075927734

> <r_mmod_Improper_Torsional_Energy-OPLS-2005>
3.62837243080139

> <r_mmod_Van_der_Waal_Energy-OPLS-2005>
153.89338684082

> <r_mmod_Electrostatic_Energy-OPLS-2005>
-414.749603271484

> <r_mmod_Solvation_Energy-OPLS-2005>
-203.042022705078

> <b_mmod_Minimization_Converged-OPLS-2005>
0

> <r_mmod_RMS_Derivative-OPLS-2005>
0.720894336700439

$$$$
79
                    3D
 Structure written by MMmdl.
166174  0  0  1  0            999 V2000
  -30.7181  -14.4921   20.6164 C   0  0  0  0  0  0
  -30.4350  -12.3290   19.4447 C   0  0  0  0  0  0
  -29.5086  -12.5324   18.2272 C   0  0  0  0  0  0
  -28.0267  -12.3969   18.6296 C   0  0  0  0  0  0
  -27.6739  -13.2117   19.9019 C   0  0  2  0  0  0
  -28.7180  -13.0022   21.0239 C   0  0  0  0  0  0
  -25.2666  -13.8127   20.5771 C   0  0  0  0  0  0
  -24.1885  -13.0419   20.9182 C   0  0  0  0  0  0
  -24.6440  -11.6887   20.8766 C   0  0  0  0  0  0
  -23.9096  -10.4267   21.0434 C   0  0  0  0  0  0
  -24.3632   -9.4165   21.9215 C   0  0  0  0  0  0
  -23.6291   -8.2206   22.0736 C   0  0  0  0  0  0
  -22.4274   -8.0274   21.3512 C   0  0  0  0  0  0
  -21.9940   -9.0261   20.4640 C   0  0  0  0  0  0
  -22.7279  -10.2138   20.3071 C   0  0  0  0  0  0
  -21.6835   -6.0741   22.5256 C   0  0  0  0  0  0
  -21.4019   -6.5632   23.8206 C   0  0  0  0  0  0
  -21.3640   -5.6775   24.9153 C   0  0  0  0  0  0
  -21.6030   -4.3039   24.7205 C   0  0  0  0  0  0
  -21.8822   -3.8151   23.4307 C   0  0  0  0  0  0
  -21.9193   -4.6970   22.3379 C   0  0  0  0  0  0
  -22.7910  -13.5253   21.1775 C   0  0  0  0  0  0
  -22.1679   -4.2167   21.0955 F   0  0  0  0  0  0
  -21.5608   -3.4521   25.7709 F   0  0  0  0  0  0
  -30.0540  -13.3068   20.4828 N   0  0  0  0  0  0
  -26.3123  -12.9312   20.3551 N   0  0  0  0  0  0
  -25.9391  -11.6474   20.5876 N   0  0  0  0  0  0
  -22.0487  -12.8314   22.0317 N   0  0  0  0  0  0
  -25.4496  -15.1832   20.4225 N   0  0  0  0  0  0
  -31.8081  -14.7021   20.0715 O   0  0  0  0  0  0
  -21.6589   -6.8888   21.4230 O   0  0  0  0  0  0
  -22.3658  -14.5564   20.6583 O   0  0  0  0  0  0
  -24.6218  -31.8600   23.2033 C   0  0  0  0  0  0
  -25.9090  -32.4775   23.8364 C   0  0  1  0  0  0
  -27.2420  -27.3826   20.1269 C   0  0  0  0  0  0
  -25.5916  -33.8576   24.2289 N   0  0  0  0  0  0
  -23.4156  -30.4828   21.5387 C   0  0  2  0  0  0
  -24.8674  -28.9383   20.1123 C   0  0  0  0  0  0
  -22.7460  -29.4640   22.4901 C   0  0  0  0  0  0
  -18.0295  -28.1404   22.8466 C   0  0  0  0  0  0
  -24.1472  -36.7285   23.2635 C   0  0  0  0  0  0
  -25.9499  -30.8119   21.3649 C   0  0  0  0  0  0
  -26.0285  -29.4435   20.7118 C   0  0  0  0  0  0
  -27.2248  -28.6783   20.7039 C   0  0  0  0  0  0
  -26.0639  -26.9029   19.5152 C   0  0  0  0  0  0
  -24.8837  -27.6705   19.5049 C   0  0  0  0  0  0
  -23.6313  -29.8099   20.1558 C   0  0  0  0  0  0
  -25.4097  -36.3065   24.0319 C   0  0  1  0  0  0
  -20.5884  -28.3705   23.1259 C   0  0  2  0  0  0
  -20.6771  -26.9429   22.5393 C   0  0  0  0  0  0
  -19.5761  -26.6399   21.5186 C   0  0  0  0  0  0
  -18.1939  -26.7953   22.1587 C   0  0  0  0  0  0
  -19.1540  -28.8873   23.2858 C   0  0  0  0  0  0
  -18.9475  -30.1468   23.8880 C   0  0  0  0  0  0
  -17.6476  -30.6597   24.0568 C   0  0  0  0  0  0
  -25.9040  -34.9432   23.5096 C   0  0  0  0  0  0
  -16.5363  -29.9093   23.6333 C   0  0  0  0  0  0
  -16.7287  -28.6514   23.0346 C   0  0  0  0  0  0
  -26.4499  -31.6583   25.0720 C   0  0  0  0  0  0
  -25.3781  -31.3706   26.1484 C   0  0  0  0  0  0
  -27.0344  -30.3012   24.6154 C   0  0  0  0  0  0
  -27.6044  -32.4331   25.7522 C   0  0  0  0  0  0
  -27.5559  -37.1792   24.8465 C   0  0  0  0  0  0
  -21.4172  -29.3051   22.3649 N   0  0  0  0  0  0
  -26.4266  -37.3764   23.9416 N   0  0  0  0  0  0
  -24.6805  -31.0679   22.0942 N   0  0  0  0  0  0
  -23.4200  -28.8194   23.2980 O   0  0  0  0  0  0
  -28.3751  -26.5833   20.1418 O   0  0  0  0  0  0
  -26.5598  -34.8911   22.4655 O   0  0  0  0  0  0
  -23.5392  -32.1365   23.7390 O   0  0  0  0  0  0
  -29.1376  -16.7660   19.4507 C   0  0  0  0  0  0
  -29.8052  -17.9794   21.4504 C   0  0  0  0  0  0
  -28.5843  -17.9413   18.9180 C   0  0  0  0  0  0
  -28.6597  -19.1636   19.6389 C   0  0  0  0  0  0
  -29.7208  -16.7487   20.7327 C   0  0  0  0  0  0
  -29.3285  -19.2138   20.9001 C   0  0  0  0  0  0
  -26.6300  -17.4401   17.5272 C   0  0  0  0  0  0
  -27.9158  -17.8268   17.6122 C   0  0  0  0  0  0
  -27.9503  -20.3460   19.0816 C   0  0  0  0  0  0
  -28.7536  -18.1595   16.3953 C   0  0  0  0  0  0
  -26.6836  -20.7466   19.8152 C   0  0  0  0  0  0
  -29.0689  -24.1155   20.4833 C   0  0  0  0  0  0
  -29.0319  -22.8853   21.4659 C   0  0  0  0  0  0
  -28.2846  -25.3886   20.9720 C   0  0  0  0  0  0
  -29.9117  -21.6305   21.1061 C   0  0  0  0  0  0
  -30.0921  -15.4794   21.2998 N   0  0  0  0  0  0
  -28.3177  -20.9820   18.0906 O   0  0  0  0  0  0
  -29.4330  -20.3774   21.6762 O   0  0  0  0  0  0
  -31.4811  -12.4261   19.1449 H   0  0  0  0  0  0
  -30.3409  -11.3136   19.8363 H   0  0  0  0  0  0
  -29.7498  -11.8134   17.4442 H   0  0  0  0  0  0
  -29.6818  -13.5194   17.7940 H   0  0  0  0  0  0
  -27.8181  -11.3407   18.7998 H   0  0  0  0  0  0
  -27.3813  -12.7063   17.8072 H   0  0  0  0  0  0
  -27.7076  -14.2599   19.6082 H   0  0  0  0  0  0
  -28.6992  -11.9690   21.3742 H   0  0  0  0  0  0
  -28.4765  -13.6115   21.8979 H   0  0  0  0  0  0
  -25.2754   -9.5590   22.4850 H   0  0  0  0  0  0
  -23.9940   -7.4563   22.7463 H   0  0  0  0  0  0
  -21.0850   -8.8824   19.8964 H   0  0  0  0  0  0
  -22.3756  -10.9699   19.6200 H   0  0  0  0  0  0
  -21.2042   -7.6153   23.9724 H   0  0  0  0  0  0
  -21.1473   -6.0485   25.9052 H   0  0  0  0  0  0
  -22.0648   -2.7611   23.2772 H   0  0  0  0  0  0
  -22.4062  -11.9966   22.4734 H   0  0  0  0  0  0
  -21.1138  -13.1446   22.2523 H   0  0  0  0  0  0
  -24.6945  -15.8539   20.5196 H   0  0  0  0  0  0
  -26.3317  -15.6040   20.1576 H   0  0  0  0  0  0
  -26.7161  -32.5481   23.1124 H   0  0  0  0  0  0
  -25.0117  -33.9719   25.0470 H   0  0  0  0  0  0
  -22.7071  -31.3003   21.3891 H   0  0  0  0  0  0
  -23.3724  -35.9629   23.3308 H   0  0  0  0  0  0
  -24.3562  -36.8904   22.2049 H   0  0  0  0  0  0
  -23.7243  -37.6493   23.6664 H   0  0  0  0  0  0
  -26.0720  -31.5753   20.5955 H   0  0  0  0  0  0
  -26.8343  -30.8620   21.9906 H   0  0  0  0  0  0
  -28.1231  -29.0648   21.1636 H   0  0  0  0  0  0
  -26.0584  -25.9218   19.0590 H   0  0  0  0  0  0
  -23.9936  -27.2729   19.0360 H   0  0  0  0  0  0
  -23.7493  -30.5770   19.3892 H   0  0  0  0  0  0
  -22.7584  -29.2252   19.8610 H   0  0  0  0  0  0
  -25.1278  -36.1881   25.0806 H   0  0  0  0  0  0
  -20.9992  -28.3293   24.1369 H   0  0  0  0  0  0
  -20.5643  -26.2338   23.3601 H   0  0  0  0  0  0
  -21.6644  -26.7440   22.1205 H   0  0  0  0  0  0
  -19.6910  -25.6299   21.1247 H   0  0  0  0  0  0
  -19.6709  -27.3178   20.6692 H   0  0  0  0  0  0
  -17.4210  -26.6700   21.3985 H   0  0  0  0  0  0
  -18.0341  -26.0100   22.8988 H   0  0  0  0  0  0
  -19.7955  -30.7281   24.2232 H   0  0  0  0  0  0
  -17.5046  -31.6272   24.5178 H   0  0  0  0  0  0
  -15.5367  -30.2993   23.7683 H   0  0  0  0  0  0
  -15.8686  -28.0851   22.7051 H   0  0  0  0  0  0
  -24.5956  -30.7027   25.7863 H   0  0  0  0  0  0
  -24.8980  -32.2866   26.4932 H   0  0  0  0  0  0
  -25.8164  -30.8907   27.0242 H   0  0  0  0  0  0
  -26.2887  -29.6776   24.1201 H   0  0  0  0  0  0
  -27.4077  -29.7249   25.4632 H   0  0  0  0  0  0
  -27.8752  -30.4317   23.9338 H   0  0  0  0  0  0
  -27.2617  -33.3615   26.2112 H   0  0  0  0  0  0
  -28.3872  -32.6921   25.0381 H   0  0  0  0  0  0
  -28.0705  -31.8467   26.5453 H   0  0  0  0  0  0
  -28.2560  -38.0103   24.7489 H   0  0  0  0  0  0
  -28.1056  -36.2616   24.6285 H   0  0  0  0  0  0
  -27.2290  -37.1448   25.8876 H   0  0  0  0  0  0
  -20.9356  -29.8783   21.6860 H   0  0  0  0  0  0
  -26.0127  -38.2827   24.1437 H   0  0  0  0  0  0
  -29.0532  -15.8554   18.8732 H   0  0  0  0  0  0
  -30.2402  -17.9791   22.4407 H   0  0  0  0  0  0
  -26.0462  -17.2064   18.4066 H   0  0  0  0  0  0
  -26.1292  -17.3505   16.5737 H   0  0  0  0  0  0
  -29.6217  -17.5026   16.3378 H   0  0  0  0  0  0
  -29.1220  -19.1831   16.4418 H   0  0  0  0  0  0
  -28.1805  -18.0512   15.4750 H   0  0  0  0  0  0
  -25.9039  -20.0053   19.6526 H   0  0  0  0  0  0
  -26.3268  -21.7083   19.4521 H   0  0  0  0  0  0
  -26.8776  -20.8104   20.8849 H   0  0  0  0  0  0
  -28.6604  -23.7982   19.5217 H   0  0  0  0  0  0
  -30.1064  -24.3871   20.2920 H   0  0  0  0  0  0
  -27.9949  -22.5782   21.5829 H   0  0  0  0  0  0
  -29.3323  -23.2229   22.4593 H   0  0  0  0  0  0
  -28.6649  -25.6674   21.9546 H   0  0  0  0  0  0
  -27.2436  -25.1135   21.1407 H   0  0  0  0  0  0
  -30.9069  -21.7912   21.5224 H   0  0  0  0  0  0
  -30.0955  -21.5711   20.0351 H   0  0  0  0  0  0
  -29.4559  -15.1524   22.0130 H   0  0  0  0  0  0
  1 25  1  0  0  0
  1 30  2  0  0  0
  1 86  1  0  0  0
  2  3  1  0  0  0
  2 25  1  0  0  0
  2 89  1  0  0  0
  2 90  1  0  0  0
  3  4  1  0  0  0
  3 91  1  0  0  0
  3 92  1  0  0  0
  4  5  1  0  0  0
  4 93  1  0  0  0
  4 94  1  0  0  0
  5  6  1  0  0  0
  5 26  1  0  0  0
  5 95  1  0  0  0
  6 25  1  0  0  0
  6 96  1  0  0  0
  6 97  1  0  0  0
  7  8  2  0  0  0
  7 26  1  0  0  0
  7 29  1  0  0  0
  8  9  1  0  0  0
  8 22  1  0  0  0
  9 10  1  0  0  0
  9 27  2  0  0  0
 10 11  2  0  0  0
 10 15  1  0  0  0
 11 12  1  0  0  0
 11 98  1  0  0  0
 12 13  2  0  0  0
 12 99  1  0  0  0
 13 14  1  0  0  0
 13 31  1  0  0  0
 14 15  2  0  0  0
 14100  1  0  0  0
 15101  1  0  0  0
 16 17  2  0  0  0
 16 21  1  0  0  0
 16 31  1  0  0  0
 17 18  1  0  0  0
 17102  1  0  0  0
 18 19  2  0  0  0
 18103  1  0  0  0
 19 20  1  0  0  0
 19 24  1  0  0  0
 20 21  2  0  0  0
 20104  1  0  0  0
 21 23  1  0  0  0
 22 28  1  0  0  0
 22 32  2  0  0  0
 26 27  1  0  0  0
 28105  1  0  0  0
 28106  1  0  0  0
 29107  1  0  0  0
 29108  1  0  0  0
 33 34  1  0  0  0
 33 66  1  0  0  0
 33 70  2  0  0  0
 34 36  1  0  0  0
 34 59  1  0  0  0
 34109  1  0  0  0
 35 44  2  0  0  0
 35 45  1  0  0  0
 35 68  1  0  0  0
 36 56  1  0  0  0
 36110  1  0  0  0
 37 39  1  0  0  0
 37 47  1  0  0  0
 37 66  1  0  0  0
 37111  1  0  0  0
 38 43  2  0  0  0
 38 46  1  0  0  0
 38 47  1  0  0  0
 39 64  1  0  0  0
 39 67  2  0  0  0
 40 52  1  0  0  0
 40 53  2  0  0  0
 40 58  1  0  0  0
 41112  1  0  0  0
 41113  1  0  0  0
 41114  1  0  0  0
 41 48  1  0  0  0
 42 43  1  0  0  0
 42 66  1  0  0  0
 42115  1  0  0  0
 42116  1  0  0  0
 43 44  1  0  0  0
 44117  1  0  0  0
 45 46  2  0  0  0
 45118  1  0  0  0
 46119  1  0  0  0
 47120  1  0  0  0
 47121  1  0  0  0
 48 56  1  0  0  0
 48 65  1  0  0  0
 48122  1  0  0  0
 49 50  1  0  0  0
 49 53  1  0  0  0
 49 64  1  0  0  0
 49123  1  0  0  0
 50 51  1  0  0  0
 50124  1  0  0  0
 50125  1  0  0  0
 51 52  1  0  0  0
 51126  1  0  0  0
 51127  1  0  0  0
 52128  1  0  0  0
 52129  1  0  0  0
 53 54  1  0  0  0
 54 55  2  0  0  0
 54130  1  0  0  0
 55 57  1  0  0  0
 55131  1  0  0  0
 56 69  2  0  0  0
 57 58  2  0  0  0
 57132  1  0  0  0
 58133  1  0  0  0
 59 60  1  0  0  0
 59 61  1  0  0  0
 59 62  1  0  0  0
 60134  1  0  0  0
 60135  1  0  0  0
 60136  1  0  0  0
 61137  1  0  0  0
 61138  1  0  0  0
 61139  1  0  0  0
 62140  1  0  0  0
 62141  1  0  0  0
 62142  1  0  0  0
 63 65  1  0  0  0
 63143  1  0  0  0
 63144  1  0  0  0
 63145  1  0  0  0
 64146  1  0  0  0
 65147  1  0  0  0
 68 84  1  0  0  0
 71 73  2  0  0  0
 71 75  1  0  0  0
 71148  1  0  0  0
 72 75  2  0  0  0
 72 76  1  0  0  0
 72149  1  0  0  0
 73 74  1  0  0  0
 73 78  1  0  0  0
 74 76  2  0  0  0
 74 79  1  0  0  0
 75 86  1  0  0  0
 76 88  1  0  0  0
 77 78  2  0  0  0
 77150  1  0  0  0
 77151  1  0  0  0
 78 80  1  0  0  0
 79 81  1  0  0  0
 79 87  2  0  0  0
 80152  1  0  0  0
 80153  1  0  0  0
 80154  1  0  0  0
 81155  1  0  0  0
 81156  1  0  0  0
 81157  1  0  0  0
 82 83  1  0  0  0
 82 84  1  0  0  0
 82158  1  0  0  0
 82159  1  0  0  0
 83 85  1  0  0  0
 83160  1  0  0  0
 83161  1  0  0  0
 84162  1  0  0  0
 84163  1  0  0  0
 85 88  1  0  0  0
 85164  1  0  0  0
 85165  1  0  0  0
 86166  1  0  0  0
M  ISO  4   1 100  68 101  84 101  86 100
M  END
> <chiral flag>
0

> <version>
0

> <s_m_source_file>
/data/baiqing/PycharmProjects/Reinvent-master-3.2/result/LINK_invent/BTK/process_docking_weight1_custom_product_contain_oxygen_bond_distance_aromatic_linkinvent_7_9_3/rearranged_h_0119.sdf

> <i_m_source_file_index>
80

> <r_mmod_Potential_Energy-OPLS-2005>
124.435623168945

> <r_mmod_Stretch_Energy-OPLS-2005>
58.1139106750488

> <r_mmod_Bend_Energy-OPLS-2005>
115.814865112305

> <r_mmod_Torsional_Energy-OPLS-2005>
365.987854003906

> <r_mmod_Improper_Torsional_Energy-OPLS-2005>
5.78481388092041

> <r_mmod_Van_der_Waal_Energy-OPLS-2005>
140.147811889648

> <r_mmod_Electrostatic_Energy-OPLS-2005>
-367.859375

> <r_mmod_Solvation_Energy-OPLS-2005>
-212.753082275391

> <b_mmod_Minimization_Converged-OPLS-2005>
0

> <r_mmod_RMS_Derivative-OPLS-2005>
4.85253953933716

$$$$
80
                    3D
 Structure written by MMmdl.
153161  0  0  1  0            999 V2000
  -30.5865  -14.7902   20.5187 C   0  0  0  0  0  0
  -30.4416  -12.4938   19.4875 C   0  0  0  0  0  0
  -29.5202  -12.5423   18.2474 C   0  0  0  0  0  0
  -28.0467  -12.3491   18.6535 C   0  0  0  0  0  0
  -27.6492  -13.2338   19.8642 C   0  0  2  0  0  0
  -28.6888  -13.1451   21.0034 C   0  0  0  0  0  0
  -25.2530  -13.8196   20.5691 C   0  0  0  0  0  0
  -24.1807  -13.0439   20.9165 C   0  0  0  0  0  0
  -24.6401  -11.6914   20.8712 C   0  0  0  0  0  0
  -23.9073  -10.4295   21.0391 C   0  0  0  0  0  0
  -24.3618   -9.4213   21.9173 C   0  0  0  0  0  0
  -23.6291   -8.2249   22.0752 C   0  0  0  0  0  0
  -22.4272   -8.0282   21.3546 C   0  0  0  0  0  0
  -21.9910   -9.0255   20.4649 C   0  0  0  0  0  0
  -22.7241  -10.2130   20.3051 C   0  0  0  0  0  0
  -21.6858   -6.0731   22.5275 C   0  0  0  0  0  0
  -21.4016   -6.5634   23.8207 C   0  0  0  0  0  0
  -21.3661   -5.6786   24.9168 C   0  0  0  0  0  0
  -21.6046   -4.3050   24.7223 C   0  0  0  0  0  0
  -21.8817   -3.8141   23.4344 C   0  0  0  0  0  0
  -21.9192   -4.6957   22.3399 C   0  0  0  0  0  0
  -22.7828  -13.5230   21.1833 C   0  0  0  0  0  0
  -22.1658   -4.2143   21.0978 F   0  0  0  0  0  0
  -21.5635   -3.4536   25.7737 F   0  0  0  0  0  0
  -29.9917  -13.5390   20.4451 N   0  0  0  0  0  0
  -26.2968  -12.9405   20.3310 N   0  0  0  0  0  0
  -25.9338  -11.6542   20.5729 N   0  0  0  0  0  0
  -22.0468  -12.8235   22.0397 N   0  0  0  0  0  0
  -25.4251  -15.1919   20.4155 N   0  0  0  0  0  0
  -31.6849  -14.9480   19.9775 O   0  0  0  0  0  0
  -21.6639   -6.8876   21.4239 O   0  0  0  0  0  0
  -22.3511  -14.5536   20.6684 O   0  0  0  0  0  0
  -24.6334  -31.8494   23.1922 C   0  0  0  0  0  0
  -25.9148  -32.4719   23.8287 C   0  0  1  0  0  0
  -27.2306  -27.2278   20.1289 C   0  0  0  0  0  0
  -25.5929  -33.8523   24.2210 N   0  0  0  0  0  0
  -23.4340  -30.4672   21.5342 C   0  0  2  0  0  0
  -24.8853  -28.9047   20.0991 C   0  0  0  0  0  0
  -22.7521  -29.4567   22.4877 C   0  0  0  0  0  0
  -18.0294  -28.1397   22.8481 C   0  0  0  0  0  0
  -24.1491  -36.7271   23.2642 C   0  0  0  0  0  0
  -25.9798  -30.7482   21.3796 C   0  0  0  0  0  0
  -26.0513  -29.3676   20.7198 C   0  0  0  0  0  0
  -27.2185  -28.5360   20.7320 C   0  0  0  0  0  0
  -26.0469  -26.8374   19.4692 C   0  0  0  0  0  0
  -24.8897  -27.6498   19.4635 C   0  0  0  0  0  0
  -23.6545  -29.7935   20.1511 C   0  0  0  0  0  0
  -25.4119  -36.3047   24.0319 C   0  0  1  0  0  0
  -20.5901  -28.3707   23.1260 C   0  0  2  0  0  0
  -20.6778  -26.9418   22.5411 C   0  0  0  0  0  0
  -19.5754  -26.6383   21.5214 C   0  0  0  0  0  0
  -18.1934  -26.7940   22.1623 C   0  0  0  0  0  0
  -19.1550  -28.8869   23.2865 C   0  0  0  0  0  0
  -18.9471  -30.1470   23.8882 C   0  0  0  0  0  0
  -17.6469  -30.6595   24.0559 C   0  0  0  0  0  0
  -25.9064  -34.9419   23.5074 C   0  0  0  0  0  0
  -16.5359  -29.9090   23.6336 C   0  0  0  0  0  0
  -16.7282  -28.6511   23.0354 C   0  0  0  0  0  0
  -26.4501  -31.6573   25.0707 C   0  0  0  0  0  0
  -25.3707  -31.3744   26.1418 C   0  0  0  0  0  0
  -27.0360  -30.2982   24.6246 C   0  0  0  0  0  0
  -27.6050  -32.4324   25.7480 C   0  0  0  0  0  0
  -27.5578  -37.1787   24.8462 C   0  0  0  0  0  0
  -21.4221  -29.3040   22.3635 N   0  0  0  0  0  0
  -26.4289  -37.3752   23.9406 N   0  0  0  0  0  0
  -24.7011  -31.0422   22.0911 N   0  0  0  0  0  0
  -23.4202  -28.8123   23.3005 O   0  0  0  0  0  0
  -28.3106  -26.3200   20.2866 O   0  0  0  0  0  0
  -26.5649  -34.8911   22.4652 O   0  0  0  0  0  0
  -23.5476  -32.1334   23.7195 O   0  0  0  0  0  0
  -28.8863  -19.2739   18.0909 C   0  0  0  0  0  0
  -29.2250  -18.2105   18.9559 C   0  0  0  0  0  0
  -28.8122  -20.6149   18.5361 C   0  0  0  0  0  0
  -29.4307  -19.8555   20.7390 C   0  0  0  0  0  0
  -29.4639  -18.4440   20.3224 C   0  0  0  0  0  0
  -29.1142  -20.9895   19.8646 C   0  0  0  0  0  0
  -29.6136  -17.2316   21.2824 C   0  0  0  0  0  0
  -29.9471  -15.8668   21.3688 C   0  0  0  0  0  0
  -28.3756  -23.5602   19.7154 C   0  0  0  0  0  0
  -29.2410  -22.5362   20.1222 C   0  0  0  0  0  0
  -30.5917  -22.9000   20.7083 C   0  0  0  0  0  0
  -28.6198  -25.1329   19.4131 C   0  0  0  0  0  0
  -31.4821  -12.6287   19.1880 H   0  0  0  0  0  0
  -30.4009  -11.5091   19.9561 H   0  0  0  0  0  0
  -29.8145  -11.7784   17.5268 H   0  0  0  0  0  0
  -29.6387  -13.5028   17.7430 H   0  0  0  0  0  0
  -27.9083  -11.2971   18.9042 H   0  0  0  0  0  0
  -27.3916  -12.5494   17.8050 H   0  0  0  0  0  0
  -27.6529  -14.2631   19.5030 H   0  0  0  0  0  0
  -28.7362  -12.1312   21.4044 H   0  0  0  0  0  0
  -28.3887  -13.7787   21.8375 H   0  0  0  0  0  0
  -25.2762   -9.5692   22.4746 H   0  0  0  0  0  0
  -23.9999   -7.4648   22.7478 H   0  0  0  0  0  0
  -21.0837   -8.8777   19.8963 H   0  0  0  0  0  0
  -22.3696  -10.9664   19.6160 H   0  0  0  0  0  0
  -21.2007   -7.6141   23.9710 H   0  0  0  0  0  0
  -21.1489   -6.0515   25.9072 H   0  0  0  0  0  0
  -22.0598   -2.7606   23.2843 H   0  0  0  0  0  0
  -22.4079  -11.9909   22.4812 H   0  0  0  0  0  0
  -21.1086  -13.1279   22.2591 H   0  0  0  0  0  0
  -24.6671  -15.8530   20.5443 H   0  0  0  0  0  0
  -26.2944  -15.6342   20.1435 H   0  0  0  0  0  0
  -26.7212  -32.5349   23.1021 H   0  0  0  0  0  0
  -25.0042  -33.9644   25.0333 H   0  0  0  0  0  0
  -22.7326  -31.2899   21.3824 H   0  0  0  0  0  0
  -23.3755  -35.9602   23.3293 H   0  0  0  0  0  0
  -24.3578  -36.8911   22.2059 H   0  0  0  0  0  0
  -23.7245  -37.6466   23.6682 H   0  0  0  0  0  0
  -26.1281  -31.5077   20.6105 H   0  0  0  0  0  0
  -26.8531  -30.7946   22.0186 H   0  0  0  0  0  0
  -28.1033  -28.8757   21.2518 H   0  0  0  0  0  0
  -25.9859  -25.8632   19.0061 H   0  0  0  0  0  0
  -23.9945  -27.2880   18.9769 H   0  0  0  0  0  0
  -23.7773  -30.5665   19.3917 H   0  0  0  0  0  0
  -22.7731  -29.2248   19.8489 H   0  0  0  0  0  0
  -25.1307  -36.1880   25.0811 H   0  0  0  0  0  0
  -20.9994  -28.3293   24.1380 H   0  0  0  0  0  0
  -20.5672  -26.2319   23.3622 H   0  0  0  0  0  0
  -21.6646  -26.7433   22.1209 H   0  0  0  0  0  0
  -19.6913  -25.6287   21.1260 H   0  0  0  0  0  0
  -19.6699  -27.3180   20.6733 H   0  0  0  0  0  0
  -17.4206  -26.6688   21.4024 H   0  0  0  0  0  0
  -18.0332  -26.0088   22.9023 H   0  0  0  0  0  0
  -19.7945  -30.7291   24.2247 H   0  0  0  0  0  0
  -17.5023  -31.6275   24.5158 H   0  0  0  0  0  0
  -15.5360  -30.2985   23.7669 H   0  0  0  0  0  0
  -15.8683  -28.0823   22.7076 H   0  0  0  0  0  0
  -24.5876  -30.7107   25.7733 H   0  0  0  0  0  0
  -24.8907  -32.2921   26.4824 H   0  0  0  0  0  0
  -25.8001  -30.8919   27.0206 H   0  0  0  0  0  0
  -26.2960  -29.6712   24.1262 H   0  0  0  0  0  0
  -27.4005  -29.7271   25.4794 H   0  0  0  0  0  0
  -27.8852  -30.4236   23.9526 H   0  0  0  0  0  0
  -27.2660  -33.3632   26.2037 H   0  0  0  0  0  0
  -28.3868  -32.6871   25.0313 H   0  0  0  0  0  0
  -28.0714  -31.8466   26.5410 H   0  0  0  0  0  0
  -28.2586  -38.0092   24.7512 H   0  0  0  0  0  0
  -28.1084  -36.2623   24.6283 H   0  0  0  0  0  0
  -27.2299  -37.1427   25.8865 H   0  0  0  0  0  0
  -20.9418  -29.8750   21.6820 H   0  0  0  0  0  0
  -26.0163  -38.2824   24.1404 H   0  0  0  0  0  0
  -28.6783  -19.0543   17.0528 H   0  0  0  0  0  0
  -29.2376  -17.1991   18.5726 H   0  0  0  0  0  0
  -28.5814  -21.3833   17.8110 H   0  0  0  0  0  0
  -29.6546  -20.0770   21.7730 H   0  0  0  0  0  0
  -29.2506  -17.5553   22.2483 H   0  0  0  0  0  0
  -29.7568  -15.4845   22.3609 H   0  0  0  0  0  0
  -27.3958  -23.2424   19.3888 H   0  0  0  0  0  0
  -30.7571  -22.3561   21.6386 H   0  0  0  0  0  0
  -30.6684  -23.9631   20.9358 H   0  0  0  0  0  0
  -31.3914  -22.6388   20.0151 H   0  0  0  0  0  0
  -28.1872  -25.3240   18.4304 H   0  0  0  0  0  0
  -29.6910  -25.2190   19.2334 H   0  0  0  0  0  0
  1 25  1  0  0  0
  1 30  2  0  0  0
  1 78  1  0  0  0
  2  3  1  0  0  0
  2 25  1  0  0  0
  2 83  1  0  0  0
  2 84  1  0  0  0
  3  4  1  0  0  0
  3 85  1  0  0  0
  3 86  1  0  0  0
  4  5  1  0  0  0
  4 87  1  0  0  0
  4 88  1  0  0  0
  5  6  1  0  0  0
  5 26  1  0  0  0
  5 89  1  0  0  0
  6 25  1  0  0  0
  6 90  1  0  0  0
  6 91  1  0  0  0
  7  8  2  0  0  0
  7 26  1  0  0  0
  7 29  1  0  0  0
  8  9  1  0  0  0
  8 22  1  0  0  0
  9 10  1  0  0  0
  9 27  2  0  0  0
 10 11  2  0  0  0
 10 15  1  0  0  0
 11 12  1  0  0  0
 11 92  1  0  0  0
 12 13  2  0  0  0
 12 93  1  0  0  0
 13 14  1  0  0  0
 13 31  1  0  0  0
 14 15  2  0  0  0
 14 94  1  0  0  0
 15 95  1  0  0  0
 16 17  2  0  0  0
 16 21  1  0  0  0
 16 31  1  0  0  0
 17 18  1  0  0  0
 17 96  1  0  0  0
 18 19  2  0  0  0
 18 97  1  0  0  0
 19 20  1  0  0  0
 19 24  1  0  0  0
 20 21  2  0  0  0
 20 98  1  0  0  0
 21 23  1  0  0  0
 22 28  1  0  0  0
 22 32  2  0  0  0
 26 27  1  0  0  0
 28 99  1  0  0  0
 28100  1  0  0  0
 29101  1  0  0  0
 29102  1  0  0  0
 33 34  1  0  0  0
 33 66  1  0  0  0
 33 70  2  0  0  0
 34 36  1  0  0  0
 34 59  1  0  0  0
 34103  1  0  0  0
 35 44  2  0  0  0
 35 45  1  0  0  0
 35 68  1  0  0  0
 36 56  1  0  0  0
 36104  1  0  0  0
 37 39  1  0  0  0
 37 47  1  0  0  0
 37 66  1  0  0  0
 37105  1  0  0  0
 38 43  2  0  0  0
 38 46  1  0  0  0
 38 47  1  0  0  0
 39 64  1  0  0  0
 39 67  2  0  0  0
 40 52  1  0  0  0
 40 53  2  0  0  0
 40 58  1  0  0  0
 41106  1  0  0  0
 41107  1  0  0  0
 41108  1  0  0  0
 41 48  1  0  0  0
 42 43  1  0  0  0
 42 66  1  0  0  0
 42109  1  0  0  0
 42110  1  0  0  0
 43 44  1  0  0  0
 44111  1  0  0  0
 45 46  2  0  0  0
 45112  1  0  0  0
 46113  1  0  0  0
 47114  1  0  0  0
 47115  1  0  0  0
 48 56  1  0  0  0
 48 65  1  0  0  0
 48116  1  0  0  0
 49 50  1  0  0  0
 49 53  1  0  0  0
 49 64  1  0  0  0
 49117  1  0  0  0
 50 51  1  0  0  0
 50118  1  0  0  0
 50119  1  0  0  0
 51 52  1  0  0  0
 51120  1  0  0  0
 51121  1  0  0  0
 52122  1  0  0  0
 52123  1  0  0  0
 53 54  1  0  0  0
 54 55  2  0  0  0
 54124  1  0  0  0
 55 57  1  0  0  0
 55125  1  0  0  0
 56 69  2  0  0  0
 57 58  2  0  0  0
 57126  1  0  0  0
 58127  1  0  0  0
 59 60  1  0  0  0
 59 61  1  0  0  0
 59 62  1  0  0  0
 60128  1  0  0  0
 60129  1  0  0  0
 60130  1  0  0  0
 61131  1  0  0  0
 61132  1  0  0  0
 61133  1  0  0  0
 62134  1  0  0  0
 62135  1  0  0  0
 62136  1  0  0  0
 63 65  1  0  0  0
 63137  1  0  0  0
 63138  1  0  0  0
 63139  1  0  0  0
 64140  1  0  0  0
 65141  1  0  0  0
 68 82  1  0  0  0
 71 72  2  0  0  0
 71 73  1  0  0  0
 71142  1  0  0  0
 72 75  1  0  0  0
 72143  1  0  0  0
 73 76  2  0  0  0
 73144  1  0  0  0
 74 75  2  0  0  0
 74 76  1  0  0  0
 74145  1  0  0  0
 75 77  1  0  0  0
 76 80  1  0  0  0
 77 78  2  0  0  0
 77146  1  0  0  0
 78147  1  0  0  0
 79 80  2  0  0  0
 79 82  1  0  0  0
 79148  1  0  0  0
 80 81  1  0  0  0
 81149  1  0  0  0
 81150  1  0  0  0
 81151  1  0  0  0
 82152  1  0  0  0
 82153  1  0  0  0
M  ISO  4   1 100  68 101  78 100  82 101
M  END
> <chiral flag>
0

> <version>
0

> <s_m_source_file>
/data/baiqing/PycharmProjects/Reinvent-master-3.2/result/LINK_invent/BTK/process_docking_weight1_custom_product_contain_oxygen_bond_distance_aromatic_linkinvent_7_9_3/rearranged_h_0119.sdf

> <i_m_source_file_index>
81

> <r_mmod_Potential_Energy-OPLS-2005>
387.431793212891

> <r_mmod_Stretch_Energy-OPLS-2005>
152.854965209961

> <r_mmod_Bend_Energy-OPLS-2005>
280.888824462891

> <r_mmod_Torsional_Energy-OPLS-2005>
224.401245117188

> <r_mmod_Improper_Torsional_Energy-OPLS-2005>
11.5331974029541

> <r_mmod_Van_der_Waal_Energy-OPLS-2005>
130.556304931641

> <r_mmod_Electrostatic_Energy-OPLS-2005>
-330.10986328125

> <r_mmod_Solvation_Energy-OPLS-2005>
-192.762985229492

> <b_mmod_Minimization_Converged-OPLS-2005>
0

> <r_mmod_RMS_Derivative-OPLS-2005>
0.836833000183105

$$$$
81
                    3D
 Structure written by MMmdl.
161169  0  0  1  0            999 V2000
  -30.6908  -14.5021   20.5027 C   0  0  0  0  0  0
  -30.4224  -12.3035   19.4377 C   0  0  0  0  0  0
  -29.5006  -12.4882   18.2130 C   0  0  0  0  0  0
  -28.0214  -12.3519   18.6243 C   0  0  0  0  0  0
  -27.6579  -13.2101   19.8663 C   0  0  2  0  0  0
  -28.7013  -13.0294   20.9952 C   0  0  0  0  0  0
  -25.2568  -13.8172   20.5672 C   0  0  0  0  0  0
  -24.1818  -13.0442   20.9179 C   0  0  0  0  0  0
  -24.6381  -11.6910   20.8741 C   0  0  0  0  0  0
  -23.9052  -10.4297   21.0414 C   0  0  0  0  0  0
  -24.3609   -9.4207   21.9192 C   0  0  0  0  0  0
  -23.6276   -8.2248   22.0767 C   0  0  0  0  0  0
  -22.4250   -8.0291   21.3572 C   0  0  0  0  0  0
  -21.9885   -9.0263   20.4663 C   0  0  0  0  0  0
  -22.7225  -10.2136   20.3060 C   0  0  0  0  0  0
  -21.6850   -6.0724   22.5274 C   0  0  0  0  0  0
  -21.4021   -6.5630   23.8207 C   0  0  0  0  0  0
  -21.3664   -5.6796   24.9172 C   0  0  0  0  0  0
  -21.6038   -4.3049   24.7228 C   0  0  0  0  0  0
  -21.8820   -3.8141   23.4350 C   0  0  0  0  0  0
  -21.9189   -4.6956   22.3403 C   0  0  0  0  0  0
  -22.7829  -13.5243   21.1843 C   0  0  0  0  0  0
  -22.1654   -4.2138   21.0979 F   0  0  0  0  0  0
  -21.5631   -3.4535   25.7750 F   0  0  0  0  0  0
  -30.0309  -13.3136   20.4334 N   0  0  0  0  0  0
  -26.3001  -12.9346   20.3326 N   0  0  0  0  0  0
  -25.9309  -11.6503   20.5752 N   0  0  0  0  0  0
  -22.0459  -12.8257   22.0394 N   0  0  0  0  0  0
  -25.4281  -15.1892   20.4080 N   0  0  0  0  0  0
  -31.8535  -14.6398   20.1169 O   0  0  0  0  0  0
  -21.6636   -6.8871   21.4240 O   0  0  0  0  0  0
  -22.3522  -14.5544   20.6682 O   0  0  0  0  0  0
  -24.6170  -31.8658   23.2111 C   0  0  0  0  0  0
  -25.9060  -32.4810   23.8408 C   0  0  1  0  0  0
  -27.2260  -27.4098   20.1016 C   0  0  0  0  0  0
  -25.5917  -33.8610   24.2341 N   0  0  0  0  0  0
  -23.4064  -30.4912   21.5509 C   0  0  2  0  0  0
  -24.8519  -28.9622   20.1073 C   0  0  0  0  0  0
  -22.7428  -29.4636   22.4971 C   0  0  0  0  0  0
  -18.0282  -28.1368   22.8478 C   0  0  0  0  0  0
  -24.1485  -36.7307   23.2636 C   0  0  0  0  0  0
  -25.9392  -30.8239   21.3695 C   0  0  0  0  0  0
  -26.0135  -29.4601   20.7104 C   0  0  0  0  0  0
  -27.2052  -28.6944   20.6987 C   0  0  0  0  0  0
  -26.0456  -26.9386   19.4810 C   0  0  0  0  0  0
  -24.8660  -27.7042   19.4835 C   0  0  0  0  0  0
  -23.6158  -29.8324   20.1616 C   0  0  0  0  0  0
  -25.4101  -36.3102   24.0338 C   0  0  1  0  0  0
  -20.5866  -28.3653   23.1312 C   0  0  2  0  0  0
  -20.6773  -26.9388   22.5413 C   0  0  0  0  0  0
  -19.5758  -26.6379   21.5204 C   0  0  0  0  0  0
  -18.1930  -26.7921   22.1606 C   0  0  0  0  0  0
  -19.1527  -28.8832   23.2894 C   0  0  0  0  0  0
  -18.9451  -30.1439   23.8904 C   0  0  0  0  0  0
  -17.6450  -30.6569   24.0560 C   0  0  0  0  0  0
  -25.9026  -34.9465   23.5130 C   0  0  0  0  0  0
  -16.5349  -29.9065   23.6328 C   0  0  0  0  0  0
  -16.7265  -28.6491   23.0341 C   0  0  0  0  0  0
  -26.4488  -31.6587   25.0735 C   0  0  0  0  0  0
  -25.3772  -31.3683   26.1496 C   0  0  0  0  0  0
  -27.0308  -30.3027   24.6108 C   0  0  0  0  0  0
  -27.6073  -32.4300   25.7489 C   0  0  0  0  0  0
  -27.5576  -37.1804   24.8458 C   0  0  0  0  0  0
  -21.4152  -29.3020   22.3716 N   0  0  0  0  0  0
  -26.4286  -37.3786   23.9410 N   0  0  0  0  0  0
  -24.6726  -31.0748   22.1022 N   0  0  0  0  0  0
  -23.4197  -28.8169   23.3012 O   0  0  0  0  0  0
  -28.3731  -26.6346   20.1462 O   0  0  0  0  0  0
  -26.5570  -34.8914   22.4681 O   0  0  0  0  0  0
  -23.5362  -32.1426   23.7499 O   0  0  0  0  0  0
  -28.9877  -18.9472   23.3736 C   0  0  0  0  0  0
  -29.2972  -17.8668   22.5285 C   0  0  0  0  0  0
  -29.9736  -19.4479   20.8149 C   0  0  0  0  0  0
  -29.1916  -20.2892   22.9702 C   0  0  0  0  0  0
  -29.6606  -20.5550   21.6488 C   0  0  0  0  0  0
  -29.8160  -18.1045   21.2434 C   0  0  0  0  0  0
  -28.9359  -21.3718   23.9444 C   0  0  0  0  0  0
  -29.8454  -21.9262   21.0788 C   0  0  0  0  0  0
  -28.1270  -21.3123   25.0178 C   0  0  0  0  0  0
  -29.1125  -23.0405   21.3212 C   0  0  0  0  0  0
  -27.9322  -22.4544   25.9911 C   0  0  0  0  0  0
  -30.2371  -16.9539   20.3197 C   0  0  0  0  0  0
  -29.4095  -24.4529   20.7994 C   0  0  0  0  0  0
  -28.1687  -25.2069   20.2589 C   0  0  0  0  0  0
  -29.9210  -15.5788   20.7602 N   0  0  0  0  0  0
  -31.4690  -12.3870   19.1399 H   0  0  0  0  0  0
  -30.3132  -11.3007   19.8546 H   0  0  0  0  0  0
  -29.7442  -11.7543   17.4434 H   0  0  0  0  0  0
  -29.6737  -13.4670   17.7621 H   0  0  0  0  0  0
  -27.8376  -11.2986   18.8400 H   0  0  0  0  0  0
  -27.3732  -12.6091   17.7861 H   0  0  0  0  0  0
  -27.6900  -14.2508   19.5442 H   0  0  0  0  0  0
  -28.6724  -12.0114   21.3860 H   0  0  0  0  0  0
  -28.4743  -13.6792   21.8423 H   0  0  0  0  0  0
  -25.2755   -9.5689   22.4768 H   0  0  0  0  0  0
  -23.9997   -7.4631   22.7476 H   0  0  0  0  0  0
  -21.0826   -8.8782   19.8955 H   0  0  0  0  0  0
  -22.3695  -10.9680   19.6166 H   0  0  0  0  0  0
  -21.2022   -7.6142   23.9713 H   0  0  0  0  0  0
  -21.1481   -6.0520   25.9081 H   0  0  0  0  0  0
  -22.0594   -2.7600   23.2852 H   0  0  0  0  0  0
  -22.4042  -11.9935   22.4840 H   0  0  0  0  0  0
  -21.1079  -13.1321   22.2597 H   0  0  0  0  0  0
  -24.6649  -15.8469   20.5234 H   0  0  0  0  0  0
  -26.2778  -15.6297   20.0800 H   0  0  0  0  0  0
  -26.7124  -32.5503   23.1159 H   0  0  0  0  0  0
  -25.0124  -33.9789   25.0527 H   0  0  0  0  0  0
  -22.6947  -31.3081   21.4156 H   0  0  0  0  0  0
  -23.3745  -35.9640   23.3301 H   0  0  0  0  0  0
  -24.3586  -36.8919   22.2049 H   0  0  0  0  0  0
  -23.7244  -37.6515   23.6648 H   0  0  0  0  0  0
  -26.0599  -31.5934   20.6056 H   0  0  0  0  0  0
  -26.8244  -30.8711   21.9921 H   0  0  0  0  0  0
  -28.1001  -29.0700   21.1735 H   0  0  0  0  0  0
  -26.0193  -25.9770   18.9890 H   0  0  0  0  0  0
  -23.9767  -27.3234   18.9997 H   0  0  0  0  0  0
  -23.7279  -30.6145   19.4095 H   0  0  0  0  0  0
  -22.7392  -29.2565   19.8596 H   0  0  0  0  0  0
  -25.1278  -36.1960   25.0831 H   0  0  0  0  0  0
  -20.9956  -28.3218   24.1434 H   0  0  0  0  0  0
  -20.5679  -26.2249   23.3592 H   0  0  0  0  0  0
  -21.6642  -26.7433   22.1204 H   0  0  0  0  0  0
  -19.6914  -25.6295   21.1225 H   0  0  0  0  0  0
  -19.6706  -27.3197   20.6743 H   0  0  0  0  0  0
  -17.4202  -26.6674   21.4001 H   0  0  0  0  0  0
  -18.0319  -26.0060   22.9000 H   0  0  0  0  0  0
  -19.7925  -30.7253   24.2273 H   0  0  0  0  0  0
  -17.5002  -31.6254   24.5155 H   0  0  0  0  0  0
  -15.5342  -30.2957   23.7660 H   0  0  0  0  0  0
  -15.8671  -28.0810   22.7044 H   0  0  0  0  0  0
  -24.5938  -30.7027   25.7851 H   0  0  0  0  0  0
  -24.8970  -32.2829   26.4985 H   0  0  0  0  0  0
  -25.8152  -30.8835   27.0231 H   0  0  0  0  0  0
  -26.2834  -29.6784   24.1191 H   0  0  0  0  0  0
  -27.4112  -29.7264   25.4553 H   0  0  0  0  0  0
  -27.8666  -30.4347   23.9233 H   0  0  0  0  0  0
  -27.2699  -33.3581   26.2116 H   0  0  0  0  0  0
  -28.3852  -32.6885   25.0292 H   0  0  0  0  0  0
  -28.0772  -31.8390   26.5363 H   0  0  0  0  0  0
  -28.2591  -38.0102   24.7504 H   0  0  0  0  0  0
  -28.1072  -36.2636   24.6272 H   0  0  0  0  0  0
  -27.2301  -37.1448   25.8864 H   0  0  0  0  0  0
  -20.9304  -29.8746   21.6945 H   0  0  0  0  0  0
  -26.0170  -38.2858   24.1423 H   0  0  0  0  0  0
  -28.6330  -18.7196   24.3681 H   0  0  0  0  0  0
  -29.1581  -16.8592   22.8949 H   0  0  0  0  0  0
  -30.3574  -19.6351   19.8216 H   0  0  0  0  0  0
  -29.4868  -22.2881   23.7902 H   0  0  0  0  0  0
  -30.6983  -22.0273   20.4221 H   0  0  0  0  0  0
  -27.5616  -20.4170   25.2349 H   0  0  0  0  0  0
  -28.2445  -22.9684   21.9614 H   0  0  0  0  0  0
  -28.5052  -23.3350   25.6955 H   0  0  0  0  0  0
  -28.2532  -22.1567   26.9898 H   0  0  0  0  0  0
  -26.8793  -22.7339   26.0376 H   0  0  0  0  0  0
  -31.3067  -17.0700   20.1385 H   0  0  0  0  0  0
  -29.7586  -17.1058   19.3504 H   0  0  0  0  0  0
  -30.1954  -24.4226   20.0435 H   0  0  0  0  0  0
  -29.8145  -25.0163   21.6408 H   0  0  0  0  0  0
  -27.3326  -25.0178   20.9363 H   0  0  0  0  0  0
  -27.8937  -24.7905   19.2893 H   0  0  0  0  0  0
  -28.9637  -15.3952   21.0168 H   0  0  0  0  0  0
  1 25  1  0  0  0
  1 30  2  0  0  0
  1 85  1  0  0  0
  2  3  1  0  0  0
  2 25  1  0  0  0
  2 86  1  0  0  0
  2 87  1  0  0  0
  3  4  1  0  0  0
  3 88  1  0  0  0
  3 89  1  0  0  0
  4  5  1  0  0  0
  4 90  1  0  0  0
  4 91  1  0  0  0
  5  6  1  0  0  0
  5 26  1  0  0  0
  5 92  1  0  0  0
  6 25  1  0  0  0
  6 93  1  0  0  0
  6 94  1  0  0  0
  7  8  2  0  0  0
  7 26  1  0  0  0
  7 29  1  0  0  0
  8  9  1  0  0  0
  8 22  1  0  0  0
  9 10  1  0  0  0
  9 27  2  0  0  0
 10 11  2  0  0  0
 10 15  1  0  0  0
 11 12  1  0  0  0
 11 95  1  0  0  0
 12 13  2  0  0  0
 12 96  1  0  0  0
 13 14  1  0  0  0
 13 31  1  0  0  0
 14 15  2  0  0  0
 14 97  1  0  0  0
 15 98  1  0  0  0
 16 17  2  0  0  0
 16 21  1  0  0  0
 16 31  1  0  0  0
 17 18  1  0  0  0
 17 99  1  0  0  0
 18 19  2  0  0  0
 18100  1  0  0  0
 19 20  1  0  0  0
 19 24  1  0  0  0
 20 21  2  0  0  0
 20101  1  0  0  0
 21 23  1  0  0  0
 22 28  1  0  0  0
 22 32  2  0  0  0
 26 27  1  0  0  0
 28102  1  0  0  0
 28103  1  0  0  0
 29104  1  0  0  0
 29105  1  0  0  0
 33 34  1  0  0  0
 33 66  1  0  0  0
 33 70  2  0  0  0
 34 36  1  0  0  0
 34 59  1  0  0  0
 34106  1  0  0  0
 35 44  2  0  0  0
 35 45  1  0  0  0
 35 68  1  0  0  0
 36 56  1  0  0  0
 36107  1  0  0  0
 37 39  1  0  0  0
 37 47  1  0  0  0
 37 66  1  0  0  0
 37108  1  0  0  0
 38 43  2  0  0  0
 38 46  1  0  0  0
 38 47  1  0  0  0
 39 64  1  0  0  0
 39 67  2  0  0  0
 40 52  1  0  0  0
 40 53  2  0  0  0
 40 58  1  0  0  0
 41109  1  0  0  0
 41110  1  0  0  0
 41111  1  0  0  0
 41 48  1  0  0  0
 42 43  1  0  0  0
 42 66  1  0  0  0
 42112  1  0  0  0
 42113  1  0  0  0
 43 44  1  0  0  0
 44114  1  0  0  0
 45 46  2  0  0  0
 45115  1  0  0  0
 46116  1  0  0  0
 47117  1  0  0  0
 47118  1  0  0  0
 48 56  1  0  0  0
 48 65  1  0  0  0
 48119  1  0  0  0
 49 50  1  0  0  0
 49 53  1  0  0  0
 49 64  1  0  0  0
 49120  1  0  0  0
 50 51  1  0  0  0
 50121  1  0  0  0
 50122  1  0  0  0
 51 52  1  0  0  0
 51123  1  0  0  0
 51124  1  0  0  0
 52125  1  0  0  0
 52126  1  0  0  0
 53 54  1  0  0  0
 54 55  2  0  0  0
 54127  1  0  0  0
 55 57  1  0  0  0
 55128  1  0  0  0
 56 69  2  0  0  0
 57 58  2  0  0  0
 57129  1  0  0  0
 58130  1  0  0  0
 59 60  1  0  0  0
 59 61  1  0  0  0
 59 62  1  0  0  0
 60131  1  0  0  0
 60132  1  0  0  0
 60133  1  0  0  0
 61134  1  0  0  0
 61135  1  0  0  0
 61136  1  0  0  0
 62137  1  0  0  0
 62138  1  0  0  0
 62139  1  0  0  0
 63 65  1  0  0  0
 63140  1  0  0  0
 63141  1  0  0  0
 63142  1  0  0  0
 64143  1  0  0  0
 65144  1  0  0  0
 68 84  1  0  0  0
 71 72  2  0  0  0
 71 74  1  0  0  0
 71145  1  0  0  0
 72 76  1  0  0  0
 72146  1  0  0  0
 73 75  1  0  0  0
 73 76  2  0  0  0
 73147  1  0  0  0
 74 75  2  0  0  0
 74 77  1  0  0  0
 75 78  1  0  0  0
 76 82  1  0  0  0
 77 79  2  0  0  0
 77148  1  0  0  0
 78 80  2  0  0  0
 78149  1  0  0  0
 79 81  1  0  0  0
 79150  1  0  0  0
 80 83  1  0  0  0
 80151  1  0  0  0
 81152  1  0  0  0
 81153  1  0  0  0
 81154  1  0  0  0
 82 85  1  0  0  0
 82155  1  0  0  0
 82156  1  0  0  0
 83 84  1  0  0  0
 83157  1  0  0  0
 83158  1  0  0  0
 84159  1  0  0  0
 84160  1  0  0  0
 85161  1  0  0  0
M  ISO  4   1 100  68 101  84 101  85 100
M  END
> <chiral flag>
0

> <version>
0

> <s_m_source_file>
/data/baiqing/PycharmProjects/Reinvent-master-3.2/result/LINK_invent/BTK/process_docking_weight1_custom_product_contain_oxygen_bond_distance_aromatic_linkinvent_7_9_3/rearranged_h_0119.sdf

> <i_m_source_file_index>
82

> <r_mmod_Potential_Energy-OPLS-2005>
-50.5376243591309

> <r_mmod_Stretch_Energy-OPLS-2005>
42.8371925354004

> <r_mmod_Bend_Energy-OPLS-2005>
95.6566619873047

> <r_mmod_Torsional_Energy-OPLS-2005>
223.405960083008

> <r_mmod_Improper_Torsional_Energy-OPLS-2005>
7.73657035827637

> <r_mmod_Van_der_Waal_Energy-OPLS-2005>
161.843490600586

> <r_mmod_Electrostatic_Energy-OPLS-2005>
-400.695037841797

> <r_mmod_Solvation_Energy-OPLS-2005>
-201.717987060547

> <b_mmod_Minimization_Converged-OPLS-2005>
0

> <r_mmod_RMS_Derivative-OPLS-2005>
2.04853129386902

$$$$
82
                    3D
 Structure written by MMmdl.
163171  0  0  1  0            999 V2000
  -30.7767  -14.4617   20.5474 C   0  0  0  0  0  0
  -30.3897  -12.2920   19.4548 C   0  0  0  0  0  0
  -29.4910  -12.4916   18.2206 C   0  0  0  0  0  0
  -28.0118  -12.3582   18.6263 C   0  0  0  0  0  0
  -27.6508  -13.2265   19.8629 C   0  0  2  0  0  0
  -28.6901  -13.0831   20.9984 C   0  0  0  0  0  0
  -25.2525  -13.8210   20.5700 C   0  0  0  0  0  0
  -24.1803  -13.0454   20.9198 C   0  0  0  0  0  0
  -24.6386  -11.6933   20.8738 C   0  0  0  0  0  0
  -23.9060  -10.4306   21.0396 C   0  0  0  0  0  0
  -24.3613   -9.4217   21.9176 C   0  0  0  0  0  0
  -23.6293   -8.2249   22.0746 C   0  0  0  0  0  0
  -22.4270   -8.0285   21.3543 C   0  0  0  0  0  0
  -21.9906   -9.0255   20.4645 C   0  0  0  0  0  0
  -22.7233  -10.2137   20.3050 C   0  0  0  0  0  0
  -21.6856   -6.0733   22.5280 C   0  0  0  0  0  0
  -21.4017   -6.5636   23.8220 C   0  0  0  0  0  0
  -21.3661   -5.6784   24.9181 C   0  0  0  0  0  0
  -21.6049   -4.3050   24.7226 C   0  0  0  0  0  0
  -21.8816   -3.8146   23.4349 C   0  0  0  0  0  0
  -21.9190   -4.6962   22.3404 C   0  0  0  0  0  0
  -22.7821  -13.5232   21.1860 C   0  0  0  0  0  0
  -22.1660   -4.2153   21.0980 F   0  0  0  0  0  0
  -21.5628   -3.4531   25.7737 F   0  0  0  0  0  0
  -30.0238  -13.3311   20.4371 N   0  0  0  0  0  0
  -26.2969  -12.9422   20.3331 N   0  0  0  0  0  0
  -25.9319  -11.6564   20.5757 N   0  0  0  0  0  0
  -22.0467  -12.8231   22.0420 N   0  0  0  0  0  0
  -25.4204  -15.1937   20.4125 N   0  0  0  0  0  0
  -31.9225  -14.4901   20.0900 O   0  0  0  0  0  0
  -21.6641   -6.8873   21.4240 O   0  0  0  0  0  0
  -22.3499  -14.5530   20.6699 O   0  0  0  0  0  0
  -24.6143  -31.8689   23.2104 C   0  0  0  0  0  0
  -25.9044  -32.4818   23.8403 C   0  0  1  0  0  0
  -27.2222  -27.4324   20.1061 C   0  0  0  0  0  0
  -25.5912  -33.8611   24.2349 N   0  0  0  0  0  0
  -23.4015  -30.4930   21.5496 C   0  0  2  0  0  0
  -24.8477  -28.9564   20.1135 C   0  0  0  0  0  0
  -22.7414  -29.4669   22.4976 C   0  0  0  0  0  0
  -18.0278  -28.1368   22.8490 C   0  0  0  0  0  0
  -24.1492  -36.7314   23.2634 C   0  0  0  0  0  0
  -25.9298  -30.8313   21.3649 C   0  0  0  0  0  0
  -26.0048  -29.4630   20.7194 C   0  0  0  0  0  0
  -27.1968  -28.7048   20.7208 C   0  0  0  0  0  0
  -26.0586  -26.9426   19.4813 C   0  0  0  0  0  0
  -24.8682  -27.6943   19.4915 C   0  0  0  0  0  0
  -23.6115  -29.8268   20.1629 C   0  0  0  0  0  0
  -25.4101  -36.3109   24.0351 C   0  0  1  0  0  0
  -20.5870  -28.3651   23.1318 C   0  0  2  0  0  0
  -20.6763  -26.9383   22.5421 C   0  0  0  0  0  0
  -19.5745  -26.6374   21.5215 C   0  0  0  0  0  0
  -18.1924  -26.7909   22.1626 C   0  0  0  0  0  0
  -19.1527  -28.8823   23.2907 C   0  0  0  0  0  0
  -18.9456  -30.1434   23.8909 C   0  0  0  0  0  0
  -17.6460  -30.6571   24.0566 C   0  0  0  0  0  0
  -25.9027  -34.9471   23.5142 C   0  0  0  0  0  0
  -16.5353  -29.9075   23.6321 C   0  0  0  0  0  0
  -16.7270  -28.6497   23.0331 C   0  0  0  0  0  0
  -26.4480  -31.6565   25.0713 C   0  0  0  0  0  0
  -25.3777  -31.3648   26.1486 C   0  0  0  0  0  0
  -27.0279  -30.3003   24.6055 C   0  0  0  0  0  0
  -27.6089  -32.4245   25.7471 C   0  0  0  0  0  0
  -27.5580  -37.1805   24.8471 C   0  0  0  0  0  0
  -21.4138  -29.3025   22.3723 N   0  0  0  0  0  0
  -26.4289  -37.3793   23.9419 N   0  0  0  0  0  0
  -24.6660  -31.0799   22.0996 N   0  0  0  0  0  0
  -23.4197  -28.8215   23.3015 O   0  0  0  0  0  0
  -28.3530  -26.6538   20.0733 O   0  0  0  0  0  0
  -26.5583  -34.8927   22.4700 O   0  0  0  0  0  0
  -23.5341  -32.1456   23.7506 O   0  0  0  0  0  0
  -31.9881  -18.7748   22.2215 C   0  0  0  0  0  0
  -29.7707  -18.9551   21.2558 C   0  0  0  0  0  0
  -30.8622  -18.1451   21.6563 C   0  0  0  0  0  0
  -32.1094  -20.1750   22.2791 C   0  0  0  0  0  0
  -31.0654  -20.9822   21.7598 C   0  0  0  0  0  0
  -29.8512  -20.3758   21.3156 C   0  0  0  0  0  0
  -34.5928  -20.2242   22.6203 C   0  0  0  0  0  0
  -31.0119  -16.6925   21.4036 C   0  0  0  0  0  0
  -33.3722  -20.7700   22.7582 C   0  0  0  0  0  0
  -30.1573  -15.7157   21.0044 C   0  0  0  0  0  0
  -31.3174  -22.4776   21.5733 C   0  0  0  0  0  0
  -27.8516  -24.7654   21.6575 C   0  0  0  0  0  0
  -28.1268  -23.5073   20.7915 C   0  0  0  0  0  0
  -28.6926  -26.0253   21.3137 C   0  0  0  0  0  0
  -28.2601  -22.1902   21.6105 C   0  0  0  0  0  0
  -28.7778  -21.1041   20.8236 O   0  0  0  0  0  0
  -31.4416  -12.3147   19.1647 H   0  0  0  0  0  0
  -30.2318  -11.3012   19.8825 H   0  0  0  0  0  0
  -29.7354  -11.7575   17.4522 H   0  0  0  0  0  0
  -29.6731  -13.4742   17.7827 H   0  0  0  0  0  0
  -27.8264  -11.3058   18.8451 H   0  0  0  0  0  0
  -27.3630  -12.6094   17.7858 H   0  0  0  0  0  0
  -27.6745  -14.2637   19.5277 H   0  0  0  0  0  0
  -28.6543  -12.0827   21.4311 H   0  0  0  0  0  0
  -28.4619  -13.7670   21.8166 H   0  0  0  0  0  0
  -25.2759   -9.5713   22.4745 H   0  0  0  0  0  0
  -24.0022   -7.4640   22.7459 H   0  0  0  0  0  0
  -21.0840   -8.8766   19.8944 H   0  0  0  0  0  0
  -22.3684  -10.9669   19.6155 H   0  0  0  0  0  0
  -21.2014   -7.6143   23.9726 H   0  0  0  0  0  0
  -21.1483   -6.0513   25.9085 H   0  0  0  0  0  0
  -22.0592   -2.7610   23.2839 H   0  0  0  0  0  0
  -22.4072  -11.9901   22.4837 H   0  0  0  0  0  0
  -21.1075  -13.1257   22.2596 H   0  0  0  0  0  0
  -24.6517  -15.8457   20.5272 H   0  0  0  0  0  0
  -26.2749  -15.6408   20.1041 H   0  0  0  0  0  0
  -26.7099  -32.5553   23.1149 H   0  0  0  0  0  0
  -25.0096  -33.9778   25.0519 H   0  0  0  0  0  0
  -22.6901  -31.3097   21.4120 H   0  0  0  0  0  0
  -23.3755  -35.9649   23.3297 H   0  0  0  0  0  0
  -24.3597  -36.8929   22.2052 H   0  0  0  0  0  0
  -23.7247  -37.6522   23.6630 H   0  0  0  0  0  0
  -26.0427  -31.5905   20.5902 H   0  0  0  0  0  0
  -26.8182  -30.8885   21.9810 H   0  0  0  0  0  0
  -28.0901  -29.0920   21.1904 H   0  0  0  0  0  0
  -26.0754  -25.9757   18.9982 H   0  0  0  0  0  0
  -23.9802  -27.3014   19.0155 H   0  0  0  0  0  0
  -23.7253  -30.6055   19.4079 H   0  0  0  0  0  0
  -22.7343  -29.2504   19.8631 H   0  0  0  0  0  0
  -25.1270  -36.1974   25.0844 H   0  0  0  0  0  0
  -20.9974  -28.3212   24.1433 H   0  0  0  0  0  0
  -20.5660  -26.2256   23.3610 H   0  0  0  0  0  0
  -21.6634  -26.7415   22.1221 H   0  0  0  0  0  0
  -19.6911  -25.6295   21.1214 H   0  0  0  0  0  0
  -19.6685  -27.3209   20.6767 H   0  0  0  0  0  0
  -17.4200  -26.6671   21.4023 H   0  0  0  0  0  0
  -18.0323  -26.0053   22.9023 H   0  0  0  0  0  0
  -19.7940  -30.7249   24.2276 H   0  0  0  0  0  0
  -17.5019  -31.6251   24.5167 H   0  0  0  0  0  0
  -15.5353  -30.2980   23.7627 H   0  0  0  0  0  0
  -15.8678  -28.0830   22.7004 H   0  0  0  0  0  0
  -24.5976  -30.6953   25.7834 H   0  0  0  0  0  0
  -24.8945  -32.2790   26.4933 H   0  0  0  0  0  0
  -25.8191  -30.8833   27.0228 H   0  0  0  0  0  0
  -26.2785  -29.6778   24.1149 H   0  0  0  0  0  0
  -27.4088  -29.7215   25.4476 H   0  0  0  0  0  0
  -27.8613  -30.4308   23.9156 H   0  0  0  0  0  0
  -27.2735  -33.3534   26.2087 H   0  0  0  0  0  0
  -28.3876  -32.6800   25.0274 H   0  0  0  0  0  0
  -28.0768  -31.8328   26.5351 H   0  0  0  0  0  0
  -28.2589  -38.0105   24.7518 H   0  0  0  0  0  0
  -28.1081  -36.2639   24.6278 H   0  0  0  0  0  0
  -27.2317  -37.1449   25.8881 H   0  0  0  0  0  0
  -20.9279  -29.8743   21.6954 H   0  0  0  0  0  0
  -26.0186  -38.2876   24.1411 H   0  0  0  0  0  0
  -32.8158  -18.1671   22.5612 H   0  0  0  0  0  0
  -28.8943  -18.4915   20.8262 H   0  0  0  0  0  0
  -35.4674  -20.7255   23.0091 H   0  0  0  0  0  0
  -34.7481  -19.2822   22.1140 H   0  0  0  0  0  0
  -32.0493  -16.3956   21.4942 H   0  0  0  0  0  0
  -33.2954  -21.7142   23.2797 H   0  0  0  0  0  0
  -29.0929  -15.8801   20.9384 H   0  0  0  0  0  0
  -32.3733  -22.7143   21.4480 H   0  0  0  0  0  0
  -30.9437  -23.0622   22.4129 H   0  0  0  0  0  0
  -30.8601  -22.8215   20.6515 H   0  0  0  0  0  0
  -28.0625  -24.5210   22.7002 H   0  0  0  0  0  0
  -26.7877  -25.0048   21.6392 H   0  0  0  0  0  0
  -29.0160  -23.6778   20.1906 H   0  0  0  0  0  0
  -27.3265  -23.3902   20.0590 H   0  0  0  0  0  0
  -29.7492  -25.7569   21.2769 H   0  0  0  0  0  0
  -28.6056  -26.7475   22.1277 H   0  0  0  0  0  0
  -27.2729  -21.8988   21.9702 H   0  0  0  0  0  0
  -28.8423  -22.3473   22.5175 H   0  0  0  0  0  0
  1 25  1  0  0  0
  1 30  2  0  0  0
  1 80  1  0  0  0
  2  3  1  0  0  0
  2 25  1  0  0  0
  2 87  1  0  0  0
  2 88  1  0  0  0
  3  4  1  0  0  0
  3 89  1  0  0  0
  3 90  1  0  0  0
  4  5  1  0  0  0
  4 91  1  0  0  0
  4 92  1  0  0  0
  5  6  1  0  0  0
  5 26  1  0  0  0
  5 93  1  0  0  0
  6 25  1  0  0  0
  6 94  1  0  0  0
  6 95  1  0  0  0
  7  8  2  0  0  0
  7 26  1  0  0  0
  7 29  1  0  0  0
  8  9  1  0  0  0
  8 22  1  0  0  0
  9 10  1  0  0  0
  9 27  2  0  0  0
 10 11  2  0  0  0
 10 15  1  0  0  0
 11 12  1  0  0  0
 11 96  1  0  0  0
 12 13  2  0  0  0
 12 97  1  0  0  0
 13 14  1  0  0  0
 13 31  1  0  0  0
 14 15  2  0  0  0
 14 98  1  0  0  0
 15 99  1  0  0  0
 16 17  2  0  0  0
 16 21  1  0  0  0
 16 31  1  0  0  0
 17 18  1  0  0  0
 17100  1  0  0  0
 18 19  2  0  0  0
 18101  1  0  0  0
 19 20  1  0  0  0
 19 24  1  0  0  0
 20 21  2  0  0  0
 20102  1  0  0  0
 21 23  1  0  0  0
 22 28  1  0  0  0
 22 32  2  0  0  0
 26 27  1  0  0  0
 28103  1  0  0  0
 28104  1  0  0  0
 29105  1  0  0  0
 29106  1  0  0  0
 33 34  1  0  0  0
 33 66  1  0  0  0
 33 70  2  0  0  0
 34 36  1  0  0  0
 34 59  1  0  0  0
 34107  1  0  0  0
 35 44  2  0  0  0
 35 45  1  0  0  0
 35 68  1  0  0  0
 36 56  1  0  0  0
 36108  1  0  0  0
 37 39  1  0  0  0
 37 47  1  0  0  0
 37 66  1  0  0  0
 37109  1  0  0  0
 38 43  2  0  0  0
 38 46  1  0  0  0
 38 47  1  0  0  0
 39 64  1  0  0  0
 39 67  2  0  0  0
 40 52  1  0  0  0
 40 53  2  0  0  0
 40 58  1  0  0  0
 41110  1  0  0  0
 41111  1  0  0  0
 41112  1  0  0  0
 41 48  1  0  0  0
 42 43  1  0  0  0
 42 66  1  0  0  0
 42113  1  0  0  0
 42114  1  0  0  0
 43 44  1  0  0  0
 44115  1  0  0  0
 45 46  2  0  0  0
 45116  1  0  0  0
 46117  1  0  0  0
 47118  1  0  0  0
 47119  1  0  0  0
 48 56  1  0  0  0
 48 65  1  0  0  0
 48120  1  0  0  0
 49 50  1  0  0  0
 49 53  1  0  0  0
 49 64  1  0  0  0
 49121  1  0  0  0
 50 51  1  0  0  0
 50122  1  0  0  0
 50123  1  0  0  0
 51 52  1  0  0  0
 51124  1  0  0  0
 51125  1  0  0  0
 52126  1  0  0  0
 52127  1  0  0  0
 53 54  1  0  0  0
 54 55  2  0  0  0
 54128  1  0  0  0
 55 57  1  0  0  0
 55129  1  0  0  0
 56 69  2  0  0  0
 57 58  2  0  0  0
 57130  1  0  0  0
 58131  1  0  0  0
 59 60  1  0  0  0
 59 61  1  0  0  0
 59 62  1  0  0  0
 60132  1  0  0  0
 60133  1  0  0  0
 60134  1  0  0  0
 61135  1  0  0  0
 61136  1  0  0  0
 61137  1  0  0  0
 62138  1  0  0  0
 62139  1  0  0  0
 62140  1  0  0  0
 63 65  1  0  0  0
 63141  1  0  0  0
 63142  1  0  0  0
 63143  1  0  0  0
 64144  1  0  0  0
 65145  1  0  0  0
 68 84  1  0  0  0
 71 73  2  0  0  0
 71 74  1  0  0  0
 71146  1  0  0  0
 72 73  1  0  0  0
 72 76  2  0  0  0
 72147  1  0  0  0
 73 78  1  0  0  0
 74 75  2  0  0  0
 74 79  1  0  0  0
 75 76  1  0  0  0
 75 81  1  0  0  0
 76 86  1  0  0  0
 77 79  2  0  0  0
 77148  1  0  0  0
 77149  1  0  0  0
 78 80  2  0  0  0
 78150  1  0  0  0
 79151  1  0  0  0
 80152  1  0  0  0
 81153  1  0  0  0
 81154  1  0  0  0
 81155  1  0  0  0
 82 83  1  0  0  0
 82 84  1  0  0  0
 82156  1  0  0  0
 82157  1  0  0  0
 83 85  1  0  0  0
 83158  1  0  0  0
 83159  1  0  0  0
 84160  1  0  0  0
 84161  1  0  0  0
 85 86  1  0  0  0
 85162  1  0  0  0
 85163  1  0  0  0
M  ISO  4   1 100  68 101  80 100  84 101
M  END
> <chiral flag>
0

> <version>
0

> <s_m_source_file>
/data/baiqing/PycharmProjects/Reinvent-master-3.2/result/LINK_invent/BTK/process_docking_weight1_custom_product_contain_oxygen_bond_distance_aromatic_linkinvent_7_9_3/rearranged_h_0119.sdf

> <i_m_source_file_index>
83

> <r_mmod_Potential_Energy-OPLS-2005>
65.4485092163086

> <r_mmod_Stretch_Energy-OPLS-2005>
41.9560394287109

> <r_mmod_Bend_Energy-OPLS-2005>
125.576721191406

> <r_mmod_Torsional_Energy-OPLS-2005>
257.818420410156

> <r_mmod_Improper_Torsional_Energy-OPLS-2005>
8.05916023254395

> <r_mmod_Van_der_Waal_Energy-OPLS-2005>
168.872451782227

> <r_mmod_Electrostatic_Energy-OPLS-2005>
-362.008270263672

> <r_mmod_Solvation_Energy-OPLS-2005>
-195.560363769531

> <b_mmod_Minimization_Converged-OPLS-2005>
0

> <r_mmod_RMS_Derivative-OPLS-2005>
1.87177467346191

$$$$
83
                    3D
 Structure written by MMmdl.
158167  0  0  1  0            999 V2000
  -30.5669  -14.7412   20.5149 C   0  0  0  0  0  0
  -30.4429  -12.4670   19.4718 C   0  0  0  0  0  0
  -29.5149  -12.5379   18.2365 C   0  0  0  0  0  0
  -28.0372  -12.3592   18.6403 C   0  0  0  0  0  0
  -27.6466  -13.2286   19.8649 C   0  0  2  0  0  0
  -28.6865  -13.1091   20.9999 C   0  0  0  0  0  0
  -25.2513  -13.8199   20.5665 C   0  0  0  0  0  0
  -24.1798  -13.0437   20.9196 C   0  0  0  0  0  0
  -24.6402  -11.6917   20.8741 C   0  0  0  0  0  0
  -23.9074  -10.4290   21.0418 C   0  0  0  0  0  0
  -24.3621   -9.4201   21.9197 C   0  0  0  0  0  0
  -23.6284   -8.2235   22.0771 C   0  0  0  0  0  0
  -22.4263   -8.0278   21.3554 C   0  0  0  0  0  0
  -21.9907   -9.0259   20.4656 C   0  0  0  0  0  0
  -22.7250  -10.2133   20.3064 C   0  0  0  0  0  0
  -21.6855   -6.0723   22.5275 C   0  0  0  0  0  0
  -21.4024   -6.5636   23.8206 C   0  0  0  0  0  0
  -21.3656   -5.6789   24.9177 C   0  0  0  0  0  0
  -21.6035   -4.3046   24.7236 C   0  0  0  0  0  0
  -21.8819   -3.8140   23.4358 C   0  0  0  0  0  0
  -21.9194   -4.6951   22.3407 C   0  0  0  0  0  0
  -22.7817  -13.5222   21.1852 C   0  0  0  0  0  0
  -22.1653   -4.2128   21.0979 F   0  0  0  0  0  0
  -21.5626   -3.4538   25.7754 F   0  0  0  0  0  0
  -29.9872  -13.4939   20.4365 N   0  0  0  0  0  0
  -26.2943  -12.9391   20.3311 N   0  0  0  0  0  0
  -25.9333  -11.6539   20.5760 N   0  0  0  0  0  0
  -22.0459  -12.8205   22.0408 N   0  0  0  0  0  0
  -25.4212  -15.1917   20.4060 N   0  0  0  0  0  0
  -31.7425  -14.8955   20.1624 O   0  0  0  0  0  0
  -21.6628   -6.8869   21.4240 O   0  0  0  0  0  0
  -22.3495  -14.5518   20.6705 O   0  0  0  0  0  0
  -24.6303  -31.8520   23.1955 C   0  0  0  0  0  0
  -25.9130  -32.4733   23.8303 C   0  0  1  0  0  0
  -27.2427  -27.2587   20.1493 C   0  0  0  0  0  0
  -25.5946  -33.8539   24.2239 N   0  0  0  0  0  0
  -23.4278  -30.4679   21.5384 C   0  0  2  0  0  0
  -24.8806  -28.8997   20.1168 C   0  0  0  0  0  0
  -22.7505  -29.4550   22.4926 C   0  0  0  0  0  0
  -18.0285  -28.1367   22.8453 C   0  0  0  0  0  0
  -24.1514  -36.7282   23.2645 C   0  0  0  0  0  0
  -25.9680  -30.7669   21.3705 C   0  0  0  0  0  0
  -26.0463  -29.3817   20.7250 C   0  0  0  0  0  0
  -27.2232  -28.5716   20.7294 C   0  0  0  0  0  0
  -26.0515  -26.8282   19.5248 C   0  0  0  0  0  0
  -24.8859  -27.6301   19.5104 C   0  0  0  0  0  0
  -23.6536  -29.7929   20.1573 C   0  0  0  0  0  0
  -25.4127  -36.3051   24.0326 C   0  0  1  0  0  0
  -20.5882  -28.3661   23.1278 C   0  0  2  0  0  0
  -20.6775  -26.9381   22.5421 C   0  0  0  0  0  0
  -19.5766  -26.6355   21.5204 C   0  0  0  0  0  0
  -18.1927  -26.7914   22.1582 C   0  0  0  0  0  0
  -19.1530  -28.8833   23.2846 C   0  0  0  0  0  0
  -18.9481  -30.1444   23.8859 C   0  0  0  0  0  0
  -17.6482  -30.6573   24.0549 C   0  0  0  0  0  0
  -25.9058  -34.9419   23.5070 C   0  0  0  0  0  0
  -16.5371  -29.9077   23.6311 C   0  0  0  0  0  0
  -16.7273  -28.6502   23.0313 C   0  0  0  0  0  0
  -26.4511  -31.6577   25.0684 C   0  0  0  0  0  0
  -25.3759  -31.3728   26.1434 C   0  0  0  0  0  0
  -27.0361  -30.3013   24.6119 C   0  0  0  0  0  0
  -27.6042  -32.4345   25.7480 C   0  0  0  0  0  0
  -27.5579  -37.1800   24.8456 C   0  0  0  0  0  0
  -21.4207  -29.3015   22.3696 N   0  0  0  0  0  0
  -26.4280  -37.3766   23.9416 N   0  0  0  0  0  0
  -24.6940  -31.0493   22.0930 N   0  0  0  0  0  0
  -23.4208  -28.8100   23.3030 O   0  0  0  0  0  0
  -28.3878  -26.4361   20.2324 O   0  0  0  0  0  0
  -26.5632  -34.8893   22.4643 O   0  0  0  0  0  0
  -23.5452  -32.1350   23.7264 O   0  0  0  0  0  0
  -30.9956  -18.0001   20.7499 C   0  0  0  0  0  0
  -30.7971  -19.4417   20.6576 C   0  0  0  0  0  0
  -29.4703  -19.8637   20.6136 C   0  0  0  0  0  0
  -29.8690  -17.2068   20.7495 C   0  0  0  0  0  0
  -28.7059  -21.2192   20.3714 C   0  0  0  0  0  0
  -29.7945  -23.9060   22.6857 C   0  0  0  0  0  0
  -28.3638  -24.2636   22.3187 C   0  0  0  0  0  0
  -30.0875  -22.6155   21.9122 C   0  0  0  0  0  0
  -28.2119  -23.7645   20.8778 C   0  0  1  0  0  0
  -31.9984  -20.3344   20.5709 C   0  0  0  0  0  0
  -28.4875  -24.9844   19.8436 C   0  0  0  0  0  0
  -29.0722  -22.4790   20.8591 N   0  0  0  0  0  0
  -29.7279  -15.8079   20.8160 N   0  0  0  0  0  0
  -27.6750  -21.1441   19.6968 O   0  0  0  0  0  0
  -28.4948  -18.3549   20.6687 S   0  0  0  0  0  0
  -31.4809  -12.6237   19.1711 H   0  0  0  0  0  0
  -30.4100  -11.4749   19.9250 H   0  0  0  0  0  0
  -29.7973  -11.7795   17.5048 H   0  0  0  0  0  0
  -29.6437  -13.5019   17.7423 H   0  0  0  0  0  0
  -27.8792  -11.3052   18.8691 H   0  0  0  0  0  0
  -27.3869  -12.5912   17.7956 H   0  0  0  0  0  0
  -27.6541  -14.2623   19.5182 H   0  0  0  0  0  0
  -28.7242  -12.0876   21.3828 H   0  0  0  0  0  0
  -28.4170  -13.7403   21.8486 H   0  0  0  0  0  0
  -25.2773   -9.5655   22.4774 H   0  0  0  0  0  0
  -23.9975   -7.4627   22.7512 H   0  0  0  0  0  0
  -21.0828   -8.8804   19.8969 H   0  0  0  0  0  0
  -22.3730  -10.9678   19.6164 H   0  0  0  0  0  0
  -21.2021   -7.6152   23.9712 H   0  0  0  0  0  0
  -21.1471   -6.0523   25.9075 H   0  0  0  0  0  0
  -22.0599   -2.7603   23.2877 H   0  0  0  0  0  0
  -22.4058  -11.9856   22.4784 H   0  0  0  0  0  0
  -21.1090  -13.1263   22.2634 H   0  0  0  0  0  0
  -24.6558  -15.8482   20.5117 H   0  0  0  0  0  0
  -26.2599  -15.6270   20.0441 H   0  0  0  0  0  0
  -26.7182  -32.5411   23.1023 H   0  0  0  0  0  0
  -25.0106  -33.9669   25.0391 H   0  0  0  0  0  0
  -22.7211  -31.2858   21.3866 H   0  0  0  0  0  0
  -23.3747  -35.9650   23.3296 H   0  0  0  0  0  0
  -24.3579  -36.8920   22.2060 H   0  0  0  0  0  0
  -23.7288  -37.6472   23.6689 H   0  0  0  0  0  0
  -26.0912  -31.5251   20.5964 H   0  0  0  0  0  0
  -26.8473  -30.8277   22.0009 H   0  0  0  0  0  0
  -28.1182  -28.9349   21.2182 H   0  0  0  0  0  0
  -25.9955  -25.8510   19.0652 H   0  0  0  0  0  0
  -23.9879  -27.2457   19.0451 H   0  0  0  0  0  0
  -23.7895  -30.5682   19.4026 H   0  0  0  0  0  0
  -22.7715  -29.2318   19.8454 H   0  0  0  0  0  0
  -25.1308  -36.1869   25.0818 H   0  0  0  0  0  0
  -20.9917  -28.3262   24.1416 H   0  0  0  0  0  0
  -20.5660  -26.2289   23.3638 H   0  0  0  0  0  0
  -21.6656  -26.7400   22.1243 H   0  0  0  0  0  0
  -19.6936  -25.6255   21.1261 H   0  0  0  0  0  0
  -19.6727  -27.3140   20.6725 H   0  0  0  0  0  0
  -17.4214  -26.6635   21.3975 H   0  0  0  0  0  0
  -18.0303  -26.0055   22.8980 H   0  0  0  0  0  0
  -19.7985  -30.7226   24.2220 H   0  0  0  0  0  0
  -17.5070  -31.6245   24.5168 H   0  0  0  0  0  0
  -15.5375  -30.2978   23.7665 H   0  0  0  0  0  0
  -15.8674  -28.0846   22.7006 H   0  0  0  0  0  0
  -24.5918  -30.7073   25.7807 H   0  0  0  0  0  0
  -24.8964  -32.2902   26.4875 H   0  0  0  0  0  0
  -25.8097  -30.8915   27.0215 H   0  0  0  0  0  0
  -26.2905  -29.6751   24.1192 H   0  0  0  0  0  0
  -27.4135  -29.7265   25.4592 H   0  0  0  0  0  0
  -27.8751  -30.4312   23.9271 H   0  0  0  0  0  0
  -27.2608  -33.3654   26.2017 H   0  0  0  0  0  0
  -28.3876  -32.6923   25.0340 H   0  0  0  0  0  0
  -28.0678  -31.8503   26.5445 H   0  0  0  0  0  0
  -28.2570  -38.0127   24.7508 H   0  0  0  0  0  0
  -28.1094  -36.2644   24.6255 H   0  0  0  0  0  0
  -27.2292  -37.1393   25.8857 H   0  0  0  0  0  0
  -20.9399  -29.8822   21.6965 H   0  0  0  0  0  0
  -26.0137  -38.2822   24.1439 H   0  0  0  0  0  0
  -31.9950  -17.5902   20.7930 H   0  0  0  0  0  0
  -29.9321  -23.7906   23.7628 H   0  0  0  0  0  0
  -30.4707  -24.7011   22.3612 H   0  0  0  0  0  0
  -28.1462  -25.3250   22.4487 H   0  0  0  0  0  0
  -27.6709  -23.7199   22.9623 H   0  0  0  0  0  0
  -30.0431  -21.7680   22.5997 H   0  0  0  0  0  0
  -31.0919  -22.6661   21.4941 H   0  0  0  0  0  0
  -27.1678  -23.4765   20.7483 H   0  0  0  0  0  0
  -32.8529  -19.8064   20.1463 H   0  0  0  0  0  0
  -32.3026  -20.6821   21.5591 H   0  0  0  0  0  0
  -31.8226  -21.1959   19.9287 H   0  0  0  0  0  0
  -27.9276  -24.8044   18.9244 H   0  0  0  0  0  0
  -29.5270  -24.8757   19.5354 H   0  0  0  0  0  0
  -28.7955  -15.4994   21.0477 H   0  0  0  0  0  0
  1 25  1  0  0  0
  1 30  2  0  0  0
  1 83  1  0  0  0
  2  3  1  0  0  0
  2 25  1  0  0  0
  2 86  1  0  0  0
  2 87  1  0  0  0
  3  4  1  0  0  0
  3 88  1  0  0  0
  3 89  1  0  0  0
  4  5  1  0  0  0
  4 90  1  0  0  0
  4 91  1  0  0  0
  5  6  1  0  0  0
  5 26  1  0  0  0
  5 92  1  0  0  0
  6 25  1  0  0  0
  6 93  1  0  0  0
  6 94  1  0  0  0
  7  8  2  0  0  0
  7 26  1  0  0  0
  7 29  1  0  0  0
  8  9  1  0  0  0
  8 22  1  0  0  0
  9 10  1  0  0  0
  9 27  2  0  0  0
 10 11  2  0  0  0
 10 15  1  0  0  0
 11 12  1  0  0  0
 11 95  1  0  0  0
 12 13  2  0  0  0
 12 96  1  0  0  0
 13 14  1  0  0  0
 13 31  1  0  0  0
 14 15  2  0  0  0
 14 97  1  0  0  0
 15 98  1  0  0  0
 16 17  2  0  0  0
 16 21  1  0  0  0
 16 31  1  0  0  0
 17 18  1  0  0  0
 17 99  1  0  0  0
 18 19  2  0  0  0
 18100  1  0  0  0
 19 20  1  0  0  0
 19 24  1  0  0  0
 20 21  2  0  0  0
 20101  1  0  0  0
 21 23  1  0  0  0
 22 28  1  0  0  0
 22 32  2  0  0  0
 26 27  1  0  0  0
 28102  1  0  0  0
 28103  1  0  0  0
 29104  1  0  0  0
 29105  1  0  0  0
 33 34  1  0  0  0
 33 66  1  0  0  0
 33 70  2  0  0  0
 34 36  1  0  0  0
 34 59  1  0  0  0
 34106  1  0  0  0
 35 44  2  0  0  0
 35 45  1  0  0  0
 35 68  1  0  0  0
 36 56  1  0  0  0
 36107  1  0  0  0
 37 39  1  0  0  0
 37 47  1  0  0  0
 37 66  1  0  0  0
 37108  1  0  0  0
 38 43  2  0  0  0
 38 46  1  0  0  0
 38 47  1  0  0  0
 39 64  1  0  0  0
 39 67  2  0  0  0
 40 52  1  0  0  0
 40 53  2  0  0  0
 40 58  1  0  0  0
 41109  1  0  0  0
 41110  1  0  0  0
 41111  1  0  0  0
 41 48  1  0  0  0
 42 43  1  0  0  0
 42 66  1  0  0  0
 42112  1  0  0  0
 42113  1  0  0  0
 43 44  1  0  0  0
 44114  1  0  0  0
 45 46  2  0  0  0
 45115  1  0  0  0
 46116  1  0  0  0
 47117  1  0  0  0
 47118  1  0  0  0
 48 56  1  0  0  0
 48 65  1  0  0  0
 48119  1  0  0  0
 49 50  1  0  0  0
 49 53  1  0  0  0
 49 64  1  0  0  0
 49120  1  0  0  0
 50 51  1  0  0  0
 50121  1  0  0  0
 50122  1  0  0  0
 51 52  1  0  0  0
 51123  1  0  0  0
 51124  1  0  0  0
 52125  1  0  0  0
 52126  1  0  0  0
 53 54  1  0  0  0
 54 55  2  0  0  0
 54127  1  0  0  0
 55 57  1  0  0  0
 55128  1  0  0  0
 56 69  2  0  0  0
 57 58  2  0  0  0
 57129  1  0  0  0
 58130  1  0  0  0
 59 60  1  0  0  0
 59 61  1  0  0  0
 59 62  1  0  0  0
 60131  1  0  0  0
 60132  1  0  0  0
 60133  1  0  0  0
 61134  1  0  0  0
 61135  1  0  0  0
 61136  1  0  0  0
 62137  1  0  0  0
 62138  1  0  0  0
 62139  1  0  0  0
 63 65  1  0  0  0
 63140  1  0  0  0
 63141  1  0  0  0
 63142  1  0  0  0
 64143  1  0  0  0
 65144  1  0  0  0
 68 81  1  0  0  0
 71 72  1  0  0  0
 71 74  2  0  0  0
 71145  1  0  0  0
 72 73  2  0  0  0
 72 80  1  0  0  0
 73 75  1  0  0  0
 73 85  1  0  0  0
 74 83  1  0  0  0
 74 85  1  0  0  0
 75 82  1  0  0  0
 75 84  2  0  0  0
 76 77  1  0  0  0
 76 78  1  0  0  0
 76146  1  0  0  0
 76147  1  0  0  0
 77 79  1  0  0  0
 77148  1  0  0  0
 77149  1  0  0  0
 78 82  1  0  0  0
 78150  1  0  0  0
 78151  1  0  0  0
 79 81  1  0  0  0
 79 82  1  0  0  0
 79152  1  0  0  0
 80153  1  0  0  0
 80154  1  0  0  0
 80155  1  0  0  0
 81156  1  0  0  0
 81157  1  0  0  0
 83158  1  0  0  0
M  ISO  4   1 100  68 101  81 101  83 100
M  END
> <chiral flag>
0

> <version>
0

> <s_m_source_file>
/data/baiqing/PycharmProjects/Reinvent-master-3.2/result/LINK_invent/BTK/process_docking_weight1_custom_product_contain_oxygen_bond_distance_aromatic_linkinvent_7_9_3/rearranged_h_0119.sdf

> <i_m_source_file_index>
84

> <r_mmod_Potential_Energy-OPLS-2005>
309.687561035156

> <r_mmod_Stretch_Energy-OPLS-2005>
126.608108520508

> <r_mmod_Bend_Energy-OPLS-2005>
222.353103637695

> <r_mmod_Torsional_Energy-OPLS-2005>
320.741394042969

> <r_mmod_Improper_Torsional_Energy-OPLS-2005>
6.54653644561768

> <r_mmod_Van_der_Waal_Energy-OPLS-2005>
110.807075500488

> <r_mmod_Electrostatic_Energy-OPLS-2005>
-338.332000732422

> <r_mmod_Solvation_Energy-OPLS-2005>
-220.605758666992

> <b_mmod_Minimization_Converged-OPLS-2005>
0

> <r_mmod_RMS_Derivative-OPLS-2005>
3.51029658317566

$$$$
84
                    3D
 Structure written by MMmdl.
160169  0  0  1  0            999 V2000
  -30.5764  -14.8190   20.3897 C   0  0  0  0  0  0
  -30.4430  -12.4766   19.5020 C   0  0  0  0  0  0
  -29.5253  -12.4293   18.2581 C   0  0  0  0  0  0
  -28.0419  -12.3071   18.6612 C   0  0  0  0  0  0
  -27.6391  -13.2314   19.8424 C   0  0  2  0  0  0
  -28.6824  -13.2102   20.9793 C   0  0  0  0  0  0
  -25.2516  -13.8184   20.5689 C   0  0  0  0  0  0
  -24.1803  -13.0433   20.9197 C   0  0  0  0  0  0
  -24.6389  -11.6910   20.8744 C   0  0  0  0  0  0
  -23.9065  -10.4286   21.0403 C   0  0  0  0  0  0
  -24.3615   -9.4198   21.9179 C   0  0  0  0  0  0
  -23.6286   -8.2238   22.0749 C   0  0  0  0  0  0
  -22.4265   -8.0279   21.3546 C   0  0  0  0  0  0
  -21.9900   -9.0254   20.4642 C   0  0  0  0  0  0
  -22.7235  -10.2130   20.3053 C   0  0  0  0  0  0
  -21.6851   -6.0726   22.5277 C   0  0  0  0  0  0
  -21.4016   -6.5628   23.8207 C   0  0  0  0  0  0
  -21.3659   -5.6781   24.9172 C   0  0  0  0  0  0
  -21.6045   -4.3045   24.7218 C   0  0  0  0  0  0
  -21.8822   -3.8138   23.4345 C   0  0  0  0  0  0
  -21.9192   -4.6955   22.3396 C   0  0  0  0  0  0
  -22.7823  -13.5219   21.1869 C   0  0  0  0  0  0
  -22.1664   -4.2143   21.0978 F   0  0  0  0  0  0
  -21.5625   -3.4528   25.7732 F   0  0  0  0  0  0
  -29.9774  -13.5726   20.3905 N   0  0  0  0  0  0
  -26.2932  -12.9388   20.3263 N   0  0  0  0  0  0
  -25.9320  -11.6536   20.5760 N   0  0  0  0  0  0
  -22.0476  -12.8205   22.0429 N   0  0  0  0  0  0
  -25.4234  -15.1903   20.4101 N   0  0  0  0  0  0
  -31.7694  -14.9048   20.0810 O   0  0  0  0  0  0
  -21.6639   -6.8874   21.4238 O   0  0  0  0  0  0
  -22.3505  -14.5525   20.6720 O   0  0  0  0  0  0
  -24.6343  -31.8513   23.1942 C   0  0  0  0  0  0
  -25.9147  -32.4739   23.8306 C   0  0  1  0  0  0
  -27.2276  -27.2332   20.1309 C   0  0  0  0  0  0
  -25.5928  -33.8542   24.2232 N   0  0  0  0  0  0
  -23.4339  -30.4708   21.5368 C   0  0  2  0  0  0
  -24.8840  -28.9120   20.1029 C   0  0  0  0  0  0
  -22.7523  -29.4575   22.4885 C   0  0  0  0  0  0
  -18.0295  -28.1398   22.8482 C   0  0  0  0  0  0
  -24.1485  -36.7272   23.2642 C   0  0  0  0  0  0
  -25.9809  -30.7546   21.3786 C   0  0  0  0  0  0
  -26.0535  -29.3751   20.7177 C   0  0  0  0  0  0
  -27.2235  -28.5460   20.7227 C   0  0  0  0  0  0
  -26.0346  -26.8402   19.4853 C   0  0  0  0  0  0
  -24.8816  -27.6547   19.4750 C   0  0  0  0  0  0
  -23.6543  -29.8016   20.1529 C   0  0  0  0  0  0
  -25.4114  -36.3061   24.0327 C   0  0  1  0  0  0
  -20.5901  -28.3708   23.1263 C   0  0  2  0  0  0
  -20.6781  -26.9421   22.5413 C   0  0  0  0  0  0
  -19.5756  -26.6384   21.5218 C   0  0  0  0  0  0
  -18.1935  -26.7940   22.1627 C   0  0  0  0  0  0
  -19.1550  -28.8873   23.2867 C   0  0  0  0  0  0
  -18.9471  -30.1471   23.8889 C   0  0  0  0  0  0
  -17.6469  -30.6595   24.0562 C   0  0  0  0  0  0
  -25.9058  -34.9433   23.5089 C   0  0  0  0  0  0
  -16.5361  -29.9090   23.6334 C   0  0  0  0  0  0
  -16.7281  -28.6512   23.0352 C   0  0  0  0  0  0
  -26.4502  -31.6580   25.0713 C   0  0  0  0  0  0
  -25.3706  -31.3748   26.1421 C   0  0  0  0  0  0
  -27.0359  -30.2993   24.6231 C   0  0  0  0  0  0
  -27.6052  -32.4328   25.7488 C   0  0  0  0  0  0
  -27.5581  -37.1786   24.8461 C   0  0  0  0  0  0
  -21.4225  -29.3044   22.3642 N   0  0  0  0  0  0
  -26.4284  -37.3767   23.9418 N   0  0  0  0  0  0
  -24.7020  -31.0441   22.0932 N   0  0  0  0  0  0
  -23.4206  -28.8123   23.3005 O   0  0  0  0  0  0
  -28.3027  -26.3166   20.2742 O   0  0  0  0  0  0
  -26.5639  -34.8918   22.4661 O   0  0  0  0  0  0
  -23.5483  -32.1349   23.7214 O   0  0  0  0  0  0
  -29.4514  -18.4322   17.6641 C   0  0  0  0  0  0
  -29.2594  -19.6797   18.2705 C   0  0  0  0  0  0
  -29.5320  -18.6223   20.4293 C   0  0  0  0  0  0
  -29.6724  -17.2572   18.4046 C   0  0  0  0  0  0
  -29.3121  -19.8670   19.6666 C   0  0  0  0  0  0
  -29.7259  -17.2830   19.8303 C   0  0  0  0  0  0
  -28.6617  -23.7595   20.1038 C   0  0  0  0  0  0
  -28.3859  -25.0456   19.6196 C   0  0  0  0  0  0
  -28.7699  -23.2655   21.5387 C   0  0  0  0  0  0
  -29.0334  -21.7086   21.5186 C   0  0  0  0  0  0
  -28.9961  -22.4846   19.2577 C   0  0  1  0  0  0
  -29.7447  -15.9791   17.5908 C   0  0  0  0  0  0
  -30.3094  -22.7623   18.4978 C   0  0  0  0  0  0
  -29.1245  -21.2558   20.1273 N   0  0  0  0  0  0
  -29.7934  -15.9692   20.5741 N   0  0  0  0  0  0
  -31.4811  -12.6082   19.1926 H   0  0  0  0  0  0
  -30.4148  -11.5259   20.0365 H   0  0  0  0  0  0
  -29.8018  -11.5794   17.6319 H   0  0  0  0  0  0
  -29.6843  -13.3012   17.6319 H   0  0  0  0  0  0
  -27.8786  -11.2669   18.9447 H   0  0  0  0  0  0
  -27.3977  -12.4896   17.8003 H   0  0  0  0  0  0
  -27.6169  -14.2429   19.4404 H   0  0  0  0  0  0
  -28.7317  -12.2253   21.4442 H   0  0  0  0  0  0
  -28.4071  -13.9099   21.7701 H   0  0  0  0  0  0
  -25.2767   -9.5663   22.4746 H   0  0  0  0  0  0
  -23.9992   -7.4615   22.7454 H   0  0  0  0  0  0
  -21.0836   -8.8768   19.8937 H   0  0  0  0  0  0
  -22.3698  -10.9664   19.6154 H   0  0  0  0  0  0
  -21.2021   -7.6137   23.9708 H   0  0  0  0  0  0
  -21.1476   -6.0515   25.9073 H   0  0  0  0  0  0
  -22.0608   -2.7600   23.2848 H   0  0  0  0  0  0
  -22.4094  -11.9868   22.4817 H   0  0  0  0  0  0
  -21.1093  -13.1220   22.2633 H   0  0  0  0  0  0
  -24.6578  -15.8471   20.5137 H   0  0  0  0  0  0
  -26.2734  -15.6245   20.0732 H   0  0  0  0  0  0
  -26.7214  -32.5376   23.1045 H   0  0  0  0  0  0
  -25.0049  -33.9668   25.0363 H   0  0  0  0  0  0
  -22.7335  -31.2950   21.3876 H   0  0  0  0  0  0
  -23.3759  -35.9588   23.3285 H   0  0  0  0  0  0
  -24.3583  -36.8917   22.2061 H   0  0  0  0  0  0
  -23.7224  -37.6460   23.6682 H   0  0  0  0  0  0
  -26.1237  -31.5153   20.6098 H   0  0  0  0  0  0
  -26.8571  -30.8044   22.0136 H   0  0  0  0  0  0
  -28.1133  -28.8859   21.2334 H   0  0  0  0  0  0
  -25.9646  -25.8646   19.0260 H   0  0  0  0  0  0
  -23.9830  -27.2925   18.9948 H   0  0  0  0  0  0
  -23.7808  -30.5779   19.3974 H   0  0  0  0  0  0
  -22.7722  -29.2366   19.8466 H   0  0  0  0  0  0
  -25.1292  -36.1904   25.0819 H   0  0  0  0  0  0
  -20.9995  -28.3295   24.1383 H   0  0  0  0  0  0
  -20.5683  -26.2319   23.3620 H   0  0  0  0  0  0
  -21.6648  -26.7442   22.1211 H   0  0  0  0  0  0
  -19.6912  -25.6290   21.1261 H   0  0  0  0  0  0
  -19.6691  -27.3184   20.6739 H   0  0  0  0  0  0
  -17.4202  -26.6689   21.4028 H   0  0  0  0  0  0
  -18.0327  -26.0088   22.9029 H   0  0  0  0  0  0
  -19.7948  -30.7289   24.2260 H   0  0  0  0  0  0
  -17.5023  -31.6278   24.5161 H   0  0  0  0  0  0
  -15.5361  -30.2985   23.7668 H   0  0  0  0  0  0
  -15.8683  -28.0828   22.7071 H   0  0  0  0  0  0
  -24.5878  -30.7106   25.7744 H   0  0  0  0  0  0
  -24.8898  -32.2922   26.4824 H   0  0  0  0  0  0
  -25.7997  -30.8933   27.0216 H   0  0  0  0  0  0
  -26.2959  -29.6727   24.1240 H   0  0  0  0  0  0
  -27.4015  -29.7276   25.4773 H   0  0  0  0  0  0
  -27.8844  -30.4267   23.9503 H   0  0  0  0  0  0
  -27.2665  -33.3639   26.2047 H   0  0  0  0  0  0
  -28.3867  -32.6874   25.0314 H   0  0  0  0  0  0
  -28.0710  -31.8462   26.5418 H   0  0  0  0  0  0
  -28.2579  -38.0102   24.7543 H   0  0  0  0  0  0
  -28.1098  -36.2639   24.6239 H   0  0  0  0  0  0
  -27.2309  -37.1379   25.8865 H   0  0  0  0  0  0
  -20.9419  -29.8751   21.6827 H   0  0  0  0  0  0
  -26.0160  -38.2836   24.1431 H   0  0  0  0  0  0
  -29.3881  -18.3861   16.5855 H   0  0  0  0  0  0
  -29.0529  -20.4997   17.6009 H   0  0  0  0  0  0
  -29.5407  -18.6914   21.5071 H   0  0  0  0  0  0
  -28.3560  -25.1978   18.5497 H   0  0  0  0  0  0
  -27.8478  -23.5002   22.0723 H   0  0  0  0  0  0
  -29.5806  -23.7902   22.0448 H   0  0  0  0  0  0
  -28.2291  -21.1761   22.0285 H   0  0  0  0  0  0
  -29.9596  -21.4726   22.0457 H   0  0  0  0  0  0
  -28.1819  -22.3361   18.5465 H   0  0  0  0  0  0
  -29.6349  -16.1665   16.5221 H   0  0  0  0  0  0
  -28.9256  -15.3256   17.8806 H   0  0  0  0  0  0
  -30.6986  -15.4713   17.7213 H   0  0  0  0  0  0
  -31.1181  -23.0016   19.1891 H   0  0  0  0  0  0
  -30.1955  -23.6120   17.8248 H   0  0  0  0  0  0
  -30.6519  -21.9291   17.8884 H   0  0  0  0  0  0
  -28.9580  -15.7754   21.1052 H   0  0  0  0  0  0
  1 25  1  0  0  0
  1 30  2  0  0  0
  1 85  1  0  0  0
  2  3  1  0  0  0
  2 25  1  0  0  0
  2 86  1  0  0  0
  2 87  1  0  0  0
  3  4  1  0  0  0
  3 88  1  0  0  0
  3 89  1  0  0  0
  4  5  1  0  0  0
  4 90  1  0  0  0
  4 91  1  0  0  0
  5  6  1  0  0  0
  5 26  1  0  0  0
  5 92  1  0  0  0
  6 25  1  0  0  0
  6 93  1  0  0  0
  6 94  1  0  0  0
  7  8  2  0  0  0
  7 26  1  0  0  0
  7 29  1  0  0  0
  8  9  1  0  0  0
  8 22  1  0  0  0
  9 10  1  0  0  0
  9 27  2  0  0  0
 10 11  2  0  0  0
 10 15  1  0  0  0
 11 12  1  0  0  0
 11 95  1  0  0  0
 12 13  2  0  0  0
 12 96  1  0  0  0
 13 14  1  0  0  0
 13 31  1  0  0  0
 14 15  2  0  0  0
 14 97  1  0  0  0
 15 98  1  0  0  0
 16 17  2  0  0  0
 16 21  1  0  0  0
 16 31  1  0  0  0
 17 18  1  0  0  0
 17 99  1  0  0  0
 18 19  2  0  0  0
 18100  1  0  0  0
 19 20  1  0  0  0
 19 24  1  0  0  0
 20 21  2  0  0  0
 20101  1  0  0  0
 21 23  1  0  0  0
 22 28  1  0  0  0
 22 32  2  0  0  0
 26 27  1  0  0  0
 28102  1  0  0  0
 28103  1  0  0  0
 29104  1  0  0  0
 29105  1  0  0  0
 33 34  1  0  0  0
 33 66  1  0  0  0
 33 70  2  0  0  0
 34 36  1  0  0  0
 34 59  1  0  0  0
 34106  1  0  0  0
 35 44  2  0  0  0
 35 45  1  0  0  0
 35 68  1  0  0  0
 36 56  1  0  0  0
 36107  1  0  0  0
 37 39  1  0  0  0
 37 47  1  0  0  0
 37 66  1  0  0  0
 37108  1  0  0  0
 38 43  2  0  0  0
 38 46  1  0  0  0
 38 47  1  0  0  0
 39 64  1  0  0  0
 39 67  2  0  0  0
 40 52  1  0  0  0
 40 53  2  0  0  0
 40 58  1  0  0  0
 41109  1  0  0  0
 41110  1  0  0  0
 41111  1  0  0  0
 41 48  1  0  0  0
 42 43  1  0  0  0
 42 66  1  0  0  0
 42112  1  0  0  0
 42113  1  0  0  0
 43 44  1  0  0  0
 44114  1  0  0  0
 45 46  2  0  0  0
 45115  1  0  0  0
 46116  1  0  0  0
 47117  1  0  0  0
 47118  1  0  0  0
 48 56  1  0  0  0
 48 65  1  0  0  0
 48119  1  0  0  0
 49 50  1  0  0  0
 49 53  1  0  0  0
 49 64  1  0  0  0
 49120  1  0  0  0
 50 51  1  0  0  0
 50121  1  0  0  0
 50122  1  0  0  0
 51 52  1  0  0  0
 51123  1  0  0  0
 51124  1  0  0  0
 52125  1  0  0  0
 52126  1  0  0  0
 53 54  1  0  0  0
 54 55  2  0  0  0
 54127  1  0  0  0
 55 57  1  0  0  0
 55128  1  0  0  0
 56 69  2  0  0  0
 57 58  2  0  0  0
 57129  1  0  0  0
 58130  1  0  0  0
 59 60  1  0  0  0
 59 61  1  0  0  0
 59 62  1  0  0  0
 60131  1  0  0  0
 60132  1  0  0  0
 60133  1  0  0  0
 61134  1  0  0  0
 61135  1  0  0  0
 61136  1  0  0  0
 62137  1  0  0  0
 62138  1  0  0  0
 62139  1  0  0  0
 63 65  1  0  0  0
 63140  1  0  0  0
 63141  1  0  0  0
 63142  1  0  0  0
 64143  1  0  0  0
 65144  1  0  0  0
 68 78  1  0  0  0
 71 72  2  0  0  0
 71 74  1  0  0  0
 71145  1  0  0  0
 72 75  1  0  0  0
 72146  1  0  0  0
 73 75  2  0  0  0
 73 76  1  0  0  0
 73147  1  0  0  0
 74 76  2  0  0  0
 74 82  1  0  0  0
 75 84  1  0  0  0
 76 85  1  0  0  0
 77 78  2  0  0  0
 77 79  1  0  0  0
 77 81  1  0  0  0
 78148  1  0  0  0
 79 80  1  0  0  0
 79149  1  0  0  0
 79150  1  0  0  0
 80 84  1  0  0  0
 80151  1  0  0  0
 80152  1  0  0  0
 81 83  1  0  0  0
 81 84  1  0  0  0
 81153  1  0  0  0
 82154  1  0  0  0
 82155  1  0  0  0
 82156  1  0  0  0
 83157  1  0  0  0
 83158  1  0  0  0
 83159  1  0  0  0
 85160  1  0  0  0
M  ISO  4   1 100  68 101  78 101  85 100
M  END
> <chiral flag>
0

> <version>
0

> <s_m_source_file>
/data/baiqing/PycharmProjects/Reinvent-master-3.2/result/LINK_invent/BTK/process_docking_weight1_custom_product_contain_oxygen_bond_distance_aromatic_linkinvent_7_9_3/rearranged_h_0119.sdf

> <i_m_source_file_index>
85

> <r_mmod_Potential_Energy-OPLS-2005>
313.93701171875

> <r_mmod_Stretch_Energy-OPLS-2005>
145.729965209961

> <r_mmod_Bend_Energy-OPLS-2005>
226.33447265625

> <r_mmod_Torsional_Energy-OPLS-2005>
280.624877929688

> <r_mmod_Improper_Torsional_Energy-OPLS-2005>
6.1063060760498

> <r_mmod_Van_der_Waal_Energy-OPLS-2005>
138.713775634766

> <r_mmod_Electrostatic_Energy-OPLS-2005>
-382.857360839844

> <r_mmod_Solvation_Energy-OPLS-2005>
-221.219131469727

> <b_mmod_Minimization_Converged-OPLS-2005>
0

> <r_mmod_RMS_Derivative-OPLS-2005>
1.29008114337921

$$$$
85
                    3D
 Structure written by MMmdl.
156164  0  0  1  0            999 V2000
  -30.6161  -14.6565   20.5214 C   0  0  0  0  0  0
  -30.4407  -12.4084   19.4575 C   0  0  0  0  0  0
  -29.5114  -12.5192   18.2276 C   0  0  0  0  0  0
  -28.0326  -12.3547   18.6359 C   0  0  0  0  0  0
  -27.6522  -13.2216   19.8650 C   0  0  2  0  0  0
  -28.6957  -13.0729   20.9960 C   0  0  0  0  0  0
  -25.2506  -13.8182   20.5594 C   0  0  0  0  0  0
  -24.1812  -13.0452   20.9209 C   0  0  0  0  0  0
  -24.6388  -11.6924   20.8743 C   0  0  0  0  0  0
  -23.9060  -10.4297   21.0408 C   0  0  0  0  0  0
  -24.3601   -9.4210   21.9190 C   0  0  0  0  0  0
  -23.6281   -8.2242   22.0752 C   0  0  0  0  0  0
  -22.4263   -8.0278   21.3543 C   0  0  0  0  0  0
  -21.9906   -9.0260   20.4648 C   0  0  0  0  0  0
  -22.7236  -10.2140   20.3061 C   0  0  0  0  0  0
  -21.6859   -6.0719   22.5272 C   0  0  0  0  0  0
  -21.4014   -6.5620   23.8207 C   0  0  0  0  0  0
  -21.3652   -5.6784   24.9170 C   0  0  0  0  0  0
  -21.6047   -4.3048   24.7221 C   0  0  0  0  0  0
  -21.8821   -3.8135   23.4344 C   0  0  0  0  0  0
  -21.9197   -4.6944   22.3400 C   0  0  0  0  0  0
  -22.7827  -13.5244   21.1863 C   0  0  0  0  0  0
  -22.1670   -4.2126   21.0976 F   0  0  0  0  0  0
  -21.5620   -3.4538   25.7738 F   0  0  0  0  0  0
  -30.0113  -13.4255   20.4397 N   0  0  0  0  0  0
  -26.2967  -12.9379   20.3299 N   0  0  0  0  0  0
  -25.9320  -11.6533   20.5761 N   0  0  0  0  0  0
  -22.0466  -12.8249   22.0432 N   0  0  0  0  0  0
  -25.4136  -15.1884   20.3771 N   0  0  0  0  0  0
  -31.7705  -14.8227   20.1171 O   0  0  0  0  0  0
  -21.6639   -6.8863   21.4236 O   0  0  0  0  0  0
  -22.3507  -14.5539   20.6685 O   0  0  0  0  0  0
  -24.6274  -31.8608   23.2039 C   0  0  0  0  0  0
  -25.9110  -32.4785   23.8374 C   0  0  1  0  0  0
  -27.2203  -27.3134   20.1162 C   0  0  0  0  0  0
  -25.5912  -33.8582   24.2294 N   0  0  0  0  0  0
  -23.4210  -30.4868   21.5474 C   0  0  2  0  0  0
  -24.8671  -28.9479   20.1097 C   0  0  0  0  0  0
  -22.7489  -29.4625   22.4936 C   0  0  0  0  0  0
  -18.0284  -28.1380   22.8483 C   0  0  0  0  0  0
  -24.1471  -36.7281   23.2646 C   0  0  0  0  0  0
  -25.9644  -30.7919   21.3761 C   0  0  0  0  0  0
  -26.0378  -29.4195   20.7167 C   0  0  0  0  0  0
  -27.2176  -28.6144   20.7113 C   0  0  0  0  0  0
  -26.0243  -26.9042   19.4782 C   0  0  0  0  0  0
  -24.8638  -27.6968   19.4795 C   0  0  0  0  0  0
  -23.6364  -29.8293   20.1603 C   0  0  0  0  0  0
  -25.4095  -36.3086   24.0338 C   0  0  1  0  0  0
  -20.5893  -28.3681   23.1284 C   0  0  2  0  0  0
  -20.6770  -26.9399   22.5413 C   0  0  0  0  0  0
  -19.5745  -26.6385   21.5209 C   0  0  0  0  0  0
  -18.1923  -26.7920   22.1623 C   0  0  0  0  0  0
  -19.1541  -28.8844   23.2882 C   0  0  0  0  0  0
  -18.9459  -30.1443   23.8909 C   0  0  0  0  0  0
  -17.6461  -30.6579   24.0567 C   0  0  0  0  0  0
  -25.9039  -34.9456   23.5119 C   0  0  0  0  0  0
  -16.5352  -29.9084   23.6321 C   0  0  0  0  0  0
  -16.7274  -28.6500   23.0343 C   0  0  0  0  0  0
  -26.4486  -31.6584   25.0742 C   0  0  0  0  0  0
  -25.3707  -31.3716   26.1467 C   0  0  0  0  0  0
  -27.0306  -30.3001   24.6185 C   0  0  0  0  0  0
  -27.6066  -32.4299   25.7504 C   0  0  0  0  0  0
  -27.5558  -37.1793   24.8467 C   0  0  0  0  0  0
  -21.4205  -29.3023   22.3670 N   0  0  0  0  0  0
  -26.4268  -37.3778   23.9420 N   0  0  0  0  0  0
  -24.6901  -31.0626   22.0997 N   0  0  0  0  0  0
  -23.4210  -28.8159   23.3010 O   0  0  0  0  0  0
  -28.3219  -26.4395   20.1744 O   0  0  0  0  0  0
  -26.5619  -34.8927   22.4692 O   0  0  0  0  0  0
  -23.5432  -32.1404   23.7364 O   0  0  0  0  0  0
  -30.9562  -17.8679   20.2364 C   0  0  0  0  0  0
  -28.7844  -19.3919   21.1257 C   0  0  0  0  0  0
  -30.9643  -19.2930   20.1175 C   0  0  0  0  0  0
  -28.7961  -17.9676   21.2935 C   0  0  0  0  0  0
  -29.8764  -17.1561   20.8199 C   0  0  0  0  0  0
  -29.8637  -20.0992   20.5299 C   0  0  0  0  0  0
  -29.1537  -23.9457   20.3690 C   0  0  0  0  0  0
  -32.2049  -19.9517   19.5365 C   0  0  0  0  0  0
  -27.6261  -17.3426   22.0436 C   0  0  0  0  0  0
  -28.0174  -24.9893   20.0358 C   0  0  0  0  0  0
  -28.7872  -22.4032   20.4793 C   0  0  0  0  0  0
  -29.8163  -15.6895   20.9489 N   0  0  0  0  0  0
  -30.3185  -24.3266   20.5383 O   0  0  0  0  0  0
  -29.9418  -21.5029   20.3683 O   0  0  0  0  0  0
  -31.4819  -12.5349   19.1574 H   0  0  0  0  0  0
  -30.3761  -11.4114   19.8960 H   0  0  0  0  0  0
  -29.7803  -11.7704   17.4807 H   0  0  0  0  0  0
  -29.6532  -13.4901   17.7502 H   0  0  0  0  0  0
  -27.8655  -11.3018   18.8625 H   0  0  0  0  0  0
  -27.3818  -12.5918   17.7932 H   0  0  0  0  0  0
  -27.6739  -14.2579   19.5276 H   0  0  0  0  0  0
  -28.7128  -12.0468   21.3689 H   0  0  0  0  0  0
  -28.4348  -13.6935   21.8540 H   0  0  0  0  0  0
  -25.2739   -9.5695   22.4774 H   0  0  0  0  0  0
  -23.9987   -7.4637   22.7480 H   0  0  0  0  0  0
  -21.0838   -8.8785   19.8959 H   0  0  0  0  0  0
  -22.3695  -10.9667   19.6162 H   0  0  0  0  0  0
  -21.2018   -7.6132   23.9699 H   0  0  0  0  0  0
  -21.1466   -6.0511   25.9069 H   0  0  0  0  0  0
  -22.0606   -2.7596   23.2856 H   0  0  0  0  0  0
  -22.4061  -11.9913   22.4837 H   0  0  0  0  0  0
  -21.1065  -13.1253   22.2589 H   0  0  0  0  0  0
  -24.6356  -15.8337   20.4615 H   0  0  0  0  0  0
  -26.2320  -15.6157   19.9621 H   0  0  0  0  0  0
  -26.7191  -32.5454   23.1137 H   0  0  0  0  0  0
  -25.0023  -33.9719   25.0419 H   0  0  0  0  0  0
  -22.7135  -31.3069   21.4092 H   0  0  0  0  0  0
  -23.3727  -35.9620   23.3344 H   0  0  0  0  0  0
  -24.3547  -36.8858   22.2050 H   0  0  0  0  0  0
  -23.7235  -37.6503   23.6637 H   0  0  0  0  0  0
  -26.0944  -31.5539   20.6065 H   0  0  0  0  0  0
  -26.8457  -30.8418   22.0039 H   0  0  0  0  0  0
  -28.1129  -28.9697   21.2021 H   0  0  0  0  0  0
  -25.9478  -25.9520   18.9772 H   0  0  0  0  0  0
  -23.9686  -27.3327   18.9948 H   0  0  0  0  0  0
  -23.7621  -30.6110   19.4105 H   0  0  0  0  0  0
  -22.7552  -29.2640   19.8515 H   0  0  0  0  0  0
  -25.1269  -36.1935   25.0827 H   0  0  0  0  0  0
  -20.9981  -28.3252   24.1410 H   0  0  0  0  0  0
  -20.5667  -26.2283   23.3611 H   0  0  0  0  0  0
  -21.6641  -26.7425   22.1215 H   0  0  0  0  0  0
  -19.6911  -25.6298   21.1230 H   0  0  0  0  0  0
  -19.6686  -27.3212   20.6747 H   0  0  0  0  0  0
  -17.4192  -26.6665   21.4024 H   0  0  0  0  0  0
  -18.0334  -26.0067   22.9028 H   0  0  0  0  0  0
  -19.7934  -30.7244   24.2305 H   0  0  0  0  0  0
  -17.5016  -31.6251   24.5187 H   0  0  0  0  0  0
  -15.5354  -30.2985   23.7647 H   0  0  0  0  0  0
  -15.8671  -28.0823   22.7060 H   0  0  0  0  0  0
  -24.5879  -30.7081   25.7780 H   0  0  0  0  0  0
  -24.8903  -32.2873   26.4909 H   0  0  0  0  0  0
  -25.8020  -30.8868   27.0231 H   0  0  0  0  0  0
  -26.2856  -29.6767   24.1231 H   0  0  0  0  0  0
  -27.4015  -29.7248   25.4676 H   0  0  0  0  0  0
  -27.8731  -30.4274   23.9387 H   0  0  0  0  0  0
  -27.2699  -33.3596   26.2097 H   0  0  0  0  0  0
  -28.3860  -32.6849   25.0314 H   0  0  0  0  0  0
  -28.0754  -31.8406   26.5394 H   0  0  0  0  0  0
  -28.2603  -38.0066   24.7484 H   0  0  0  0  0  0
  -28.1017  -36.2590   24.6312 H   0  0  0  0  0  0
  -27.2276  -37.1489   25.8874 H   0  0  0  0  0  0
  -20.9394  -29.8709   21.6850 H   0  0  0  0  0  0
  -26.0147  -38.2852   24.1420 H   0  0  0  0  0  0
  -31.8160  -17.3225   19.8759 H   0  0  0  0  0  0
  -27.9355  -19.9497   21.4965 H   0  0  0  0  0  0
  -33.0998  -19.3998   19.8262 H   0  0  0  0  0  0
  -32.3291  -20.9754   19.8928 H   0  0  0  0  0  0
  -32.1557  -19.9706   18.4482 H   0  0  0  0  0  0
  -27.7999  -17.4051   23.1195 H   0  0  0  0  0  0
  -27.4682  -16.2939   21.7982 H   0  0  0  0  0  0
  -26.6945  -17.8683   21.8267 H   0  0  0  0  0  0
  -27.1603  -24.7451   20.6638 H   0  0  0  0  0  0
  -27.7234  -24.7963   19.0040 H   0  0  0  0  0  0
  -28.0679  -22.1577   19.6964 H   0  0  0  0  0  0
  -28.2896  -22.2407   21.4352 H   0  0  0  0  0  0
  -28.9372  -15.3518   21.3070 H   0  0  0  0  0  0
  1 25  1  0  0  0
  1 30  2  0  0  0
  1 82  1  0  0  0
  2  3  1  0  0  0
  2 25  1  0  0  0
  2 85  1  0  0  0
  2 86  1  0  0  0
  3  4  1  0  0  0
  3 87  1  0  0  0
  3 88  1  0  0  0
  4  5  1  0  0  0
  4 89  1  0  0  0
  4 90  1  0  0  0
  5  6  1  0  0  0
  5 26  1  0  0  0
  5 91  1  0  0  0
  6 25  1  0  0  0
  6 92  1  0  0  0
  6 93  1  0  0  0
  7  8  2  0  0  0
  7 26  1  0  0  0
  7 29  1  0  0  0
  8  9  1  0  0  0
  8 22  1  0  0  0
  9 10  1  0  0  0
  9 27  2  0  0  0
 10 11  2  0  0  0
 10 15  1  0  0  0
 11 12  1  0  0  0
 11 94  1  0  0  0
 12 13  2  0  0  0
 12 95  1  0  0  0
 13 14  1  0  0  0
 13 31  1  0  0  0
 14 15  2  0  0  0
 14 96  1  0  0  0
 15 97  1  0  0  0
 16 17  2  0  0  0
 16 21  1  0  0  0
 16 31  1  0  0  0
 17 18  1  0  0  0
 17 98  1  0  0  0
 18 19  2  0  0  0
 18 99  1  0  0  0
 19 20  1  0  0  0
 19 24  1  0  0  0
 20 21  2  0  0  0
 20100  1  0  0  0
 21 23  1  0  0  0
 22 28  1  0  0  0
 22 32  2  0  0  0
 26 27  1  0  0  0
 28101  1  0  0  0
 28102  1  0  0  0
 29103  1  0  0  0
 29104  1  0  0  0
 33 34  1  0  0  0
 33 66  1  0  0  0
 33 70  2  0  0  0
 34 36  1  0  0  0
 34 59  1  0  0  0
 34105  1  0  0  0
 35 44  2  0  0  0
 35 45  1  0  0  0
 35 68  1  0  0  0
 36 56  1  0  0  0
 36106  1  0  0  0
 37 39  1  0  0  0
 37 47  1  0  0  0
 37 66  1  0  0  0
 37107  1  0  0  0
 38 43  2  0  0  0
 38 46  1  0  0  0
 38 47  1  0  0  0
 39 64  1  0  0  0
 39 67  2  0  0  0
 40 52  1  0  0  0
 40 53  2  0  0  0
 40 58  1  0  0  0
 41108  1  0  0  0
 41109  1  0  0  0
 41110  1  0  0  0
 41 48  1  0  0  0
 42 43  1  0  0  0
 42 66  1  0  0  0
 42111  1  0  0  0
 42112  1  0  0  0
 43 44  1  0  0  0
 44113  1  0  0  0
 45 46  2  0  0  0
 45114  1  0  0  0
 46115  1  0  0  0
 47116  1  0  0  0
 47117  1  0  0  0
 48 56  1  0  0  0
 48 65  1  0  0  0
 48118  1  0  0  0
 49 50  1  0  0  0
 49 53  1  0  0  0
 49 64  1  0  0  0
 49119  1  0  0  0
 50 51  1  0  0  0
 50120  1  0  0  0
 50121  1  0  0  0
 51 52  1  0  0  0
 51122  1  0  0  0
 51123  1  0  0  0
 52124  1  0  0  0
 52125  1  0  0  0
 53 54  1  0  0  0
 54 55  2  0  0  0
 54126  1  0  0  0
 55 57  1  0  0  0
 55127  1  0  0  0
 56 69  2  0  0  0
 57 58  2  0  0  0
 57128  1  0  0  0
 58129  1  0  0  0
 59 60  1  0  0  0
 59 61  1  0  0  0
 59 62  1  0  0  0
 60130  1  0  0  0
 60131  1  0  0  0
 60132  1  0  0  0
 61133  1  0  0  0
 61134  1  0  0  0
 61135  1  0  0  0
 62136  1  0  0  0
 62137  1  0  0  0
 62138  1  0  0  0
 63 65  1  0  0  0
 63139  1  0  0  0
 63140  1  0  0  0
 63141  1  0  0  0
 64142  1  0  0  0
 65143  1  0  0  0
 68 80  1  0  0  0
 71 73  2  0  0  0
 71 75  1  0  0  0
 71144  1  0  0  0
 72 74  1  0  0  0
 72 76  2  0  0  0
 72145  1  0  0  0
 73 76  1  0  0  0
 73 78  1  0  0  0
 74 75  2  0  0  0
 74 79  1  0  0  0
 75 82  1  0  0  0
 76 84  1  0  0  0
 77 80  1  0  0  0
 77 81  1  0  0  0
 77 83  2  0  0  0
 78146  1  0  0  0
 78147  1  0  0  0
 78148  1  0  0  0
 79149  1  0  0  0
 79150  1  0  0  0
 79151  1  0  0  0
 80152  1  0  0  0
 80153  1  0  0  0
 81 84  1  0  0  0
 81154  1  0  0  0
 81155  1  0  0  0
 82156  1  0  0  0
M  ISO  4   1 100  68 101  80 101  82 100
M  END
> <chiral flag>
0

> <version>
0

> <s_m_source_file>
/data/baiqing/PycharmProjects/Reinvent-master-3.2/result/LINK_invent/BTK/process_docking_weight1_custom_product_contain_oxygen_bond_distance_aromatic_linkinvent_7_9_3/rearranged_h_0119.sdf

> <i_m_source_file_index>
86

> <r_mmod_Potential_Energy-OPLS-2005>
45.2642250061035

> <r_mmod_Stretch_Energy-OPLS-2005>
86.7859420776367

> <r_mmod_Bend_Energy-OPLS-2005>
144.843475341797

> <r_mmod_Torsional_Energy-OPLS-2005>
210.396011352539

> <r_mmod_Improper_Torsional_Energy-OPLS-2005>
3.96345186233521

> <r_mmod_Van_der_Waal_Energy-OPLS-2005>
145.739700317383

> <r_mmod_Electrostatic_Energy-OPLS-2005>
-359.184997558594

> <r_mmod_Solvation_Energy-OPLS-2005>
-241.015090942383

> <b_mmod_Minimization_Converged-OPLS-2005>
0

> <r_mmod_RMS_Derivative-OPLS-2005>
2.46341967582703

$$$$
86
                    3D
 Structure written by MMmdl.
155163  0  0  1  0            999 V2000
  -30.7009  -14.4885   20.5534 C   0  0  0  0  0  0
  -30.4240  -12.2912   19.4522 C   0  0  0  0  0  0
  -29.5049  -12.4818   18.2232 C   0  0  0  0  0  0
  -28.0257  -12.3401   18.6345 C   0  0  0  0  0  0
  -27.6666  -13.1937   19.8814 C   0  0  2  0  0  0
  -28.7019  -12.9746   21.0027 C   0  0  0  0  0  0
  -25.2677  -13.8107   20.5725 C   0  0  0  0  0  0
  -24.1888  -13.0416   20.9212 C   0  0  0  0  0  0
  -24.6413  -11.6870   20.8779 C   0  0  0  0  0  0
  -23.9076  -10.4264   21.0465 C   0  0  0  0  0  0
  -24.3620   -9.4171   21.9246 C   0  0  0  0  0  0
  -23.6294   -8.2195   22.0780 C   0  0  0  0  0  0
  -22.4280   -8.0266   21.3543 C   0  0  0  0  0  0
  -21.9933   -9.0254   20.4658 C   0  0  0  0  0  0
  -22.7263  -10.2129   20.3104 C   0  0  0  0  0  0
  -21.6830   -6.0757   22.5293 C   0  0  0  0  0  0
  -21.3996   -6.5664   23.8224 C   0  0  0  0  0  0
  -21.3660   -5.6828   24.9199 C   0  0  0  0  0  0
  -21.6039   -4.3088   24.7236 C   0  0  0  0  0  0
  -21.8808   -3.8167   23.4358 C   0  0  0  0  0  0
  -21.9180   -4.6989   22.3415 C   0  0  0  0  0  0
  -22.7932  -13.5261   21.1889 C   0  0  0  0  0  0
  -22.1656   -4.2159   21.0991 F   0  0  0  0  0  0
  -21.5635   -3.4568   25.7751 F   0  0  0  0  0  0
  -30.0343  -13.2960   20.4593 N   0  0  0  0  0  0
  -26.3058  -12.9242   20.3415 N   0  0  0  0  0  0
  -25.9336  -11.6404   20.5786 N   0  0  0  0  0  0
  -22.0583  -12.8220   22.0426 N   0  0  0  0  0  0
  -25.4546  -15.1788   20.4109 N   0  0  0  0  0  0
  -31.8444  -14.6233   20.1094 O   0  0  0  0  0  0
  -21.6623   -6.8886   21.4242 O   0  0  0  0  0  0
  -22.3639  -14.5577   20.6776 O   0  0  0  0  0  0
  -24.6142  -31.8697   23.2131 C   0  0  0  0  0  0
  -25.9033  -32.4864   23.8439 C   0  0  1  0  0  0
  -27.2541  -27.4402   20.1142 C   0  0  0  0  0  0
  -25.5906  -33.8656   24.2376 N   0  0  0  0  0  0
  -23.4057  -30.4894   21.5534 C   0  0  2  0  0  0
  -24.8608  -28.9559   20.1204 C   0  0  0  0  0  0
  -22.7449  -29.4607   22.4980 C   0  0  0  0  0  0
  -18.0306  -28.1238   22.8683 C   0  0  0  0  0  0
  -24.1489  -36.7325   23.2639 C   0  0  0  0  0  0
  -25.9317  -30.8386   21.3645 C   0  0  0  0  0  0
  -26.0173  -29.4681   20.7226 C   0  0  0  0  0  0
  -27.2182  -28.7177   20.7218 C   0  0  0  0  0  0
  -26.0837  -26.9383   19.5086 C   0  0  0  0  0  0
  -24.8900  -27.6888   19.5081 C   0  0  0  0  0  0
  -23.6241  -29.8289   20.1659 C   0  0  0  0  0  0
  -25.4114  -36.3156   24.0358 C   0  0  1  0  0  0
  -20.5939  -28.3442   23.1166 C   0  0  2  0  0  0
  -20.6792  -26.9336   22.4816 C   0  0  0  0  0  0
  -19.5351  -26.6305   21.5094 C   0  0  0  0  0  0
  -18.1891  -26.7621   22.2200 C   0  0  0  0  0  0
  -19.1624  -28.8653   23.2954 C   0  0  0  0  0  0
  -18.9661  -30.1247   23.8973 C   0  0  0  0  0  0
  -17.6702  -30.6503   24.0638 C   0  0  0  0  0  0
  -25.9032  -34.9511   23.5164 C   0  0  0  0  0  0
  -16.5511  -29.9113   23.6405 C   0  0  0  0  0  0
  -16.7325  -28.6462   23.0527 C   0  0  0  0  0  0
  -26.4471  -31.6597   25.0711 C   0  0  0  0  0  0
  -25.3734  -31.3674   26.1448 C   0  0  0  0  0  0
  -27.0266  -30.3061   24.5989 C   0  0  0  0  0  0
  -27.6095  -32.4244   25.7474 C   0  0  0  0  0  0
  -27.5593  -37.1837   24.8482 C   0  0  0  0  0  0
  -21.4168  -29.2978   22.3747 N   0  0  0  0  0  0
  -26.4320  -37.3823   23.9420 N   0  0  0  0  0  0
  -24.6691  -31.0785   22.1049 N   0  0  0  0  0  0
  -23.4209  -28.8140   23.3017 O   0  0  0  0  0  0
  -28.4015  -26.6738   20.1058 O   0  0  0  0  0  0
  -26.5561  -34.8944   22.4711 O   0  0  0  0  0  0
  -23.5333  -32.1448   23.7511 O   0  0  0  0  0  0
  -30.0237  -19.4428   20.8035 C   0  0  0  0  0  0
  -28.2842  -18.0672   21.8003 C   0  0  0  0  0  0
  -28.0889  -20.4942   21.8415 C   0  0  0  0  0  0
  -29.5279  -18.1500   21.1339 C   0  0  0  0  0  0
  -29.3252  -20.6351   21.1643 C   0  0  0  0  0  0
  -27.5542  -19.2261   22.1213 C   0  0  0  0  0  0
  -30.2782  -16.9178   20.7598 C   0  0  0  0  0  0
  -29.9268  -15.6342   21.0506 C   0  0  0  0  0  0
  -28.9867  -23.1982   20.9573 C   0  0  0  0  0  0
  -29.3700  -24.4934   20.8689 C   0  0  0  0  0  0
  -29.8817  -22.0032   20.8270 C   0  0  0  0  0  0
  -26.1788  -19.1187   22.7490 C   0  0  0  0  0  0
  -28.4046  -25.6565   21.1190 C   0  0  0  0  0  0
  -31.0530  -22.1280   20.4602 O   0  0  0  0  0  0
  -31.4710  -12.3704   19.1630 H   0  0  0  0  0  0
  -30.3070  -11.2827   19.8603 H   0  0  0  0  0  0
  -29.7442  -11.7493   17.4511 H   0  0  0  0  0  0
  -29.6764  -13.4609   17.7754 H   0  0  0  0  0  0
  -27.8434  -11.2824   18.8339 H   0  0  0  0  0  0
  -27.3732  -12.6020   17.8005 H   0  0  0  0  0  0
  -27.7175  -14.2404   19.5814 H   0  0  0  0  0  0
  -28.6712  -11.9327   21.3215 H   0  0  0  0  0  0
  -28.4487  -13.5317   21.9038 H   0  0  0  0  0  0
  -25.2765   -9.5624   22.4838 H   0  0  0  0  0  0
  -24.0013   -7.4553   22.7469 H   0  0  0  0  0  0
  -21.0896   -8.8765   19.8919 H   0  0  0  0  0  0
  -22.3767  -10.9685   19.6197 H   0  0  0  0  0  0
  -21.1976   -7.6162   23.9725 H   0  0  0  0  0  0
  -21.1513   -6.0565   25.9099 H   0  0  0  0  0  0
  -22.0590   -2.7618   23.2860 H   0  0  0  0  0  0
  -22.4181  -11.9795   22.4652 H   0  0  0  0  0  0
  -21.1197  -13.1229   22.2674 H   0  0  0  0  0  0
  -24.7061  -15.8576   20.4827 H   0  0  0  0  0  0
  -26.3317  -15.5872   20.1124 H   0  0  0  0  0  0
  -26.7103  -32.5632   23.1219 H   0  0  0  0  0  0
  -25.0161  -33.9856   25.0591 H   0  0  0  0  0  0
  -22.6920  -31.3034   21.4139 H   0  0  0  0  0  0
  -23.3762  -35.9647   23.3338 H   0  0  0  0  0  0
  -24.3588  -36.8877   22.2043 H   0  0  0  0  0  0
  -23.7211  -37.6544   23.6598 H   0  0  0  0  0  0
  -26.0283  -31.5952   20.5848 H   0  0  0  0  0  0
  -26.8266  -30.9134   21.9704 H   0  0  0  0  0  0
  -28.1084  -29.1096   21.1948 H   0  0  0  0  0  0
  -26.0980  -25.9611   19.0427 H   0  0  0  0  0  0
  -24.0057  -27.2879   19.0322 H   0  0  0  0  0  0
  -23.7633  -30.6171   19.4246 H   0  0  0  0  0  0
  -22.7440  -29.2701   19.8420 H   0  0  0  0  0  0
  -25.1279  -36.2067   25.0851 H   0  0  0  0  0  0
  -21.0085  -28.2664   24.1245 H   0  0  0  0  0  0
  -20.6240  -26.1936   23.2807 H   0  0  0  0  0  0
  -21.6413  -26.7664   21.9916 H   0  0  0  0  0  0
  -19.6350  -25.6250   21.0987 H   0  0  0  0  0  0
  -19.5712  -27.3161   20.6621 H   0  0  0  0  0  0
  -17.3730  -26.5659   21.5250 H   0  0  0  0  0  0
  -18.1115  -26.0029   23.0039 H   0  0  0  0  0  0
  -19.8198  -30.6902   24.2436 H   0  0  0  0  0  0
  -17.5395  -31.6167   24.5283 H   0  0  0  0  0  0
  -15.5540  -30.3123   23.7738 H   0  0  0  0  0  0
  -15.8695  -28.0751   22.7397 H   0  0  0  0  0  0
  -24.5946  -30.6974   25.7779 H   0  0  0  0  0  0
  -24.8858  -32.2801   26.4888 H   0  0  0  0  0  0
  -25.8084  -30.8864   27.0221 H   0  0  0  0  0  0
  -26.2766  -29.6846   24.1071 H   0  0  0  0  0  0
  -27.4127  -29.7254   25.4378 H   0  0  0  0  0  0
  -27.8573  -30.4418   23.9056 H   0  0  0  0  0  0
  -27.2807  -33.3567   26.2093 H   0  0  0  0  0  0
  -28.3923  -32.6741   25.0288 H   0  0  0  0  0  0
  -28.0749  -31.8294   26.5353 H   0  0  0  0  0  0
  -28.2647  -38.0094   24.7510 H   0  0  0  0  0  0
  -28.1045  -36.2634   24.6345 H   0  0  0  0  0  0
  -27.2310  -37.1547   25.8880 H   0  0  0  0  0  0
  -20.9308  -29.8777   21.7049 H   0  0  0  0  0  0
  -26.0225  -38.2923   24.1376 H   0  0  0  0  0  0
  -30.9612  -19.5128   20.2643 H   0  0  0  0  0  0
  -27.8571  -17.1133   22.0590 H   0  0  0  0  0  0
  -27.5168  -21.3463   22.1673 H   0  0  0  0  0  0
  -31.1770  -17.0865   20.1806 H   0  0  0  0  0  0
  -29.0549  -15.4655   21.6493 H   0  0  0  0  0  0
  -27.9420  -23.0308   21.1499 H   0  0  0  0  0  0
  -30.3982  -24.7543   20.6516 H   0  0  0  0  0  0
  -25.7445  -18.1344   22.5712 H   0  0  0  0  0  0
  -25.5005  -19.8590   22.3192 H   0  0  0  0  0  0
  -26.2262  -19.2970   23.8220 H   0  0  0  0  0  0
  -28.6674  -26.1140   22.0742 H   0  0  0  0  0  0
  -27.4012  -25.2424   21.2445 H   0  0  0  0  0  0
  1 25  1  0  0  0
  1 30  2  0  0  0
  1 78  1  0  0  0
  2  3  1  0  0  0
  2 25  1  0  0  0
  2 85  1  0  0  0
  2 86  1  0  0  0
  3  4  1  0  0  0
  3 87  1  0  0  0
  3 88  1  0  0  0
  4  5  1  0  0  0
  4 89  1  0  0  0
  4 90  1  0  0  0
  5  6  1  0  0  0
  5 26  1  0  0  0
  5 91  1  0  0  0
  6 25  1  0  0  0
  6 92  1  0  0  0
  6 93  1  0  0  0
  7  8  2  0  0  0
  7 26  1  0  0  0
  7 29  1  0  0  0
  8  9  1  0  0  0
  8 22  1  0  0  0
  9 10  1  0  0  0
  9 27  2  0  0  0
 10 11  2  0  0  0
 10 15  1  0  0  0
 11 12  1  0  0  0
 11 94  1  0  0  0
 12 13  2  0  0  0
 12 95  1  0  0  0
 13 14  1  0  0  0
 13 31  1  0  0  0
 14 15  2  0  0  0
 14 96  1  0  0  0
 15 97  1  0  0  0
 16 17  2  0  0  0
 16 21  1  0  0  0
 16 31  1  0  0  0
 17 18  1  0  0  0
 17 98  1  0  0  0
 18 19  2  0  0  0
 18 99  1  0  0  0
 19 20  1  0  0  0
 19 24  1  0  0  0
 20 21  2  0  0  0
 20100  1  0  0  0
 21 23  1  0  0  0
 22 28  1  0  0  0
 22 32  2  0  0  0
 26 27  1  0  0  0
 28101  1  0  0  0
 28102  1  0  0  0
 29103  1  0  0  0
 29104  1  0  0  0
 33 34  1  0  0  0
 33 66  1  0  0  0
 33 70  2  0  0  0
 34 36  1  0  0  0
 34 59  1  0  0  0
 34105  1  0  0  0
 35 44  2  0  0  0
 35 45  1  0  0  0
 35 68  1  0  0  0
 36 56  1  0  0  0
 36106  1  0  0  0
 37 39  1  0  0  0
 37 47  1  0  0  0
 37 66  1  0  0  0
 37107  1  0  0  0
 38 43  2  0  0  0
 38 46  1  0  0  0
 38 47  1  0  0  0
 39 64  1  0  0  0
 39 67  2  0  0  0
 40 52  1  0  0  0
 40 53  2  0  0  0
 40 58  1  0  0  0
 41108  1  0  0  0
 41109  1  0  0  0
 41110  1  0  0  0
 41 48  1  0  0  0
 42 43  1  0  0  0
 42 66  1  0  0  0
 42111  1  0  0  0
 42112  1  0  0  0
 43 44  1  0  0  0
 44113  1  0  0  0
 45 46  2  0  0  0
 45114  1  0  0  0
 46115  1  0  0  0
 47116  1  0  0  0
 47117  1  0  0  0
 48 56  1  0  0  0
 48 65  1  0  0  0
 48118  1  0  0  0
 49 50  1  0  0  0
 49 53  1  0  0  0
 49 64  1  0  0  0
 49119  1  0  0  0
 50 51  1  0  0  0
 50120  1  0  0  0
 50121  1  0  0  0
 51 52  1  0  0  0
 51122  1  0  0  0
 51123  1  0  0  0
 52124  1  0  0  0
 52125  1  0  0  0
 53 54  1  0  0  0
 54 55  2  0  0  0
 54126  1  0  0  0
 55 57  1  0  0  0
 55127  1  0  0  0
 56 69  2  0  0  0
 57 58  2  0  0  0
 57128  1  0  0  0
 58129  1  0  0  0
 59 60  1  0  0  0
 59 61  1  0  0  0
 59 62  1  0  0  0
 60130  1  0  0  0
 60131  1  0  0  0
 60132  1  0  0  0
 61133  1  0  0  0
 61134  1  0  0  0
 61135  1  0  0  0
 62136  1  0  0  0
 62137  1  0  0  0
 62138  1  0  0  0
 63 65  1  0  0  0
 63139  1  0  0  0
 63140  1  0  0  0
 63141  1  0  0  0
 64142  1  0  0  0
 65143  1  0  0  0
 68 83  1  0  0  0
 71 74  2  0  0  0
 71 75  1  0  0  0
 71144  1  0  0  0
 72 74  1  0  0  0
 72 76  2  0  0  0
 72145  1  0  0  0
 73 75  2  0  0  0
 73 76  1  0  0  0
 73146  1  0  0  0
 74 77  1  0  0  0
 75 81  1  0  0  0
 76 82  1  0  0  0
 77 78  2  0  0  0
 77147  1  0  0  0
 78148  1  0  0  0
 79 80  2  0  0  0
 79 81  1  0  0  0
 79149  1  0  0  0
 80 83  1  0  0  0
 80150  1  0  0  0
 81 84  2  0  0  0
 82151  1  0  0  0
 82152  1  0  0  0
 82153  1  0  0  0
 83154  1  0  0  0
 83155  1  0  0  0
M  ISO  4   1 100  68 101  78 100  83 101
M  END
> <chiral flag>
0

> <version>
0

> <s_m_source_file>
/data/baiqing/PycharmProjects/Reinvent-master-3.2/result/LINK_invent/BTK/process_docking_weight1_custom_product_contain_oxygen_bond_distance_aromatic_linkinvent_7_9_3/rearranged_h_0119.sdf

> <i_m_source_file_index>
87

> <r_mmod_Potential_Energy-OPLS-2005>
-25.7803936004639

> <r_mmod_Stretch_Energy-OPLS-2005>
45.0893363952637

> <r_mmod_Bend_Energy-OPLS-2005>
97.4383850097656

> <r_mmod_Torsional_Energy-OPLS-2005>
195.379455566406

> <r_mmod_Improper_Torsional_Energy-OPLS-2005>
3.76346468925476

> <r_mmod_Van_der_Waal_Energy-OPLS-2005>
162.645919799805

> <r_mmod_Electrostatic_Energy-OPLS-2005>
-342.751037597656

> <r_mmod_Solvation_Energy-OPLS-2005>
-202.828811645508

> <b_mmod_Minimization_Converged-OPLS-2005>
0

> <r_mmod_RMS_Derivative-OPLS-2005>
5.4995231628418

$$$$
87
                    3D
 Structure written by MMmdl.
159168  0  0  1  0            999 V2000
  -30.7192  -14.4959   20.5248 C   0  0  0  0  0  0
  -30.4084  -12.3024   19.4548 C   0  0  0  0  0  0
  -29.5004  -12.4987   18.2232 C   0  0  0  0  0  0
  -28.0189  -12.3646   18.6241 C   0  0  0  0  0  0
  -27.6575  -13.2190   19.8701 C   0  0  2  0  0  0
  -28.6952  -13.0382   21.0005 C   0  0  0  0  0  0
  -25.2568  -13.8187   20.5695 C   0  0  0  0  0  0
  -24.1829  -13.0443   20.9176 C   0  0  0  0  0  0
  -24.6398  -11.6914   20.8724 C   0  0  0  0  0  0
  -23.9068  -10.4293   21.0395 C   0  0  0  0  0  0
  -24.3619   -9.4212   21.9175 C   0  0  0  0  0  0
  -23.6296   -8.2246   22.0751 C   0  0  0  0  0  0
  -22.4277   -8.0283   21.3545 C   0  0  0  0  0  0
  -21.9913   -9.0253   20.4643 C   0  0  0  0  0  0
  -22.7239  -10.2131   20.3047 C   0  0  0  0  0  0
  -21.6856   -6.0738   22.5279 C   0  0  0  0  0  0
  -21.4013   -6.5637   23.8212 C   0  0  0  0  0  0
  -21.3660   -5.6789   24.9175 C   0  0  0  0  0  0
  -21.6044   -4.3053   24.7222 C   0  0  0  0  0  0
  -21.8819   -3.8149   23.4341 C   0  0  0  0  0  0
  -21.9193   -4.6967   22.3401 C   0  0  0  0  0  0
  -22.7852  -13.5231   21.1846 C   0  0  0  0  0  0
  -22.1663   -4.2152   21.0978 F   0  0  0  0  0  0
  -21.5626   -3.4535   25.7733 F   0  0  0  0  0  0
  -30.0285  -13.3212   20.4507 N   0  0  0  0  0  0
  -26.3008  -12.9380   20.3348 N   0  0  0  0  0  0
  -25.9328  -11.6524   20.5748 N   0  0  0  0  0  0
  -22.0495  -12.8216   22.0400 N   0  0  0  0  0  0
  -25.4287  -15.1909   20.4141 N   0  0  0  0  0  0
  -31.8621  -14.5912   20.0694 O   0  0  0  0  0  0
  -21.6639   -6.8883   21.4243 O   0  0  0  0  0  0
  -22.3531  -14.5537   20.6698 O   0  0  0  0  0  0
  -24.6150  -31.8668   23.2090 C   0  0  0  0  0  0
  -25.9041  -32.4814   23.8395 C   0  0  1  0  0  0
  -27.2343  -27.4309   20.0993 C   0  0  0  0  0  0
  -25.5905  -33.8610   24.2329 N   0  0  0  0  0  0
  -23.4049  -30.4895   21.5476 C   0  0  2  0  0  0
  -24.8556  -28.9588   20.1054 C   0  0  0  0  0  0
  -22.7427  -29.4642   22.4965 C   0  0  0  0  0  0
  -18.0275  -28.1377   22.8488 C   0  0  0  0  0  0
  -24.1482  -36.7300   23.2632 C   0  0  0  0  0  0
  -25.9334  -30.8344   21.3612 C   0  0  0  0  0  0
  -26.0143  -29.4695   20.7058 C   0  0  0  0  0  0
  -27.2095  -28.7126   20.7019 C   0  0  0  0  0  0
  -26.0679  -26.9419   19.4815 C   0  0  0  0  0  0
  -24.8782  -27.6952   19.4871 C   0  0  0  0  0  0
  -23.6148  -29.8226   20.1605 C   0  0  0  0  0  0
  -25.4094  -36.3101   24.0345 C   0  0  1  0  0  0
  -20.5869  -28.3659   23.1310 C   0  0  2  0  0  0
  -20.6759  -26.9394   22.5415 C   0  0  0  0  0  0
  -19.5736  -26.6386   21.5210 C   0  0  0  0  0  0
  -18.1917  -26.7927   22.1625 C   0  0  0  0  0  0
  -19.1527  -28.8836   23.2895 C   0  0  0  0  0  0
  -18.9455  -30.1447   23.8897 C   0  0  0  0  0  0
  -17.6456  -30.6579   24.0564 C   0  0  0  0  0  0
  -25.9036  -34.9471   23.5134 C   0  0  0  0  0  0
  -16.5343  -29.9081   23.6331 C   0  0  0  0  0  0
  -16.7265  -28.6503   23.0341 C   0  0  0  0  0  0
  -26.4473  -31.6580   25.0714 C   0  0  0  0  0  0
  -25.3750  -31.3676   26.1471 C   0  0  0  0  0  0
  -27.0298  -30.3027   24.6063 C   0  0  0  0  0  0
  -27.6055  -32.4288   25.7478 C   0  0  0  0  0  0
  -27.5593  -37.1774   24.8444 C   0  0  0  0  0  0
  -21.4150  -29.3023   22.3716 N   0  0  0  0  0  0
  -26.4265  -37.3805   23.9449 N   0  0  0  0  0  0
  -24.6693  -31.0772   22.0982 N   0  0  0  0  0  0
  -23.4199  -28.8181   23.3007 O   0  0  0  0  0  0
  -28.3314  -26.5995   20.1673 O   0  0  0  0  0  0
  -26.5591  -34.8928   22.4693 O   0  0  0  0  0  0
  -23.5338  -32.1413   23.7483 O   0  0  0  0  0  0
  -29.3524  -18.6223   21.9813 C   0  0  0  0  0  0
  -29.8153  -19.2411   19.6940 C   0  0  0  0  0  0
  -29.0802  -19.9788   22.2775 C   0  0  0  0  0  0
  -29.5233  -20.5951   19.9865 C   0  0  0  0  0  0
  -29.7733  -18.2395   20.6922 C   0  0  0  0  0  0
  -29.1976  -21.0056   21.3005 C   0  0  0  0  0  0
  -28.8699  -24.7517   21.7005 C   0  0  0  0  0  0
  -30.2108  -16.8591   20.3577 C   0  0  0  0  0  0
  -28.4976  -26.0213   21.4063 C   0  0  0  0  0  0
  -30.0218  -15.6883   21.0239 C   0  0  0  0  0  0
  -28.9254  -24.2629   23.1241 C   0  0  0  0  0  0
  -28.7658  -22.7475   23.0390 C   0  0  0  0  0  0
  -29.2126  -23.5685   20.7962 C   0  0  1  0  0  0
  -30.6778  -23.7103   20.3450 C   0  0  0  0  0  0
  -29.0088  -22.3754   21.6473 N   0  0  0  0  0  0
  -31.4590  -12.3569   19.1643 H   0  0  0  0  0  0
  -30.2736  -11.3033   19.8721 H   0  0  0  0  0  0
  -29.7493  -11.7688   17.4519 H   0  0  0  0  0  0
  -29.6780  -13.4823   17.7852 H   0  0  0  0  0  0
  -27.8283  -11.3108   18.8303 H   0  0  0  0  0  0
  -27.3752  -12.6308   17.7849 H   0  0  0  0  0  0
  -27.6933  -14.2627   19.5568 H   0  0  0  0  0  0
  -28.6666  -12.0156   21.3796 H   0  0  0  0  0  0
  -28.4544  -13.6715   21.8538 H   0  0  0  0  0  0
  -25.2768   -9.5689   22.4745 H   0  0  0  0  0  0
  -24.0010   -7.4641   22.7468 H   0  0  0  0  0  0
  -21.0849   -8.8766   19.8948 H   0  0  0  0  0  0
  -22.3699  -10.9664   19.6147 H   0  0  0  0  0  0
  -21.2000   -7.6143   23.9717 H   0  0  0  0  0  0
  -21.1482   -6.0517   25.9079 H   0  0  0  0  0  0
  -22.0594   -2.7612   23.2837 H   0  0  0  0  0  0
  -22.4102  -11.9862   22.4775 H   0  0  0  0  0  0
  -21.1117  -13.1250   22.2611 H   0  0  0  0  0  0
  -24.6677  -15.8507   20.5322 H   0  0  0  0  0  0
  -26.2955  -15.6315   20.1315 H   0  0  0  0  0  0
  -26.7113  -32.5534   23.1162 H   0  0  0  0  0  0
  -25.0083  -33.9771   25.0495 H   0  0  0  0  0  0
  -22.6929  -31.3060   21.4087 H   0  0  0  0  0  0
  -23.3770  -35.9602   23.3231 H   0  0  0  0  0  0
  -24.3607  -36.8972   22.2063 H   0  0  0  0  0  0
  -23.7191  -37.6470   23.6678 H   0  0  0  0  0  0
  -26.0444  -31.6020   20.5939 H   0  0  0  0  0  0
  -26.8215  -30.8887   21.9791 H   0  0  0  0  0  0
  -28.1003  -29.0933   21.1821 H   0  0  0  0  0  0
  -26.0758  -25.9620   19.0249 H   0  0  0  0  0  0
  -23.9879  -27.2962   19.0210 H   0  0  0  0  0  0
  -23.7198  -30.5991   19.4018 H   0  0  0  0  0  0
  -22.7396  -29.2411   19.8653 H   0  0  0  0  0  0
  -25.1253  -36.1955   25.0832 H   0  0  0  0  0  0
  -20.9968  -28.3224   24.1429 H   0  0  0  0  0  0
  -20.5662  -26.2264   23.3599 H   0  0  0  0  0  0
  -21.6628  -26.7436   22.1206 H   0  0  0  0  0  0
  -19.6892  -25.6303   21.1229 H   0  0  0  0  0  0
  -19.6680  -27.3207   20.6746 H   0  0  0  0  0  0
  -17.4193  -26.6681   21.4019 H   0  0  0  0  0  0
  -18.0311  -26.0067   22.9018 H   0  0  0  0  0  0
  -19.7931  -30.7264   24.2258 H   0  0  0  0  0  0
  -17.5011  -31.6258   24.5171 H   0  0  0  0  0  0
  -15.5341  -30.2977   23.7653 H   0  0  0  0  0  0
  -15.8669  -28.0829   22.7033 H   0  0  0  0  0  0
  -24.5925  -30.7014   25.7814 H   0  0  0  0  0  0
  -24.8936  -32.2824   26.4936 H   0  0  0  0  0  0
  -25.8126  -30.8844   27.0217 H   0  0  0  0  0  0
  -26.2829  -29.6795   24.1129 H   0  0  0  0  0  0
  -27.4094  -29.7248   25.4499 H   0  0  0  0  0  0
  -27.8655  -30.4350   23.9186 H   0  0  0  0  0  0
  -27.2688  -33.3585   26.2075 H   0  0  0  0  0  0
  -28.3862  -32.6845   25.0302 H   0  0  0  0  0  0
  -28.0724  -31.8392   26.5379 H   0  0  0  0  0  0
  -28.2515  -38.0168   24.7648 H   0  0  0  0  0  0
  -28.1185  -36.2714   24.6058 H   0  0  0  0  0  0
  -27.2350  -37.1167   25.8848 H   0  0  0  0  0  0
  -20.9306  -29.8762   21.6952 H   0  0  0  0  0  0
  -26.0146  -38.2857   24.1549 H   0  0  0  0  0  0
  -29.2893  -17.8896   22.7729 H   0  0  0  0  0  0
  -30.1057  -18.9814   18.6859 H   0  0  0  0  0  0
  -28.8019  -20.2048   23.2956 H   0  0  0  0  0  0
  -29.5833  -21.3148   19.1846 H   0  0  0  0  0  0
  -30.8113  -16.8162   19.4578 H   0  0  0  0  0  0
  -28.2674  -26.7157   22.2028 H   0  0  0  0  0  0
  -29.4151  -15.6461   21.9149 H   0  0  0  0  0  0
  -28.1642  -24.7257   23.7540 H   0  0  0  0  0  0
  -29.9048  -24.5139   23.5339 H   0  0  0  0  0  0
  -27.7521  -22.4553   23.3173 H   0  0  0  0  0  0
  -29.4606  -22.2596   23.7240 H   0  0  0  0  0  0
  -28.5420  -23.5523   19.9351 H   0  0  0  0  0  0
  -31.3566  -23.7310   21.1987 H   0  0  0  0  0  0
  -30.8194  -24.6419   19.7957 H   0  0  0  0  0  0
  -31.0028  -22.9065   19.6879 H   0  0  0  0  0  0
  1 25  1  0  0  0
  1 30  2  0  0  0
  1 80  1  0  0  0
  2  3  1  0  0  0
  2 25  1  0  0  0
  2 86  1  0  0  0
  2 87  1  0  0  0
  3  4  1  0  0  0
  3 88  1  0  0  0
  3 89  1  0  0  0
  4  5  1  0  0  0
  4 90  1  0  0  0
  4 91  1  0  0  0
  5  6  1  0  0  0
  5 26  1  0  0  0
  5 92  1  0  0  0
  6 25  1  0  0  0
  6 93  1  0  0  0
  6 94  1  0  0  0
  7  8  2  0  0  0
  7 26  1  0  0  0
  7 29  1  0  0  0
  8  9  1  0  0  0
  8 22  1  0  0  0
  9 10  1  0  0  0
  9 27  2  0  0  0
 10 11  2  0  0  0
 10 15  1  0  0  0
 11 12  1  0  0  0
 11 95  1  0  0  0
 12 13  2  0  0  0
 12 96  1  0  0  0
 13 14  1  0  0  0
 13 31  1  0  0  0
 14 15  2  0  0  0
 14 97  1  0  0  0
 15 98  1  0  0  0
 16 17  2  0  0  0
 16 21  1  0  0  0
 16 31  1  0  0  0
 17 18  1  0  0  0
 17 99  1  0  0  0
 18 19  2  0  0  0
 18100  1  0  0  0
 19 20  1  0  0  0
 19 24  1  0  0  0
 20 21  2  0  0  0
 20101  1  0  0  0
 21 23  1  0  0  0
 22 28  1  0  0  0
 22 32  2  0  0  0
 26 27  1  0  0  0
 28102  1  0  0  0
 28103  1  0  0  0
 29104  1  0  0  0
 29105  1  0  0  0
 33 34  1  0  0  0
 33 66  1  0  0  0
 33 70  2  0  0  0
 34 36  1  0  0  0
 34 59  1  0  0  0
 34106  1  0  0  0
 35 44  2  0  0  0
 35 45  1  0  0  0
 35 68  1  0  0  0
 36 56  1  0  0  0
 36107  1  0  0  0
 37 39  1  0  0  0
 37 47  1  0  0  0
 37 66  1  0  0  0
 37108  1  0  0  0
 38 43  2  0  0  0
 38 46  1  0  0  0
 38 47  1  0  0  0
 39 64  1  0  0  0
 39 67  2  0  0  0
 40 52  1  0  0  0
 40 53  2  0  0  0
 40 58  1  0  0  0
 41109  1  0  0  0
 41110  1  0  0  0
 41111  1  0  0  0
 41 48  1  0  0  0
 42 43  1  0  0  0
 42 66  1  0  0  0
 42112  1  0  0  0
 42113  1  0  0  0
 43 44  1  0  0  0
 44114  1  0  0  0
 45 46  2  0  0  0
 45115  1  0  0  0
 46116  1  0  0  0
 47117  1  0  0  0
 47118  1  0  0  0
 48 56  1  0  0  0
 48 65  1  0  0  0
 48119  1  0  0  0
 49 50  1  0  0  0
 49 53  1  0  0  0
 49 64  1  0  0  0
 49120  1  0  0  0
 50 51  1  0  0  0
 50121  1  0  0  0
 50122  1  0  0  0
 51 52  1  0  0  0
 51123  1  0  0  0
 51124  1  0  0  0
 52125  1  0  0  0
 52126  1  0  0  0
 53 54  1  0  0  0
 54 55  2  0  0  0
 54127  1  0  0  0
 55 57  1  0  0  0
 55128  1  0  0  0
 56 69  2  0  0  0
 57 58  2  0  0  0
 57129  1  0  0  0
 58130  1  0  0  0
 59 60  1  0  0  0
 59 61  1  0  0  0
 59 62  1  0  0  0
 60131  1  0  0  0
 60132  1  0  0  0
 60133  1  0  0  0
 61134  1  0  0  0
 61135  1  0  0  0
 61136  1  0  0  0
 62137  1  0  0  0
 62138  1  0  0  0
 62139  1  0  0  0
 63 65  1  0  0  0
 63140  1  0  0  0
 63141  1  0  0  0
 63142  1  0  0  0
 64143  1  0  0  0
 65144  1  0  0  0
 68 79  1  0  0  0
 71 73  2  0  0  0
 71 75  1  0  0  0
 71145  1  0  0  0
 72 74  1  0  0  0
 72 75  2  0  0  0
 72146  1  0  0  0
 73 76  1  0  0  0
 73147  1  0  0  0
 74 76  2  0  0  0
 74148  1  0  0  0
 75 78  1  0  0  0
 76 85  1  0  0  0
 77 79  2  0  0  0
 77 81  1  0  0  0
 77 83  1  0  0  0
 78 80  2  0  0  0
 78149  1  0  0  0
 79150  1  0  0  0
 80151  1  0  0  0
 81 82  1  0  0  0
 81152  1  0  0  0
 81153  1  0  0  0
 82 85  1  0  0  0
 82154  1  0  0  0
 82155  1  0  0  0
 83 84  1  0  0  0
 83 85  1  0  0  0
 83156  1  0  0  0
 84157  1  0  0  0
 84158  1  0  0  0
 84159  1  0  0  0
M  ISO  4   1 100  68 101  79 101  80 100
M  END
> <chiral flag>
0

> <version>
0

> <s_m_source_file>
/data/baiqing/PycharmProjects/Reinvent-master-3.2/result/LINK_invent/BTK/process_docking_weight1_custom_product_contain_oxygen_bond_distance_aromatic_linkinvent_7_9_3/rearranged_h_0119.sdf

> <i_m_source_file_index>
88

> <r_mmod_Potential_Energy-OPLS-2005>
29.5033512115479

> <r_mmod_Stretch_Energy-OPLS-2005>
41.8805999755859

> <r_mmod_Bend_Energy-OPLS-2005>
159.466339111328

> <r_mmod_Torsional_Energy-OPLS-2005>
221.822036743164

> <r_mmod_Improper_Torsional_Energy-OPLS-2005>
4.18572759628296

> <r_mmod_Van_der_Waal_Energy-OPLS-2005>
151.792098999023

> <r_mmod_Electrostatic_Energy-OPLS-2005>
-366.190582275391

> <r_mmod_Solvation_Energy-OPLS-2005>
-203.826187133789

> <b_mmod_Minimization_Converged-OPLS-2005>
0

> <r_mmod_RMS_Derivative-OPLS-2005>
0.946826219558716

$$$$
88
                    3D
 Structure written by MMmdl.
153161  0  0  1  0            999 V2000
  -30.6418  -14.7315   20.5112 C   0  0  0  0  0  0
  -30.4260  -12.4525   19.5055 C   0  0  0  0  0  0
  -29.5183  -12.5460   18.2583 C   0  0  0  0  0  0
  -28.0399  -12.3709   18.6493 C   0  0  0  0  0  0
  -27.6491  -13.2437   19.8720 C   0  0  2  0  0  0
  -28.6875  -13.1423   21.0122 C   0  0  0  0  0  0
  -25.2496  -13.8195   20.5710 C   0  0  0  0  0  0
  -24.1809  -13.0428   20.9171 C   0  0  0  0  0  0
  -24.6423  -11.6910   20.8710 C   0  0  0  0  0  0
  -23.9121  -10.4267   21.0390 C   0  0  0  0  0  0
  -24.3664   -9.4168   21.9164 C   0  0  0  0  0  0
  -23.6323   -8.2218   22.0757 C   0  0  0  0  0  0
  -22.4294   -8.0263   21.3552 C   0  0  0  0  0  0
  -21.9953   -9.0230   20.4632 C   0  0  0  0  0  0
  -22.7295  -10.2098   20.3019 C   0  0  0  0  0  0
  -21.6861   -6.0724   22.5287 C   0  0  0  0  0  0
  -21.4045   -6.5656   23.8217 C   0  0  0  0  0  0
  -21.3653   -5.6806   24.9183 C   0  0  0  0  0  0
  -21.6032   -4.3069   24.7234 C   0  0  0  0  0  0
  -21.8841   -3.8150   23.4362 C   0  0  0  0  0  0
  -21.9201   -4.6960   22.3407 C   0  0  0  0  0  0
  -22.7817  -13.5157   21.1861 C   0  0  0  0  0  0
  -22.1666   -4.2142   21.0985 F   0  0  0  0  0  0
  -21.5605   -3.4551   25.7750 F   0  0  0  0  0  0
  -29.9972  -13.5085   20.4574 N   0  0  0  0  0  0
  -26.2973  -12.9453   20.3352 N   0  0  0  0  0  0
  -25.9378  -11.6564   20.5761 N   0  0  0  0  0  0
  -22.0536  -12.8058   22.0390 N   0  0  0  0  0  0
  -25.4212  -15.1925   20.4159 N   0  0  0  0  0  0
  -31.7906  -14.8009   20.0639 O   0  0  0  0  0  0
  -21.6642   -6.8876   21.4250 O   0  0  0  0  0  0
  -22.3443  -14.5443   20.6709 O   0  0  0  0  0  0
  -24.6346  -31.8560   23.2064 C   0  0  0  0  0  0
  -25.9181  -32.4733   23.8390 C   0  0  1  0  0  0
  -27.2003  -27.2555   20.1279 C   0  0  0  0  0  0
  -25.5968  -33.8541   24.2307 N   0  0  0  0  0  0
  -23.4271  -30.4903   21.5466 C   0  0  2  0  0  0
  -24.8729  -28.9515   20.1041 C   0  0  0  0  0  0
  -22.7468  -29.4641   22.4859 C   0  0  0  0  0  0
  -18.0278  -28.1467   22.8500 C   0  0  0  0  0  0
  -24.1503  -36.7277   23.2645 C   0  0  0  0  0  0
  -25.9796  -30.7693   21.3909 C   0  0  0  0  0  0
  -26.0478  -29.3973   20.7219 C   0  0  0  0  0  0
  -27.2135  -28.5631   20.7246 C   0  0  0  0  0  0
  -25.9995  -26.8883   19.4704 C   0  0  0  0  0  0
  -24.8548  -27.7042   19.4681 C   0  0  0  0  0  0
  -23.6483  -29.8467   20.1553 C   0  0  0  0  0  0
  -25.4134  -36.3066   24.0330 C   0  0  1  0  0  0
  -20.5880  -28.3762   23.1292 C   0  0  2  0  0  0
  -20.6773  -26.9459   22.5488 C   0  0  0  0  0  0
  -19.5767  -26.6439   21.5268 C   0  0  0  0  0  0
  -18.1915  -26.8021   22.1617 C   0  0  0  0  0  0
  -19.1530  -28.8930   23.2896 C   0  0  0  0  0  0
  -18.9451  -30.1517   23.8928 C   0  0  0  0  0  0
  -17.6458  -30.6643   24.0601 C   0  0  0  0  0  0
  -25.9069  -34.9423   23.5120 C   0  0  0  0  0  0
  -16.5346  -29.9159   23.6357 C   0  0  0  0  0  0
  -16.7265  -28.6594   23.0340 C   0  0  0  0  0  0
  -26.4568  -31.6529   25.0759 C   0  0  0  0  0  0
  -25.3762  -31.3629   26.1434 C   0  0  0  0  0  0
  -27.0397  -30.2919   24.6298 C   0  0  0  0  0  0
  -27.6175  -32.4213   25.7498 C   0  0  0  0  0  0
  -27.5604  -37.1797   24.8454 C   0  0  0  0  0  0
  -21.4179  -29.3078   22.3612 N   0  0  0  0  0  0
  -26.4307  -37.3775   23.9405 N   0  0  0  0  0  0
  -24.6994  -31.0540   22.1040 N   0  0  0  0  0  0
  -23.4178  -28.8148   23.2919 O   0  0  0  0  0  0
  -28.2689  -26.3269   20.2157 O   0  0  0  0  0  0
  -26.5614  -34.8892   22.4679 O   0  0  0  0  0  0
  -23.5493  -32.1382   23.7368 O   0  0  0  0  0  0
  -29.1841  -19.7353   20.2336 C   0  0  0  0  0  0
  -29.8759  -18.6923   21.0106 C   0  0  0  0  0  0
  -29.1887  -21.0342   20.7801 C   0  0  0  0  0  0
  -30.4320  -19.2526   22.1472 C   0  0  0  0  0  0
  -30.2332  -17.2523   20.5528 C   0  0  0  0  0  0
  -28.6023  -22.3274   20.3015 C   0  0  0  0  0  0
  -29.9521  -15.9755   21.0306 C   0  0  0  0  0  0
  -28.8342  -23.6831   20.5142 C   0  0  0  0  0  0
  -30.8297  -18.7139   24.6140 C   0  0  0  0  0  0
  -31.3431  -18.6304   23.1678 C   0  0  0  0  0  0
  -27.9648  -24.8792   19.9330 C   0  0  0  0  0  0
  -30.1008  -20.9847   22.2648 S   0  0  0  0  0  0
  -31.4737  -12.5446   19.2168 H   0  0  0  0  0  0
  -30.3382  -11.4675   19.9681 H   0  0  0  0  0  0
  -29.8037  -11.8011   17.5139 H   0  0  0  0  0  0
  -29.6572  -13.5199   17.7870 H   0  0  0  0  0  0
  -27.8749  -11.3165   18.8746 H   0  0  0  0  0  0
  -27.3967  -12.6111   17.8017 H   0  0  0  0  0  0
  -27.6583  -14.2767   19.5252 H   0  0  0  0  0  0
  -28.7170  -12.1232   21.4073 H   0  0  0  0  0  0
  -28.4139  -13.7793   21.8538 H   0  0  0  0  0  0
  -25.2851   -9.5604   22.4693 H   0  0  0  0  0  0
  -24.0024   -7.4616   22.7494 H   0  0  0  0  0  0
  -21.0900   -8.8746   19.8919 H   0  0  0  0  0  0
  -22.3796  -10.9620   19.6077 H   0  0  0  0  0  0
  -21.2059   -7.6185   23.9709 H   0  0  0  0  0  0
  -21.1450   -6.0555   25.9082 H   0  0  0  0  0  0
  -22.0614   -2.7608   23.2877 H   0  0  0  0  0  0
  -22.4286  -11.9715   22.4665 H   0  0  0  0  0  0
  -21.1121  -13.0913   22.2666 H   0  0  0  0  0  0
  -24.6642  -15.8549   20.5354 H   0  0  0  0  0  0
  -26.2797  -15.6254   20.1026 H   0  0  0  0  0  0
  -26.7222  -32.5391   23.1103 H   0  0  0  0  0  0
  -25.0048  -33.9682   25.0404 H   0  0  0  0  0  0
  -22.7277  -31.3175   21.4131 H   0  0  0  0  0  0
  -23.3799  -35.9570   23.3239 H   0  0  0  0  0  0
  -24.3607  -36.9008   22.2082 H   0  0  0  0  0  0
  -23.7208  -37.6441   23.6717 H   0  0  0  0  0  0
  -26.1229  -31.5371   20.6289 H   0  0  0  0  0  0
  -26.8549  -30.8054   22.0269 H   0  0  0  0  0  0
  -28.1067  -28.8982   21.2356 H   0  0  0  0  0  0
  -25.8973  -25.9383   18.9668 H   0  0  0  0  0  0
  -23.9540  -27.3651   18.9751 H   0  0  0  0  0  0
  -23.7849  -30.6421   19.4203 H   0  0  0  0  0  0
  -22.7617  -29.2995   19.8301 H   0  0  0  0  0  0
  -25.1315  -36.1948   25.0820 H   0  0  0  0  0  0
  -20.9997  -28.3409   24.1389 H   0  0  0  0  0  0
  -20.5710  -26.2350   23.3692 H   0  0  0  0  0  0
  -21.6635  -26.7484   22.1262 H   0  0  0  0  0  0
  -19.6908  -25.6346   21.1286 H   0  0  0  0  0  0
  -19.6769  -27.3258   20.6808 H   0  0  0  0  0  0
  -17.4218  -26.6867   21.3952 H   0  0  0  0  0  0
  -18.0197  -26.0166   22.8992 H   0  0  0  0  0  0
  -19.7919  -30.7350   24.2308 H   0  0  0  0  0  0
  -17.4999  -31.6312   24.5224 H   0  0  0  0  0  0
  -15.5348  -30.3081   23.7664 H   0  0  0  0  0  0
  -15.8655  -28.0951   22.7005 H   0  0  0  0  0  0
  -24.6224  -30.6621   25.7824 H   0  0  0  0  0  0
  -24.8555  -32.2686   26.4549 H   0  0  0  0  0  0
  -25.8121  -30.9180   27.0383 H   0  0  0  0  0  0
  -26.2995  -29.6619   24.1352 H   0  0  0  0  0  0
  -27.4055  -29.7259   25.4885 H   0  0  0  0  0  0
  -27.8895  -30.4146   23.9568 H   0  0  0  0  0  0
  -27.2929  -33.3625   26.1950 H   0  0  0  0  0  0
  -28.4044  -32.6543   25.0293 H   0  0  0  0  0  0
  -28.0727  -31.8330   26.5490 H   0  0  0  0  0  0
  -28.2592  -38.0122   24.7514 H   0  0  0  0  0  0
  -28.1140  -36.2651   24.6271 H   0  0  0  0  0  0
  -27.2299  -37.1432   25.8850 H   0  0  0  0  0  0
  -20.9332  -29.8837   21.6872 H   0  0  0  0  0  0
  -26.0200  -38.2842   24.1490 H   0  0  0  0  0  0
  -28.7264  -19.4959   19.2845 H   0  0  0  0  0  0
  -30.9216  -17.2692   19.7192 H   0  0  0  0  0  0
  -27.7477  -22.1496   19.6603 H   0  0  0  0  0  0
  -29.2531  -15.8772   21.8490 H   0  0  0  0  0  0
  -29.6652  -23.9800   21.1393 H   0  0  0  0  0  0
  -31.5281  -18.2315   25.2986 H   0  0  0  0  0  0
  -29.8587  -18.2293   24.7280 H   0  0  0  0  0  0
  -30.7274  -19.7494   24.9435 H   0  0  0  0  0  0
  -32.3109  -19.1280   23.1175 H   0  0  0  0  0  0
  -31.5380  -17.5904   22.9191 H   0  0  0  0  0  0
  -26.9721  -24.6580   20.3262 H   0  0  0  0  0  0
  -27.9030  -24.7550   18.8487 H   0  0  0  0  0  0
  1 25  1  0  0  0
  1 30  2  0  0  0
  1 77  1  0  0  0
  2  3  1  0  0  0
  2 25  1  0  0  0
  2 83  1  0  0  0
  2 84  1  0  0  0
  3  4  1  0  0  0
  3 85  1  0  0  0
  3 86  1  0  0  0
  4  5  1  0  0  0
  4 87  1  0  0  0
  4 88  1  0  0  0
  5  6  1  0  0  0
  5 26  1  0  0  0
  5 89  1  0  0  0
  6 25  1  0  0  0
  6 90  1  0  0  0
  6 91  1  0  0  0
  7  8  2  0  0  0
  7 26  1  0  0  0
  7 29  1  0  0  0
  8  9  1  0  0  0
  8 22  1  0  0  0
  9 10  1  0  0  0
  9 27  2  0  0  0
 10 11  2  0  0  0
 10 15  1  0  0  0
 11 12  1  0  0  0
 11 92  1  0  0  0
 12 13  2  0  0  0
 12 93  1  0  0  0
 13 14  1  0  0  0
 13 31  1  0  0  0
 14 15  2  0  0  0
 14 94  1  0  0  0
 15 95  1  0  0  0
 16 17  2  0  0  0
 16 21  1  0  0  0
 16 31  1  0  0  0
 17 18  1  0  0  0
 17 96  1  0  0  0
 18 19  2  0  0  0
 18 97  1  0  0  0
 19 20  1  0  0  0
 19 24  1  0  0  0
 20 21  2  0  0  0
 20 98  1  0  0  0
 21 23  1  0  0  0
 22 28  1  0  0  0
 22 32  2  0  0  0
 26 27  1  0  0  0
 28 99  1  0  0  0
 28100  1  0  0  0
 29101  1  0  0  0
 29102  1  0  0  0
 33 34  1  0  0  0
 33 66  1  0  0  0
 33 70  2  0  0  0
 34 36  1  0  0  0
 34 59  1  0  0  0
 34103  1  0  0  0
 35 44  2  0  0  0
 35 45  1  0  0  0
 35 68  1  0  0  0
 36 56  1  0  0  0
 36104  1  0  0  0
 37 39  1  0  0  0
 37 47  1  0  0  0
 37 66  1  0  0  0
 37105  1  0  0  0
 38 43  2  0  0  0
 38 46  1  0  0  0
 38 47  1  0  0  0
 39 64  1  0  0  0
 39 67  2  0  0  0
 40 52  1  0  0  0
 40 53  2  0  0  0
 40 58  1  0  0  0
 41106  1  0  0  0
 41107  1  0  0  0
 41108  1  0  0  0
 41 48  1  0  0  0
 42 43  1  0  0  0
 42 66  1  0  0  0
 42109  1  0  0  0
 42110  1  0  0  0
 43 44  1  0  0  0
 44111  1  0  0  0
 45 46  2  0  0  0
 45112  1  0  0  0
 46113  1  0  0  0
 47114  1  0  0  0
 47115  1  0  0  0
 48 56  1  0  0  0
 48 65  1  0  0  0
 48116  1  0  0  0
 49 50  1  0  0  0
 49 53  1  0  0  0
 49 64  1  0  0  0
 49117  1  0  0  0
 50 51  1  0  0  0
 50118  1  0  0  0
 50119  1  0  0  0
 51 52  1  0  0  0
 51120  1  0  0  0
 51121  1  0  0  0
 52122  1  0  0  0
 52123  1  0  0  0
 53 54  1  0  0  0
 54 55  2  0  0  0
 54124  1  0  0  0
 55 57  1  0  0  0
 55125  1  0  0  0
 56 69  2  0  0  0
 57 58  2  0  0  0
 57126  1  0  0  0
 58127  1  0  0  0
 59 60  1  0  0  0
 59 61  1  0  0  0
 59 62  1  0  0  0
 60128  1  0  0  0
 60129  1  0  0  0
 60130  1  0  0  0
 61131  1  0  0  0
 61132  1  0  0  0
 61133  1  0  0  0
 62134  1  0  0  0
 62135  1  0  0  0
 62136  1  0  0  0
 63 65  1  0  0  0
 63137  1  0  0  0
 63138  1  0  0  0
 63139  1  0  0  0
 64140  1  0  0  0
 65141  1  0  0  0
 68 81  1  0  0  0
 71 72  1  0  0  0
 71 73  2  0  0  0
 71142  1  0  0  0
 72 74  2  0  0  0
 72 75  1  0  0  0
 73 76  1  0  0  0
 73 82  1  0  0  0
 74 80  1  0  0  0
 74 82  1  0  0  0
 75 77  2  0  0  0
 75143  1  0  0  0
 76 78  2  0  0  0
 76144  1  0  0  0
 77145  1  0  0  0
 78 81  1  0  0  0
 78146  1  0  0  0
 79 80  1  0  0  0
 79147  1  0  0  0
 79148  1  0  0  0
 79149  1  0  0  0
 80150  1  0  0  0
 80151  1  0  0  0
 81152  1  0  0  0
 81153  1  0  0  0
M  ISO  4   1 100  68 101  77 100  81 101
M  END
> <chiral flag>
0

> <version>
0

> <s_m_source_file>
/data/baiqing/PycharmProjects/Reinvent-master-3.2/result/LINK_invent/BTK/process_docking_weight1_custom_product_contain_oxygen_bond_distance_aromatic_linkinvent_7_9_3/rearranged_h_0119.sdf

> <i_m_source_file_index>
89

> <r_mmod_Potential_Energy-OPLS-2005>
180.287902832031

> <r_mmod_Stretch_Energy-OPLS-2005>
116.144172668457

> <r_mmod_Bend_Energy-OPLS-2005>
163.426467895508

> <r_mmod_Torsional_Energy-OPLS-2005>
205.925323486328

> <r_mmod_Improper_Torsional_Energy-OPLS-2005>
5.94030141830444

> <r_mmod_Van_der_Waal_Energy-OPLS-2005>
125.476089477539

> <r_mmod_Electrostatic_Energy-OPLS-2005>
-329.473175048828

> <r_mmod_Solvation_Energy-OPLS-2005>
-191.88313293457

> <b_mmod_Minimization_Converged-OPLS-2005>
0

> <r_mmod_RMS_Derivative-OPLS-2005>
4.496657371521

$$$$
89
                    3D
 Structure written by MMmdl.
175184  0  0  1  0            999 V2000
  -30.6757  -14.4430   20.5943 C   0  0  0  0  0  0
  -30.4222  -12.2985   19.4109 C   0  0  0  0  0  0
  -29.4959  -12.5273   18.1980 C   0  0  0  0  0  0
  -28.0166  -12.3815   18.6102 C   0  0  0  0  0  0
  -27.6630  -13.2007   19.8798 C   0  0  2  0  0  0
  -28.6975  -12.9419   20.9969 C   0  0  0  0  0  0
  -25.2594  -13.8143   20.5664 C   0  0  0  0  0  0
  -24.1833  -13.0427   20.9181 C   0  0  0  0  0  0
  -24.6374  -11.6900   20.8704 C   0  0  0  0  0  0
  -23.9030  -10.4295   21.0391 C   0  0  0  0  0  0
  -24.3593   -9.4222   21.9172 C   0  0  0  0  0  0
  -23.6283   -8.2240   22.0754 C   0  0  0  0  0  0
  -22.4267   -8.0270   21.3546 C   0  0  0  0  0  0
  -21.9883   -9.0244   20.4640 C   0  0  0  0  0  0
  -22.7201  -10.2129   20.3049 C   0  0  0  0  0  0
  -21.6851   -6.0726   22.5283 C   0  0  0  0  0  0
  -21.4012   -6.5634   23.8213 C   0  0  0  0  0  0
  -21.3672   -5.6785   24.9187 C   0  0  0  0  0  0
  -21.6049   -4.3050   24.7232 C   0  0  0  0  0  0
  -21.8821   -3.8139   23.4352 C   0  0  0  0  0  0
  -21.9196   -4.6952   22.3412 C   0  0  0  0  0  0
  -22.7862  -13.5258   21.1853 C   0  0  0  0  0  0
  -22.1668   -4.2144   21.0987 F   0  0  0  0  0  0
  -21.5629   -3.4540   25.7743 F   0  0  0  0  0  0
  -30.0345  -13.2544   20.4587 N   0  0  0  0  0  0
  -26.3016  -12.9299   20.3343 N   0  0  0  0  0  0
  -25.9299  -11.6462   20.5715 N   0  0  0  0  0  0
  -22.0482  -12.8252   22.0407 N   0  0  0  0  0  0
  -25.4324  -15.1855   20.4121 N   0  0  0  0  0  0
  -31.7745  -14.6797   20.0775 O   0  0  0  0  0  0
  -21.6642   -6.8869   21.4239 O   0  0  0  0  0  0
  -22.3570  -14.5573   20.6739 O   0  0  0  0  0  0
  -24.6121  -31.8682   23.2138 C   0  0  0  0  0  0
  -25.9036  -32.4821   23.8380 C   0  0  1  0  0  0
  -27.2398  -27.4668   20.0740 C   0  0  0  0  0  0
  -25.5923  -33.8620   24.2310 N   0  0  0  0  0  0
  -23.3924  -30.4914   21.5560 C   0  0  2  0  0  0
  -24.8330  -28.9554   20.1198 C   0  0  0  0  0  0
  -22.7361  -29.4671   22.5049 C   0  0  0  0  0  0
  -18.0261  -28.1388   22.8481 C   0  0  0  0  0  0
  -24.1471  -36.7321   23.2638 C   0  0  0  0  0  0
  -25.9143  -30.8434   21.3547 C   0  0  0  0  0  0
  -25.9917  -29.4769   20.7058 C   0  0  0  0  0  0
  -27.1924  -28.7410   20.6793 C   0  0  0  0  0  0
  -26.0524  -26.9396   19.5063 C   0  0  0  0  0  0
  -24.8578  -27.6847   19.5198 C   0  0  0  0  0  0
  -23.5930  -29.8195   20.1706 C   0  0  0  0  0  0
  -25.4105  -36.3128   24.0330 C   0  0  1  0  0  0
  -20.5837  -28.3682   23.1327 C   0  0  2  0  0  0
  -20.6754  -26.9420   22.5427 C   0  0  0  0  0  0
  -19.5742  -26.6402   21.5212 C   0  0  0  0  0  0
  -18.1917  -26.7934   22.1616 C   0  0  0  0  0  0
  -19.1498  -28.8850   23.2903 C   0  0  0  0  0  0
  -18.9443  -30.1454   23.8918 C   0  0  0  0  0  0
  -17.6449  -30.6598   24.0566 C   0  0  0  0  0  0
  -25.9045  -34.9485   23.5120 C   0  0  0  0  0  0
  -16.5342  -29.9109   23.6318 C   0  0  0  0  0  0
  -16.7256  -28.6528   23.0338 C   0  0  0  0  0  0
  -26.4458  -31.6604   25.0705 C   0  0  0  0  0  0
  -25.3749  -31.3720   26.1481 C   0  0  0  0  0  0
  -27.0272  -30.3051   24.6071 C   0  0  0  0  0  0
  -27.6046  -32.4321   25.7481 C   0  0  0  0  0  0
  -27.5574  -37.1817   24.8466 C   0  0  0  0  0  0
  -21.4105  -29.3044   22.3759 N   0  0  0  0  0  0
  -26.4286  -37.3819   23.9421 N   0  0  0  0  0  0
  -24.6588  -31.0810   22.1021 N   0  0  0  0  0  0
  -23.4153  -28.8191   23.3051 O   0  0  0  0  0  0
  -28.4556  -26.8131   20.0891 O   0  0  0  0  0  0
  -26.5594  -34.8954   22.4680 O   0  0  0  0  0  0
  -23.5340  -32.1427   23.7573 O   0  0  0  0  0  0
  -30.0224  -18.9923   22.2488 C   0  0  0  0  0  0
  -30.3228  -17.4203   19.9546 C   0  0  0  0  0  0
  -30.2441  -19.6286   21.0058 C   0  0  0  0  0  0
  -29.9230  -17.5875   22.3571 C   0  0  0  0  0  0
  -30.3746  -18.8250   19.8423 C   0  0  0  0  0  0
  -30.1147  -16.7876   21.2023 C   0  0  0  0  0  0
  -28.5718  -24.3443   20.3213 C   0  0  0  0  0  0
  -29.1633  -23.1864   19.9579 C   0  0  0  0  0  0
  -27.0736  -22.0602   22.0901 C   0  0  0  0  0  0
  -27.8404  -24.4895   21.6621 C   0  0  0  0  0  0
  -26.6517  -23.5151   21.8492 C   0  0  0  0  0  0
  -27.8337  -21.3241   20.9857 C   0  0  0  0  0  0
  -30.5466  -19.4137   18.4531 C   0  0  0  0  0  0
  -29.7902  -22.8959   18.5997 C   0  0  0  0  0  0
  -30.6153  -16.0421   24.3130 C   0  0  0  0  0  0
  -29.5657  -16.9963   23.7208 C   0  0  0  0  0  0
  -30.3899  -21.1604   20.9827 C   0  0  0  0  0  0
  -28.6320  -25.5741   19.4065 C   0  0  0  0  0  0
  -29.9808  -15.3749   21.2709 N   0  0  0  0  0  0
  -29.1512  -21.9971   20.8830 N   0  3  1  0  0  0
  -26.8600  -21.5175   23.1756 O   0  0  0  0  0  0
  -31.4695  -12.4024   19.1214 H   0  0  0  0  0  0
  -30.3144  -11.2788   19.7809 H   0  0  0  0  0  0
  -29.7343  -11.8210   17.4014 H   0  0  0  0  0  0
  -29.6699  -13.5217   17.7817 H   0  0  0  0  0  0
  -27.8338  -11.3224   18.7975 H   0  0  0  0  0  0
  -27.3645  -12.6642   17.7828 H   0  0  0  0  0  0
  -27.7182  -14.2555   19.6069 H   0  0  0  0  0  0
  -28.6702  -11.8959   21.3056 H   0  0  0  0  0  0
  -28.4467  -13.5064   21.8941 H   0  0  0  0  0  0
  -25.2741   -9.5712   22.4754 H   0  0  0  0  0  0
  -24.0008   -7.4641   22.7483 H   0  0  0  0  0  0
  -21.0816   -8.8755   19.8960 H   0  0  0  0  0  0
  -22.3647  -10.9669   19.6167 H   0  0  0  0  0  0
  -21.1996   -7.6142   23.9716 H   0  0  0  0  0  0
  -21.1494   -6.0520   25.9086 H   0  0  0  0  0  0
  -22.0584   -2.7601   23.2860 H   0  0  0  0  0  0
  -22.4077  -11.9911   22.4810 H   0  0  0  0  0  0
  -21.1108  -13.1304   22.2600 H   0  0  0  0  0  0
  -24.6602  -15.8373   20.5051 H   0  0  0  0  0  0
  -26.2916  -15.6295   20.1091 H   0  0  0  0  0  0
  -26.7098  -32.5479   23.1128 H   0  0  0  0  0  0
  -25.0068  -33.9755   25.0450 H   0  0  0  0  0  0
  -22.6807  -31.3087   21.4218 H   0  0  0  0  0  0
  -23.3728  -35.9659   23.3316 H   0  0  0  0  0  0
  -24.3558  -36.8917   22.2050 H   0  0  0  0  0  0
  -23.7211  -37.6533   23.6629 H   0  0  0  0  0  0
  -26.0135  -31.6074   20.5803 H   0  0  0  0  0  0
  -26.8094  -30.8991   21.9625 H   0  0  0  0  0  0
  -28.0922  -29.1534   21.1181 H   0  0  0  0  0  0
  -26.0156  -25.9606   19.0524 H   0  0  0  0  0  0
  -23.9598  -27.2810   19.0737 H   0  0  0  0  0  0
  -23.7028  -30.5931   19.4107 H   0  0  0  0  0  0
  -22.7120  -29.2468   19.8744 H   0  0  0  0  0  0
  -25.1269  -36.2001   25.0817 H   0  0  0  0  0  0
  -20.9912  -28.3262   24.1453 H   0  0  0  0  0  0
  -20.5664  -26.2290   23.3611 H   0  0  0  0  0  0
  -21.6626  -26.7473   22.1211 H   0  0  0  0  0  0
  -19.6911  -25.6319   21.1228 H   0  0  0  0  0  0
  -19.6688  -27.3210   20.6740 H   0  0  0  0  0  0
  -17.4185  -26.6674   21.4025 H   0  0  0  0  0  0
  -18.0345  -26.0072   22.9009 H   0  0  0  0  0  0
  -19.7929  -30.7258   24.2299 H   0  0  0  0  0  0
  -17.5023  -31.6273   24.5180 H   0  0  0  0  0  0
  -15.5347  -30.3031   23.7658 H   0  0  0  0  0  0
  -15.8648  -28.0874   22.7045 H   0  0  0  0  0  0
  -24.5902  -30.7084   25.7826 H   0  0  0  0  0  0
  -24.8967  -32.2882   26.4961 H   0  0  0  0  0  0
  -25.8128  -30.8866   27.0209 H   0  0  0  0  0  0
  -26.2801  -29.6851   24.1115 H   0  0  0  0  0  0
  -27.4009  -29.7266   25.4519 H   0  0  0  0  0  0
  -27.8642  -30.4356   23.9218 H   0  0  0  0  0  0
  -27.2661  -33.3593   26.2129 H   0  0  0  0  0  0
  -28.3848  -32.6937   25.0317 H   0  0  0  0  0  0
  -28.0739  -31.8410   26.5359 H   0  0  0  0  0  0
  -28.2616  -38.0093   24.7516 H   0  0  0  0  0  0
  -28.1038  -36.2624   24.6283 H   0  0  0  0  0  0
  -27.2289  -37.1481   25.8869 H   0  0  0  0  0  0
  -20.9305  -29.8754   21.6931 H   0  0  0  0  0  0
  -26.0167  -38.2891   24.1443 H   0  0  0  0  0  0
  -29.9115  -19.5951   23.1412 H   0  0  0  0  0  0
  -30.4132  -16.8223   19.0582 H   0  0  0  0  0  0
  -27.4563  -25.4962   21.8078 H   0  0  0  0  0  0
  -28.5775  -24.3584   22.4576 H   0  0  0  0  0  0
  -26.0422  -23.8394   22.6957 H   0  0  0  0  0  0
  -25.9911  -23.5468   20.9837 H   0  0  0  0  0  0
  -27.2823  -21.3824   20.0464 H   0  0  0  0  0  0
  -27.8924  -20.2730   21.2576 H   0  0  0  0  0  0
  -30.9410  -18.6733   17.7557 H   0  0  0  0  0  0
  -31.2366  -20.2558   18.4341 H   0  0  0  0  0  0
  -29.5748  -19.7275   18.0699 H   0  0  0  0  0  0
  -30.8763  -22.9842   18.6132 H   0  0  0  0  0  0
  -29.4145  -23.5752   17.8328 H   0  0  0  0  0  0
  -29.5090  -21.9023   18.2703 H   0  0  0  0  0  0
  -30.7276  -15.1373   23.7200 H   0  0  0  0  0  0
  -30.3206  -15.7347   25.3179 H   0  0  0  0  0  0
  -31.5936  -16.5143   24.3839 H   0  0  0  0  0  0
  -28.6010  -16.4958   23.6454 H   0  0  0  0  0  0
  -29.4088  -17.8109   24.4300 H   0  0  0  0  0  0
  -31.1416  -21.4503   20.2530 H   0  0  0  0  0  0
  -30.8532  -21.4432   21.9285 H   0  0  0  0  0  0
  -29.6315  -25.6277   18.9693 H   0  0  0  0  0  0
  -27.9618  -25.4428   18.5595 H   0  0  0  0  0  0
  -29.1864  -15.0323   21.7886 H   0  0  0  0  0  0
  -29.1857  -22.4100   21.8046 H   0  0  0  0  0  0
  1 25  1  0  0  0
  1 30  2  0  0  0
  1 89  1  0  0  0
  2  3  1  0  0  0
  2 25  1  0  0  0
  2 92  1  0  0  0
  2 93  1  0  0  0
  3  4  1  0  0  0
  3 94  1  0  0  0
  3 95  1  0  0  0
  4  5  1  0  0  0
  4 96  1  0  0  0
  4 97  1  0  0  0
  5  6  1  0  0  0
  5 26  1  0  0  0
  5 98  1  0  0  0
  6 25  1  0  0  0
  6 99  1  0  0  0
  6100  1  0  0  0
  7  8  2  0  0  0
  7 26  1  0  0  0
  7 29  1  0  0  0
  8  9  1  0  0  0
  8 22  1  0  0  0
  9 10  1  0  0  0
  9 27  2  0  0  0
 10 11  2  0  0  0
 10 15  1  0  0  0
 11 12  1  0  0  0
 11101  1  0  0  0
 12 13  2  0  0  0
 12102  1  0  0  0
 13 14  1  0  0  0
 13 31  1  0  0  0
 14 15  2  0  0  0
 14103  1  0  0  0
 15104  1  0  0  0
 16 17  2  0  0  0
 16 21  1  0  0  0
 16 31  1  0  0  0
 17 18  1  0  0  0
 17105  1  0  0  0
 18 19  2  0  0  0
 18106  1  0  0  0
 19 20  1  0  0  0
 19 24  1  0  0  0
 20 21  2  0  0  0
 20107  1  0  0  0
 21 23  1  0  0  0
 22 28  1  0  0  0
 22 32  2  0  0  0
 26 27  1  0  0  0
 28108  1  0  0  0
 28109  1  0  0  0
 29110  1  0  0  0
 29111  1  0  0  0
 33 34  1  0  0  0
 33 66  1  0  0  0
 33 70  2  0  0  0
 34 36  1  0  0  0
 34 59  1  0  0  0
 34112  1  0  0  0
 35 44  2  0  0  0
 35 45  1  0  0  0
 35 68  1  0  0  0
 36 56  1  0  0  0
 36113  1  0  0  0
 37 39  1  0  0  0
 37 47  1  0  0  0
 37 66  1  0  0  0
 37114  1  0  0  0
 38 43  2  0  0  0
 38 46  1  0  0  0
 38 47  1  0  0  0
 39 64  1  0  0  0
 39 67  2  0  0  0
 40 52  1  0  0  0
 40 53  2  0  0  0
 40 58  1  0  0  0
 41115  1  0  0  0
 41116  1  0  0  0
 41117  1  0  0  0
 41 48  1  0  0  0
 42 43  1  0  0  0
 42 66  1  0  0  0
 42118  1  0  0  0
 42119  1  0  0  0
 43 44  1  0  0  0
 44120  1  0  0  0
 45 46  2  0  0  0
 45121  1  0  0  0
 46122  1  0  0  0
 47123  1  0  0  0
 47124  1  0  0  0
 48 56  1  0  0  0
 48 65  1  0  0  0
 48125  1  0  0  0
 49 50  1  0  0  0
 49 53  1  0  0  0
 49 64  1  0  0  0
 49126  1  0  0  0
 50 51  1  0  0  0
 50127  1  0  0  0
 50128  1  0  0  0
 51 52  1  0  0  0
 51129  1  0  0  0
 51130  1  0  0  0
 52131  1  0  0  0
 52132  1  0  0  0
 53 54  1  0  0  0
 54 55  2  0  0  0
 54133  1  0  0  0
 55 57  1  0  0  0
 55134  1  0  0  0
 56 69  2  0  0  0
 57 58  2  0  0  0
 57135  1  0  0  0
 58136  1  0  0  0
 59 60  1  0  0  0
 59 61  1  0  0  0
 59 62  1  0  0  0
 60137  1  0  0  0
 60138  1  0  0  0
 60139  1  0  0  0
 61140  1  0  0  0
 61141  1  0  0  0
 61142  1  0  0  0
 62143  1  0  0  0
 62144  1  0  0  0
 62145  1  0  0  0
 63 65  1  0  0  0
 63146  1  0  0  0
 63147  1  0  0  0
 63148  1  0  0  0
 64149  1  0  0  0
 65150  1  0  0  0
 68 88  1  0  0  0
 71 73  2  0  0  0
 71 74  1  0  0  0
 71151  1  0  0  0
 72 75  2  0  0  0
 72 76  1  0  0  0
 72152  1  0  0  0
 73 75  1  0  0  0
 73 87  1  0  0  0
 74 76  2  0  0  0
 74 86  1  0  0  0
 75 83  1  0  0  0
 76 89  1  0  0  0
 77 78  2  0  0  0
 77 80  1  0  0  0
 77 88  1  0  0  0
 78 84  1  0  0  0
 78 90  1  0  0  0
 79 81  1  0  0  0
 79 82  1  0  0  0
 79 91  2  0  0  0
 80 81  1  0  0  0
 80153  1  0  0  0
 80154  1  0  0  0
 81155  1  0  0  0
 81156  1  0  0  0
 82 90  1  0  0  0
 82157  1  0  0  0
 82158  1  0  0  0
 83159  1  0  0  0
 83160  1  0  0  0
 83161  1  0  0  0
 84162  1  0  0  0
 84163  1  0  0  0
 84164  1  0  0  0
 85 86  1  0  0  0
 85165  1  0  0  0
 85166  1  0  0  0
 85167  1  0  0  0
 86168  1  0  0  0
 86169  1  0  0  0
 87170  1  0  0  0
 87171  1  0  0  0
 87 90  1  0  0  0
 88172  1  0  0  0
 88173  1  0  0  0
 89174  1  0  0  0
 90175  1  0  0  0
M  CHG  1  90   1
M  ISO  4   1 100  68 101  88 101  89 100
M  END
> <chiral flag>
0

> <version>
0

> <s_m_source_file>
/data/baiqing/PycharmProjects/Reinvent-master-3.2/result/LINK_invent/BTK/process_docking_weight1_custom_product_contain_oxygen_bond_distance_aromatic_linkinvent_7_9_3/rearranged_h_0119.sdf

> <i_m_source_file_index>
90

> <r_mmod_Potential_Energy-OPLS-2005>
-199.484954833984

> <r_mmod_Stretch_Energy-OPLS-2005>
39.7646980285645

> <r_mmod_Bend_Energy-OPLS-2005>
140.008209228516

> <r_mmod_Torsional_Energy-OPLS-2005>
244.581115722656

> <r_mmod_Improper_Torsional_Energy-OPLS-2005>
3.62291049957275

> <r_mmod_Van_der_Waal_Energy-OPLS-2005>
169.617553710938

> <r_mmod_Electrostatic_Energy-OPLS-2005>
-361.098968505859

> <r_mmod_Solvation_Energy-OPLS-2005>
-446.623138427734

> <b_mmod_Minimization_Converged-OPLS-2005>
0

> <r_mmod_RMS_Derivative-OPLS-2005>
4.53815317153931

$$$$
90
                    3D
 Structure written by MMmdl.
158166  0  0  1  0            999 V2000
  -30.6680  -14.5711   20.5363 C   0  0  0  0  0  0
  -30.4260  -12.3602   19.4453 C   0  0  0  0  0  0
  -29.4973  -12.4982   18.2201 C   0  0  0  0  0  0
  -28.0210  -12.3415   18.6344 C   0  0  0  0  0  0
  -27.6500  -13.2134   19.8644 C   0  0  2  0  0  0
  -28.6932  -13.0598   20.9937 C   0  0  0  0  0  0
  -25.2544  -13.8173   20.5698 C   0  0  0  0  0  0
  -24.1807  -13.0448   20.9207 C   0  0  0  0  0  0
  -24.6372  -11.6913   20.8758 C   0  0  0  0  0  0
  -23.9049  -10.4295   21.0416 C   0  0  0  0  0  0
  -24.3606   -9.4214   21.9189 C   0  0  0  0  0  0
  -23.6295   -8.2240   22.0752 C   0  0  0  0  0  0
  -22.4279   -8.0278   21.3545 C   0  0  0  0  0  0
  -21.9906   -9.0246   20.4642 C   0  0  0  0  0  0
  -22.7222  -10.2133   20.3060 C   0  0  0  0  0  0
  -21.6852   -6.0742   22.5292 C   0  0  0  0  0  0
  -21.4003   -6.5647   23.8224 C   0  0  0  0  0  0
  -21.3661   -5.6798   24.9186 C   0  0  0  0  0  0
  -21.6052   -4.3060   24.7232 C   0  0  0  0  0  0
  -21.8813   -3.8155   23.4349 C   0  0  0  0  0  0
  -21.9190   -4.6975   22.3410 C   0  0  0  0  0  0
  -22.7831  -13.5250   21.1879 C   0  0  0  0  0  0
  -22.1661   -4.2162   21.0988 F   0  0  0  0  0  0
  -21.5637   -3.4545   25.7740 F   0  0  0  0  0  0
  -30.0117  -13.3784   20.4275 N   0  0  0  0  0  0
  -26.2964  -12.9346   20.3331 N   0  0  0  0  0  0
  -25.9293  -11.6506   20.5766 N   0  0  0  0  0  0
  -22.0470  -12.8226   22.0424 N   0  0  0  0  0  0
  -25.4258  -15.1884   20.4106 N   0  0  0  0  0  0
  -31.8329  -14.7041   20.1516 O   0  0  0  0  0  0
  -21.6645   -6.8874   21.4246 O   0  0  0  0  0  0
  -22.3522  -14.5572   20.6750 O   0  0  0  0  0  0
  -24.6201  -31.8657   23.2082 C   0  0  0  0  0  0
  -25.9094  -32.4801   23.8383 C   0  0  1  0  0  0
  -27.2255  -27.3871   20.1132 C   0  0  0  0  0  0
  -25.5948  -33.8600   24.2309 N   0  0  0  0  0  0
  -23.4086  -30.4881   21.5498 C   0  0  2  0  0  0
  -24.8563  -28.9456   20.1177 C   0  0  0  0  0  0
  -22.7439  -29.4642   22.4986 C   0  0  0  0  0  0
  -18.0278  -28.1371   22.8489 C   0  0  0  0  0  0
  -24.1494  -36.7289   23.2631 C   0  0  0  0  0  0
  -25.9419  -30.8133   21.3705 C   0  0  0  0  0  0
  -26.0178  -29.4433   20.7215 C   0  0  0  0  0  0
  -27.2072  -28.6705   20.7198 C   0  0  0  0  0  0
  -26.0501  -26.9149   19.4975 C   0  0  0  0  0  0
  -24.8684  -27.6813   19.5035 C   0  0  0  0  0  0
  -23.6201  -29.8188   20.1652 C   0  0  0  0  0  0
  -25.4111  -36.3087   24.0327 C   0  0  1  0  0  0
  -20.5873  -28.3662   23.1322 C   0  0  2  0  0  0
  -20.6769  -26.9392   22.5439 C   0  0  0  0  0  0
  -19.5751  -26.6372   21.5232 C   0  0  0  0  0  0
  -18.1919  -26.7923   22.1611 C   0  0  0  0  0  0
  -19.1534  -28.8834   23.2896 C   0  0  0  0  0  0
  -18.9452  -30.1433   23.8922 C   0  0  0  0  0  0
  -17.6458  -30.6576   24.0564 C   0  0  0  0  0  0
  -25.9066  -34.9457   23.5113 C   0  0  0  0  0  0
  -16.5351  -29.9074   23.6337 C   0  0  0  0  0  0
  -16.7266  -28.6489   23.0360 C   0  0  0  0  0  0
  -26.4498  -31.6594   25.0733 C   0  0  0  0  0  0
  -25.3742  -31.3728   26.1472 C   0  0  0  0  0  0
  -27.0312  -30.3024   24.6139 C   0  0  0  0  0  0
  -27.6092  -32.4303   25.7464 C   0  0  0  0  0  0
  -27.5592  -37.1756   24.8433 C   0  0  0  0  0  0
  -21.4161  -29.3023   22.3727 N   0  0  0  0  0  0
  -26.4274  -37.3796   23.9447 N   0  0  0  0  0  0
  -24.6749  -31.0714   22.1011 N   0  0  0  0  0  0
  -23.4202  -28.8204   23.3056 O   0  0  0  0  0  0
  -28.3606  -26.5973   20.0669 O   0  0  0  0  0  0
  -26.5606  -34.8905   22.4661 O   0  0  0  0  0  0
  -23.5385  -32.1441   23.7465 O   0  0  0  0  0  0
  -29.5846  -18.1461   20.5920 C   0  0  0  0  0  0
  -31.5451  -17.3053   21.7455 C   0  0  0  0  0  0
  -31.2363  -19.7356   21.4728 C   0  0  0  0  0  0
  -30.3471  -17.0286   21.0569 C   0  0  0  0  0  0
  -30.0141  -19.5012   20.7774 C   0  0  0  0  0  0
  -31.9836  -18.6265   21.9465 C   0  0  0  0  0  0
  -33.0681  -21.4715   21.5932 C   0  0  0  0  0  0
  -31.7748  -21.1053   21.6328 C   0  0  0  0  0  0
  -27.9587  -24.1523   20.8942 C   0  0  0  0  0  0
  -28.9294  -23.0433   20.3520 C   0  0  0  0  0  0
  -28.5028  -25.6106   21.1175 C   0  0  0  0  0  0
  -28.6600  -21.5822   20.8810 C   0  0  0  0  0  0
  -29.9131  -15.6543   20.8809 N   0  0  0  0  0  0
  -29.3279  -20.5352   20.1317 O   0  0  0  0  0  0
  -33.1459  -18.8127   22.6195 F   0  0  0  0  0  0
  -31.4689  -12.4745   19.1414 H   0  0  0  0  0  0
  -30.3502  -11.3635   19.8813 H   0  0  0  0  0  0
  -29.7546  -11.7538   17.4655 H   0  0  0  0  0  0
  -29.6428  -13.4728   17.7529 H   0  0  0  0  0  0
  -27.8537  -11.2881   18.8651 H   0  0  0  0  0  0
  -27.3655  -12.5754   17.7950 H   0  0  0  0  0  0
  -27.6720  -14.2485   19.5261 H   0  0  0  0  0  0
  -28.6899  -12.0400   21.3801 H   0  0  0  0  0  0
  -28.4492  -13.7002   21.8426 H   0  0  0  0  0  0
  -25.2739   -9.5712   22.4774 H   0  0  0  0  0  0
  -24.0027   -7.4632   22.7455 H   0  0  0  0  0  0
  -21.0845   -8.8747   19.8934 H   0  0  0  0  0  0
  -22.3666  -10.9680   19.6179 H   0  0  0  0  0  0
  -21.1979   -7.6151   23.9732 H   0  0  0  0  0  0
  -21.1498   -6.0528   25.9092 H   0  0  0  0  0  0
  -22.0588   -2.7617   23.2851 H   0  0  0  0  0  0
  -22.4086  -11.9889   22.4810 H   0  0  0  0  0  0
  -21.1082  -13.1241   22.2625 H   0  0  0  0  0  0
  -24.6563  -15.8407   20.5147 H   0  0  0  0  0  0
  -26.2695  -15.6292   20.0679 H   0  0  0  0  0  0
  -26.7166  -32.5485   23.1138 H   0  0  0  0  0  0
  -25.0128  -33.9768   25.0474 H   0  0  0  0  0  0
  -22.6993  -31.3066   21.4082 H   0  0  0  0  0  0
  -23.3774  -35.9599   23.3248 H   0  0  0  0  0  0
  -24.3606  -36.8965   22.2057 H   0  0  0  0  0  0
  -23.7210  -37.6458   23.6688 H   0  0  0  0  0  0
  -26.0616  -31.5761   20.5999 H   0  0  0  0  0  0
  -26.8285  -30.8691   21.9912 H   0  0  0  0  0  0
  -28.1034  -29.0489   21.1910 H   0  0  0  0  0  0
  -26.0487  -25.9491   19.0133 H   0  0  0  0  0  0
  -23.9745  -27.2943   19.0339 H   0  0  0  0  0  0
  -23.7265  -30.5942   19.4060 H   0  0  0  0  0  0
  -22.7443  -29.2394   19.8673 H   0  0  0  0  0  0
  -25.1276  -36.1933   25.0815 H   0  0  0  0  0  0
  -20.9936  -28.3224   24.1452 H   0  0  0  0  0  0
  -20.5685  -26.2265   23.3628 H   0  0  0  0  0  0
  -21.6633  -26.7432   22.1223 H   0  0  0  0  0  0
  -19.6925  -25.6291   21.1240 H   0  0  0  0  0  0
  -19.6720  -27.3200   20.6782 H   0  0  0  0  0  0
  -17.4213  -26.6721   21.3978 H   0  0  0  0  0  0
  -18.0267  -26.0036   22.8972 H   0  0  0  0  0  0
  -19.7929  -30.7233   24.2310 H   0  0  0  0  0  0
  -17.5011  -31.6267   24.5138 H   0  0  0  0  0  0
  -15.5350  -30.2980   23.7650 H   0  0  0  0  0  0
  -15.8661  -28.0814   22.7085 H   0  0  0  0  0  0
  -24.5988  -30.6986   25.7822 H   0  0  0  0  0  0
  -24.8839  -32.2876   26.4804 H   0  0  0  0  0  0
  -25.8076  -30.9007   27.0300 H   0  0  0  0  0  0
  -26.2849  -29.6788   24.1204 H   0  0  0  0  0  0
  -27.4085  -29.7274   25.4604 H   0  0  0  0  0  0
  -27.8691  -30.4326   23.9286 H   0  0  0  0  0  0
  -27.2769  -33.3626   26.2031 H   0  0  0  0  0  0
  -28.3883  -32.6824   25.0262 H   0  0  0  0  0  0
  -28.0783  -31.8437   26.5371 H   0  0  0  0  0  0
  -28.2522  -38.0141   24.7615 H   0  0  0  0  0  0
  -28.1174  -36.2676   24.6066 H   0  0  0  0  0  0
  -27.2341  -37.1172   25.8838 H   0  0  0  0  0  0
  -20.9352  -29.8719   21.6906 H   0  0  0  0  0  0
  -26.0146  -38.2851   24.1558 H   0  0  0  0  0  0
  -28.6693  -17.9704   20.0455 H   0  0  0  0  0  0
  -32.1533  -16.5023   22.1348 H   0  0  0  0  0  0
  -33.3539  -22.5029   21.7521 H   0  0  0  0  0  0
  -33.8633  -20.7650   21.4025 H   0  0  0  0  0  0
  -31.0609  -21.8822   21.8416 H   0  0  0  0  0  0
  -27.6342  -23.8130   21.8789 H   0  0  0  0  0  0
  -27.0444  -24.1764   20.3013 H   0  0  0  0  0  0
  -29.9555  -23.3215   20.5858 H   0  0  0  0  0  0
  -28.8762  -23.0450   19.2623 H   0  0  0  0  0  0
  -29.5600  -25.5621   21.3821 H   0  0  0  0  0  0
  -28.0178  -26.0077   22.0111 H   0  0  0  0  0  0
  -27.5929  -21.3795   20.7945 H   0  0  0  0  0  0
  -28.8750  -21.5139   21.9484 H   0  0  0  0  0  0
  -28.9280  -15.4726   21.0006 H   0  0  0  0  0  0
  1 25  1  0  0  0
  1 30  2  0  0  0
  1 83  1  0  0  0
  2  3  1  0  0  0
  2 25  1  0  0  0
  2 86  1  0  0  0
  2 87  1  0  0  0
  3  4  1  0  0  0
  3 88  1  0  0  0
  3 89  1  0  0  0
  4  5  1  0  0  0
  4 90  1  0  0  0
  4 91  1  0  0  0
  5  6  1  0  0  0
  5 26  1  0  0  0
  5 92  1  0  0  0
  6 25  1  0  0  0
  6 93  1  0  0  0
  6 94  1  0  0  0
  7  8  2  0  0  0
  7 26  1  0  0  0
  7 29  1  0  0  0
  8  9  1  0  0  0
  8 22  1  0  0  0
  9 10  1  0  0  0
  9 27  2  0  0  0
 10 11  2  0  0  0
 10 15  1  0  0  0
 11 12  1  0  0  0
 11 95  1  0  0  0
 12 13  2  0  0  0
 12 96  1  0  0  0
 13 14  1  0  0  0
 13 31  1  0  0  0
 14 15  2  0  0  0
 14 97  1  0  0  0
 15 98  1  0  0  0
 16 17  2  0  0  0
 16 21  1  0  0  0
 16 31  1  0  0  0
 17 18  1  0  0  0
 17 99  1  0  0  0
 18 19  2  0  0  0
 18100  1  0  0  0
 19 20  1  0  0  0
 19 24  1  0  0  0
 20 21  2  0  0  0
 20101  1  0  0  0
 21 23  1  0  0  0
 22 28  1  0  0  0
 22 32  2  0  0  0
 26 27  1  0  0  0
 28102  1  0  0  0
 28103  1  0  0  0
 29104  1  0  0  0
 29105  1  0  0  0
 33 34  1  0  0  0
 33 66  1  0  0  0
 33 70  2  0  0  0
 34 36  1  0  0  0
 34 59  1  0  0  0
 34106  1  0  0  0
 35 44  2  0  0  0
 35 45  1  0  0  0
 35 68  1  0  0  0
 36 56  1  0  0  0
 36107  1  0  0  0
 37 39  1  0  0  0
 37 47  1  0  0  0
 37 66  1  0  0  0
 37108  1  0  0  0
 38 43  2  0  0  0
 38 46  1  0  0  0
 38 47  1  0  0  0
 39 64  1  0  0  0
 39 67  2  0  0  0
 40 52  1  0  0  0
 40 53  2  0  0  0
 40 58  1  0  0  0
 41109  1  0  0  0
 41110  1  0  0  0
 41111  1  0  0  0
 41 48  1  0  0  0
 42 43  1  0  0  0
 42 66  1  0  0  0
 42112  1  0  0  0
 42113  1  0  0  0
 43 44  1  0  0  0
 44114  1  0  0  0
 45 46  2  0  0  0
 45115  1  0  0  0
 46116  1  0  0  0
 47117  1  0  0  0
 47118  1  0  0  0
 48 56  1  0  0  0
 48 65  1  0  0  0
 48119  1  0  0  0
 49 50  1  0  0  0
 49 53  1  0  0  0
 49 64  1  0  0  0
 49120  1  0  0  0
 50 51  1  0  0  0
 50121  1  0  0  0
 50122  1  0  0  0
 51 52  1  0  0  0
 51123  1  0  0  0
 51124  1  0  0  0
 52125  1  0  0  0
 52126  1  0  0  0
 53 54  1  0  0  0
 54 55  2  0  0  0
 54127  1  0  0  0
 55 57  1  0  0  0
 55128  1  0  0  0
 56 69  2  0  0  0
 57 58  2  0  0  0
 57129  1  0  0  0
 58130  1  0  0  0
 59 60  1  0  0  0
 59 61  1  0  0  0
 59 62  1  0  0  0
 60131  1  0  0  0
 60132  1  0  0  0
 60133  1  0  0  0
 61134  1  0  0  0
 61135  1  0  0  0
 61136  1  0  0  0
 62137  1  0  0  0
 62138  1  0  0  0
 62139  1  0  0  0
 63 65  1  0  0  0
 63140  1  0  0  0
 63141  1  0  0  0
 63142  1  0  0  0
 64143  1  0  0  0
 65144  1  0  0  0
 68 81  1  0  0  0
 71 74  2  0  0  0
 71 75  1  0  0  0
 71145  1  0  0  0
 72 74  1  0  0  0
 72 76  2  0  0  0
 72146  1  0  0  0
 73 75  2  0  0  0
 73 76  1  0  0  0
 73 78  1  0  0  0
 74 83  1  0  0  0
 75 84  1  0  0  0
 76 85  1  0  0  0
 77 78  2  0  0  0
 77147  1  0  0  0
 77148  1  0  0  0
 78149  1  0  0  0
 79 80  1  0  0  0
 79 81  1  0  0  0
 79150  1  0  0  0
 79151  1  0  0  0
 80 82  1  0  0  0
 80152  1  0  0  0
 80153  1  0  0  0
 81154  1  0  0  0
 81155  1  0  0  0
 82 84  1  0  0  0
 82156  1  0  0  0
 82157  1  0  0  0
 83158  1  0  0  0
M  ISO  4   1 100  68 101  81 101  83 100
M  END
> <chiral flag>
0

> <version>
0

> <s_m_source_file>
/data/baiqing/PycharmProjects/Reinvent-master-3.2/result/LINK_invent/BTK/process_docking_weight1_custom_product_contain_oxygen_bond_distance_aromatic_linkinvent_7_9_3/rearranged_h_0119.sdf

> <i_m_source_file_index>
91

> <r_mmod_Potential_Energy-OPLS-2005>
125.316108703613

> <r_mmod_Stretch_Energy-OPLS-2005>
56.5312690734863

> <r_mmod_Bend_Energy-OPLS-2005>
120.644401550293

> <r_mmod_Torsional_Energy-OPLS-2005>
297.415588378906

> <r_mmod_Improper_Torsional_Energy-OPLS-2005>
5.87572431564331

> <r_mmod_Van_der_Waal_Energy-OPLS-2005>
146.431884765625

> <r_mmod_Electrostatic_Energy-OPLS-2005>
-321.024017333984

> <r_mmod_Solvation_Energy-OPLS-2005>
-207.412033081055

> <b_mmod_Minimization_Converged-OPLS-2005>
0

> <r_mmod_RMS_Derivative-OPLS-2005>
2.23601007461548

$$$$
91
                    3D
 Structure written by MMmdl.
158166  0  0  1  0            999 V2000
  -29.5485  -16.1008   20.2764 C   0  0  0  0  0  0
  -30.2438  -13.4711   19.6023 C   0  0  0  0  0  0
  -29.5334  -12.7891   18.3873 C   0  0  0  0  0  0
  -28.1410  -12.2914   18.7926 C   0  0  0  0  0  0
  -27.4936  -13.2966   19.7695 C   0  0  2  0  0  0
  -28.3717  -13.7706   20.9186 C   0  0  0  0  0  0
  -25.1887  -13.8167   20.5683 C   0  0  0  0  0  0
  -24.1389  -13.0319   20.9310 C   0  0  0  0  0  0
  -24.6166  -11.6845   20.8774 C   0  0  0  0  0  0
  -23.9000  -10.4202   21.0433 C   0  0  0  0  0  0
  -24.3626   -9.4150   21.9193 C   0  0  0  0  0  0
  -23.6298   -8.2204   22.0771 C   0  0  0  0  0  0
  -22.4273   -8.0266   21.3567 C   0  0  0  0  0  0
  -21.9888   -9.0219   20.4667 C   0  0  0  0  0  0
  -22.7209  -10.2074   20.3058 C   0  0  0  0  0  0
  -21.6843   -6.0746   22.5290 C   0  0  0  0  0  0
  -21.4002   -6.5647   23.8225 C   0  0  0  0  0  0
  -21.3652   -5.6794   24.9178 C   0  0  0  0  0  0
  -21.6039   -4.3061   24.7217 C   0  0  0  0  0  0
  -21.8830   -3.8160   23.4337 C   0  0  0  0  0  0
  -21.9194   -4.6979   22.3398 C   0  0  0  0  0  0
  -22.7467  -13.5103   21.1959 C   0  0  0  0  0  0
  -22.1676   -4.2175   21.0976 F   0  0  0  0  0  0
  -21.5621   -3.4543   25.7727 F   0  0  0  0  0  0
  -29.3629  -14.6004   20.2641 N   0  0  0  0  0  0
  -26.2104  -12.9381   20.2794 N   0  0  0  0  0  0
  -25.9005  -11.6505   20.5447 N   0  0  0  0  0  0
  -22.0219  -12.8092   22.0560 N   0  0  0  0  0  0
  -25.3462  -15.1936   20.4306 N   0  0  0  0  0  0
  -30.8096  -16.0630   20.1420 O   0  0  0  0  0  0
  -21.6638   -6.8882   21.4257 O   0  0  0  0  0  0
  -22.3202  -14.5417   20.6801 O   0  0  0  0  0  0
  -24.7810  -31.7597   22.7325 C   0  0  0  0  0  0
  -25.9967  -32.3983   23.5982 C   0  0  1  0  0  0
  -26.3350  -28.2164   21.6256 C   0  0  0  0  0  0
  -25.6145  -33.7668   24.0464 N   0  0  0  0  0  0
  -24.1488  -29.3724   20.8189 C   0  0  2  0  0  0
  -25.5198  -29.0283   19.3539 C   0  0  0  0  0  0
  -23.6789  -27.4734   22.3024 C   0  0  0  0  0  0
  -18.1608  -28.1328   22.7990 C   0  0  0  0  0  0
  -24.1520  -36.6890   23.2706 C   0  0  0  0  0  0
  -26.0554  -31.1552   20.7213 C   0  0  0  0  0  0
  -26.4682  -29.8116   20.1286 C   0  0  0  0  0  0
  -27.2502  -29.0525   20.9915 C   0  0  0  0  0  0
  -26.0397  -27.1875   20.6024 C   0  0  0  0  0  0
  -25.5498  -27.6363   19.3755 C   0  0  0  0  0  0
  -24.1653  -29.4760   19.3373 C   0  0  0  0  0  0
  -25.4243  -36.2524   24.0214 C   0  0  1  0  0  0
  -20.7516  -27.5862   23.1959 C   0  0  2  0  0  0
  -20.3666  -26.3138   22.4633 C   0  0  0  0  0  0
  -19.3050  -26.4245   21.3934 C   0  0  0  0  0  0
  -18.0357  -26.7973   22.1180 C   0  0  0  0  0  0
  -19.4522  -28.6520   23.2208 C   0  0  0  0  0  0
  -19.3229  -29.9413   23.8450 C   0  0  0  0  0  0
  -18.0452  -30.5834   24.0690 C   0  0  0  0  0  0
  -25.9340  -34.9129   23.4267 C   0  0  0  0  0  0
  -16.8312  -29.9849   23.6730 C   0  0  0  0  0  0
  -16.9002  -28.7585   23.0137 C   0  0  0  0  0  0
  -26.4435  -31.6340   24.9441 C   0  0  0  0  0  0
  -25.3128  -31.3950   25.9824 C   0  0  0  0  0  0
  -27.0958  -30.2670   24.6565 C   0  0  0  0  0  0
  -27.5444  -32.4466   25.6950 C   0  0  0  0  0  0
  -27.5586  -37.1656   24.8518 C   0  0  0  0  0  0
  -22.3550  -27.3946   23.0865 N   0  0  0  0  0  0
  -26.4220  -37.3501   23.9531 N   0  0  0  0  0  0
  -24.8144  -30.9542   21.4595 N   0  0  0  0  0  0
  -24.2685  -27.1595   23.3341 O   0  0  0  0  0  0
  -25.3428  -29.0300   22.6184 O   0  0  0  0  0  0
  -26.6154  -34.9282   22.4002 O   0  0  0  0  0  0
  -23.7423  -32.0979   23.3535 O   0  0  0  0  0  0
  -25.8224  -22.1557   20.2899 C   0  0  0  0  0  0
  -23.6040  -20.8416   20.4177 C   0  0  0  0  0  0
  -26.1468  -20.4474   20.3633 C   0  0  0  0  0  0
  -24.4590  -23.2385   20.2918 C   0  0  0  0  0  0
  -24.7905  -20.0645   20.6600 C   0  0  0  0  0  0
  -23.4457  -22.2455   20.1764 C   0  0  0  0  0  0
  -27.2794  -18.7387   20.3034 C   0  0  0  0  0  0
  -23.5547  -25.0265   20.0675 C   0  0  0  0  0  0
  -28.5889  -17.7349   20.3744 C   0  0  0  0  0  0
  -22.7941  -26.5083   20.1015 C   0  0  0  0  0  0
  -24.5303  -18.7738   21.4378 C   0  0  0  0  0  0
  -22.0138  -28.3353   20.8640 C   0  0  0  0  0  0
  -23.0597  -29.6461   22.6988 C   0  0  0  0  0  0
  -22.1584  -22.6616   19.8043 N   0  0  0  0  0  0
  -31.1863  -13.8792   19.2321 H   0  0  0  0  0  0
  -30.5471  -12.7224   20.3327 H   0  0  0  0  0  0
  -30.1358  -11.9754   17.9868 H   0  0  0  0  0  0
  -29.4394  -13.5251   17.5821 H   0  0  0  0  0  0
  -28.2437  -11.3201   19.2832 H   0  0  0  0  0  0
  -27.5161  -12.1349   17.9165 H   0  0  0  0  0  0
  -27.3019  -14.1637   19.1348 H   0  0  0  0  0  0
  -28.7711  -12.9628   21.5284 H   0  0  0  0  0  0
  -27.8117  -14.4185   21.5973 H   0  0  0  0  0  0
  -25.2794   -9.5650   22.4733 H   0  0  0  0  0  0
  -24.0036   -7.4591   22.7476 H   0  0  0  0  0  0
  -21.0821   -8.8736   19.8967 H   0  0  0  0  0  0
  -22.3693  -10.9633   19.6168 H   0  0  0  0  0  0
  -21.1996   -7.6157   23.9723 H   0  0  0  0  0  0
  -21.1454   -6.0528   25.9077 H   0  0  0  0  0  0
  -22.0614   -2.7630   23.2817 H   0  0  0  0  0  0
  -22.3924  -11.9786   22.4954 H   0  0  0  0  0  0
  -21.0839  -13.1059   22.2799 H   0  0  0  0  0  0
  -24.5602  -15.8132   20.5826 H   0  0  0  0  0  0
  -26.1788  -15.6659   20.1110 H   0  0  0  0  0  0
  -26.9087  -32.5172   23.0271 H   0  0  0  0  0  0
  -25.0558  -33.8083   24.8845 H   0  0  0  0  0  0
  -23.3515  -30.0934   20.5956 H   0  0  0  0  0  0
  -23.3912  -35.9063   23.3133 H   0  0  0  0  0  0
  -24.3538  -36.8863   22.2155 H   0  0  0  0  0  0
  -23.7192  -37.5926   23.7050 H   0  0  0  0  0  0
  -25.8786  -31.8855   19.9210 H   0  0  0  0  0  0
  -26.9032  -31.5506   21.2706 H   0  0  0  0  0  0
  -27.8689  -29.6620   21.6275 H   0  0  0  0  0  0
  -25.7676  -26.1903   20.8714 H   0  0  0  0  0  0
  -24.9500  -27.0077   18.7270 H   0  0  0  0  0  0
  -24.1339  -30.4731   18.8628 H   0  0  0  0  0  0
  -23.4944  -28.7998   18.8217 H   0  0  0  0  0  0
  -25.1541  -36.0985   25.0727 H   0  0  0  0  0  0
  -20.6897  -27.2998   24.2515 H   0  0  0  0  0  0
  -20.0377  -25.5553   23.1811 H   0  0  0  0  0  0
  -21.2121  -25.8238   21.9965 H   0  0  0  0  0  0
  -19.1279  -25.4391   20.9627 H   0  0  0  0  0  0
  -19.5040  -27.0586   20.5138 H   0  0  0  0  0  0
  -17.2206  -26.8379   21.3941 H   0  0  0  0  0  0
  -17.7531  -26.0543   22.8721 H   0  0  0  0  0  0
  -20.2088  -30.4195   24.2303 H   0  0  0  0  0  0
  -18.0207  -31.5245   24.6069 H   0  0  0  0  0  0
  -15.8744  -30.4577   23.8681 H   0  0  0  0  0  0
  -15.9857  -28.3104   22.6467 H   0  0  0  0  0  0
  -24.5049  -30.7944   25.5726 H   0  0  0  0  0  0
  -24.8773  -32.3326   26.3373 H   0  0  0  0  0  0
  -25.6703  -30.8679   26.8670 H   0  0  0  0  0  0
  -26.3686  -29.4650   24.6175 H   0  0  0  0  0  0
  -27.7407  -29.9504   25.4769 H   0  0  0  0  0  0
  -27.6942  -30.2598   23.7488 H   0  0  0  0  0  0
  -27.1849  -33.4152   26.0463 H   0  0  0  0  0  0
  -28.4086  -32.6242   25.0526 H   0  0  0  0  0  0
  -27.9155  -31.9227   26.5832 H   0  0  0  0  0  0
  -28.2450  -38.0107   24.7627 H   0  0  0  0  0  0
  -28.1221  -36.2592   24.6216 H   0  0  0  0  0  0
  -27.2298  -37.1134   25.8922 H   0  0  0  0  0  0
  -22.6439  -26.8675   23.9009 H   0  0  0  0  0  0
  -25.9890  -38.2438   24.1767 H   0  0  0  0  0  0
  -26.7458  -22.7031   20.1780 H   0  0  0  0  0  0
  -22.6731  -20.2902   20.4532 H   0  0  0  0  0  0
  -26.5628  -17.9937   20.0091 H   0  0  0  0  0  0
  -23.4806  -24.9236   18.9953 H   0  0  0  0  0  0
  -29.3892  -18.4311   20.5719 H   0  0  0  0  0  0
  -22.5935  -26.7150   19.0609 H   0  0  0  0  0  0
  -23.4995  -18.7141   21.7982 H   0  0  0  0  0  0
  -25.1288  -18.7916   22.3514 H   0  0  0  0  0  0
  -24.7440  -17.8463   20.9142 H   0  0  0  0  0  0
  -20.9508  -28.3396   20.9760 H   0  0  0  0  0  0
  -21.8018  -28.9819   19.9973 H   0  0  0  0  0  0
  -22.7089  -29.6308   23.7202 H   0  0  0  0  0  0
  -22.5609  -30.5802   22.4044 H   0  0  0  0  0  0
  -21.3506  -22.0476   19.7269 H   0  0  0  0  0  0
  -21.9565  -23.6581   19.7695 H   0  0  0  0  0  0
  1 25  1  0  0  0
  1 30  2  0  0  0
  1 79  1  0  0  0
  2  3  1  0  0  0
  2 25  1  0  0  0
  2 85  1  0  0  0
  2 86  1  0  0  0
  3  4  1  0  0  0
  3 87  1  0  0  0
  3 88  1  0  0  0
  4  5  1  0  0  0
  4 89  1  0  0  0
  4 90  1  0  0  0
  5  6  1  0  0  0
  5 26  1  0  0  0
  5 91  1  0  0  0
  6 25  1  0  0  0
  6 92  1  0  0  0
  6 93  1  0  0  0
  7  8  2  0  0  0
  7 26  1  0  0  0
  7 29  1  0  0  0
  8  9  1  0  0  0
  8 22  1  0  0  0
  9 10  1  0  0  0
  9 27  2  0  0  0
 10 11  2  0  0  0
 10 15  1  0  0  0
 11 12  1  0  0  0
 11 94  1  0  0  0
 12 13  2  0  0  0
 12 95  1  0  0  0
 13 14  1  0  0  0
 13 31  1  0  0  0
 14 15  2  0  0  0
 14 96  1  0  0  0
 15 97  1  0  0  0
 16 17  2  0  0  0
 16 21  1  0  0  0
 16 31  1  0  0  0
 17 18  1  0  0  0
 17 98  1  0  0  0
 18 19  2  0  0  0
 18 99  1  0  0  0
 19 20  1  0  0  0
 19 24  1  0  0  0
 20 21  2  0  0  0
 20100  1  0  0  0
 21 23  1  0  0  0
 22 28  1  0  0  0
 22 32  2  0  0  0
 26 27  1  0  0  0
 28101  1  0  0  0
 28102  1  0  0  0
 29103  1  0  0  0
 29104  1  0  0  0
 33 34  1  0  0  0
 33 66  1  0  0  0
 33 70  2  0  0  0
 34 36  1  0  0  0
 34 59  1  0  0  0
 34105  1  0  0  0
 35 44  2  0  0  0
 35 45  1  0  0  0
 35 68  1  0  0  0
 36 56  1  0  0  0
 36106  1  0  0  0
 37 39  1  0  0  0
 37 47  1  0  0  0
 37 66  1  0  0  0
 37107  1  0  0  0
 38 43  2  0  0  0
 38 46  1  0  0  0
 38 47  1  0  0  0
 39 64  1  0  0  0
 39 67  2  0  0  0
 40 52  1  0  0  0
 40 53  2  0  0  0
 40 58  1  0  0  0
 41108  1  0  0  0
 41109  1  0  0  0
 41110  1  0  0  0
 41 48  1  0  0  0
 42 43  1  0  0  0
 42 66  1  0  0  0
 42111  1  0  0  0
 42112  1  0  0  0
 43 44  1  0  0  0
 44113  1  0  0  0
 45 46  2  0  0  0
 45114  1  0  0  0
 46115  1  0  0  0
 47116  1  0  0  0
 47117  1  0  0  0
 48 56  1  0  0  0
 48 65  1  0  0  0
 48118  1  0  0  0
 49 50  1  0  0  0
 49 53  1  0  0  0
 49 64  1  0  0  0
 49119  1  0  0  0
 50 51  1  0  0  0
 50120  1  0  0  0
 50121  1  0  0  0
 51 52  1  0  0  0
 51122  1  0  0  0
 51123  1  0  0  0
 52124  1  0  0  0
 52125  1  0  0  0
 53 54  1  0  0  0
 54 55  2  0  0  0
 54126  1  0  0  0
 55 57  1  0  0  0
 55127  1  0  0  0
 56 69  2  0  0  0
 57 58  2  0  0  0
 57128  1  0  0  0
 58129  1  0  0  0
 59 60  1  0  0  0
 59 61  1  0  0  0
 59 62  1  0  0  0
 60130  1  0  0  0
 60131  1  0  0  0
 60132  1  0  0  0
 61133  1  0  0  0
 61134  1  0  0  0
 61135  1  0  0  0
 62136  1  0  0  0
 62137  1  0  0  0
 62138  1  0  0  0
 63 65  1  0  0  0
 63139  1  0  0  0
 63140  1  0  0  0
 63141  1  0  0  0
 64142  1  0  0  0
 65143  1  0  0  0
 68 83  1  0  0  0
 71 73  2  0  0  0
 71 74  1  0  0  0
 71144  1  0  0  0
 72 75  2  0  0  0
 72 76  1  0  0  0
 72145  1  0  0  0
 73 75  1  0  0  0
 73 77  1  0  0  0
 74 76  2  0  0  0
 74 78  1  0  0  0
 75 81  1  0  0  0
 76 84  1  0  0  0
 77 79  2  0  0  0
 77146  1  0  0  0
 78 80  2  0  0  0
 78147  1  0  0  0
 79148  1  0  0  0
 80 82  1  0  0  0
 80149  1  0  0  0
 81150  1  0  0  0
 81151  1  0  0  0
 81152  1  0  0  0
 82 83  1  0  0  0
 82153  1  0  0  0
 82154  1  0  0  0
 83155  1  0  0  0
 83156  1  0  0  0
 84157  1  0  0  0
 84158  1  0  0  0
M  ISO  4   1 100  68 101  79 100  83 101
M  END
> <chiral flag>
0

> <version>
0

> <s_m_source_file>
/data/baiqing/PycharmProjects/Reinvent-master-3.2/result/LINK_invent/BTK/process_docking_weight1_custom_product_contain_oxygen_bond_distance_aromatic_linkinvent_7_9_3/rearranged_h_0119.sdf

> <i_m_source_file_index>
92

> <r_mmod_Potential_Energy-OPLS-2005>
17695.083984375

> <r_mmod_Stretch_Energy-OPLS-2005>
6813.306640625

> <r_mmod_Bend_Energy-OPLS-2005>
2310.4619140625

> <r_mmod_Torsional_Energy-OPLS-2005>
682.81201171875

> <r_mmod_Improper_Torsional_Energy-OPLS-2005>
109.423362731934

> <r_mmod_Van_der_Waal_Energy-OPLS-2005>
2170.87231445312

> <r_mmod_Electrostatic_Energy-OPLS-2005>
-374.413848876953

> <r_mmod_Solvation_Energy-OPLS-2005>
-198.627807617188

> <b_mmod_Minimization_Converged-OPLS-2005>
0

> <r_mmod_RMS_Derivative-OPLS-2005>
26.623420715332

$$$$
92
                    3D
 Structure written by MMmdl.
158166  0  0  1  0            999 V2000
  -30.7426  -14.4635   20.5458 C   0  0  0  0  0  0
  -30.4021  -12.2898   19.4254 C   0  0  0  0  0  0
  -29.5014  -12.5131   18.1991 C   0  0  0  0  0  0
  -28.0177  -12.3882   18.6040 C   0  0  0  0  0  0
  -27.6626  -13.2185   19.8694 C   0  0  2  0  0  0
  -28.7075  -13.0232   20.9905 C   0  0  0  0  0  0
  -25.2583  -13.8193   20.5634 C   0  0  0  0  0  0
  -24.1835  -13.0419   20.9111 C   0  0  0  0  0  0
  -24.6386  -11.6901   20.8683 C   0  0  0  0  0  0
  -23.9038  -10.4297   21.0332 C   0  0  0  0  0  0
  -24.3590   -9.4235   21.9129 C   0  0  0  0  0  0
  -23.6278   -8.2245   22.0742 C   0  0  0  0  0  0
  -22.4262   -8.0239   21.3514 C   0  0  0  0  0  0
  -21.9860   -9.0220   20.4632 C   0  0  0  0  0  0
  -22.7177  -10.2114   20.3017 C   0  0  0  0  0  0
  -21.6895   -6.0700   22.5273 C   0  0  0  0  0  0
  -21.4031   -6.5627   23.8203 C   0  0  0  0  0  0
  -21.3678   -5.6775   24.9168 C   0  0  0  0  0  0
  -21.6044   -4.3029   24.7202 C   0  0  0  0  0  0
  -21.8835   -3.8124   23.4332 C   0  0  0  0  0  0
  -21.9195   -4.6938   22.3389 C   0  0  0  0  0  0
  -22.7876  -13.5225   21.1760 C   0  0  0  0  0  0
  -22.1659   -4.2115   21.0970 F   0  0  0  0  0  0
  -21.5626   -3.4525   25.7728 F   0  0  0  0  0  0
  -30.0350  -13.3059   20.4248 N   0  0  0  0  0  0
  -26.3033  -12.9379   20.3323 N   0  0  0  0  0  0
  -25.9333  -11.6534   20.5737 N   0  0  0  0  0  0
  -22.0501  -12.8259   22.0363 N   0  0  0  0  0  0
  -25.4292  -15.1907   20.4090 N   0  0  0  0  0  0
  -31.8701  -14.6024   20.0625 O   0  0  0  0  0  0
  -21.6655   -6.8799   21.4207 O   0  0  0  0  0  0
  -22.3540  -14.5503   20.6597 O   0  0  0  0  0  0
  -24.6216  -31.8677   23.1931 C   0  0  0  0  0  0
  -25.9107  -32.4799   23.8237 C   0  0  1  0  0  0
  -27.2467  -27.3696   20.1078 C   0  0  0  0  0  0
  -25.5991  -33.8593   24.2217 N   0  0  0  0  0  0
  -23.4139  -30.4863   21.5337 C   0  0  2  0  0  0
  -24.8666  -28.9417   20.1050 C   0  0  0  0  0  0
  -22.7471  -29.4661   22.4853 C   0  0  0  0  0  0
  -18.0317  -28.1427   22.8460 C   0  0  0  0  0  0
  -24.1552  -36.7258   23.2638 C   0  0  0  0  0  0
  -25.9472  -30.8196   21.3506 C   0  0  0  0  0  0
  -26.0268  -29.4459   20.7010 C   0  0  0  0  0  0
  -27.2174  -28.6731   20.6853 C   0  0  0  0  0  0
  -26.0542  -26.8910   19.5130 C   0  0  0  0  0  0
  -24.8799  -27.6685   19.5092 C   0  0  0  0  0  0
  -23.6357  -29.8219   20.1478 C   0  0  0  0  0  0
  -25.4170  -36.3081   24.0320 C   0  0  1  0  0  0
  -20.5913  -28.3758   23.1271 C   0  0  2  0  0  0
  -20.6818  -26.9473   22.5420 C   0  0  0  0  0  0
  -19.5774  -26.6420   21.5253 C   0  0  0  0  0  0
  -18.1963  -26.7964   22.1650 C   0  0  0  0  0  0
  -19.1557  -28.8885   23.2885 C   0  0  0  0  0  0
  -18.9487  -30.1486   23.8903 C   0  0  0  0  0  0
  -17.6481  -30.6603   24.0585 C   0  0  0  0  0  0
  -25.9084  -34.9474   23.5042 C   0  0  0  0  0  0
  -16.5368  -29.9121   23.6316 C   0  0  0  0  0  0
  -16.7313  -28.6566   23.0289 C   0  0  0  0  0  0
  -26.4513  -31.6556   25.0550 C   0  0  0  0  0  0
  -25.3703  -31.3696   26.1228 C   0  0  0  0  0  0
  -27.0362  -30.2997   24.5944 C   0  0  0  0  0  0
  -27.6095  -32.4234   25.7331 C   0  0  0  0  0  0
  -27.5602  -37.1795   24.8477 C   0  0  0  0  0  0
  -21.4184  -29.3111   22.3633 N   0  0  0  0  0  0
  -26.4338  -37.3752   23.9386 N   0  0  0  0  0  0
  -24.6800  -31.0722   22.0860 N   0  0  0  0  0  0
  -23.4236  -28.8180   23.2892 O   0  0  0  0  0  0
  -28.4239  -26.6215   20.1614 O   0  0  0  0  0  0
  -26.5656  -34.8955   22.4617 O   0  0  0  0  0  0
  -23.5380  -32.1483   23.7281 O   0  0  0  0  0  0
  -31.4059  -18.1298   19.5626 C   0  0  0  0  0  0
  -30.5603  -20.3667   19.1339 C   0  0  0  0  0  0
  -29.6612  -19.0936   21.0186 C   0  0  0  0  0  0
  -30.5645  -18.0137   20.6881 C   0  0  0  0  0  0
  -29.7098  -20.3443   20.2745 C   0  0  0  0  0  0
  -31.3822  -19.2862   18.7760 C   0  0  0  0  0  0
  -29.1499  -22.7131   20.1575 C   0  0  0  0  0  0
  -28.6203  -18.8018   22.0703 C   0  0  0  0  0  0
  -28.1845  -19.8911   23.0388 C   0  0  0  0  0  0
  -30.7897  -16.7511   21.5643 C   0  0  0  0  0  0
  -28.4764  -24.0405   20.6329 C   0  0  0  0  0  0
  -28.5538  -25.2620   19.6272 C   0  0  0  0  0  0
  -28.9622  -21.5222   20.6486 N   0  0  0  0  0  0
  -30.1294  -15.4958   21.1515 N   0  0  0  0  0  0
  -28.0933  -17.6897   22.1920 O   0  0  0  0  0  0
  -32.1853  -19.3758   17.6890 F   0  0  0  0  0  0
  -31.4563  -12.3292   19.1421 H   0  0  0  0  0  0
  -30.2398  -11.2872   19.8343 H   0  0  0  0  0  0
  -29.7446  -11.7941   17.4155 H   0  0  0  0  0  0
  -29.6993  -13.5023   17.7806 H   0  0  0  0  0  0
  -27.8194  -11.3325   18.7880 H   0  0  0  0  0  0
  -27.3771  -12.6753   17.7691 H   0  0  0  0  0  0
  -27.6999  -14.2670   19.5758 H   0  0  0  0  0  0
  -28.6875  -12.0011   21.3697 H   0  0  0  0  0  0
  -28.4820  -13.6598   21.8480 H   0  0  0  0  0  0
  -25.2731   -9.5783   22.4672 H   0  0  0  0  0  0
  -24.0036   -7.4693   22.7509 H   0  0  0  0  0  0
  -21.0760   -8.8695   19.8964 H   0  0  0  0  0  0
  -22.3576  -10.9613   19.6133 H   0  0  0  0  0  0
  -21.2056   -7.6147   23.9689 H   0  0  0  0  0  0
  -21.1483   -6.0512   25.9069 H   0  0  0  0  0  0
  -22.0599   -2.7568   23.2854 H   0  0  0  0  0  0
  -22.4099  -12.0008   22.4889 H   0  0  0  0  0  0
  -21.1102  -13.1307   22.2441 H   0  0  0  0  0  0
  -24.6604  -15.8444   20.5159 H   0  0  0  0  0  0
  -26.3041  -15.6461   20.1787 H   0  0  0  0  0  0
  -26.7159  -32.5494   23.0965 H   0  0  0  0  0  0
  -25.0202  -33.9750   25.0411 H   0  0  0  0  0  0
  -22.7063  -31.3043   21.3847 H   0  0  0  0  0  0
  -23.3833  -35.9566   23.3317 H   0  0  0  0  0  0
  -24.3617  -36.8858   22.2039 H   0  0  0  0  0  0
  -23.7317  -37.6470   23.6628 H   0  0  0  0  0  0
  -26.0649  -31.5829   20.5797 H   0  0  0  0  0  0
  -26.8331  -30.8700   21.9701 H   0  0  0  0  0  0
  -28.1152  -29.0761   21.1365 H   0  0  0  0  0  0
  -26.0058  -25.9113   19.0623 H   0  0  0  0  0  0
  -23.9845  -27.2757   19.0469 H   0  0  0  0  0  0
  -23.7609  -30.6027   19.3968 H   0  0  0  0  0  0
  -22.7618  -29.2584   19.8223 H   0  0  0  0  0  0
  -25.1357  -36.1889   25.0795 H   0  0  0  0  0  0
  -21.0039  -28.3370   24.1377 H   0  0  0  0  0  0
  -20.5802  -26.2378   23.3638 H   0  0  0  0  0  0
  -21.6679  -26.7541   22.1147 H   0  0  0  0  0  0
  -19.6949  -25.6352   21.1256 H   0  0  0  0  0  0
  -19.6682  -27.3264   20.6796 H   0  0  0  0  0  0
  -17.4235  -26.6738   21.4041 H   0  0  0  0  0  0
  -18.0313  -26.0123   22.9036 H   0  0  0  0  0  0
  -19.7953  -30.7318   24.2269 H   0  0  0  0  0  0
  -17.5030  -31.6257   24.5242 H   0  0  0  0  0  0
  -15.5371  -30.3034   23.7613 H   0  0  0  0  0  0
  -15.8729  -28.0933   22.6910 H   0  0  0  0  0  0
  -24.5911  -30.7047   25.7463 H   0  0  0  0  0  0
  -24.8851  -32.2882   26.4538 H   0  0  0  0  0  0
  -25.7930  -30.8879   27.0063 H   0  0  0  0  0  0
  -26.2903  -29.6713   24.1056 H   0  0  0  0  0  0
  -27.4265  -29.7228   25.4361 H   0  0  0  0  0  0
  -27.8657  -30.4325   23.8979 H   0  0  0  0  0  0
  -27.2761  -33.3566   26.1880 H   0  0  0  0  0  0
  -28.3906  -32.6762   25.0131 H   0  0  0  0  0  0
  -28.0767  -31.8354   26.5265 H   0  0  0  0  0  0
  -28.2623  -38.0105   24.7517 H   0  0  0  0  0  0
  -28.1107  -36.2626   24.6290 H   0  0  0  0  0  0
  -27.2287  -37.1379   25.8881 H   0  0  0  0  0  0
  -20.9371  -29.8860   21.6880 H   0  0  0  0  0  0
  -26.0232  -38.2820   24.1372 H   0  0  0  0  0  0
  -32.0932  -17.3367   19.2956 H   0  0  0  0  0  0
  -30.6222  -21.2204   18.4766 H   0  0  0  0  0  0
  -29.8599  -22.9023   19.3504 H   0  0  0  0  0  0
  -27.3098  -20.4017   22.6311 H   0  0  0  0  0  0
  -28.9793  -20.6148   23.1968 H   0  0  0  0  0  0
  -27.9192  -19.4671   24.0087 H   0  0  0  0  0  0
  -30.5415  -16.9378   22.6059 H   0  0  0  0  0  0
  -31.8695  -16.5828   21.6084 H   0  0  0  0  0  0
  -28.9661  -24.3266   21.5620 H   0  0  0  0  0  0
  -27.4392  -23.8469   20.9082 H   0  0  0  0  0  0
  -27.9000  -25.0899   18.7729 H   0  0  0  0  0  0
  -29.5539  -25.2551   19.1874 H   0  0  0  0  0  0
  -29.1879  -15.3459   21.4836 H   0  0  0  0  0  0
  1 25  1  0  0  0
  1 30  2  0  0  0
  1 84  1  0  0  0
  2  3  1  0  0  0
  2 25  1  0  0  0
  2 87  1  0  0  0
  2 88  1  0  0  0
  3  4  1  0  0  0
  3 89  1  0  0  0
  3 90  1  0  0  0
  4  5  1  0  0  0
  4 91  1  0  0  0
  4 92  1  0  0  0
  5  6  1  0  0  0
  5 26  1  0  0  0
  5 93  1  0  0  0
  6 25  1  0  0  0
  6 94  1  0  0  0
  6 95  1  0  0  0
  7  8  2  0  0  0
  7 26  1  0  0  0
  7 29  1  0  0  0
  8  9  1  0  0  0
  8 22  1  0  0  0
  9 10  1  0  0  0
  9 27  2  0  0  0
 10 11  2  0  0  0
 10 15  1  0  0  0
 11 12  1  0  0  0
 11 96  1  0  0  0
 12 13  2  0  0  0
 12 97  1  0  0  0
 13 14  1  0  0  0
 13 31  1  0  0  0
 14 15  2  0  0  0
 14 98  1  0  0  0
 15 99  1  0  0  0
 16 17  2  0  0  0
 16 21  1  0  0  0
 16 31  1  0  0  0
 17 18  1  0  0  0
 17100  1  0  0  0
 18 19  2  0  0  0
 18101  1  0  0  0
 19 20  1  0  0  0
 19 24  1  0  0  0
 20 21  2  0  0  0
 20102  1  0  0  0
 21 23  1  0  0  0
 22 28  1  0  0  0
 22 32  2  0  0  0
 26 27  1  0  0  0
 28103  1  0  0  0
 28104  1  0  0  0
 29105  1  0  0  0
 29106  1  0  0  0
 33 34  1  0  0  0
 33 66  1  0  0  0
 33 70  2  0  0  0
 34 36  1  0  0  0
 34 59  1  0  0  0
 34107  1  0  0  0
 35 44  2  0  0  0
 35 45  1  0  0  0
 35 68  1  0  0  0
 36 56  1  0  0  0
 36108  1  0  0  0
 37 39  1  0  0  0
 37 47  1  0  0  0
 37 66  1  0  0  0
 37109  1  0  0  0
 38 43  2  0  0  0
 38 46  1  0  0  0
 38 47  1  0  0  0
 39 64  1  0  0  0
 39 67  2  0  0  0
 40 52  1  0  0  0
 40 53  2  0  0  0
 40 58  1  0  0  0
 41110  1  0  0  0
 41111  1  0  0  0
 41112  1  0  0  0
 41 48  1  0  0  0
 42 43  1  0  0  0
 42 66  1  0  0  0
 42113  1  0  0  0
 42114  1  0  0  0
 43 44  1  0  0  0
 44115  1  0  0  0
 45 46  2  0  0  0
 45116  1  0  0  0
 46117  1  0  0  0
 47118  1  0  0  0
 47119  1  0  0  0
 48 56  1  0  0  0
 48 65  1  0  0  0
 48120  1  0  0  0
 49 50  1  0  0  0
 49 53  1  0  0  0
 49 64  1  0  0  0
 49121  1  0  0  0
 50 51  1  0  0  0
 50122  1  0  0  0
 50123  1  0  0  0
 51 52  1  0  0  0
 51124  1  0  0  0
 51125  1  0  0  0
 52126  1  0  0  0
 52127  1  0  0  0
 53 54  1  0  0  0
 54 55  2  0  0  0
 54128  1  0  0  0
 55 57  1  0  0  0
 55129  1  0  0  0
 56 69  2  0  0  0
 57 58  2  0  0  0
 57130  1  0  0  0
 58131  1  0  0  0
 59 60  1  0  0  0
 59 61  1  0  0  0
 59 62  1  0  0  0
 60132  1  0  0  0
 60133  1  0  0  0
 60134  1  0  0  0
 61135  1  0  0  0
 61136  1  0  0  0
 61137  1  0  0  0
 62138  1  0  0  0
 62139  1  0  0  0
 62140  1  0  0  0
 63 65  1  0  0  0
 63141  1  0  0  0
 63142  1  0  0  0
 63143  1  0  0  0
 64144  1  0  0  0
 65145  1  0  0  0
 68 82  1  0  0  0
 71 74  2  0  0  0
 71 76  1  0  0  0
 71146  1  0  0  0
 72 75  1  0  0  0
 72 76  2  0  0  0
 72147  1  0  0  0
 73 74  1  0  0  0
 73 75  2  0  0  0
 73 78  1  0  0  0
 74 80  1  0  0  0
 75 83  1  0  0  0
 76 86  1  0  0  0
 77 81  1  0  0  0
 77 83  2  0  0  0
 77148  1  0  0  0
 78 79  1  0  0  0
 78 85  2  0  0  0
 79149  1  0  0  0
 79150  1  0  0  0
 79151  1  0  0  0
 80 84  1  0  0  0
 80152  1  0  0  0
 80153  1  0  0  0
 81 82  1  0  0  0
 81154  1  0  0  0
 81155  1  0  0  0
 82156  1  0  0  0
 82157  1  0  0  0
 84158  1  0  0  0
M  ISO  4   1 100  68 101  82 101  84 100
M  END
> <chiral flag>
0

> <version>
0

> <s_m_source_file>
/data/baiqing/PycharmProjects/Reinvent-master-3.2/result/LINK_invent/BTK/process_docking_weight1_custom_product_contain_oxygen_bond_distance_aromatic_linkinvent_7_9_3/rearranged_h_0119.sdf

> <i_m_source_file_index>
93

> <r_mmod_Potential_Energy-OPLS-2005>
11.8992862701416

> <r_mmod_Stretch_Energy-OPLS-2005>
71.7386016845703

> <r_mmod_Bend_Energy-OPLS-2005>
140.965774536133

> <r_mmod_Torsional_Energy-OPLS-2005>
233.549423217773

> <r_mmod_Improper_Torsional_Energy-OPLS-2005>
3.07785582542419

> <r_mmod_Van_der_Waal_Energy-OPLS-2005>
164.830032348633

> <r_mmod_Electrostatic_Energy-OPLS-2005>
-416.784942626953

> <r_mmod_Solvation_Energy-OPLS-2005>
-206.233001708984

> <b_mmod_Minimization_Converged-OPLS-2005>
0

> <r_mmod_RMS_Derivative-OPLS-2005>
6.34403991699219

$$$$
93
                    3D
 Structure written by MMmdl.
159167  0  0  1  0            999 V2000
  -30.6895  -14.5514   20.4461 C   0  0  0  0  0  0
  -30.4288  -12.3302   19.4432 C   0  0  0  0  0  0
  -29.4957  -12.4505   18.2174 C   0  0  0  0  0  0
  -28.0191  -12.3196   18.6364 C   0  0  0  0  0  0
  -27.6534  -13.2087   19.8551 C   0  0  2  0  0  0
  -28.7025  -13.0821   20.9833 C   0  0  0  0  0  0
  -25.2580  -13.8158   20.5666 C   0  0  0  0  0  0
  -24.1835  -13.0439   20.9182 C   0  0  0  0  0  0
  -24.6390  -11.6904   20.8744 C   0  0  0  0  0  0
  -23.9051  -10.4299   21.0419 C   0  0  0  0  0  0
  -24.3606   -9.4218   21.9193 C   0  0  0  0  0  0
  -23.6302   -8.2242   22.0752 C   0  0  0  0  0  0
  -22.4278   -8.0284   21.3539 C   0  0  0  0  0  0
  -21.9913   -9.0251   20.4642 C   0  0  0  0  0  0
  -22.7228  -10.2140   20.3064 C   0  0  0  0  0  0
  -21.6855   -6.0745   22.5280 C   0  0  0  0  0  0
  -21.4009   -6.5648   23.8210 C   0  0  0  0  0  0
  -21.3661   -5.6796   24.9169 C   0  0  0  0  0  0
  -21.6050   -4.3060   24.7216 C   0  0  0  0  0  0
  -21.8820   -3.8153   23.4337 C   0  0  0  0  0  0
  -21.9192   -4.6976   22.3393 C   0  0  0  0  0  0
  -22.7865  -13.5246   21.1841 C   0  0  0  0  0  0
  -22.1661   -4.2161   21.0974 F   0  0  0  0  0  0
  -21.5636   -3.4547   25.7734 F   0  0  0  0  0  0
  -30.0234  -13.3655   20.4055 N   0  0  0  0  0  0
  -26.2998  -12.9329   20.3307 N   0  0  0  0  0  0
  -25.9317  -11.6490   20.5765 N   0  0  0  0  0  0
  -22.0499  -12.8232   22.0386 N   0  0  0  0  0  0
  -25.4300  -15.1877   20.4054 N   0  0  0  0  0  0
  -31.9052  -14.6221   20.2668 O   0  0  0  0  0  0
  -21.6637   -6.8890   21.4240 O   0  0  0  0  0  0
  -22.3560  -14.5563   20.6703 O   0  0  0  0  0  0
  -24.6163  -31.8663   23.2083 C   0  0  0  0  0  0
  -25.9064  -32.4800   23.8369 C   0  0  1  0  0  0
  -27.2291  -27.4079   20.0905 C   0  0  0  0  0  0
  -25.5920  -33.8598   24.2306 N   0  0  0  0  0  0
  -23.4021  -30.4919   21.5509 C   0  0  2  0  0  0
  -24.8440  -28.9540   20.1143 C   0  0  0  0  0  0
  -22.7405  -29.4659   22.4987 C   0  0  0  0  0  0
  -18.0276  -28.1378   22.8500 C   0  0  0  0  0  0
  -24.1491  -36.7303   23.2636 C   0  0  0  0  0  0
  -25.9341  -30.8234   21.3634 C   0  0  0  0  0  0
  -26.0069  -29.4570   20.7081 C   0  0  0  0  0  0
  -27.1975  -28.6918   20.6917 C   0  0  0  0  0  0
  -26.0365  -26.9215   19.5015 C   0  0  0  0  0  0
  -24.8548  -27.6861   19.5111 C   0  0  0  0  0  0
  -23.6074  -29.8239   20.1654 C   0  0  0  0  0  0
  -25.4110  -36.3092   24.0335 C   0  0  1  0  0  0
  -20.5866  -28.3659   23.1324 C   0  0  2  0  0  0
  -20.6764  -26.9394   22.5415 C   0  0  0  0  0  0
  -19.5738  -26.6383   21.5216 C   0  0  0  0  0  0
  -18.1919  -26.7926   22.1627 C   0  0  0  0  0  0
  -19.1522  -28.8835   23.2908 C   0  0  0  0  0  0
  -18.9451  -30.1446   23.8903 C   0  0  0  0  0  0
  -17.6451  -30.6584   24.0564 C   0  0  0  0  0  0
  -25.9042  -34.9463   23.5112 C   0  0  0  0  0  0
  -16.5344  -29.9081   23.6330 C   0  0  0  0  0  0
  -16.7265  -28.6501   23.0350 C   0  0  0  0  0  0
  -26.4482  -31.6586   25.0707 C   0  0  0  0  0  0
  -25.3751  -31.3708   26.1461 C   0  0  0  0  0  0
  -27.0301  -30.3021   24.6090 C   0  0  0  0  0  0
  -27.6046  -32.4312   25.7481 C   0  0  0  0  0  0
  -27.5580  -37.1799   24.8459 C   0  0  0  0  0  0
  -21.4134  -29.3029   22.3731 N   0  0  0  0  0  0
  -26.4287  -37.3784   23.9410 N   0  0  0  0  0  0
  -24.6699  -31.0752   22.0989 N   0  0  0  0  0  0
  -23.4181  -28.8195   23.3023 O   0  0  0  0  0  0
  -28.4212  -26.6995   20.0982 O   0  0  0  0  0  0
  -26.5591  -34.8922   22.4667 O   0  0  0  0  0  0
  -23.5360  -32.1431   23.7476 O   0  0  0  0  0  0
  -29.5013  -18.1113   20.2991 C   0  0  0  0  0  0
  -31.0717  -18.4002   18.0323 C   0  0  0  0  0  0
  -29.6085  -19.4153   19.7136 C   0  0  0  0  0  0
  -30.4374  -19.5362   18.5613 C   0  0  0  0  0  0
  -30.9176  -17.1194   18.5835 C   0  0  0  0  0  0
  -30.1497  -16.9476   19.7757 C   0  0  0  0  0  0
  -28.8199  -20.5497   20.3241 C   0  0  0  0  0  0
  -28.8044  -21.8819   20.0383 C   0  0  0  0  0  0
  -28.4958  -24.3284   20.8489 C   0  0  0  0  0  0
  -30.6651  -20.8256   17.7896 C   0  0  0  0  0  0
  -31.5697  -16.0024   17.7802 C   0  0  0  0  0  0
  -27.8720  -22.9251   20.6663 C   0  0  0  0  0  0
  -28.4763  -25.3195   19.6607 C   0  0  0  0  0  0
  -29.9092  -15.6640   20.4173 N   0  0  0  0  0  0
  -28.9858  -24.6535   21.9352 O   0  0  0  0  0  0
  -31.4715  -12.4324   19.1339 H   0  0  0  0  0  0
  -30.3463  -11.3449   19.9037 H   0  0  0  0  0  0
  -29.7438  -11.6803   17.4862 H   0  0  0  0  0  0
  -29.6389  -13.4034   17.7109 H   0  0  0  0  0  0
  -27.8435  -11.2700   18.8746 H   0  0  0  0  0  0
  -27.3649  -12.5517   17.7947 H   0  0  0  0  0  0
  -27.6710  -14.2380   19.4983 H   0  0  0  0  0  0
  -28.6934  -12.0769   21.4069 H   0  0  0  0  0  0
  -28.4724  -13.7649   21.8034 H   0  0  0  0  0  0
  -25.2754   -9.5708   22.4764 H   0  0  0  0  0  0
  -24.0030   -7.4636   22.7460 H   0  0  0  0  0  0
  -21.0851   -8.8769   19.8940 H   0  0  0  0  0  0
  -22.3690  -10.9682   19.6176 H   0  0  0  0  0  0
  -21.1989   -7.6154   23.9718 H   0  0  0  0  0  0
  -21.1488   -6.0518   25.9075 H   0  0  0  0  0  0
  -22.0597   -2.7618   23.2813 H   0  0  0  0  0  0
  -22.4113  -11.9890   22.4768 H   0  0  0  0  0  0
  -21.1122  -13.1260   22.2605 H   0  0  0  0  0  0
  -24.6579  -15.8382   20.5025 H   0  0  0  0  0  0
  -26.2762  -15.6268   20.0659 H   0  0  0  0  0  0
  -26.7122  -32.5492   23.1115 H   0  0  0  0  0  0
  -25.0099  -33.9747   25.0471 H   0  0  0  0  0  0
  -22.6919  -31.3102   21.4142 H   0  0  0  0  0  0
  -23.3753  -35.9631   23.3284 H   0  0  0  0  0  0
  -24.3596  -36.8932   22.2054 H   0  0  0  0  0  0
  -23.7239  -37.6503   23.6660 H   0  0  0  0  0  0
  -26.0512  -31.5903   20.5965 H   0  0  0  0  0  0
  -26.8218  -30.8725   21.9828 H   0  0  0  0  0  0
  -28.0964  -29.0815   21.1486 H   0  0  0  0  0  0
  -25.9734  -25.9560   19.0267 H   0  0  0  0  0  0
  -23.9580  -27.2892   19.0548 H   0  0  0  0  0  0
  -23.7099  -30.5983   19.4044 H   0  0  0  0  0  0
  -22.7304  -29.2430   19.8748 H   0  0  0  0  0  0
  -25.1288  -36.1943   25.0828 H   0  0  0  0  0  0
  -20.9965  -28.3218   24.1441 H   0  0  0  0  0  0
  -20.5677  -26.2259   23.3599 H   0  0  0  0  0  0
  -21.6632  -26.7441   22.1198 H   0  0  0  0  0  0
  -19.6891  -25.6295   21.1236 H   0  0  0  0  0  0
  -19.6685  -27.3199   20.6752 H   0  0  0  0  0  0
  -17.4194  -26.6689   21.4026 H   0  0  0  0  0  0
  -18.0311  -26.0070   22.9022 H   0  0  0  0  0  0
  -19.7928  -30.7266   24.2266 H   0  0  0  0  0  0
  -17.5008  -31.6266   24.5156 H   0  0  0  0  0  0
  -15.5341  -30.2976   23.7656 H   0  0  0  0  0  0
  -15.8671  -28.0821   22.7048 H   0  0  0  0  0  0
  -24.5893  -30.7092   25.7800 H   0  0  0  0  0  0
  -24.8987  -32.2879   26.4937 H   0  0  0  0  0  0
  -25.8109  -30.8845   27.0198 H   0  0  0  0  0  0
  -26.2836  -29.6791   24.1148 H   0  0  0  0  0  0
  -27.4066  -29.7247   25.4543 H   0  0  0  0  0  0
  -27.8680  -30.4318   23.9235 H   0  0  0  0  0  0
  -27.2649  -33.3606   26.2062 H   0  0  0  0  0  0
  -28.3863  -32.6881   25.0321 H   0  0  0  0  0  0
  -28.0705  -31.8437   26.5401 H   0  0  0  0  0  0
  -28.2576  -38.0115   24.7525 H   0  0  0  0  0  0
  -28.1095  -36.2645   24.6255 H   0  0  0  0  0  0
  -27.2304  -37.1414   25.8862 H   0  0  0  0  0  0
  -20.9281  -29.8756   21.6966 H   0  0  0  0  0  0
  -26.0172  -38.2857   24.1421 H   0  0  0  0  0  0
  -28.8789  -17.9967   21.1759 H   0  0  0  0  0  0
  -31.6726  -18.5069   17.1390 H   0  0  0  0  0  0
  -28.1305  -20.2394   21.0975 H   0  0  0  0  0  0
  -29.4493  -22.3100   19.2963 H   0  0  0  0  0  0
  -31.2753  -20.6610   16.9015 H   0  0  0  0  0  0
  -31.1999  -21.5532   18.3999 H   0  0  0  0  0  0
  -29.7203  -21.2376   17.4348 H   0  0  0  0  0  0
  -31.6184  -16.2596   16.7212 H   0  0  0  0  0  0
  -31.0104  -15.0753   17.8323 H   0  0  0  0  0  0
  -32.5910  -15.8287   18.1218 H   0  0  0  0  0  0
  -27.5017  -22.5666   21.6269 H   0  0  0  0  0  0
  -27.0034  -23.0372   20.0181 H   0  0  0  0  0  0
  -27.7129  -25.0422   18.9400 H   0  0  0  0  0  0
  -29.4204  -25.1942   19.1303 H   0  0  0  0  0  0
  -28.9766  -15.5242   20.7717 H   0  0  0  0  0  0
  1 25  1  0  0  0
  1 30  2  0  0  0
  1 84  1  0  0  0
  2  3  1  0  0  0
  2 25  1  0  0  0
  2 86  1  0  0  0
  2 87  1  0  0  0
  3  4  1  0  0  0
  3 88  1  0  0  0
  3 89  1  0  0  0
  4  5  1  0  0  0
  4 90  1  0  0  0
  4 91  1  0  0  0
  5  6  1  0  0  0
  5 26  1  0  0  0
  5 92  1  0  0  0
  6 25  1  0  0  0
  6 93  1  0  0  0
  6 94  1  0  0  0
  7  8  2  0  0  0
  7 26  1  0  0  0
  7 29  1  0  0  0
  8  9  1  0  0  0
  8 22  1  0  0  0
  9 10  1  0  0  0
  9 27  2  0  0  0
 10 11  2  0  0  0
 10 15  1  0  0  0
 11 12  1  0  0  0
 11 95  1  0  0  0
 12 13  2  0  0  0
 12 96  1  0  0  0
 13 14  1  0  0  0
 13 31  1  0  0  0
 14 15  2  0  0  0
 14 97  1  0  0  0
 15 98  1  0  0  0
 16 17  2  0  0  0
 16 21  1  0  0  0
 16 31  1  0  0  0
 17 18  1  0  0  0
 17 99  1  0  0  0
 18 19  2  0  0  0
 18100  1  0  0  0
 19 20  1  0  0  0
 19 24  1  0  0  0
 20 21  2  0  0  0
 20101  1  0  0  0
 21 23  1  0  0  0
 22 28  1  0  0  0
 22 32  2  0  0  0
 26 27  1  0  0  0
 28102  1  0  0  0
 28103  1  0  0  0
 29104  1  0  0  0
 29105  1  0  0  0
 33 34  1  0  0  0
 33 66  1  0  0  0
 33 70  2  0  0  0
 34 36  1  0  0  0
 34 59  1  0  0  0
 34106  1  0  0  0
 35 44  2  0  0  0
 35 45  1  0  0  0
 35 68  1  0  0  0
 36 56  1  0  0  0
 36107  1  0  0  0
 37 39  1  0  0  0
 37 47  1  0  0  0
 37 66  1  0  0  0
 37108  1  0  0  0
 38 43  2  0  0  0
 38 46  1  0  0  0
 38 47  1  0  0  0
 39 64  1  0  0  0
 39 67  2  0  0  0
 40 52  1  0  0  0
 40 53  2  0  0  0
 40 58  1  0  0  0
 41109  1  0  0  0
 41110  1  0  0  0
 41111  1  0  0  0
 41 48  1  0  0  0
 42 43  1  0  0  0
 42 66  1  0  0  0
 42112  1  0  0  0
 42113  1  0  0  0
 43 44  1  0  0  0
 44114  1  0  0  0
 45 46  2  0  0  0
 45115  1  0  0  0
 46116  1  0  0  0
 47117  1  0  0  0
 47118  1  0  0  0
 48 56  1  0  0  0
 48 65  1  0  0  0
 48119  1  0  0  0
 49 50  1  0  0  0
 49 53  1  0  0  0
 49 64  1  0  0  0
 49120  1  0  0  0
 50 51  1  0  0  0
 50121  1  0  0  0
 50122  1  0  0  0
 51 52  1  0  0  0
 51123  1  0  0  0
 51124  1  0  0  0
 52125  1  0  0  0
 52126  1  0  0  0
 53 54  1  0  0  0
 54 55  2  0  0  0
 54127  1  0  0  0
 55 57  1  0  0  0
 55128  1  0  0  0
 56 69  2  0  0  0
 57 58  2  0  0  0
 57129  1  0  0  0
 58130  1  0  0  0
 59 60  1  0  0  0
 59 61  1  0  0  0
 59 62  1  0  0  0
 60131  1  0  0  0
 60132  1  0  0  0
 60133  1  0  0  0
 61134  1  0  0  0
 61135  1  0  0  0
 61136  1  0  0  0
 62137  1  0  0  0
 62138  1  0  0  0
 62139  1  0  0  0
 63 65  1  0  0  0
 63140  1  0  0  0
 63141  1  0  0  0
 63142  1  0  0  0
 64143  1  0  0  0
 65144  1  0  0  0
 68 83  1  0  0  0
 71 73  2  0  0  0
 71 76  1  0  0  0
 71145  1  0  0  0
 72 74  2  0  0  0
 72 75  1  0  0  0
 72146  1  0  0  0
 73 74  1  0  0  0
 73 77  1  0  0  0
 74 80  1  0  0  0
 75 76  2  0  0  0
 75 81  1  0  0  0
 76 84  1  0  0  0
 77 78  2  0  0  0
 77147  1  0  0  0
 78 82  1  0  0  0
 78148  1  0  0  0
 79 82  1  0  0  0
 79 83  1  0  0  0
 79 85  2  0  0  0
 80149  1  0  0  0
 80150  1  0  0  0
 80151  1  0  0  0
 81152  1  0  0  0
 81153  1  0  0  0
 81154  1  0  0  0
 82155  1  0  0  0
 82156  1  0  0  0
 83157  1  0  0  0
 83158  1  0  0  0
 84159  1  0  0  0
M  ISO  4   1 100  68 101  83 101  84 100
M  END
> <chiral flag>
0

> <version>
0

> <s_m_source_file>
/data/baiqing/PycharmProjects/Reinvent-master-3.2/result/LINK_invent/BTK/process_docking_weight1_custom_product_contain_oxygen_bond_distance_aromatic_linkinvent_7_9_3/rearranged_h_0119.sdf

> <i_m_source_file_index>
94

> <r_mmod_Potential_Energy-OPLS-2005>
41.9824295043945

> <r_mmod_Stretch_Energy-OPLS-2005>
52.1416702270508

> <r_mmod_Bend_Energy-OPLS-2005>
129.650497436523

> <r_mmod_Torsional_Energy-OPLS-2005>
239.669250488281

> <r_mmod_Improper_Torsional_Energy-OPLS-2005>
7.43970108032227

> <r_mmod_Van_der_Waal_Energy-OPLS-2005>
165.196640014648

> <r_mmod_Electrostatic_Energy-OPLS-2005>
-353.458953857422

> <r_mmod_Solvation_Energy-OPLS-2005>
-230.299362182617

> <b_mmod_Minimization_Converged-OPLS-2005>
0

> <r_mmod_RMS_Derivative-OPLS-2005>
1.74033343791962

$$$$
