0
                    3D
 Structure written by MMmdl.
164173  0  0  1  0            999 V2000
  -30.6577  -14.4938   20.5185 C   0  0  0  0  0  0
  -30.4231  -12.2997   19.4360 C   0  0  0  0  0  0
  -29.5005  -12.5007   18.2147 C   0  0  0  0  0  0
  -28.0174  -12.3583   18.6168 C   0  0  0  0  0  0
  -27.6558  -13.2034   19.8686 C   0  0  2  0  0  0
  -28.6932  -12.9860   20.9959 C   0  0  0  0  0  0
  -25.2552  -13.8123   20.5661 C   0  0  0  0  0  0
  -24.1809  -13.0405   20.9164 C   0  0  0  0  0  0
  -24.6354  -11.6871   20.8712 C   0  0  0  0  0  0
  -23.9017  -10.4265   21.0399 C   0  0  0  0  0  0
  -24.3583   -9.4193   21.9178 C   0  0  0  0  0  0
  -23.6277   -8.2219   22.0745 C   0  0  0  0  0  0
  -22.4257   -8.0243   21.3530 C   0  0  0  0  0  0
  -21.9883   -9.0207   20.4629 C   0  0  0  0  0  0
  -22.7192  -10.2097   20.3051 C   0  0  0  0  0  0
  -21.6836   -6.0724   22.5280 C   0  0  0  0  0  0
  -21.3994   -6.5632   23.8209 C   0  0  0  0  0  0
  -21.3669   -5.6789   24.9180 C   0  0  0  0  0  0
  -21.6065   -4.3056   24.7232 C   0  0  0  0  0  0
  -21.8813   -3.8138   23.4355 C   0  0  0  0  0  0
  -21.9181   -4.6954   22.3409 C   0  0  0  0  0  0
  -22.7839  -13.5211   21.1856 C   0  0  0  0  0  0
  -22.1649   -4.2149   21.0985 F   0  0  0  0  0  0
  -21.5661   -3.4536   25.7747 F   0  0  0  0  0  0
  -30.0268  -13.2897   20.4511 N   0  0  0  0  0  0
  -26.2968  -12.9292   20.3294 N   0  0  0  0  0  0
  -25.9265  -11.6447   20.5696 N   0  0  0  0  0  0
  -22.0468  -12.8228   22.0426 N   0  0  0  0  0  0
  -25.4265  -15.1846   20.4098 N   0  0  0  0  0  0
  -31.8111  -14.6612   20.1144 O   0  0  0  0  0  0
  -21.6616   -6.8858   21.4228 O   0  0  0  0  0  0
  -22.3529  -14.5519   20.6712 O   0  0  0  0  0  0
  -24.6138  -31.8691   23.2109 C   0  0  0  0  0  0
  -25.9040  -32.4810   23.8403 C   0  0  1  0  0  0
  -27.2267  -27.4315   20.0999 C   0  0  0  0  0  0
  -25.5903  -33.8614   24.2321 N   0  0  0  0  0  0
  -23.4005  -30.4936   21.5520 C   0  0  2  0  0  0
  -24.8490  -28.9609   20.1146 C   0  0  0  0  0  0
  -22.7397  -29.4654   22.4983 C   0  0  0  0  0  0
  -18.0284  -28.1351   22.8505 C   0  0  0  0  0  0
  -24.1495  -36.7317   23.2638 C   0  0  0  0  0  0
  -25.9314  -30.8281   21.3709 C   0  0  0  0  0  0
  -26.0071  -29.4615   20.7238 C   0  0  0  0  0  0
  -27.1979  -28.6990   20.7296 C   0  0  0  0  0  0
  -26.0668  -26.9655   19.4507 C   0  0  0  0  0  0
  -24.8726  -27.7089   19.4779 C   0  0  0  0  0  0
  -23.6103  -29.8268   20.1664 C   0  0  0  0  0  0
  -25.4117  -36.3104   24.0333 C   0  0  1  0  0  0
  -20.5877  -28.3618   23.1311 C   0  0  2  0  0  0
  -20.6765  -26.9365   22.5397 C   0  0  0  0  0  0
  -19.5743  -26.6402   21.5169 C   0  0  0  0  0  0
  -18.1915  -26.7918   22.1596 C   0  0  0  0  0  0
  -19.1544  -28.8804   23.2911 C   0  0  0  0  0  0
  -18.9480  -30.1397   23.8923 C   0  0  0  0  0  0
  -17.6478  -30.6554   24.0566 C   0  0  0  0  0  0
  -25.9042  -34.9465   23.5126 C   0  0  0  0  0  0
  -16.5369  -29.9072   23.6317 C   0  0  0  0  0  0
  -16.7269  -28.6471   23.0362 C   0  0  0  0  0  0
  -26.4479  -31.6590   25.0726 C   0  0  0  0  0  0
  -25.3738  -31.3710   26.1462 C   0  0  0  0  0  0
  -27.0315  -30.3036   24.6103 C   0  0  0  0  0  0
  -27.6045  -32.4320   25.7491 C   0  0  0  0  0  0
  -27.5579  -37.1810   24.8464 C   0  0  0  0  0  0
  -21.4132  -29.2994   22.3713 N   0  0  0  0  0  0
  -26.4295  -37.3790   23.9397 N   0  0  0  0  0  0
  -24.6662  -31.0776   22.1026 N   0  0  0  0  0  0
  -23.4190  -28.8223   23.3035 O   0  0  0  0  0  0
  -28.3542  -26.6391   20.0863 O   0  0  0  0  0  0
  -26.5597  -34.8917   22.4681 O   0  0  0  0  0  0
  -23.5326  -32.1464   23.7485 O   0  0  0  0  0  0
  -30.1233  -18.3507   18.4040 C   0  0  0  0  0  0
  -30.3467  -17.1116   19.0303 C   0  0  0  0  0  0
  -29.0366  -17.8527   20.9311 C   0  0  0  0  0  0
  -29.3383  -19.3480   19.0176 C   0  0  0  0  0  0
  -28.8061  -19.1139   20.3137 C   0  0  0  0  0  0
  -29.7920  -16.8312   20.3001 C   0  0  0  0  0  0
  -29.3464  -22.0713   21.5507 C   0  0  0  0  0  0
  -29.6294  -23.5862   21.4363 C   0  0  0  0  0  0
  -27.4117  -23.9096   20.3486 C   0  0  0  0  0  0
  -27.0800  -22.4234   20.5979 C   0  0  0  0  0  0
  -28.3595  -24.4631   21.4182 C   0  0  1  0  0  0
  -29.0569  -20.6201   18.2358 C   0  0  0  0  0  0
  -27.8878  -20.1204   21.0341 C   0  0  0  0  0  0
  -28.6541  -25.9980   21.3369 C   0  0  0  0  0  0
  -28.2175  -21.5666   20.9934 N   0  0  0  0  0  0
  -29.8802  -15.5301   20.9081 N   0  0  0  0  0  0
  -30.1816  -21.3624   22.1204 O   0  0  0  0  0  0
  -31.4710  -12.3924   19.1443 H   0  0  0  0  0  0
  -30.3175  -11.2906   19.8379 H   0  0  0  0  0  0
  -29.7440  -11.7738   17.4396 H   0  0  0  0  0  0
  -29.6703  -13.4874   17.7800 H   0  0  0  0  0  0
  -27.8308  -11.3028   18.8183 H   0  0  0  0  0  0
  -27.3704  -12.6227   17.7782 H   0  0  0  0  0  0
  -27.6939  -14.2492   19.5594 H   0  0  0  0  0  0
  -28.6691  -11.9489   21.3363 H   0  0  0  0  0  0
  -28.4551  -13.5861   21.8756 H   0  0  0  0  0  0
  -25.2732   -9.5697   22.4750 H   0  0  0  0  0  0
  -24.0000   -7.4621   22.7483 H   0  0  0  0  0  0
  -21.0814   -8.8706   19.8945 H   0  0  0  0  0  0
  -22.3630  -10.9629   19.6170 H   0  0  0  0  0  0
  -21.1953   -7.6134   23.9713 H   0  0  0  0  0  0
  -21.1509   -6.0524   25.9090 H   0  0  0  0  0  0
  -22.0582   -2.7598   23.2852 H   0  0  0  0  0  0
  -22.4043  -11.9892   22.4853 H   0  0  0  0  0  0
  -21.1068  -13.1247   22.2568 H   0  0  0  0  0  0
  -24.6559  -15.8364   20.5135 H   0  0  0  0  0  0
  -26.2845  -15.6247   20.0978 H   0  0  0  0  0  0
  -26.7101  -32.5528   23.1152 H   0  0  0  0  0  0
  -25.0056  -33.9799   25.0462 H   0  0  0  0  0  0
  -22.6899  -31.3108   21.4141 H   0  0  0  0  0  0
  -23.3741  -35.9665   23.3317 H   0  0  0  0  0  0
  -24.3585  -36.8923   22.2048 H   0  0  0  0  0  0
  -23.7264  -37.6537   23.6648 H   0  0  0  0  0  0
  -26.0441  -31.5944   20.6016 H   0  0  0  0  0  0
  -26.8179  -30.8817   21.9905 H   0  0  0  0  0  0
  -28.0857  -29.0779   21.2170 H   0  0  0  0  0  0
  -26.0796  -26.0250   18.9211 H   0  0  0  0  0  0
  -23.9878  -27.3221   18.9908 H   0  0  0  0  0  0
  -23.7131  -30.6030   19.4072 H   0  0  0  0  0  0
  -22.7351  -29.2458   19.8701 H   0  0  0  0  0  0
  -25.1287  -36.1973   25.0827 H   0  0  0  0  0  0
  -20.9993  -28.3171   24.1420 H   0  0  0  0  0  0
  -20.5672  -26.2224   23.3572 H   0  0  0  0  0  0
  -21.6640  -26.7420   22.1167 H   0  0  0  0  0  0
  -19.6874  -25.6345   21.1104 H   0  0  0  0  0  0
  -19.6670  -27.3291   20.6750 H   0  0  0  0  0  0
  -17.4186  -26.6736   21.3974 H   0  0  0  0  0  0
  -18.0280  -26.0003   22.8930 H   0  0  0  0  0  0
  -19.7973  -30.7184   24.2289 H   0  0  0  0  0  0
  -17.5051  -31.6225   24.5148 H   0  0  0  0  0  0
  -15.5380  -30.2994   23.7610 H   0  0  0  0  0  0
  -15.8673  -28.0797   22.7071 H   0  0  0  0  0  0
  -24.5887  -30.7086   25.7799 H   0  0  0  0  0  0
  -24.8956  -32.2880   26.4922 H   0  0  0  0  0  0
  -25.8076  -30.8866   27.0211 H   0  0  0  0  0  0
  -26.2877  -29.6786   24.1150 H   0  0  0  0  0  0
  -27.4088  -29.7275   25.4556 H   0  0  0  0  0  0
  -27.8704  -30.4360   23.9264 H   0  0  0  0  0  0
  -27.2650  -33.3596   26.2105 H   0  0  0  0  0  0
  -28.3838  -32.6916   25.0315 H   0  0  0  0  0  0
  -28.0730  -31.8428   26.5376 H   0  0  0  0  0  0
  -28.2603  -38.0101   24.7488 H   0  0  0  0  0  0
  -28.1066  -36.2624   24.6316 H   0  0  0  0  0  0
  -27.2287  -37.1496   25.8867 H   0  0  0  0  0  0
  -20.9266  -29.8706   21.6943 H   0  0  0  0  0  0
  -26.0184  -38.2871   24.1391 H   0  0  0  0  0  0
  -30.5379  -18.5182   17.4183 H   0  0  0  0  0  0
  -30.9111  -16.3703   18.4841 H   0  0  0  0  0  0
  -28.5920  -17.6555   21.8973 H   0  0  0  0  0  0
  -30.2111  -23.7469   20.5293 H   0  0  0  0  0  0
  -30.2676  -23.8836   22.2690 H   0  0  0  0  0  0
  -26.4777  -24.4664   20.3579 H   0  0  0  0  0  0
  -27.8503  -24.0344   19.3565 H   0  0  0  0  0  0
  -26.5858  -22.0192   19.7130 H   0  0  0  0  0  0
  -26.3479  -22.3668   21.4061 H   0  0  0  0  0  0
  -27.8717  -24.3118   22.3826 H   0  0  0  0  0  0
  -29.6283  -21.4589   18.6324 H   0  0  0  0  0  0
  -27.9949  -20.8660   18.2615 H   0  0  0  0  0  0
  -29.3354  -20.5121   17.1882 H   0  0  0  0  0  0
  -27.8042  -19.8310   22.0816 H   0  0  0  0  0  0
  -26.8907  -19.9618   20.6171 H   0  0  0  0  0  0
  -29.7101  -26.1788   21.5408 H   0  0  0  0  0  0
  -28.1289  -26.4953   22.1545 H   0  0  0  0  0  0
  -29.0764  -15.2638   21.4557 H   0  0  0  0  0  0
  1 25  1  0  0  0
  1 30  2  0  0  0
  1 86  1  0  0  0
  2  3  1  0  0  0
  2 25  1  0  0  0
  2 88  1  0  0  0
  2 89  1  0  0  0
  3  4  1  0  0  0
  3 90  1  0  0  0
  3 91  1  0  0  0
  4  5  1  0  0  0
  4 92  1  0  0  0
  4 93  1  0  0  0
  5  6  1  0  0  0
  5 26  1  0  0  0
  5 94  1  0  0  0
  6 25  1  0  0  0
  6 95  1  0  0  0
  6 96  1  0  0  0
  7  8  2  0  0  0
  7 26  1  0  0  0
  7 29  1  0  0  0
  8  9  1  0  0  0
  8 22  1  0  0  0
  9 10  1  0  0  0
  9 27  2  0  0  0
 10 11  2  0  0  0
 10 15  1  0  0  0
 11 12  1  0  0  0
 11 97  1  0  0  0
 12 13  2  0  0  0
 12 98  1  0  0  0
 13 14  1  0  0  0
 13 31  1  0  0  0
 14 15  2  0  0  0
 14 99  1  0  0  0
 15100  1  0  0  0
 16 17  2  0  0  0
 16 21  1  0  0  0
 16 31  1  0  0  0
 17 18  1  0  0  0
 17101  1  0  0  0
 18 19  2  0  0  0
 18102  1  0  0  0
 19 20  1  0  0  0
 19 24  1  0  0  0
 20 21  2  0  0  0
 20103  1  0  0  0
 21 23  1  0  0  0
 22 28  1  0  0  0
 22 32  2  0  0  0
 26 27  1  0  0  0
 28104  1  0  0  0
 28105  1  0  0  0
 29106  1  0  0  0
 29107  1  0  0  0
 33 34  1  0  0  0
 33 66  1  0  0  0
 33 70  2  0  0  0
 34 36  1  0  0  0
 34 59  1  0  0  0
 34108  1  0  0  0
 35 44  2  0  0  0
 35 45  1  0  0  0
 35 68  1  0  0  0
 36 56  1  0  0  0
 36109  1  0  0  0
 37 39  1  0  0  0
 37 47  1  0  0  0
 37 66  1  0  0  0
 37110  1  0  0  0
 38 43  2  0  0  0
 38 46  1  0  0  0
 38 47  1  0  0  0
 39 64  1  0  0  0
 39 67  2  0  0  0
 40 52  1  0  0  0
 40 53  2  0  0  0
 40 58  1  0  0  0
 41111  1  0  0  0
 41112  1  0  0  0
 41113  1  0  0  0
 41 48  1  0  0  0
 42 43  1  0  0  0
 42 66  1  0  0  0
 42114  1  0  0  0
 42115  1  0  0  0
 43 44  1  0  0  0
 44116  1  0  0  0
 45 46  2  0  0  0
 45117  1  0  0  0
 46118  1  0  0  0
 47119  1  0  0  0
 47120  1  0  0  0
 48 56  1  0  0  0
 48 65  1  0  0  0
 48121  1  0  0  0
 49 50  1  0  0  0
 49 53  1  0  0  0
 49 64  1  0  0  0
 49122  1  0  0  0
 50 51  1  0  0  0
 50123  1  0  0  0
 50124  1  0  0  0
 51 52  1  0  0  0
 51125  1  0  0  0
 51126  1  0  0  0
 52127  1  0  0  0
 52128  1  0  0  0
 53 54  1  0  0  0
 54 55  2  0  0  0
 54129  1  0  0  0
 55 57  1  0  0  0
 55130  1  0  0  0
 56 69  2  0  0  0
 57 58  2  0  0  0
 57131  1  0  0  0
 58132  1  0  0  0
 59 60  1  0  0  0
 59 61  1  0  0  0
 59 62  1  0  0  0
 60133  1  0  0  0
 60134  1  0  0  0
 60135  1  0  0  0
 61136  1  0  0  0
 61137  1  0  0  0
 61138  1  0  0  0
 62139  1  0  0  0
 62140  1  0  0  0
 62141  1  0  0  0
 63 65  1  0  0  0
 63142  1  0  0  0
 63143  1  0  0  0
 63144  1  0  0  0
 64145  1  0  0  0
 65146  1  0  0  0
 68 84  1  0  0  0
 71 72  2  0  0  0
 71 74  1  0  0  0
 71147  1  0  0  0
 72 76  1  0  0  0
 72148  1  0  0  0
 73 75  1  0  0  0
 73 76  2  0  0  0
 73149  1  0  0  0
 74 75  2  0  0  0
 74 82  1  0  0  0
 75 83  1  0  0  0
 76 86  1  0  0  0
 77 78  1  0  0  0
 77 85  1  0  0  0
 77 87  2  0  0  0
 78 81  1  0  0  0
 78150  1  0  0  0
 78151  1  0  0  0
 79 80  1  0  0  0
 79 81  1  0  0  0
 79152  1  0  0  0
 79153  1  0  0  0
 80 85  1  0  0  0
 80154  1  0  0  0
 80155  1  0  0  0
 81 84  1  0  0  0
 81156  1  0  0  0
 82157  1  0  0  0
 82158  1  0  0  0
 82159  1  0  0  0
 83 85  1  0  0  0
 83160  1  0  0  0
 83161  1  0  0  0
 84162  1  0  0  0
 84163  1  0  0  0
 86164  1  0  0  0
M  ISO  4   1 100  68 101  84 101  86 100
M  END
> <chiral flag>
0

> <version>
0

> <s_m_source_file>
/data/baiqing/PycharmProjects/Reinvent-master-3.2/result/LINK_invent/BTK/process_docking_weight1_custom_product_contain_oxygen_bond_distance_aromatic_linkinvent_7_9_3/rearranged_h_0057.sdf

> <i_m_source_file_index>
1

> <r_mmod_Potential_Energy-OPLS-2005>
4.01880741119385

> <r_mmod_Stretch_Energy-OPLS-2005>
44.0081520080566

> <r_mmod_Bend_Energy-OPLS-2005>
110.070503234863

> <r_mmod_Torsional_Energy-OPLS-2005>
287.900970458984

> <r_mmod_Improper_Torsional_Energy-OPLS-2005>
6.34795951843262

> <r_mmod_Van_der_Waal_Energy-OPLS-2005>
160.289291381836

> <r_mmod_Electrostatic_Energy-OPLS-2005>
-391.033538818359

> <r_mmod_Solvation_Energy-OPLS-2005>
-230.109939575195

> <b_mmod_Minimization_Converged-OPLS-2005>
0

> <r_mmod_RMS_Derivative-OPLS-2005>
3.20136952400208

$$$$
1
                    3D
 Structure written by MMmdl.
163171  0  0  1  0            999 V2000
  -30.6897  -14.5190   20.5420 C   0  0  0  0  0  0
  -30.4194  -12.3242   19.4514 C   0  0  0  0  0  0
  -29.5001  -12.4893   18.2199 C   0  0  0  0  0  0
  -28.0203  -12.3442   18.6277 C   0  0  0  0  0  0
  -27.6502  -13.2151   19.8597 C   0  0  2  0  0  0
  -28.6857  -13.0431   20.9976 C   0  0  0  0  0  0
  -25.2517  -13.8203   20.5652 C   0  0  0  0  0  0
  -24.1783  -13.0438   20.9157 C   0  0  0  0  0  0
  -24.6352  -11.6913   20.8727 C   0  0  0  0  0  0
  -23.9027  -10.4302   21.0371 C   0  0  0  0  0  0
  -24.3597   -9.4241   21.9150 C   0  0  0  0  0  0
  -23.6286   -8.2255   22.0738 C   0  0  0  0  0  0
  -22.4259   -8.0284   21.3542 C   0  0  0  0  0  0
  -21.9875   -9.0244   20.4652 C   0  0  0  0  0  0
  -22.7184  -10.2126   20.3043 C   0  0  0  0  0  0
  -21.6851   -6.0712   22.5273 C   0  0  0  0  0  0
  -21.4041   -6.5624   23.8204 C   0  0  0  0  0  0
  -21.3671   -5.6781   24.9171 C   0  0  0  0  0  0
  -21.6035   -4.3044   24.7221 C   0  0  0  0  0  0
  -21.8808   -3.8122   23.4355 C   0  0  0  0  0  0
  -21.9219   -4.6942   22.3417 C   0  0  0  0  0  0
  -22.7827  -13.5234   21.1823 C   0  0  0  0  0  0
  -22.1660   -4.2117   21.0993 F   0  0  0  0  0  0
  -21.5628   -3.4549   25.7742 F   0  0  0  0  0  0
  -30.0251  -13.3318   20.4550 N   0  0  0  0  0  0
  -26.2930  -12.9366   20.3263 N   0  0  0  0  0  0
  -25.9252  -11.6512   20.5679 N   0  0  0  0  0  0
  -22.0476  -12.8273   22.0443 N   0  0  0  0  0  0
  -25.4169  -15.1916   20.4099 N   0  0  0  0  0  0
  -31.8236  -14.6759   20.0808 O   0  0  0  0  0  0
  -21.6644   -6.8845   21.4225 O   0  0  0  0  0  0
  -22.3521  -14.5523   20.6647 O   0  0  0  0  0  0
  -24.6251  -31.8602   23.1992 C   0  0  0  0  0  0
  -25.9101  -32.4786   23.8324 C   0  0  1  0  0  0
  -27.2647  -27.3707   20.1216 C   0  0  0  0  0  0
  -25.5909  -33.8574   24.2261 N   0  0  0  0  0  0
  -23.4209  -30.4797   21.5396 C   0  0  2  0  0  0
  -24.8769  -28.9215   20.1346 C   0  0  0  0  0  0
  -22.7458  -29.4618   22.4913 C   0  0  0  0  0  0
  -18.0282  -28.1416   22.8500 C   0  0  0  0  0  0
  -24.1462  -36.7237   23.2638 C   0  0  0  0  0  0
  -25.9593  -30.8042   21.3661 C   0  0  0  0  0  0
  -26.0416  -29.4256   20.7288 C   0  0  0  0  0  0
  -27.2393  -28.6612   20.7163 C   0  0  0  0  0  0
  -26.0777  -26.8855   19.5322 C   0  0  0  0  0  0
  -24.8910  -27.6487   19.5363 C   0  0  0  0  0  0
  -23.6429  -29.7990   20.1637 C   0  0  0  0  0  0
  -25.4097  -36.3077   24.0336 C   0  0  1  0  0  0
  -20.5883  -28.3711   23.1279 C   0  0  2  0  0  0
  -20.6759  -26.9420   22.5433 C   0  0  0  0  0  0
  -19.5749  -26.6425   21.5212 C   0  0  0  0  0  0
  -18.1927  -26.7977   22.1609 C   0  0  0  0  0  0
  -19.1546  -28.8877   23.2891 C   0  0  0  0  0  0
  -18.9475  -30.1474   23.8907 C   0  0  0  0  0  0
  -17.6476  -30.6613   24.0583 C   0  0  0  0  0  0
  -25.9043  -34.9447   23.5100 C   0  0  0  0  0  0
  -16.5356  -29.9116   23.6348 C   0  0  0  0  0  0
  -16.7267  -28.6532   23.0369 C   0  0  0  0  0  0
  -26.4504  -31.6603   25.0681 C   0  0  0  0  0  0
  -25.3739  -31.3764   26.1414 C   0  0  0  0  0  0
  -27.0354  -30.3025   24.6142 C   0  0  0  0  0  0
  -27.6078  -32.4331   25.7462 C   0  0  0  0  0  0
  -27.5561  -37.1771   24.8477 C   0  0  0  0  0  0
  -21.4175  -29.3042   22.3648 N   0  0  0  0  0  0
  -26.4265  -37.3783   23.9442 N   0  0  0  0  0  0
  -24.6864  -31.0656   22.0920 N   0  0  0  0  0  0
  -23.4187  -28.8146   23.2976 O   0  0  0  0  0  0
  -28.4181  -26.6070   19.9821 O   0  0  0  0  0  0
  -26.5630  -34.8919   22.4669 O   0  0  0  0  0  0
  -23.5418  -32.1360   23.7341 O   0  0  0  0  0  0
  -28.9751  -19.1437   20.1475 C   0  0  0  0  0  0
  -29.1461  -20.5317   20.3416 C   0  0  0  0  0  0
  -31.1621  -18.7130   21.0883 C   0  0  0  0  0  0
  -29.9809  -18.2111   20.4857 C   0  0  0  0  0  0
  -31.3554  -20.1155   21.2681 C   0  0  0  0  0  0
  -30.3505  -21.0481   20.8720 C   0  0  0  0  0  0
  -29.8922  -23.4509   20.3253 C   0  0  0  0  0  0
  -32.6851  -20.5872   21.8434 C   0  0  0  0  0  0
  -27.4508  -22.9105   22.7511 C   0  0  0  0  0  0
  -29.8124  -16.7501   20.0012 C   0  0  0  0  0  0
  -28.9169  -25.8241   21.0987 C   0  0  0  0  0  0
  -28.7593  -24.2444   21.0505 C   0  0  2  0  0  0
  -30.5673  -22.4685   20.9871 N   0  0  0  0  0  0
  -29.9503  -15.5890   20.9082 N   0  0  0  0  0  0
  -28.6459  -23.7197   22.4378 N   0  3  0  0  0  0
  -30.1876  -23.7338   19.1638 O   0  0  0  0  0  0
  -31.4683  -12.4195   19.1551 H   0  0  0  0  0  0
  -30.3195  -11.3214   19.8730 H   0  0  0  0  0  0
  -29.7525  -11.7405   17.4662 H   0  0  0  0  0  0
  -29.6660  -13.4637   17.7560 H   0  0  0  0  0  0
  -27.8474  -11.2940   18.8605 H   0  0  0  0  0  0
  -27.3743  -12.5788   17.7799 H   0  0  0  0  0  0
  -27.6757  -14.2545   19.5290 H   0  0  0  0  0  0
  -28.6538  -12.0232   21.3812 H   0  0  0  0  0  0
  -28.4357  -13.6926   21.8416 H   0  0  0  0  0  0
  -25.2752   -9.5729   22.4724 H   0  0  0  0  0  0
  -24.0022   -7.4651   22.7469 H   0  0  0  0  0  0
  -21.0786   -8.8723   19.8997 H   0  0  0  0  0  0
  -22.3598  -10.9639   19.6168 H   0  0  0  0  0  0
  -21.2017   -7.6126   23.9684 H   0  0  0  0  0  0
  -21.1505   -6.0531   25.9072 H   0  0  0  0  0  0
  -22.0582   -2.7587   23.2866 H   0  0  0  0  0  0
  -22.4105  -12.0000   22.4942 H   0  0  0  0  0  0
  -21.1078  -13.1269   22.2556 H   0  0  0  0  0  0
  -24.6372  -15.8348   20.4990 H   0  0  0  0  0  0
  -26.2620  -15.6408   20.0816 H   0  0  0  0  0  0
  -26.7161  -32.5488   23.1078 H   0  0  0  0  0  0
  -25.0098  -33.9719   25.0436 H   0  0  0  0  0  0
  -22.7132  -31.2964   21.3840 H   0  0  0  0  0  0
  -23.3748  -35.9548   23.3347 H   0  0  0  0  0  0
  -24.3529  -36.8805   22.2038 H   0  0  0  0  0  0
  -23.7189  -37.6432   23.6625 H   0  0  0  0  0  0
  -26.0859  -31.5582   20.5882 H   0  0  0  0  0  0
  -26.8400  -30.8605   21.9943 H   0  0  0  0  0  0
  -28.1430  -29.0704   21.1470 H   0  0  0  0  0  0
  -26.0737  -25.9112   19.0618 H   0  0  0  0  0  0
  -23.9976  -27.2475   19.0746 H   0  0  0  0  0  0
  -23.7682  -30.5653   19.3995 H   0  0  0  0  0  0
  -22.7690  -29.2250   19.8537 H   0  0  0  0  0  0
  -25.1282  -36.1909   25.0830 H   0  0  0  0  0  0
  -21.0003  -28.3300   24.1378 H   0  0  0  0  0  0
  -20.5640  -26.2297   23.3627 H   0  0  0  0  0  0
  -21.6628  -26.7430   22.1223 H   0  0  0  0  0  0
  -19.6898  -25.6347   21.1199 H   0  0  0  0  0  0
  -19.6708  -27.3270   20.6775 H   0  0  0  0  0  0
  -17.4191  -26.6756   21.3995 H   0  0  0  0  0  0
  -18.0291  -26.0121   22.9001 H   0  0  0  0  0  0
  -19.7953  -30.7305   24.2271 H   0  0  0  0  0  0
  -17.5030  -31.6294   24.5203 H   0  0  0  0  0  0
  -15.5354  -30.3031   23.7703 H   0  0  0  0  0  0
  -15.8656  -28.0865   22.7097 H   0  0  0  0  0  0
  -24.5980  -30.7017   25.7774 H   0  0  0  0  0  0
  -24.8846  -32.2925   26.4707 H   0  0  0  0  0  0
  -25.8075  -30.9077   27.0258 H   0  0  0  0  0  0
  -26.2915  -29.6757   24.1214 H   0  0  0  0  0  0
  -27.4093  -29.7305   25.4649 H   0  0  0  0  0  0
  -27.8756  -30.4287   23.9318 H   0  0  0  0  0  0
  -27.2709  -33.3664   26.1975 H   0  0  0  0  0  0
  -28.3929  -32.6842   25.0315 H   0  0  0  0  0  0
  -28.0690  -31.8487   26.5430 H   0  0  0  0  0  0
  -28.2616  -38.0046   24.7550 H   0  0  0  0  0  0
  -28.1037  -36.2586   24.6292 H   0  0  0  0  0  0
  -27.2280  -37.1383   25.8884 H   0  0  0  0  0  0
  -20.9358  -29.8682   21.6794 H   0  0  0  0  0  0
  -26.0141  -38.2836   24.1534 H   0  0  0  0  0  0
  -28.0677  -18.8075   19.6702 H   0  0  0  0  0  0
  -28.3510  -21.1901   20.0289 H   0  0  0  0  0  0
  -31.9498  -18.0227   21.3550 H   0  0  0  0  0  0
  -33.3852  -20.8046   21.0346 H   0  0  0  0  0  0
  -33.1339  -19.8206   22.4785 H   0  0  0  0  0  0
  -32.5812  -21.4811   22.4598 H   0  0  0  0  0  0
  -26.5333  -23.3936   22.4110 H   0  0  0  0  0  0
  -27.3886  -22.7866   23.8345 H   0  0  0  0  0  0
  -27.5072  -21.9140   22.3116 H   0  0  0  0  0  0
  -30.4591  -16.6338   19.1260 H   0  0  0  0  0  0
  -28.8001  -16.6576   19.6082 H   0  0  0  0  0  0
  -29.9756  -26.0669   21.2035 H   0  0  0  0  0  0
  -28.4605  -26.2096   22.0104 H   0  0  0  0  0  0
  -27.8388  -24.0205   20.5111 H   0  0  0  0  0  0
  -31.5564  -22.6845   21.0551 H   0  0  0  0  0  0
  -29.1109  -15.3608   21.4189 H   0  0  0  0  0  0
  -29.4523  -23.1264   22.5744 H   0  0  0  0  0  0
  -28.7145  -24.4818   23.0916 H   0  0  0  0  0  0
  1 25  1  0  0  0
  1 30  2  0  0  0
  1 84  1  0  0  0
  2  3  1  0  0  0
  2 25  1  0  0  0
  2 87  1  0  0  0
  2 88  1  0  0  0
  3  4  1  0  0  0
  3 89  1  0  0  0
  3 90  1  0  0  0
  4  5  1  0  0  0
  4 91  1  0  0  0
  4 92  1  0  0  0
  5  6  1  0  0  0
  5 26  1  0  0  0
  5 93  1  0  0  0
  6 25  1  0  0  0
  6 94  1  0  0  0
  6 95  1  0  0  0
  7  8  2  0  0  0
  7 26  1  0  0  0
  7 29  1  0  0  0
  8  9  1  0  0  0
  8 22  1  0  0  0
  9 10  1  0  0  0
  9 27  2  0  0  0
 10 11  2  0  0  0
 10 15  1  0  0  0
 11 12  1  0  0  0
 11 96  1  0  0  0
 12 13  2  0  0  0
 12 97  1  0  0  0
 13 14  1  0  0  0
 13 31  1  0  0  0
 14 15  2  0  0  0
 14 98  1  0  0  0
 15 99  1  0  0  0
 16 17  2  0  0  0
 16 21  1  0  0  0
 16 31  1  0  0  0
 17 18  1  0  0  0
 17100  1  0  0  0
 18 19  2  0  0  0
 18101  1  0  0  0
 19 20  1  0  0  0
 19 24  1  0  0  0
 20 21  2  0  0  0
 20102  1  0  0  0
 21 23  1  0  0  0
 22 28  1  0  0  0
 22 32  2  0  0  0
 26 27  1  0  0  0
 28103  1  0  0  0
 28104  1  0  0  0
 29105  1  0  0  0
 29106  1  0  0  0
 33 34  1  0  0  0
 33 66  1  0  0  0
 33 70  2  0  0  0
 34 36  1  0  0  0
 34 59  1  0  0  0
 34107  1  0  0  0
 35 44  2  0  0  0
 35 45  1  0  0  0
 35 68  1  0  0  0
 36 56  1  0  0  0
 36108  1  0  0  0
 37 39  1  0  0  0
 37 47  1  0  0  0
 37 66  1  0  0  0
 37109  1  0  0  0
 38 43  2  0  0  0
 38 46  1  0  0  0
 38 47  1  0  0  0
 39 64  1  0  0  0
 39 67  2  0  0  0
 40 52  1  0  0  0
 40 53  2  0  0  0
 40 58  1  0  0  0
 41110  1  0  0  0
 41111  1  0  0  0
 41112  1  0  0  0
 41 48  1  0  0  0
 42 43  1  0  0  0
 42 66  1  0  0  0
 42113  1  0  0  0
 42114  1  0  0  0
 43 44  1  0  0  0
 44115  1  0  0  0
 45 46  2  0  0  0
 45116  1  0  0  0
 46117  1  0  0  0
 47118  1  0  0  0
 47119  1  0  0  0
 48 56  1  0  0  0
 48 65  1  0  0  0
 48120  1  0  0  0
 49 50  1  0  0  0
 49 53  1  0  0  0
 49 64  1  0  0  0
 49121  1  0  0  0
 50 51  1  0  0  0
 50122  1  0  0  0
 50123  1  0  0  0
 51 52  1  0  0  0
 51124  1  0  0  0
 51125  1  0  0  0
 52126  1  0  0  0
 52127  1  0  0  0
 53 54  1  0  0  0
 54 55  2  0  0  0
 54128  1  0  0  0
 55 57  1  0  0  0
 55129  1  0  0  0
 56 69  2  0  0  0
 57 58  2  0  0  0
 57130  1  0  0  0
 58131  1  0  0  0
 59 60  1  0  0  0
 59 61  1  0  0  0
 59 62  1  0  0  0
 60132  1  0  0  0
 60133  1  0  0  0
 60134  1  0  0  0
 61135  1  0  0  0
 61136  1  0  0  0
 61137  1  0  0  0
 62138  1  0  0  0
 62139  1  0  0  0
 62140  1  0  0  0
 63 65  1  0  0  0
 63141  1  0  0  0
 63142  1  0  0  0
 63143  1  0  0  0
 64144  1  0  0  0
 65145  1  0  0  0
 68 81  1  0  0  0
 71 72  2  0  0  0
 71 74  1  0  0  0
 71146  1  0  0  0
 72 76  1  0  0  0
 72147  1  0  0  0
 73 74  2  0  0  0
 73 75  1  0  0  0
 73148  1  0  0  0
 74 80  1  0  0  0
 75 76  2  0  0  0
 75 78  1  0  0  0
 76 83  1  0  0  0
 77 82  1  0  0  0
 77 83  1  0  0  0
 77 86  2  0  0  0
 78149  1  0  0  0
 78150  1  0  0  0
 78151  1  0  0  0
 79 85  1  0  0  0
 79152  1  0  0  0
 79153  1  0  0  0
 79154  1  0  0  0
 80 84  1  0  0  0
 80155  1  0  0  0
 80156  1  0  0  0
 81157  1  0  0  0
 81158  1  0  0  0
 81 82  1  0  0  0
 82 85  1  0  0  0
 82159  1  0  0  0
 83160  1  0  0  0
 84161  1  0  0  0
 85162  1  0  0  0
 85163  1  0  0  0
M  CHG  1  85   1
M  ISO  4   1 100  68 101  81 101  84 100
M  END
> <chiral flag>
0

> <version>
0

> <s_m_source_file>
/data/baiqing/PycharmProjects/Reinvent-master-3.2/result/LINK_invent/BTK/process_docking_weight1_custom_product_contain_oxygen_bond_distance_aromatic_linkinvent_7_9_3/rearranged_h_0057.sdf

> <i_m_source_file_index>
2

> <r_mmod_Potential_Energy-OPLS-2005>
-198.610580444336

> <r_mmod_Stretch_Energy-OPLS-2005>
54.9764823913574

> <r_mmod_Bend_Energy-OPLS-2005>
131.750198364258

> <r_mmod_Torsional_Energy-OPLS-2005>
346.017944335938

> <r_mmod_Improper_Torsional_Energy-OPLS-2005>
14.4427366256714

> <r_mmod_Van_der_Waal_Energy-OPLS-2005>
142.879196166992

> <r_mmod_Electrostatic_Energy-OPLS-2005>
-424.694122314453

> <r_mmod_Solvation_Energy-OPLS-2005>
-486.816345214844

> <b_mmod_Minimization_Converged-OPLS-2005>
0

> <r_mmod_RMS_Derivative-OPLS-2005>
5.93756628036499

$$$$
2
                    3D
 Structure written by MMmdl.
161169  0  0  1  0            999 V2000
  -30.7304  -14.3937   20.6903 C   0  0  0  0  0  0
  -30.4375  -12.3110   19.3869 C   0  0  0  0  0  0
  -29.4899  -12.5364   18.1919 C   0  0  0  0  0  0
  -28.0128  -12.3903   18.6081 C   0  0  0  0  0  0
  -27.6727  -13.1983   19.8868 C   0  0  2  0  0  0
  -28.7120  -12.9093   20.9910 C   0  0  0  0  0  0
  -25.2635  -13.8144   20.5674 C   0  0  0  0  0  0
  -24.1869  -13.0442   20.9157 C   0  0  0  0  0  0
  -24.6407  -11.6895   20.8732 C   0  0  0  0  0  0
  -23.9067  -10.4289   21.0410 C   0  0  0  0  0  0
  -24.3616   -9.4203   21.9188 C   0  0  0  0  0  0
  -23.6288   -8.2244   22.0755 C   0  0  0  0  0  0
  -22.4273   -8.0289   21.3548 C   0  0  0  0  0  0
  -21.9910   -9.0262   20.4652 C   0  0  0  0  0  0
  -22.7238  -10.2137   20.3060 C   0  0  0  0  0  0
  -21.6851   -6.0743   22.5278 C   0  0  0  0  0  0
  -21.4012   -6.5644   23.8212 C   0  0  0  0  0  0
  -21.3655   -5.6794   24.9176 C   0  0  0  0  0  0
  -21.6043   -4.3057   24.7224 C   0  0  0  0  0  0
  -21.8821   -3.8151   23.4344 C   0  0  0  0  0  0
  -21.9191   -4.6971   22.3402 C   0  0  0  0  0  0
  -22.7889  -13.5249   21.1820 C   0  0  0  0  0  0
  -22.1661   -4.2157   21.0979 F   0  0  0  0  0  0
  -21.5627   -3.4538   25.7735 F   0  0  0  0  0  0
  -30.0558  -13.2338   20.4660 N   0  0  0  0  0  0
  -26.3082  -12.9301   20.3414 N   0  0  0  0  0  0
  -25.9335  -11.6465   20.5765 N   0  0  0  0  0  0
  -22.0522  -12.8257   22.0380 N   0  0  0  0  0  0
  -25.4386  -15.1866   20.4085 N   0  0  0  0  0  0
  -31.7535  -14.7126   20.0744 O   0  0  0  0  0  0
  -21.6637   -6.8890   21.4242 O   0  0  0  0  0  0
  -22.3577  -14.5557   20.6666 O   0  0  0  0  0  0
  -24.6138  -31.8678   23.2088 C   0  0  0  0  0  0
  -25.9036  -32.4819   23.8373 C   0  0  1  0  0  0
  -27.2444  -27.4478   20.0845 C   0  0  0  0  0  0
  -25.5883  -33.8606   24.2310 N   0  0  0  0  0  0
  -23.4000  -30.4898   21.5503 C   0  0  2  0  0  0
  -24.8464  -28.9546   20.1159 C   0  0  0  0  0  0
  -22.7403  -29.4666   22.5013 C   0  0  0  0  0  0
  -18.0270  -28.1368   22.8496 C   0  0  0  0  0  0
  -24.1480  -36.7324   23.2636 C   0  0  0  0  0  0
  -25.9272  -30.8377   21.3572 C   0  0  0  0  0  0
  -26.0063  -29.4724   20.7057 C   0  0  0  0  0  0
  -27.2050  -28.7256   20.6864 C   0  0  0  0  0  0
  -26.0610  -26.9395   19.4951 C   0  0  0  0  0  0
  -24.8678  -27.6860   19.5107 C   0  0  0  0  0  0
  -23.6064  -29.8177   20.1658 C   0  0  0  0  0  0
  -25.4099  -36.3111   24.0341 C   0  0  1  0  0  0
  -20.5855  -28.3653   23.1339 C   0  0  2  0  0  0
  -20.6753  -26.9393   22.5433 C   0  0  0  0  0  0
  -19.5728  -26.6380   21.5222 C   0  0  0  0  0  0
  -18.1905  -26.7914   22.1632 C   0  0  0  0  0  0
  -19.1521  -28.8832   23.2904 C   0  0  0  0  0  0
  -18.9450  -30.1435   23.8905 C   0  0  0  0  0  0
  -17.6449  -30.6573   24.0570 C   0  0  0  0  0  0
  -25.9028  -34.9474   23.5132 C   0  0  0  0  0  0
  -16.5341  -29.9086   23.6321 C   0  0  0  0  0  0
  -16.7261  -28.6504   23.0336 C   0  0  0  0  0  0
  -26.4464  -31.6590   25.0692 C   0  0  0  0  0  0
  -25.3753  -31.3695   26.1469 C   0  0  0  0  0  0
  -27.0264  -30.3029   24.6047 C   0  0  0  0  0  0
  -27.6021  -32.4312   25.7468 C   0  0  0  0  0  0
  -27.5577  -37.1816   24.8468 C   0  0  0  0  0  0
  -21.4135  -29.3027   22.3749 N   0  0  0  0  0  0
  -26.4286  -37.3799   23.9413 N   0  0  0  0  0  0
  -24.6654  -31.0789   22.0977 N   0  0  0  0  0  0
  -23.4192  -28.8229   23.3056 O   0  0  0  0  0  0
  -28.4373  -26.7519   20.0916 O   0  0  0  0  0  0
  -26.5598  -34.8940   22.4699 O   0  0  0  0  0  0
  -23.5340  -32.1424   23.7499 O   0  0  0  0  0  0
  -29.5772  -18.3143   23.4767 C   0  0  0  0  0  0
  -29.6218  -16.9524   23.1351 C   0  0  0  0  0  0
  -30.9341  -17.4841   21.1554 C   0  0  0  0  0  0
  -30.2038  -19.2809   22.6644 C   0  0  0  0  0  0
  -30.2915  -16.5216   21.9734 C   0  0  0  0  0  0
  -30.9026  -18.8602   21.4987 C   0  0  0  0  0  0
  -30.5812  -22.4733   19.4751 C   0  0  0  0  0  0
  -30.1017  -20.7370   23.0916 C   0  0  0  0  0  0
  -30.3970  -20.9486   19.5079 C   0  0  0  0  0  0
  -29.7358  -24.7030   20.2402 C   0  0  0  0  0  0
  -28.4077  -25.3507   19.8082 C   0  0  0  0  0  0
  -32.5532  -19.2722   19.3109 N   0  0  0  0  0  0
  -30.2173  -15.1277   21.6914 N   0  0  0  0  0  0
  -29.6921  -23.2403   20.1300 N   0  0  0  0  0  0
  -31.5058  -22.9651   18.8246 O   0  0  0  0  0  0
  -32.4954  -20.9935   21.2738 O   0  0  0  0  0  0
  -31.7526  -20.0509   20.4171 S   0  0  2  0  0  0
  -31.4737  -12.4513   19.0734 H   0  0  0  0  0  0
  -30.3737  -11.2816   19.7409 H   0  0  0  0  0  0
  -29.7228  -11.8339   17.3909 H   0  0  0  0  0  0
  -29.6535  -13.5336   17.7791 H   0  0  0  0  0  0
  -27.8151  -11.3306   18.7743 H   0  0  0  0  0  0
  -27.3601  -12.6950   17.7890 H   0  0  0  0  0  0
  -27.7390  -14.2569   19.6341 H   0  0  0  0  0  0
  -28.6838  -11.8516   21.2580 H   0  0  0  0  0  0
  -28.4484  -13.4352   21.9092 H   0  0  0  0  0  0
  -25.2766   -9.5676   22.4758 H   0  0  0  0  0  0
  -23.9997   -7.4637   22.7473 H   0  0  0  0  0  0
  -21.0842   -8.8790   19.8959 H   0  0  0  0  0  0
  -22.3710  -10.9682   19.6168 H   0  0  0  0  0  0
  -21.2005   -7.6151   23.9721 H   0  0  0  0  0  0
  -21.1475   -6.0523   25.9080 H   0  0  0  0  0  0
  -22.0603   -2.7612   23.2840 H   0  0  0  0  0  0
  -22.4116  -11.9914   22.4777 H   0  0  0  0  0  0
  -21.1145  -13.1303   22.2587 H   0  0  0  0  0  0
  -24.6783  -15.8488   20.5214 H   0  0  0  0  0  0
  -26.3035  -15.6220   20.1111 H   0  0  0  0  0  0
  -26.7114  -32.5522   23.1148 H   0  0  0  0  0  0
  -25.0016  -33.9755   25.0443 H   0  0  0  0  0  0
  -22.6885  -31.3056   21.4102 H   0  0  0  0  0  0
  -23.3728  -35.9669   23.3314 H   0  0  0  0  0  0
  -24.3577  -36.8922   22.2049 H   0  0  0  0  0  0
  -23.7263  -37.6546   23.6642 H   0  0  0  0  0  0
  -26.0297  -31.6026   20.5861 H   0  0  0  0  0  0
  -26.8190  -30.8963   21.9691 H   0  0  0  0  0  0
  -28.1013  -29.1261   21.1390 H   0  0  0  0  0  0
  -26.0411  -25.9716   19.0148 H   0  0  0  0  0  0
  -23.9763  -27.2784   19.0541 H   0  0  0  0  0  0
  -23.7090  -30.5902   19.4022 H   0  0  0  0  0  0
  -22.7321  -29.2331   19.8738 H   0  0  0  0  0  0
  -25.1277  -36.1969   25.0834 H   0  0  0  0  0  0
  -20.9916  -28.3199   24.1472 H   0  0  0  0  0  0
  -20.5647  -26.2250   23.3611 H   0  0  0  0  0  0
  -21.6621  -26.7438   22.1219 H   0  0  0  0  0  0
  -19.6882  -25.6300   21.1221 H   0  0  0  0  0  0
  -19.6654  -27.3214   20.6768 H   0  0  0  0  0  0
  -17.4177  -26.6669   21.4034 H   0  0  0  0  0  0
  -18.0305  -26.0050   22.9021 H   0  0  0  0  0  0
  -19.7927  -30.7244   24.2264 H   0  0  0  0  0  0
  -17.5020  -31.6255   24.5171 H   0  0  0  0  0  0
  -15.5344  -30.2997   23.7642 H   0  0  0  0  0  0
  -15.8659  -28.0839   22.7034 H   0  0  0  0  0  0
  -24.5917  -30.7020   25.7859 H   0  0  0  0  0  0
  -24.8934  -32.2846   26.4936 H   0  0  0  0  0  0
  -25.8146  -30.8885   27.0227 H   0  0  0  0  0  0
  -26.2788  -29.6823   24.1097 H   0  0  0  0  0  0
  -27.4036  -29.7230   25.4479 H   0  0  0  0  0  0
  -27.8619  -30.4338   23.9173 H   0  0  0  0  0  0
  -27.2612  -33.3598   26.2060 H   0  0  0  0  0  0
  -28.3825  -32.6902   25.0308 H   0  0  0  0  0  0
  -28.0688  -31.8432   26.5384 H   0  0  0  0  0  0
  -28.2611  -38.0095   24.7497 H   0  0  0  0  0  0
  -28.1051  -36.2631   24.6302 H   0  0  0  0  0  0
  -27.2289  -37.1484   25.8868 H   0  0  0  0  0  0
  -20.9299  -29.8762   21.6977 H   0  0  0  0  0  0
  -26.0172  -38.2873   24.1407 H   0  0  0  0  0  0
  -29.0481  -18.6126   24.3708 H   0  0  0  0  0  0
  -29.1225  -16.2397   23.7774 H   0  0  0  0  0  0
  -31.4541  -17.1784   20.2619 H   0  0  0  0  0  0
  -29.3069  -20.8768   23.8253 H   0  0  0  0  0  0
  -29.8729  -21.3895   22.2533 H   0  0  0  0  0  0
  -31.0328  -21.0720   23.5484 H   0  0  0  0  0  0
  -30.3565  -20.5725   18.4890 H   0  0  0  0  0  0
  -29.4485  -20.6758   19.9672 H   0  0  0  0  0  0
  -29.9351  -24.9478   21.2839 H   0  0  0  0  0  0
  -30.5588  -25.1327   19.6668 H   0  0  0  0  0  0
  -28.2453  -25.1900   18.7422 H   0  0  0  0  0  0
  -27.5904  -24.8740   20.3507 H   0  0  0  0  0  0
  -31.9527  -18.6150   18.7967 H   0  0  0  0  0  0
  -29.5198  -14.6267   22.2210 H   0  0  0  0  0  0
  -28.9371  -22.7852   20.6261 H   0  0  0  0  0  0
  1 25  1  0  0  0
  1 30  2  0  0  0
  1 83  1  0  0  0
  2  3  1  0  0  0
  2 25  1  0  0  0
  2 88  1  0  0  0
  2 89  1  0  0  0
  3  4  1  0  0  0
  3 90  1  0  0  0
  3 91  1  0  0  0
  4  5  1  0  0  0
  4 92  1  0  0  0
  4 93  1  0  0  0
  5  6  1  0  0  0
  5 26  1  0  0  0
  5 94  1  0  0  0
  6 25  1  0  0  0
  6 95  1  0  0  0
  6 96  1  0  0  0
  7  8  2  0  0  0
  7 26  1  0  0  0
  7 29  1  0  0  0
  8  9  1  0  0  0
  8 22  1  0  0  0
  9 10  1  0  0  0
  9 27  2  0  0  0
 10 11  2  0  0  0
 10 15  1  0  0  0
 11 12  1  0  0  0
 11 97  1  0  0  0
 12 13  2  0  0  0
 12 98  1  0  0  0
 13 14  1  0  0  0
 13 31  1  0  0  0
 14 15  2  0  0  0
 14 99  1  0  0  0
 15100  1  0  0  0
 16 17  2  0  0  0
 16 21  1  0  0  0
 16 31  1  0  0  0
 17 18  1  0  0  0
 17101  1  0  0  0
 18 19  2  0  0  0
 18102  1  0  0  0
 19 20  1  0  0  0
 19 24  1  0  0  0
 20 21  2  0  0  0
 20103  1  0  0  0
 21 23  1  0  0  0
 22 28  1  0  0  0
 22 32  2  0  0  0
 26 27  1  0  0  0
 28104  1  0  0  0
 28105  1  0  0  0
 29106  1  0  0  0
 29107  1  0  0  0
 33 34  1  0  0  0
 33 66  1  0  0  0
 33 70  2  0  0  0
 34 36  1  0  0  0
 34 59  1  0  0  0
 34108  1  0  0  0
 35 44  2  0  0  0
 35 45  1  0  0  0
 35 68  1  0  0  0
 36 56  1  0  0  0
 36109  1  0  0  0
 37 39  1  0  0  0
 37 47  1  0  0  0
 37 66  1  0  0  0
 37110  1  0  0  0
 38 43  2  0  0  0
 38 46  1  0  0  0
 38 47  1  0  0  0
 39 64  1  0  0  0
 39 67  2  0  0  0
 40 52  1  0  0  0
 40 53  2  0  0  0
 40 58  1  0  0  0
 41111  1  0  0  0
 41112  1  0  0  0
 41113  1  0  0  0
 41 48  1  0  0  0
 42 43  1  0  0  0
 42 66  1  0  0  0
 42114  1  0  0  0
 42115  1  0  0  0
 43 44  1  0  0  0
 44116  1  0  0  0
 45 46  2  0  0  0
 45117  1  0  0  0
 46118  1  0  0  0
 47119  1  0  0  0
 47120  1  0  0  0
 48 56  1  0  0  0
 48 65  1  0  0  0
 48121  1  0  0  0
 49 50  1  0  0  0
 49 53  1  0  0  0
 49 64  1  0  0  0
 49122  1  0  0  0
 50 51  1  0  0  0
 50123  1  0  0  0
 50124  1  0  0  0
 51 52  1  0  0  0
 51125  1  0  0  0
 51126  1  0  0  0
 52127  1  0  0  0
 52128  1  0  0  0
 53 54  1  0  0  0
 54 55  2  0  0  0
 54129  1  0  0  0
 55 57  1  0  0  0
 55130  1  0  0  0
 56 69  2  0  0  0
 57 58  2  0  0  0
 57131  1  0  0  0
 58132  1  0  0  0
 59 60  1  0  0  0
 59 61  1  0  0  0
 59 62  1  0  0  0
 60133  1  0  0  0
 60134  1  0  0  0
 60135  1  0  0  0
 61136  1  0  0  0
 61137  1  0  0  0
 61138  1  0  0  0
 62139  1  0  0  0
 62140  1  0  0  0
 62141  1  0  0  0
 63 65  1  0  0  0
 63142  1  0  0  0
 63143  1  0  0  0
 63144  1  0  0  0
 64145  1  0  0  0
 65146  1  0  0  0
 68 81  1  0  0  0
 71 72  2  0  0  0
 71 74  1  0  0  0
 71147  1  0  0  0
 72 75  1  0  0  0
 72148  1  0  0  0
 73 75  2  0  0  0
 73 76  1  0  0  0
 73149  1  0  0  0
 74 76  2  0  0  0
 74 78  1  0  0  0
 75 83  1  0  0  0
 76 87  1  0  0  0
 77 79  1  0  0  0
 77 84  1  0  0  0
 77 85  2  0  0  0
 78150  1  0  0  0
 78151  1  0  0  0
 78152  1  0  0  0
 79153  1  0  0  0
 79154  1  0  0  0
 79 87  1  0  0  0
 80 81  1  0  0  0
 80 84  1  0  0  0
 80155  1  0  0  0
 80156  1  0  0  0
 81157  1  0  0  0
 81158  1  0  0  0
 82 87  2  0  0  0
 82159  1  0  0  0
 83160  1  0  0  0
 84161  1  0  0  0
 86 87  2  0  0  0
M  ISO  4   1 100  68 101  81 101  83 100
M  END
> <chiral flag>
0

> <version>
0

> <s_m_source_file>
/data/baiqing/PycharmProjects/Reinvent-master-3.2/result/LINK_invent/BTK/process_docking_weight1_custom_product_contain_oxygen_bond_distance_aromatic_linkinvent_7_9_3/rearranged_h_0057.sdf

> <i_m_source_file_index>
3

> <r_mmod_Potential_Energy-OPLS-2005>
-242.451568603516

> <r_mmod_Stretch_Energy-OPLS-2005>
37.3641548156738

> <r_mmod_Bend_Energy-OPLS-2005>
108.558090209961

> <r_mmod_Torsional_Energy-OPLS-2005>
196.595809936523

> <r_mmod_Improper_Torsional_Energy-OPLS-2005>
2.72955656051636

> <r_mmod_Van_der_Waal_Energy-OPLS-2005>
153.772552490234

> <r_mmod_Electrostatic_Energy-OPLS-2005>
-425.332153320312

> <r_mmod_Solvation_Energy-OPLS-2005>
-324.903045654297

> <b_mmod_Minimization_Converged-OPLS-2005>
0

> <r_mmod_RMS_Derivative-OPLS-2005>
1.9551590681076

$$$$
3
                    3D
 Structure written by MMmdl.
168176  0  0  1  0            999 V2000
  -30.7065  -14.4108   20.5925 C   0  0  0  0  0  0
  -30.4211  -12.2831   19.3934 C   0  0  0  0  0  0
  -29.4889  -12.5345   18.1914 C   0  0  0  0  0  0
  -28.0085  -12.3997   18.6026 C   0  0  0  0  0  0
  -27.6676  -13.2030   19.8855 C   0  0  2  0  0  0
  -28.7089  -12.9327   20.9946 C   0  0  0  0  0  0
  -25.2620  -13.8152   20.5664 C   0  0  0  0  0  0
  -24.1862  -13.0435   20.9141 C   0  0  0  0  0  0
  -24.6408  -11.6896   20.8704 C   0  0  0  0  0  0
  -23.9058  -10.4290   21.0395 C   0  0  0  0  0  0
  -24.3607   -9.4209   21.9179 C   0  0  0  0  0  0
  -23.6284   -8.2246   22.0758 C   0  0  0  0  0  0
  -22.4271   -8.0273   21.3544 C   0  0  0  0  0  0
  -21.9895   -9.0247   20.4647 C   0  0  0  0  0  0
  -22.7222  -10.2129   20.3051 C   0  0  0  0  0  0
  -21.6862   -6.0722   22.5273 C   0  0  0  0  0  0
  -21.4025   -6.5634   23.8206 C   0  0  0  0  0  0
  -21.3662   -5.6794   24.9172 C   0  0  0  0  0  0
  -21.6040   -4.3048   24.7229 C   0  0  0  0  0  0
  -21.8829   -3.8138   23.4355 C   0  0  0  0  0  0
  -21.9201   -4.6950   22.3406 C   0  0  0  0  0  0
  -22.7883  -13.5231   21.1812 C   0  0  0  0  0  0
  -22.1675   -4.2135   21.0985 F   0  0  0  0  0  0
  -21.5616   -3.4532   25.7744 F   0  0  0  0  0  0
  -30.0457  -13.2329   20.4503 N   0  0  0  0  0  0
  -26.3065  -12.9312   20.3416 N   0  0  0  0  0  0
  -25.9335  -11.6467   20.5752 N   0  0  0  0  0  0
  -22.0542  -12.8225   22.0380 N   0  0  0  0  0  0
  -25.4367  -15.1864   20.4064 N   0  0  0  0  0  0
  -31.8163  -14.6340   20.0969 O   0  0  0  0  0  0
  -21.6642   -6.8860   21.4236 O   0  0  0  0  0  0
  -22.3560  -14.5541   20.6670 O   0  0  0  0  0  0
  -24.6112  -31.8705   23.2115 C   0  0  0  0  0  0
  -25.9017  -32.4835   23.8403 C   0  0  1  0  0  0
  -27.2409  -27.4750   20.0756 C   0  0  0  0  0  0
  -25.5893  -33.8634   24.2340 N   0  0  0  0  0  0
  -23.3974  -30.4909   21.5529 C   0  0  2  0  0  0
  -24.8446  -28.9571   20.1193 C   0  0  0  0  0  0
  -22.7391  -29.4661   22.5033 C   0  0  0  0  0  0
  -18.0270  -28.1371   22.8499 C   0  0  0  0  0  0
  -24.1491  -36.7314   23.2637 C   0  0  0  0  0  0
  -25.9211  -30.8453   21.3595 C   0  0  0  0  0  0
  -26.0017  -29.4809   20.7105 C   0  0  0  0  0  0
  -27.2054  -28.7451   20.6907 C   0  0  0  0  0  0
  -26.0671  -26.9438   19.5094 C   0  0  0  0  0  0
  -24.8694  -27.6847   19.5204 C   0  0  0  0  0  0
  -23.6031  -29.8184   20.1690 C   0  0  0  0  0  0
  -25.4112  -36.3117   24.0342 C   0  0  1  0  0  0
  -20.5851  -28.3646   23.1343 C   0  0  2  0  0  0
  -20.6760  -26.9387   22.5425 C   0  0  0  0  0  0
  -19.5743  -26.6386   21.5215 C   0  0  0  0  0  0
  -18.1919  -26.7926   22.1619 C   0  0  0  0  0  0
  -19.1513  -28.8831   23.2917 C   0  0  0  0  0  0
  -18.9441  -30.1443   23.8912 C   0  0  0  0  0  0
  -17.6442  -30.6580   24.0566 C   0  0  0  0  0  0
  -25.9035  -34.9482   23.5138 C   0  0  0  0  0  0
  -16.5338  -29.9072   23.6325 C   0  0  0  0  0  0
  -16.7257  -28.6492   23.0345 C   0  0  0  0  0  0
  -26.4456  -31.6602   25.0715 C   0  0  0  0  0  0
  -25.3724  -31.3682   26.1461 C   0  0  0  0  0  0
  -27.0293  -30.3062   24.6052 C   0  0  0  0  0  0
  -27.6050  -32.4309   25.7467 C   0  0  0  0  0  0
  -27.5586  -37.1811   24.8465 C   0  0  0  0  0  0
  -21.4125  -29.3016   22.3762 N   0  0  0  0  0  0
  -26.4302  -37.3797   23.9406 N   0  0  0  0  0  0
  -24.6607  -31.0828   22.1002 N   0  0  0  0  0  0
  -23.4178  -28.8215   23.3070 O   0  0  0  0  0  0
  -28.3978  -26.7398   20.0178 O   0  0  0  0  0  0
  -26.5589  -34.8929   22.4691 O   0  0  0  0  0  0
  -23.5314  -32.1439   23.7531 O   0  0  0  0  0  0
  -30.2280  -19.4687   20.2460 C   0  0  0  0  0  0
  -30.8406  -17.6142   21.7110 C   0  0  0  0  0  0
  -29.3921  -17.2242   19.7838 C   0  0  0  0  0  0
  -30.9109  -18.9835   21.3803 C   0  0  0  0  0  0
  -29.4703  -18.5910   19.4427 C   0  0  0  0  0  0
  -30.0931  -16.7321   20.9054 C   0  0  0  0  0  0
  -29.8148  -23.0845   17.2271 C   0  0  0  0  0  0
  -29.2998  -21.8363   17.2014 C   0  0  0  0  0  0
  -29.0080  -24.2217   17.6270 C   0  0  0  0  0  0
  -30.1205  -20.7200   16.7478 C   0  0  0  0  0  0
  -31.7241  -19.9259   22.2430 C   0  0  0  0  0  0
  -30.4151  -18.3078   16.5559 C   0  0  0  0  0  0
  -28.7734  -19.1186   18.1973 C   0  0  0  0  0  0
  -29.1499  -26.7198   17.6867 C   0  0  0  0  0  0
  -29.3755  -27.2525   19.1165 C   0  0  0  0  0  0
  -30.0150  -15.3611   21.2356 N   0  0  0  0  0  0
  -29.6812  -25.3698   17.4960 N   0  0  0  0  0  0
  -29.7322  -19.4740   17.1345 N   0  0  0  0  0  0
  -27.8396  -24.1706   18.0131 O   0  0  0  0  0  0
  -31.0926  -20.8821   16.0001 O   0  0  0  0  0  0
  -31.4639  -12.3849   19.0868 H   0  0  0  0  0  0
  -30.3147  -11.2574   19.7527 H   0  0  0  0  0  0
  -29.7173  -11.8431   17.3785 H   0  0  0  0  0  0
  -29.6676  -13.5376   17.7978 H   0  0  0  0  0  0
  -27.7976  -11.3410   18.7560 H   0  0  0  0  0  0
  -27.3641  -12.7226   17.7838 H   0  0  0  0  0  0
  -27.7254  -14.2605   19.6266 H   0  0  0  0  0  0
  -28.6733  -11.8854   21.2992 H   0  0  0  0  0  0
  -28.4759  -13.4976   21.8983 H   0  0  0  0  0  0
  -25.2767   -9.5669   22.4733 H   0  0  0  0  0  0
  -23.9996   -7.4635   22.7474 H   0  0  0  0  0  0
  -21.0828   -8.8756   19.8941 H   0  0  0  0  0  0
  -22.3696  -10.9656   19.6137 H   0  0  0  0  0  0
  -21.2035   -7.6145   23.9700 H   0  0  0  0  0  0
  -21.1470   -6.0531   25.9073 H   0  0  0  0  0  0
  -22.0610   -2.7598   23.2866 H   0  0  0  0  0  0
  -22.4182  -11.9876   22.4722 H   0  0  0  0  0  0
  -21.1156  -13.1224   22.2608 H   0  0  0  0  0  0
  -24.6686  -15.8424   20.4958 H   0  0  0  0  0  0
  -26.2972  -15.6238   20.1023 H   0  0  0  0  0  0
  -26.7089  -32.5568   23.1178 H   0  0  0  0  0  0
  -25.0077  -33.9809   25.0506 H   0  0  0  0  0  0
  -22.6835  -31.3053   21.4134 H   0  0  0  0  0  0
  -23.3755  -35.9646   23.3312 H   0  0  0  0  0  0
  -24.3581  -36.8911   22.2047 H   0  0  0  0  0  0
  -23.7244  -37.6525   23.6637 H   0  0  0  0  0  0
  -26.0255  -31.6118   20.5902 H   0  0  0  0  0  0
  -26.8126  -30.9040   21.9718 H   0  0  0  0  0  0
  -28.1032  -29.1483   21.1382 H   0  0  0  0  0  0
  -26.0882  -25.9678   19.0457 H   0  0  0  0  0  0
  -23.9784  -27.2728   19.0671 H   0  0  0  0  0  0
  -23.7005  -30.5902   19.4046 H   0  0  0  0  0  0
  -22.7303  -29.2304   19.8809 H   0  0  0  0  0  0
  -25.1286  -36.1989   25.0835 H   0  0  0  0  0  0
  -20.9936  -28.3200   24.1467 H   0  0  0  0  0  0
  -20.5675  -26.2237   23.3598 H   0  0  0  0  0  0
  -21.6629  -26.7444   22.1206 H   0  0  0  0  0  0
  -19.6898  -25.6301   21.1234 H   0  0  0  0  0  0
  -19.6695  -27.3209   20.6758 H   0  0  0  0  0  0
  -17.4191  -26.6692   21.4015 H   0  0  0  0  0  0
  -18.0305  -26.0061   22.9002 H   0  0  0  0  0  0
  -19.7915  -30.7271   24.2274 H   0  0  0  0  0  0
  -17.4988  -31.6260   24.5163 H   0  0  0  0  0  0
  -15.5334  -30.2974   23.7648 H   0  0  0  0  0  0
  -15.8662  -28.0825   22.7034 H   0  0  0  0  0  0
  -24.5912  -30.7022   25.7778 H   0  0  0  0  0  0
  -24.8893  -32.2827   26.4921 H   0  0  0  0  0  0
  -25.8079  -30.8836   27.0213 H   0  0  0  0  0  0
  -26.2829  -29.6822   24.1130 H   0  0  0  0  0  0
  -27.4117  -29.7294   25.4486 H   0  0  0  0  0  0
  -27.8636  -30.4406   23.9160 H   0  0  0  0  0  0
  -27.2693  -33.3606   26.2074 H   0  0  0  0  0  0
  -28.3843  -32.6875   25.0274 H   0  0  0  0  0  0
  -28.0736  -31.8405   26.5349 H   0  0  0  0  0  0
  -28.2608  -38.0103   24.7514 H   0  0  0  0  0  0
  -28.1081  -36.2639   24.6299 H   0  0  0  0  0  0
  -27.2299  -37.1468   25.8866 H   0  0  0  0  0  0
  -20.9286  -29.8707   21.6964 H   0  0  0  0  0  0
  -26.0198  -38.2882   24.1401 H   0  0  0  0  0  0
  -30.2875  -20.5162   19.9825 H   0  0  0  0  0  0
  -31.3672  -17.2390   22.5774 H   0  0  0  0  0  0
  -28.8152  -16.5474   19.1678 H   0  0  0  0  0  0
  -30.8441  -23.2409   16.9338 H   0  0  0  0  0  0
  -28.2694  -21.6932   17.4847 H   0  0  0  0  0  0
  -31.8255  -20.9095   21.7815 H   0  0  0  0  0  0
  -32.7264  -19.5278   22.4000 H   0  0  0  0  0  0
  -31.2502  -20.0556   23.2164 H   0  0  0  0  0  0
  -30.2549  -18.2649   15.4775 H   0  0  0  0  0  0
  -30.0640  -17.3641   16.9732 H   0  0  0  0  0  0
  -31.4894  -18.3575   16.7386 H   0  0  0  0  0  0
  -28.1221  -19.9294   18.5122 H   0  0  0  0  0  0
  -28.0920  -18.3608   17.8074 H   0  0  0  0  0  0
  -29.6798  -27.3679   16.9870 H   0  0  0  0  0  0
  -28.0985  -26.7756   17.4021 H   0  0  0  0  0  0
  -29.3585  -28.3443   19.1017 H   0  0  0  0  0  0
  -30.3680  -26.9757   19.4737 H   0  0  0  0  0  0
  -29.1371  -15.0464   21.6168 H   0  0  0  0  0  0
  -30.6370  -25.3077   17.1723 H   0  0  0  0  0  0
  1 25  1  0  0  0
  1 30  2  0  0  0
  1 86  1  0  0  0
  2  3  1  0  0  0
  2 25  1  0  0  0
  2 91  1  0  0  0
  2 92  1  0  0  0
  3  4  1  0  0  0
  3 93  1  0  0  0
  3 94  1  0  0  0
  4  5  1  0  0  0
  4 95  1  0  0  0
  4 96  1  0  0  0
  5  6  1  0  0  0
  5 26  1  0  0  0
  5 97  1  0  0  0
  6 25  1  0  0  0
  6 98  1  0  0  0
  6 99  1  0  0  0
  7  8  2  0  0  0
  7 26  1  0  0  0
  7 29  1  0  0  0
  8  9  1  0  0  0
  8 22  1  0  0  0
  9 10  1  0  0  0
  9 27  2  0  0  0
 10 11  2  0  0  0
 10 15  1  0  0  0
 11 12  1  0  0  0
 11100  1  0  0  0
 12 13  2  0  0  0
 12101  1  0  0  0
 13 14  1  0  0  0
 13 31  1  0  0  0
 14 15  2  0  0  0
 14102  1  0  0  0
 15103  1  0  0  0
 16 17  2  0  0  0
 16 21  1  0  0  0
 16 31  1  0  0  0
 17 18  1  0  0  0
 17104  1  0  0  0
 18 19  2  0  0  0
 18105  1  0  0  0
 19 20  1  0  0  0
 19 24  1  0  0  0
 20 21  2  0  0  0
 20106  1  0  0  0
 21 23  1  0  0  0
 22 28  1  0  0  0
 22 32  2  0  0  0
 26 27  1  0  0  0
 28107  1  0  0  0
 28108  1  0  0  0
 29109  1  0  0  0
 29110  1  0  0  0
 33 34  1  0  0  0
 33 66  1  0  0  0
 33 70  2  0  0  0
 34 36  1  0  0  0
 34 59  1  0  0  0
 34111  1  0  0  0
 35 44  2  0  0  0
 35 45  1  0  0  0
 35 68  1  0  0  0
 36 56  1  0  0  0
 36112  1  0  0  0
 37 39  1  0  0  0
 37 47  1  0  0  0
 37 66  1  0  0  0
 37113  1  0  0  0
 38 43  2  0  0  0
 38 46  1  0  0  0
 38 47  1  0  0  0
 39 64  1  0  0  0
 39 67  2  0  0  0
 40 52  1  0  0  0
 40 53  2  0  0  0
 40 58  1  0  0  0
 41114  1  0  0  0
 41115  1  0  0  0
 41116  1  0  0  0
 41 48  1  0  0  0
 42 43  1  0  0  0
 42 66  1  0  0  0
 42117  1  0  0  0
 42118  1  0  0  0
 43 44  1  0  0  0
 44119  1  0  0  0
 45 46  2  0  0  0
 45120  1  0  0  0
 46121  1  0  0  0
 47122  1  0  0  0
 47123  1  0  0  0
 48 56  1  0  0  0
 48 65  1  0  0  0
 48124  1  0  0  0
 49 50  1  0  0  0
 49 53  1  0  0  0
 49 64  1  0  0  0
 49125  1  0  0  0
 50 51  1  0  0  0
 50126  1  0  0  0
 50127  1  0  0  0
 51 52  1  0  0  0
 51128  1  0  0  0
 51129  1  0  0  0
 52130  1  0  0  0
 52131  1  0  0  0
 53 54  1  0  0  0
 54 55  2  0  0  0
 54132  1  0  0  0
 55 57  1  0  0  0
 55133  1  0  0  0
 56 69  2  0  0  0
 57 58  2  0  0  0
 57134  1  0  0  0
 58135  1  0  0  0
 59 60  1  0  0  0
 59 61  1  0  0  0
 59 62  1  0  0  0
 60136  1  0  0  0
 60137  1  0  0  0
 60138  1  0  0  0
 61139  1  0  0  0
 61140  1  0  0  0
 61141  1  0  0  0
 62142  1  0  0  0
 62143  1  0  0  0
 62144  1  0  0  0
 63 65  1  0  0  0
 63145  1  0  0  0
 63146  1  0  0  0
 63147  1  0  0  0
 64148  1  0  0  0
 65149  1  0  0  0
 68 85  1  0  0  0
 71 74  2  0  0  0
 71 75  1  0  0  0
 71150  1  0  0  0
 72 74  1  0  0  0
 72 76  2  0  0  0
 72151  1  0  0  0
 73 75  2  0  0  0
 73 76  1  0  0  0
 73152  1  0  0  0
 74 81  1  0  0  0
 75 83  1  0  0  0
 76 86  1  0  0  0
 77 78  2  0  0  0
 77 79  1  0  0  0
 77153  1  0  0  0
 78 80  1  0  0  0
 78154  1  0  0  0
 79 87  1  0  0  0
 79 89  2  0  0  0
 80 88  1  0  0  0
 80 90  2  0  0  0
 81155  1  0  0  0
 81156  1  0  0  0
 81157  1  0  0  0
 82 88  1  0  0  0
 82158  1  0  0  0
 82159  1  0  0  0
 82160  1  0  0  0
 83 88  1  0  0  0
 83161  1  0  0  0
 83162  1  0  0  0
 84 85  1  0  0  0
 84 87  1  0  0  0
 84163  1  0  0  0
 84164  1  0  0  0
 85165  1  0  0  0
 85166  1  0  0  0
 86167  1  0  0  0
 87168  1  0  0  0
M  ISO  4   1 100  68 101  85 101  86 100
M  END
> <chiral flag>
0

> <version>
0

> <s_m_source_file>
/data/baiqing/PycharmProjects/Reinvent-master-3.2/result/LINK_invent/BTK/process_docking_weight1_custom_product_contain_oxygen_bond_distance_aromatic_linkinvent_7_9_3/rearranged_h_0057.sdf

> <i_m_source_file_index>
4

> <r_mmod_Potential_Energy-OPLS-2005>
-206.924682617188

> <r_mmod_Stretch_Energy-OPLS-2005>
34.539134979248

> <r_mmod_Bend_Energy-OPLS-2005>
94.3248977661133

> <r_mmod_Torsional_Energy-OPLS-2005>
280.369812011719

> <r_mmod_Improper_Torsional_Energy-OPLS-2005>
5.42566680908203

> <r_mmod_Van_der_Waal_Energy-OPLS-2005>
160.490844726562

> <r_mmod_Electrostatic_Energy-OPLS-2005>
-521.53466796875

> <r_mmod_Solvation_Energy-OPLS-2005>
-268.160400390625

> <b_mmod_Minimization_Converged-OPLS-2005>
0

> <r_mmod_RMS_Derivative-OPLS-2005>
2.05022072792053

$$$$
4
                    3D
 Structure written by MMmdl.
154162  0  0  1  0            999 V2000
  -30.7031  -14.4668   20.5247 C   0  0  0  0  0  0
  -30.4175  -12.2872   19.4329 C   0  0  0  0  0  0
  -29.4959  -12.4895   18.2116 C   0  0  0  0  0  0
  -28.0158  -12.3581   18.6212 C   0  0  0  0  0  0
  -27.6609  -13.2070   19.8717 C   0  0  2  0  0  0
  -28.7020  -13.0040   20.9973 C   0  0  0  0  0  0
  -25.2587  -13.8166   20.5681 C   0  0  0  0  0  0
  -24.1836  -13.0444   20.9172 C   0  0  0  0  0  0
  -24.6387  -11.6910   20.8731 C   0  0  0  0  0  0
  -23.9054  -10.4297   21.0398 C   0  0  0  0  0  0
  -24.3610   -9.4214   21.9177 C   0  0  0  0  0  0
  -23.6289   -8.2248   22.0751 C   0  0  0  0  0  0
  -22.4269   -8.0284   21.3544 C   0  0  0  0  0  0
  -21.9900   -9.0257   20.4645 C   0  0  0  0  0  0
  -22.7226  -10.2137   20.3049 C   0  0  0  0  0  0
  -21.6853   -6.0738   22.5277 C   0  0  0  0  0  0
  -21.4019   -6.5640   23.8212 C   0  0  0  0  0  0
  -21.3658   -5.6791   24.9173 C   0  0  0  0  0  0
  -21.6041   -4.3054   24.7224 C   0  0  0  0  0  0
  -21.8820   -3.8148   23.4345 C   0  0  0  0  0  0
  -21.9194   -4.6966   22.3401 C   0  0  0  0  0  0
  -22.7859  -13.5246   21.1836 C   0  0  0  0  0  0
  -22.1661   -4.2152   21.0980 F   0  0  0  0  0  0
  -21.5624   -3.4536   25.7736 F   0  0  0  0  0  0
  -30.0358  -13.2853   20.4436 N   0  0  0  0  0  0
  -26.3019  -12.9335   20.3351 N   0  0  0  0  0  0
  -25.9311  -11.6495   20.5761 N   0  0  0  0  0  0
  -22.0499  -12.8249   22.0396 N   0  0  0  0  0  0
  -25.4314  -15.1885   20.4099 N   0  0  0  0  0  0
  -31.8616  -14.6038   20.1216 O   0  0  0  0  0  0
  -21.6636   -6.8880   21.4238 O   0  0  0  0  0  0
  -22.3548  -14.5553   20.6688 O   0  0  0  0  0  0
  -24.6141  -31.8694   23.2122 C   0  0  0  0  0  0
  -25.9040  -32.4832   23.8407 C   0  0  1  0  0  0
  -27.2325  -27.4370   20.0896 C   0  0  0  0  0  0
  -25.5903  -33.8630   24.2340 N   0  0  0  0  0  0
  -23.4008  -30.4950   21.5524 C   0  0  2  0  0  0
  -24.8450  -28.9645   20.1144 C   0  0  0  0  0  0
  -22.7406  -29.4669   22.4990 C   0  0  0  0  0  0
  -18.0271  -28.1379   22.8490 C   0  0  0  0  0  0
  -24.1488  -36.7315   23.2638 C   0  0  0  0  0  0
  -25.9302  -30.8347   21.3658 C   0  0  0  0  0  0
  -26.0053  -29.4700   20.7124 C   0  0  0  0  0  0
  -27.1986  -28.7122   20.7002 C   0  0  0  0  0  0
  -26.0495  -26.9515   19.4796 C   0  0  0  0  0  0
  -24.8621  -27.7036   19.4974 C   0  0  0  0  0  0
  -23.6086  -29.8316   20.1657 C   0  0  0  0  0  0
  -25.4111  -36.3117   24.0339 C   0  0  1  0  0  0
  -20.5863  -28.3665   23.1323 C   0  0  2  0  0  0
  -20.6765  -26.9404   22.5419 C   0  0  0  0  0  0
  -19.5743  -26.6388   21.5215 C   0  0  0  0  0  0
  -18.1920  -26.7926   22.1624 C   0  0  0  0  0  0
  -19.1521  -28.8836   23.2904 C   0  0  0  0  0  0
  -18.9452  -30.1441   23.8917 C   0  0  0  0  0  0
  -17.6455  -30.6586   24.0568 C   0  0  0  0  0  0
  -25.9034  -34.9481   23.5132 C   0  0  0  0  0  0
  -16.5345  -29.9091   23.6325 C   0  0  0  0  0  0
  -16.7260  -28.6508   23.0345 C   0  0  0  0  0  0
  -26.4473  -31.6605   25.0728 C   0  0  0  0  0  0
  -25.3744  -31.3704   26.1478 C   0  0  0  0  0  0
  -27.0302  -30.3052   24.6090 C   0  0  0  0  0  0
  -27.6056  -32.4320   25.7486 C   0  0  0  0  0  0
  -27.5582  -37.1814   24.8467 C   0  0  0  0  0  0
  -21.4133  -29.3034   22.3726 N   0  0  0  0  0  0
  -26.4298  -37.3800   23.9406 N   0  0  0  0  0  0
  -24.6666  -31.0804   22.1020 N   0  0  0  0  0  0
  -23.4182  -28.8208   23.3026 O   0  0  0  0  0  0
  -28.4124  -26.7151   20.1198 O   0  0  0  0  0  0
  -26.5593  -34.8928   22.4692 O   0  0  0  0  0  0
  -23.5334  -32.1444   23.7521 O   0  0  0  0  0  0
  -29.5843  -19.2734   20.7167 C   0  0  0  0  0  0
  -30.7550  -18.5060   18.7343 C   0  0  0  0  0  0
  -29.5271  -17.9389   21.1906 C   0  0  0  0  0  0
  -30.6996  -17.1815   19.2040 C   0  0  0  0  0  0
  -30.2014  -19.5663   19.4779 C   0  0  0  0  0  0
  -30.0915  -16.8751   20.4460 C   0  0  0  0  0  0
  -29.9263  -23.3693   19.1777 C   0  0  0  0  0  0
  -30.2640  -20.9621   18.8537 C   0  0  0  0  0  0
  -29.6407  -24.5677   20.0954 C   0  0  0  0  0  0
  -28.3881  -25.3579   19.6554 C   0  0  0  0  0  0
  -29.9697  -15.5277   20.9209 N   0  0  0  0  0  0
  -29.9538  -22.1250   19.6909 N   0  0  0  0  0  0
  -30.1454  -23.5772   17.9819 O   0  0  0  0  0  0
  -31.4642  -12.3677   19.1347 H   0  0  0  0  0  0
  -30.3018  -11.2811   19.8396 H   0  0  0  0  0  0
  -29.7337  -11.7602   17.4358 H   0  0  0  0  0  0
  -29.6706  -13.4726   17.7711 H   0  0  0  0  0  0
  -27.8237  -11.3039   18.8248 H   0  0  0  0  0  0
  -27.3677  -12.6271   17.7860 H   0  0  0  0  0  0
  -27.7016  -14.2516   19.5628 H   0  0  0  0  0  0
  -28.6686  -11.9775   21.3650 H   0  0  0  0  0  0
  -28.4738  -13.6322   21.8592 H   0  0  0  0  0  0
  -25.2758   -9.5693   22.4748 H   0  0  0  0  0  0
  -24.0001   -7.4640   22.7471 H   0  0  0  0  0  0
  -21.0830   -8.8779   19.8953 H   0  0  0  0  0  0
  -22.3685  -10.9677   19.6159 H   0  0  0  0  0  0
  -21.2016   -7.6148   23.9719 H   0  0  0  0  0  0
  -21.1473   -6.0518   25.9076 H   0  0  0  0  0  0
  -22.0599   -2.7609   23.2842 H   0  0  0  0  0  0
  -22.4113  -11.9920   22.4804 H   0  0  0  0  0  0
  -21.1116  -13.1279   22.2588 H   0  0  0  0  0  0
  -24.6668  -15.8457   20.5205 H   0  0  0  0  0  0
  -26.2870  -15.6276   20.0926 H   0  0  0  0  0  0
  -26.7109  -32.5546   23.1169 H   0  0  0  0  0  0
  -25.0068  -33.9799   25.0493 H   0  0  0  0  0  0
  -22.6886  -31.3117   21.4165 H   0  0  0  0  0  0
  -23.3747  -35.9652   23.3319 H   0  0  0  0  0  0
  -24.3576  -36.8909   22.2047 H   0  0  0  0  0  0
  -23.7248  -37.6528   23.6637 H   0  0  0  0  0  0
  -26.0436  -31.6013   20.5981 H   0  0  0  0  0  0
  -26.8184  -30.8865   21.9838 H   0  0  0  0  0  0
  -28.0934  -29.1002   21.1667 H   0  0  0  0  0  0
  -26.0143  -25.9950   18.9799 H   0  0  0  0  0  0
  -23.9699  -27.3101   19.0298 H   0  0  0  0  0  0
  -23.7186  -30.6086   19.4085 H   0  0  0  0  0  0
  -22.7318  -29.2536   19.8681 H   0  0  0  0  0  0
  -25.1289  -36.1986   25.0833 H   0  0  0  0  0  0
  -20.9953  -28.3231   24.1444 H   0  0  0  0  0  0
  -20.5676  -26.2271   23.3601 H   0  0  0  0  0  0
  -21.6636  -26.7453   22.1209 H   0  0  0  0  0  0
  -19.6908  -25.6304   21.1232 H   0  0  0  0  0  0
  -19.6690  -27.3209   20.6754 H   0  0  0  0  0  0
  -17.4193  -26.6673   21.4023 H   0  0  0  0  0  0
  -18.0323  -26.0068   22.9020 H   0  0  0  0  0  0
  -19.7927  -30.7249   24.2300 H   0  0  0  0  0  0
  -17.5012  -31.6272   24.5162 H   0  0  0  0  0  0
  -15.5347  -30.3004   23.7639 H   0  0  0  0  0  0
  -15.8657  -28.0837   22.7050 H   0  0  0  0  0  0
  -24.5924  -30.7043   25.7815 H   0  0  0  0  0  0
  -24.8926  -32.2856   26.4929 H   0  0  0  0  0  0
  -25.8104  -30.8874   27.0231 H   0  0  0  0  0  0
  -26.2839  -29.6817   24.1152 H   0  0  0  0  0  0
  -27.4089  -29.7283   25.4537 H   0  0  0  0  0  0
  -27.8667  -30.4377   23.9227 H   0  0  0  0  0  0
  -27.2684  -33.3613   26.2088 H   0  0  0  0  0  0
  -28.3851  -32.6889   25.0302 H   0  0  0  0  0  0
  -28.0738  -31.8427   26.5379 H   0  0  0  0  0  0
  -28.2616  -38.0096   24.7505 H   0  0  0  0  0  0
  -28.1062  -36.2629   24.6307 H   0  0  0  0  0  0
  -27.2293  -37.1484   25.8868 H   0  0  0  0  0  0
  -20.9285  -29.8756   21.6953 H   0  0  0  0  0  0
  -26.0189  -38.2880   24.1403 H   0  0  0  0  0  0
  -29.1343  -20.0607   21.3043 H   0  0  0  0  0  0
  -31.2169  -18.7034   17.7764 H   0  0  0  0  0  0
  -29.0390  -17.7401   22.1347 H   0  0  0  0  0  0
  -31.1175  -16.4096   18.5743 H   0  0  0  0  0  0
  -29.5858  -20.9574   17.9980 H   0  0  0  0  0  0
  -31.2668  -21.1002   18.4438 H   0  0  0  0  0  0
  -30.5131  -25.2204   20.0440 H   0  0  0  0  0  0
  -29.5509  -24.2549   21.1357 H   0  0  0  0  0  0
  -27.5223  -24.8268   20.0534 H   0  0  0  0  0  0
  -28.2942  -25.3730   18.5681 H   0  0  0  0  0  0
  -29.1231  -15.3087   21.4238 H   0  0  0  0  0  0
  -29.7908  -21.9845   20.6781 H   0  0  0  0  0  0
  1 25  1  0  0  0
  1 30  2  0  0  0
  1 81  1  0  0  0
  2  3  1  0  0  0
  2 25  1  0  0  0
  2 84  1  0  0  0
  2 85  1  0  0  0
  3  4  1  0  0  0
  3 86  1  0  0  0
  3 87  1  0  0  0
  4  5  1  0  0  0
  4 88  1  0  0  0
  4 89  1  0  0  0
  5  6  1  0  0  0
  5 26  1  0  0  0
  5 90  1  0  0  0
  6 25  1  0  0  0
  6 91  1  0  0  0
  6 92  1  0  0  0
  7  8  2  0  0  0
  7 26  1  0  0  0
  7 29  1  0  0  0
  8  9  1  0  0  0
  8 22  1  0  0  0
  9 10  1  0  0  0
  9 27  2  0  0  0
 10 11  2  0  0  0
 10 15  1  0  0  0
 11 12  1  0  0  0
 11 93  1  0  0  0
 12 13  2  0  0  0
 12 94  1  0  0  0
 13 14  1  0  0  0
 13 31  1  0  0  0
 14 15  2  0  0  0
 14 95  1  0  0  0
 15 96  1  0  0  0
 16 17  2  0  0  0
 16 21  1  0  0  0
 16 31  1  0  0  0
 17 18  1  0  0  0
 17 97  1  0  0  0
 18 19  2  0  0  0
 18 98  1  0  0  0
 19 20  1  0  0  0
 19 24  1  0  0  0
 20 21  2  0  0  0
 20 99  1  0  0  0
 21 23  1  0  0  0
 22 28  1  0  0  0
 22 32  2  0  0  0
 26 27  1  0  0  0
 28100  1  0  0  0
 28101  1  0  0  0
 29102  1  0  0  0
 29103  1  0  0  0
 33 34  1  0  0  0
 33 66  1  0  0  0
 33 70  2  0  0  0
 34 36  1  0  0  0
 34 59  1  0  0  0
 34104  1  0  0  0
 35 44  2  0  0  0
 35 45  1  0  0  0
 35 68  1  0  0  0
 36 56  1  0  0  0
 36105  1  0  0  0
 37 39  1  0  0  0
 37 47  1  0  0  0
 37 66  1  0  0  0
 37106  1  0  0  0
 38 43  2  0  0  0
 38 46  1  0  0  0
 38 47  1  0  0  0
 39 64  1  0  0  0
 39 67  2  0  0  0
 40 52  1  0  0  0
 40 53  2  0  0  0
 40 58  1  0  0  0
 41107  1  0  0  0
 41108  1  0  0  0
 41109  1  0  0  0
 41 48  1  0  0  0
 42 43  1  0  0  0
 42 66  1  0  0  0
 42110  1  0  0  0
 42111  1  0  0  0
 43 44  1  0  0  0
 44112  1  0  0  0
 45 46  2  0  0  0
 45113  1  0  0  0
 46114  1  0  0  0
 47115  1  0  0  0
 47116  1  0  0  0
 48 56  1  0  0  0
 48 65  1  0  0  0
 48117  1  0  0  0
 49 50  1  0  0  0
 49 53  1  0  0  0
 49 64  1  0  0  0
 49118  1  0  0  0
 50 51  1  0  0  0
 50119  1  0  0  0
 50120  1  0  0  0
 51 52  1  0  0  0
 51121  1  0  0  0
 51122  1  0  0  0
 52123  1  0  0  0
 52124  1  0  0  0
 53 54  1  0  0  0
 54 55  2  0  0  0
 54125  1  0  0  0
 55 57  1  0  0  0
 55126  1  0  0  0
 56 69  2  0  0  0
 57 58  2  0  0  0
 57127  1  0  0  0
 58128  1  0  0  0
 59 60  1  0  0  0
 59 61  1  0  0  0
 59 62  1  0  0  0
 60129  1  0  0  0
 60130  1  0  0  0
 60131  1  0  0  0
 61132  1  0  0  0
 61133  1  0  0  0
 61134  1  0  0  0
 62135  1  0  0  0
 62136  1  0  0  0
 62137  1  0  0  0
 63 65  1  0  0  0
 63138  1  0  0  0
 63139  1  0  0  0
 63140  1  0  0  0
 64141  1  0  0  0
 65142  1  0  0  0
 68 80  1  0  0  0
 71 73  2  0  0  0
 71 75  1  0  0  0
 71143  1  0  0  0
 72 74  1  0  0  0
 72 75  2  0  0  0
 72144  1  0  0  0
 73 76  1  0  0  0
 73145  1  0  0  0
 74 76  2  0  0  0
 74146  1  0  0  0
 75 78  1  0  0  0
 76 81  1  0  0  0
 77 79  1  0  0  0
 77 82  1  0  0  0
 77 83  2  0  0  0
 78 82  1  0  0  0
 78147  1  0  0  0
 78148  1  0  0  0
 79 80  1  0  0  0
 79149  1  0  0  0
 79150  1  0  0  0
 80151  1  0  0  0
 80152  1  0  0  0
 81153  1  0  0  0
 82154  1  0  0  0
M  ISO  4   1 100  68 101  80 101  81 100
M  END
> <chiral flag>
0

> <version>
0

> <s_m_source_file>
/data/baiqing/PycharmProjects/Reinvent-master-3.2/result/LINK_invent/BTK/process_docking_weight1_custom_product_contain_oxygen_bond_distance_aromatic_linkinvent_7_9_3/rearranged_h_0057.sdf

> <i_m_source_file_index>
5

> <r_mmod_Potential_Energy-OPLS-2005>
-136.95133972168

> <r_mmod_Stretch_Energy-OPLS-2005>
36.3676567077637

> <r_mmod_Bend_Energy-OPLS-2005>
98.5114364624023

> <r_mmod_Torsional_Energy-OPLS-2005>
217.594100952148

> <r_mmod_Improper_Torsional_Energy-OPLS-2005>
4.52767610549927

> <r_mmod_Van_der_Waal_Energy-OPLS-2005>
164.533584594727

> <r_mmod_Electrostatic_Energy-OPLS-2005>
-436.875091552734

> <r_mmod_Solvation_Energy-OPLS-2005>
-236.604675292969

> <b_mmod_Minimization_Converged-OPLS-2005>
0

> <r_mmod_RMS_Derivative-OPLS-2005>
0.736432313919067

$$$$
5
                    3D
 Structure written by MMmdl.
160168  0  0  1  0            999 V2000
  -30.6981  -14.4379   20.4898 C   0  0  0  0  0  0
  -30.4139  -12.2684   19.4161 C   0  0  0  0  0  0
  -29.4928  -12.4872   18.1980 C   0  0  0  0  0  0
  -28.0074  -12.3753   18.6040 C   0  0  0  0  0  0
  -27.6542  -13.2028   19.8693 C   0  0  2  0  0  0
  -28.7021  -12.9820   20.9828 C   0  0  0  0  0  0
  -25.2558  -13.8161   20.5703 C   0  0  0  0  0  0
  -24.1822  -13.0442   20.9225 C   0  0  0  0  0  0
  -24.6380  -11.6892   20.8758 C   0  0  0  0  0  0
  -23.9045  -10.4282   21.0414 C   0  0  0  0  0  0
  -24.3600   -9.4203   21.9193 C   0  0  0  0  0  0
  -23.6281   -8.2232   22.0754 C   0  0  0  0  0  0
  -22.4273   -8.0271   21.3537 C   0  0  0  0  0  0
  -21.9904   -9.0246   20.4653 C   0  0  0  0  0  0
  -22.7218  -10.2131   20.3065 C   0  0  0  0  0  0
  -21.6827   -6.0731   22.5285 C   0  0  0  0  0  0
  -21.4001   -6.5647   23.8222 C   0  0  0  0  0  0
  -21.3662   -5.6797   24.9187 C   0  0  0  0  0  0
  -21.6039   -4.3063   24.7225 C   0  0  0  0  0  0
  -21.8815   -3.8156   23.4353 C   0  0  0  0  0  0
  -21.9189   -4.6964   22.3408 C   0  0  0  0  0  0
  -22.7835  -13.5242   21.1877 C   0  0  0  0  0  0
  -22.1664   -4.2156   21.0975 F   0  0  0  0  0  0
  -21.5622   -3.4547   25.7739 F   0  0  0  0  0  0
  -30.0298  -13.2631   20.4217 N   0  0  0  0  0  0
  -26.2980  -12.9311   20.3360 N   0  0  0  0  0  0
  -25.9292  -11.6488   20.5772 N   0  0  0  0  0  0
  -22.0446  -12.8245   22.0436 N   0  0  0  0  0  0
  -25.4210  -15.1882   20.4087 N   0  0  0  0  0  0
  -31.9021  -14.5548   20.2679 O   0  0  0  0  0  0
  -21.6628   -6.8870   21.4242 O   0  0  0  0  0  0
  -22.3518  -14.5511   20.6675 O   0  0  0  0  0  0
  -24.6137  -31.8694   23.2095 C   0  0  0  0  0  0
  -25.9036  -32.4837   23.8402 C   0  0  1  0  0  0
  -27.2440  -27.4459   20.0945 C   0  0  0  0  0  0
  -25.5878  -33.8633   24.2345 N   0  0  0  0  0  0
  -23.4047  -30.4920   21.5453 C   0  0  2  0  0  0
  -24.8544  -28.9625   20.1028 C   0  0  0  0  0  0
  -22.7429  -29.4716   22.4956 C   0  0  0  0  0  0
  -18.0299  -28.1342   22.8374 C   0  0  0  0  0  0
  -24.1481  -36.7332   23.2635 C   0  0  0  0  0  0
  -25.9306  -30.8329   21.3667 C   0  0  0  0  0  0
  -26.0071  -29.4691   20.7167 C   0  0  0  0  0  0
  -27.1962  -28.7101   20.7220 C   0  0  0  0  0  0
  -26.0824  -26.9723   19.4379 C   0  0  0  0  0  0
  -24.8868  -27.7151   19.4605 C   0  0  0  0  0  0
  -23.6144  -29.8207   20.1587 C   0  0  0  0  0  0
  -25.4100  -36.3131   24.0346 C   0  0  1  0  0  0
  -20.5862  -28.3653   23.1098 C   0  0  2  0  0  0
  -20.6867  -26.9395   22.5129 C   0  0  0  0  0  0
  -19.5726  -26.5992   21.5166 C   0  0  0  0  0  0
  -18.1938  -26.7775   22.1659 C   0  0  0  0  0  0
  -19.1547  -28.8816   23.2720 C   0  0  0  0  0  0
  -18.9522  -30.1458   23.8696 C   0  0  0  0  0  0
  -17.6548  -30.6569   24.0465 C   0  0  0  0  0  0
  -25.9026  -34.9484   23.5165 C   0  0  0  0  0  0
  -16.5419  -29.9033   23.6337 C   0  0  0  0  0  0
  -16.7300  -28.6480   23.0289 C   0  0  0  0  0  0
  -26.4467  -31.6609   25.0730 C   0  0  0  0  0  0
  -25.3732  -31.3700   26.1476 C   0  0  0  0  0  0
  -27.0307  -30.3050   24.6115 C   0  0  0  0  0  0
  -27.6065  -32.4309   25.7495 C   0  0  0  0  0  0
  -27.5579  -37.1823   24.8463 C   0  0  0  0  0  0
  -21.4162  -29.3126   22.3650 N   0  0  0  0  0  0
  -26.4297  -37.3807   23.9407 N   0  0  0  0  0  0
  -24.6666  -31.0815   22.0968 N   0  0  0  0  0  0
  -23.4205  -28.8240   23.2994 O   0  0  0  0  0  0
  -28.4267  -26.7353   20.1726 O   0  0  0  0  0  0
  -26.5580  -34.8925   22.4714 O   0  0  0  0  0  0
  -23.5341  -32.1423   23.7495 O   0  0  0  0  0  0
  -28.1079  -17.1757   22.9540 C   0  0  0  0  0  0
  -28.9320  -16.2374   22.2994 C   0  0  0  0  0  0
  -28.6553  -17.4848   20.2267 C   0  0  0  0  0  0
  -27.8498  -18.4392   20.8767 C   0  0  0  0  0  0
  -27.5510  -18.2742   22.2579 C   0  0  0  0  0  0
  -29.1832  -16.3785   20.9174 C   0  0  0  0  0  0
  -27.8378  -23.0896   19.5784 C   0  0  0  0  0  0
  -27.7007  -24.3691   19.9604 C   0  0  0  0  0  0
  -27.3447  -19.5437   20.0547 C   0  0  0  0  0  0
  -26.6217  -19.2123   23.0212 C   0  0  0  0  0  0
  -26.8208  -22.0135   19.8998 C   0  0  0  0  0  0
  -28.5901  -25.5004   19.4717 C   0  0  0  0  0  0
  -26.7977  -19.2756   18.8684 N   0  0  0  0  0  0
  -29.9405  -15.4788   20.1304 N   0  0  0  0  0  0
  -27.4557  -20.8140   20.4712 N   0  3  0  0  0  0
  -31.4625  -12.3542   19.1235 H   0  0  0  0  0  0
  -30.2976  -11.2581   19.8122 H   0  0  0  0  0  0
  -29.7232  -11.7589   17.4201 H   0  0  0  0  0  0
  -29.6804  -13.4674   17.7568 H   0  0  0  0  0  0
  -27.7918  -11.3190   18.7778 H   0  0  0  0  0  0
  -27.3729  -12.6832   17.7731 H   0  0  0  0  0  0
  -27.6871  -14.2504   19.5738 H   0  0  0  0  0  0
  -28.6660  -11.9519   21.3396 H   0  0  0  0  0  0
  -28.4862  -13.6040   21.8501 H   0  0  0  0  0  0
  -25.2748   -9.5665   22.4779 H   0  0  0  0  0  0
  -23.9991   -7.4609   22.7470 H   0  0  0  0  0  0
  -21.0832   -8.8774   19.8940 H   0  0  0  0  0  0
  -22.3700  -10.9672   19.6182 H   0  0  0  0  0  0
  -21.1992   -7.6158   23.9725 H   0  0  0  0  0  0
  -21.1485   -6.0531   25.9087 H   0  0  0  0  0  0
  -22.0589   -2.7619   23.2844 H   0  0  0  0  0  0
  -22.4064  -11.9948   22.4901 H   0  0  0  0  0  0
  -21.1017  -13.1206   22.2503 H   0  0  0  0  0  0
  -24.6474  -15.8332   20.5233 H   0  0  0  0  0  0
  -26.2794  -15.6372   20.1207 H   0  0  0  0  0  0
  -26.7108  -32.5576   23.1182 H   0  0  0  0  0  0
  -25.0051  -33.9795   25.0503 H   0  0  0  0  0  0
  -22.6908  -31.3048   21.3980 H   0  0  0  0  0  0
  -23.3740  -35.9672   23.3319 H   0  0  0  0  0  0
  -24.3578  -36.8931   22.2047 H   0  0  0  0  0  0
  -23.7234  -37.6549   23.6628 H   0  0  0  0  0  0
  -26.0435  -31.5990   20.5994 H   0  0  0  0  0  0
  -26.8184  -30.8882   21.9849 H   0  0  0  0  0  0
  -28.0790  -29.0884   21.2166 H   0  0  0  0  0  0
  -26.0719  -26.0356   18.9038 H   0  0  0  0  0  0
  -24.0071  -27.3280   18.9672 H   0  0  0  0  0  0
  -23.7199  -30.5882   19.3937 H   0  0  0  0  0  0
  -22.7443  -29.2301   19.8696 H   0  0  0  0  0  0
  -25.1272  -36.2024   25.0842 H   0  0  0  0  0  0
  -20.9986  -28.3151   24.1207 H   0  0  0  0  0  0
  -20.6128  -26.2240   23.3363 H   0  0  0  0  0  0
  -21.6727  -26.7607   22.0779 H   0  0  0  0  0  0
  -19.6762  -25.5632   21.1862 H   0  0  0  0  0  0
  -19.6575  -27.2205   20.6237 H   0  0  0  0  0  0
  -17.4101  -26.6356   21.4223 H   0  0  0  0  0  0
  -18.0447  -26.0055   22.9188 H   0  0  0  0  0  0
  -19.8013  -30.7302   24.1994 H   0  0  0  0  0  0
  -17.5134  -31.6208   24.5172 H   0  0  0  0  0  0
  -15.5448  -30.2913   23.7846 H   0  0  0  0  0  0
  -15.8628  -28.0824   22.7095 H   0  0  0  0  0  0
  -24.5927  -30.7021   25.7795 H   0  0  0  0  0  0
  -24.8896  -32.2852   26.4910 H   0  0  0  0  0  0
  -25.8100  -30.8882   27.0237 H   0  0  0  0  0  0
  -26.2858  -29.6804   24.1168 H   0  0  0  0  0  0
  -27.4060  -29.7294   25.4586 H   0  0  0  0  0  0
  -27.8697  -30.4358   23.9276 H   0  0  0  0  0  0
  -27.2711  -33.3599   26.2113 H   0  0  0  0  0  0
  -28.3871  -32.6882   25.0321 H   0  0  0  0  0  0
  -28.0736  -31.8397   26.5388 H   0  0  0  0  0  0
  -28.2612  -38.0099   24.7508 H   0  0  0  0  0  0
  -28.1061  -36.2645   24.6305 H   0  0  0  0  0  0
  -27.2296  -37.1488   25.8860 H   0  0  0  0  0  0
  -20.9351  -29.8971   21.6963 H   0  0  0  0  0  0
  -26.0206  -38.2906   24.1378 H   0  0  0  0  0  0
  -27.8900  -17.0398   24.0051 H   0  0  0  0  0  0
  -29.3451  -15.4189   22.8737 H   0  0  0  0  0  0
  -28.8714  -17.6062   19.1724 H   0  0  0  0  0  0
  -28.6772  -22.8097   18.9553 H   0  0  0  0  0  0
  -26.8777  -24.6385   20.6084 H   0  0  0  0  0  0
  -25.6586  -19.3130   22.5182 H   0  0  0  0  0  0
  -26.4194  -18.8388   24.0250 H   0  0  0  0  0  0
  -27.0637  -20.2021   23.1233 H   0  0  0  0  0  0
  -26.2874  -21.7809   18.9784 H   0  0  0  0  0  0
  -26.0716  -22.3958   20.5944 H   0  0  0  0  0  0
  -28.4088  -25.6620   18.4086 H   0  0  0  0  0  0
  -29.6291  -25.1828   19.5675 H   0  0  0  0  0  0
  -26.6972  -18.3085   18.5909 H   0  0  0  0  0  0
  -26.6177  -19.9897   18.1826 H   0  0  0  0  0  0
  -30.3267  -15.9174   19.3086 H   0  0  0  0  0  0
  -27.9686  -20.9401   21.3352 H   0  0  0  0  0  0
  1 25  1  0  0  0
  1 30  2  0  0  0
  1 84  1  0  0  0
  2  3  1  0  0  0
  2 25  1  0  0  0
  2 86  1  0  0  0
  2 87  1  0  0  0
  3  4  1  0  0  0
  3 88  1  0  0  0
  3 89  1  0  0  0
  4  5  1  0  0  0
  4 90  1  0  0  0
  4 91  1  0  0  0
  5  6  1  0  0  0
  5 26  1  0  0  0
  5 92  1  0  0  0
  6 25  1  0  0  0
  6 93  1  0  0  0
  6 94  1  0  0  0
  7  8  2  0  0  0
  7 26  1  0  0  0
  7 29  1  0  0  0
  8  9  1  0  0  0
  8 22  1  0  0  0
  9 10  1  0  0  0
  9 27  2  0  0  0
 10 11  2  0  0  0
 10 15  1  0  0  0
 11 12  1  0  0  0
 11 95  1  0  0  0
 12 13  2  0  0  0
 12 96  1  0  0  0
 13 14  1  0  0  0
 13 31  1  0  0  0
 14 15  2  0  0  0
 14 97  1  0  0  0
 15 98  1  0  0  0
 16 17  2  0  0  0
 16 21  1  0  0  0
 16 31  1  0  0  0
 17 18  1  0  0  0
 17 99  1  0  0  0
 18 19  2  0  0  0
 18100  1  0  0  0
 19 20  1  0  0  0
 19 24  1  0  0  0
 20 21  2  0  0  0
 20101  1  0  0  0
 21 23  1  0  0  0
 22 28  1  0  0  0
 22 32  2  0  0  0
 26 27  1  0  0  0
 28102  1  0  0  0
 28103  1  0  0  0
 29104  1  0  0  0
 29105  1  0  0  0
 33 34  1  0  0  0
 33 66  1  0  0  0
 33 70  2  0  0  0
 34 36  1  0  0  0
 34 59  1  0  0  0
 34106  1  0  0  0
 35 44  2  0  0  0
 35 45  1  0  0  0
 35 68  1  0  0  0
 36 56  1  0  0  0
 36107  1  0  0  0
 37 39  1  0  0  0
 37 47  1  0  0  0
 37 66  1  0  0  0
 37108  1  0  0  0
 38 43  2  0  0  0
 38 46  1  0  0  0
 38 47  1  0  0  0
 39 64  1  0  0  0
 39 67  2  0  0  0
 40 52  1  0  0  0
 40 53  2  0  0  0
 40 58  1  0  0  0
 41109  1  0  0  0
 41110  1  0  0  0
 41111  1  0  0  0
 41 48  1  0  0  0
 42 43  1  0  0  0
 42 66  1  0  0  0
 42112  1  0  0  0
 42113  1  0  0  0
 43 44  1  0  0  0
 44114  1  0  0  0
 45 46  2  0  0  0
 45115  1  0  0  0
 46116  1  0  0  0
 47117  1  0  0  0
 47118  1  0  0  0
 48 56  1  0  0  0
 48 65  1  0  0  0
 48119  1  0  0  0
 49 50  1  0  0  0
 49 53  1  0  0  0
 49 64  1  0  0  0
 49120  1  0  0  0
 50 51  1  0  0  0
 50121  1  0  0  0
 50122  1  0  0  0
 51 52  1  0  0  0
 51123  1  0  0  0
 51124  1  0  0  0
 52125  1  0  0  0
 52126  1  0  0  0
 53 54  1  0  0  0
 54 55  2  0  0  0
 54127  1  0  0  0
 55 57  1  0  0  0
 55128  1  0  0  0
 56 69  2  0  0  0
 57 58  2  0  0  0
 57129  1  0  0  0
 58130  1  0  0  0
 59 60  1  0  0  0
 59 61  1  0  0  0
 59 62  1  0  0  0
 60131  1  0  0  0
 60132  1  0  0  0
 60133  1  0  0  0
 61134  1  0  0  0
 61135  1  0  0  0
 61136  1  0  0  0
 62137  1  0  0  0
 62138  1  0  0  0
 62139  1  0  0  0
 63 65  1  0  0  0
 63140  1  0  0  0
 63141  1  0  0  0
 63142  1  0  0  0
 64143  1  0  0  0
 65144  1  0  0  0
 68 82  1  0  0  0
 71 72  2  0  0  0
 71 75  1  0  0  0
 71145  1  0  0  0
 72 76  1  0  0  0
 72146  1  0  0  0
 73 74  1  0  0  0
 73 76  2  0  0  0
 73147  1  0  0  0
 74 75  2  0  0  0
 74 79  1  0  0  0
 75 80  1  0  0  0
 76 84  1  0  0  0
 77 78  2  0  0  0
 77 81  1  0  0  0
 77148  1  0  0  0
 78 82  1  0  0  0
 78149  1  0  0  0
 79 83  1  0  0  0
 79 85  2  0  0  0
 80150  1  0  0  0
 80151  1  0  0  0
 80152  1  0  0  0
 81 85  1  0  0  0
 81153  1  0  0  0
 81154  1  0  0  0
 82155  1  0  0  0
 82156  1  0  0  0
 83157  1  0  0  0
 83158  1  0  0  0
 84159  1  0  0  0
 85160  1  0  0  0
M  CHG  1  85   1
M  ISO  4   1 100  68 101  82 101  84 100
M  END
> <chiral flag>
0

> <version>
0

> <s_m_source_file>
/data/baiqing/PycharmProjects/Reinvent-master-3.2/result/LINK_invent/BTK/process_docking_weight1_custom_product_contain_oxygen_bond_distance_aromatic_linkinvent_7_9_3/rearranged_h_0057.sdf

> <i_m_source_file_index>
6

> <r_mmod_Potential_Energy-OPLS-2005>
-180.723388671875

> <r_mmod_Stretch_Energy-OPLS-2005>
32.201286315918

> <r_mmod_Bend_Energy-OPLS-2005>
122.08812713623

> <r_mmod_Torsional_Energy-OPLS-2005>
264.395629882812

> <r_mmod_Improper_Torsional_Energy-OPLS-2005>
27.7172546386719

> <r_mmod_Van_der_Waal_Energy-OPLS-2005>
153.816772460938

> <r_mmod_Electrostatic_Energy-OPLS-2005>
-390.805206298828

> <r_mmod_Solvation_Energy-OPLS-2005>
-413.02099609375

> <b_mmod_Minimization_Converged-OPLS-2005>
0

> <r_mmod_RMS_Derivative-OPLS-2005>
5.22086668014526

$$$$
6
                    3D
 Structure written by MMmdl.
163171  0  0  1  0            999 V2000
  -30.6196  -14.5809   20.5263 C   0  0  0  0  0  0
  -30.4490  -12.3691   19.4275 C   0  0  0  0  0  0
  -29.5116  -12.4985   18.2075 C   0  0  0  0  0  0
  -28.0329  -12.3306   18.6204 C   0  0  0  0  0  0
  -27.6529  -13.1992   19.8495 C   0  0  2  0  0  0
  -28.6969  -13.0342   20.9770 C   0  0  0  0  0  0
  -25.2601  -13.8150   20.5636 C   0  0  0  0  0  0
  -24.1864  -13.0433   20.9181 C   0  0  0  0  0  0
  -24.6413  -11.6891   20.8753 C   0  0  0  0  0  0
  -23.9044  -10.4285   21.0389 C   0  0  0  0  0  0
  -24.3601   -9.4194   21.9148 C   0  0  0  0  0  0
  -23.6279   -8.2227   22.0713 C   0  0  0  0  0  0
  -22.4257   -8.0276   21.3516 C   0  0  0  0  0  0
  -21.9885   -9.0249   20.4605 C   0  0  0  0  0  0
  -22.7225  -10.2123   20.3021 C   0  0  0  0  0  0
  -21.6874   -6.0714   22.5268 C   0  0  0  0  0  0
  -21.4013   -6.5598   23.8205 C   0  0  0  0  0  0
  -21.3657   -5.6748   24.9167 C   0  0  0  0  0  0
  -21.6059   -4.3017   24.7209 C   0  0  0  0  0  0
  -21.8816   -3.8104   23.4325 C   0  0  0  0  0  0
  -21.9188   -4.6937   22.3387 C   0  0  0  0  0  0
  -22.7879  -13.5239   21.1820 C   0  0  0  0  0  0
  -22.1658   -4.2134   21.0968 F   0  0  0  0  0  0
  -21.5650   -3.4489   25.7708 F   0  0  0  0  0  0
  -30.0135  -13.3668   20.4123 N   0  0  0  0  0  0
  -26.2995  -12.9272   20.3216 N   0  0  0  0  0  0
  -25.9317  -11.6454   20.5724 N   0  0  0  0  0  0
  -22.0472  -12.8296   22.0390 N   0  0  0  0  0  0
  -25.4328  -15.1879   20.4065 N   0  0  0  0  0  0
  -31.8040  -14.7652   20.2259 O   0  0  0  0  0  0
  -21.6634   -6.8876   21.4232 O   0  0  0  0  0  0
  -22.3577  -14.5507   20.6612 O   0  0  0  0  0  0
  -24.6142  -31.8683   23.2099 C   0  0  0  0  0  0
  -25.9011  -32.4847   23.8397 C   0  0  1  0  0  0
  -27.2171  -27.3808   20.1077 C   0  0  0  0  0  0
  -25.5810  -33.8645   24.2302 N   0  0  0  0  0  0
  -23.4051  -30.4915   21.5547 C   0  0  2  0  0  0
  -24.8484  -28.9547   20.1190 C   0  0  0  0  0  0
  -22.7416  -29.4654   22.4994 C   0  0  0  0  0  0
  -18.0263  -28.1350   22.8529 C   0  0  0  0  0  0
  -24.1473  -36.7343   23.2646 C   0  0  0  0  0  0
  -25.9429  -30.8152   21.3754 C   0  0  0  0  0  0
  -26.0168  -29.4493   20.7126 C   0  0  0  0  0  0
  -27.2059  -28.6732   20.6980 C   0  0  0  0  0  0
  -26.0288  -26.9220   19.4929 C   0  0  0  0  0  0
  -24.8525  -27.6921   19.5070 C   0  0  0  0  0  0
  -23.6151  -29.8270   20.1692 C   0  0  0  0  0  0
  -25.4095  -36.3137   24.0346 C   0  0  1  0  0  0
  -20.5873  -28.3637   23.1347 C   0  0  2  0  0  0
  -20.6745  -26.9372   22.5445 C   0  0  0  0  0  0
  -19.5721  -26.6354   21.5244 C   0  0  0  0  0  0
  -18.1900  -26.7905   22.1645 C   0  0  0  0  0  0
  -19.1519  -28.8817   23.2930 C   0  0  0  0  0  0
  -18.9438  -30.1421   23.8927 C   0  0  0  0  0  0
  -17.6446  -30.6563   24.0569 C   0  0  0  0  0  0
  -25.9015  -34.9501   23.5133 C   0  0  0  0  0  0
  -16.5333  -29.9068   23.6324 C   0  0  0  0  0  0
  -16.7257  -28.6473   23.0374 C   0  0  0  0  0  0
  -26.4390  -31.6642   25.0764 C   0  0  0  0  0  0
  -25.3635  -31.3829   26.1509 C   0  0  0  0  0  0
  -27.0176  -30.3045   24.6221 C   0  0  0  0  0  0
  -27.5972  -32.4374   25.7491 C   0  0  0  0  0  0
  -27.5582  -37.1826   24.8445 C   0  0  0  0  0  0
  -21.4145  -29.3005   22.3752 N   0  0  0  0  0  0
  -26.4275  -37.3815   23.9403 N   0  0  0  0  0  0
  -24.6728  -31.0731   22.1035 N   0  0  0  0  0  0
  -23.4185  -28.8186   23.3028 O   0  0  0  0  0  0
  -28.3543  -26.5811   20.1207 O   0  0  0  0  0  0
  -26.5637  -34.8946   22.4739 O   0  0  0  0  0  0
  -23.5317  -32.1449   23.7456 O   0  0  0  0  0  0
  -29.8588  -17.9180   23.5871 C   0  0  0  0  0  0
  -29.8569  -16.7523   22.8012 C   0  0  0  0  0  0
  -29.8613  -18.1334   20.7888 C   0  0  0  0  0  0
  -29.8485  -19.3333   21.5726 C   0  0  0  0  0  0
  -29.8778  -19.1981   22.9925 C   0  0  0  0  0  0
  -29.8887  -16.8376   21.3975 C   0  0  0  0  0  0
  -31.8241  -25.0260   19.9898 C   0  0  0  0  0  0
  -30.6758  -25.1217   20.6849 C   0  0  0  0  0  0
  -29.9122  -20.6995   20.9512 C   0  0  0  0  0  0
  -29.9853  -20.3987   23.9263 C   0  0  0  0  0  0
  -29.4284  -23.1424   21.6064 C   0  0  0  0  0  0
  -28.1547  -25.1798   20.4907 C   0  0  0  0  0  0
  -29.4336  -24.2566   20.4899 C   0  0  1  0  0  0
  -30.8913  -20.9846   20.1049 N   0  0  0  0  0  0
  -29.7458  -15.6131   20.6648 N   0  0  0  0  0  0
  -29.0762  -21.7126   21.2899 N   0  3  0  0  0  0
  -31.4886  -12.5097   19.1279 H   0  0  0  0  0  0
  -30.3940  -11.3662   19.8543 H   0  0  0  0  0  0
  -29.7784  -11.7578   17.4525 H   0  0  0  0  0  0
  -29.6531  -13.4740   17.7410 H   0  0  0  0  0  0
  -27.8708  -11.2774   18.8538 H   0  0  0  0  0  0
  -27.3800  -12.5528   17.7754 H   0  0  0  0  0  0
  -27.6733  -14.2333   19.5050 H   0  0  0  0  0  0
  -28.7015  -12.0086   21.3450 H   0  0  0  0  0  0
  -28.4496  -13.6621   21.8353 H   0  0  0  0  0  0
  -25.2748   -9.5706   22.4707 H   0  0  0  0  0  0
  -24.0011   -7.4627   22.7415 H   0  0  0  0  0  0
  -21.0806   -8.8731   19.8923 H   0  0  0  0  0  0
  -22.3649  -10.9641   19.6104 H   0  0  0  0  0  0
  -21.1984   -7.6104   23.9720 H   0  0  0  0  0  0
  -21.1506   -6.0464   25.9091 H   0  0  0  0  0  0
  -22.0604   -2.7570   23.2818 H   0  0  0  0  0  0
  -22.4053  -12.0032   22.4945 H   0  0  0  0  0  0
  -21.1033  -13.1314   22.2419 H   0  0  0  0  0  0
  -24.6618  -15.8381   20.5062 H   0  0  0  0  0  0
  -26.2714  -15.6240   20.0416 H   0  0  0  0  0  0
  -26.7093  -32.5544   23.1148 H   0  0  0  0  0  0
  -24.9808  -33.9820   25.0348 H   0  0  0  0  0  0
  -22.6934  -31.3093   21.4181 H   0  0  0  0  0  0
  -23.3737  -35.9666   23.3291 H   0  0  0  0  0  0
  -24.3561  -36.8975   22.2057 H   0  0  0  0  0  0
  -23.7203  -37.6539   23.6677 H   0  0  0  0  0  0
  -26.0669  -31.5824   20.6113 H   0  0  0  0  0  0
  -26.8267  -30.8639   22.0002 H   0  0  0  0  0  0
  -28.1063  -29.0462   21.1656 H   0  0  0  0  0  0
  -25.9925  -25.9680   18.9908 H   0  0  0  0  0  0
  -23.9526  -27.3092   19.0458 H   0  0  0  0  0  0
  -23.7283  -30.6057   19.4142 H   0  0  0  0  0  0
  -22.7373  -29.2500   19.8721 H   0  0  0  0  0  0
  -25.1278  -36.2005   25.0838 H   0  0  0  0  0  0
  -20.9961  -28.3162   24.1471 H   0  0  0  0  0  0
  -20.5650  -26.2228   23.3627 H   0  0  0  0  0  0
  -21.6614  -26.7388   22.1244 H   0  0  0  0  0  0
  -19.6857  -25.6269   21.1257 H   0  0  0  0  0  0
  -19.6659  -27.3195   20.6816 H   0  0  0  0  0  0
  -17.4192  -26.6714   21.4024 H   0  0  0  0  0  0
  -18.0232  -26.0022   22.9006 H   0  0  0  0  0  0
  -19.7923  -30.7237   24.2290 H   0  0  0  0  0  0
  -17.5002  -31.6268   24.5139 H   0  0  0  0  0  0
  -15.5343  -30.2977   23.7624 H   0  0  0  0  0  0
  -15.8658  -28.0798   22.7070 H   0  0  0  0  0  0
  -24.5763  -30.7211   25.7839 H   0  0  0  0  0  0
  -24.8895  -32.3051   26.4922 H   0  0  0  0  0  0
  -25.7960  -30.8998   27.0290 H   0  0  0  0  0  0
  -26.2747  -29.6894   24.1127 H   0  0  0  0  0  0
  -27.3662  -29.7207   25.4747 H   0  0  0  0  0  0
  -27.8717  -30.4258   23.9555 H   0  0  0  0  0  0
  -27.2556  -33.3639   26.2115 H   0  0  0  0  0  0
  -28.3723  -32.7007   25.0288 H   0  0  0  0  0  0
  -28.0701  -31.8505   26.5368 H   0  0  0  0  0  0
  -28.2593  -38.0132   24.7511 H   0  0  0  0  0  0
  -28.1092  -36.2674   24.6242 H   0  0  0  0  0  0
  -27.2341  -37.1444   25.8859 H   0  0  0  0  0  0
  -20.9250  -29.8770   21.7059 H   0  0  0  0  0  0
  -26.0187  -38.2889   24.1430 H   0  0  0  0  0  0
  -29.8538  -17.8090   24.6630 H   0  0  0  0  0  0
  -29.8072  -15.7899   23.2901 H   0  0  0  0  0  0
  -29.8384  -18.2104   19.7117 H   0  0  0  0  0  0
  -32.6461  -25.6973   20.2050 H   0  0  0  0  0  0
  -31.9738  -24.2923   19.2096 H   0  0  0  0  0  0
  -30.6035  -25.8780   21.4562 H   0  0  0  0  0  0
  -30.2191  -20.1000   24.9483 H   0  0  0  0  0  0
  -29.0532  -20.9599   23.9484 H   0  0  0  0  0  0
  -30.7895  -21.0615   23.6113 H   0  0  0  0  0  0
  -28.7771  -23.4646   22.4181 H   0  0  0  0  0  0
  -30.4151  -23.1095   22.0690 H   0  0  0  0  0  0
  -27.7233  -25.1940   21.4927 H   0  0  0  0  0  0
  -27.4109  -24.6874   19.8624 H   0  0  0  0  0  0
  -29.5212  -23.7871   19.5076 H   0  0  0  0  0  0
  -31.5809  -20.2817   19.8868 H   0  0  0  0  0  0
  -30.9392  -21.8711   19.6325 H   0  0  0  0  0  0
  -28.7969  -15.2765   20.6372 H   0  0  0  0  0  0
  -28.1972  -21.3993   21.6879 H   0  0  0  0  0  0
  1 25  1  0  0  0
  1 30  2  0  0  0
  1 85  1  0  0  0
  2  3  1  0  0  0
  2 25  1  0  0  0
  2 87  1  0  0  0
  2 88  1  0  0  0
  3  4  1  0  0  0
  3 89  1  0  0  0
  3 90  1  0  0  0
  4  5  1  0  0  0
  4 91  1  0  0  0
  4 92  1  0  0  0
  5  6  1  0  0  0
  5 26  1  0  0  0
  5 93  1  0  0  0
  6 25  1  0  0  0
  6 94  1  0  0  0
  6 95  1  0  0  0
  7  8  2  0  0  0
  7 26  1  0  0  0
  7 29  1  0  0  0
  8  9  1  0  0  0
  8 22  1  0  0  0
  9 10  1  0  0  0
  9 27  2  0  0  0
 10 11  2  0  0  0
 10 15  1  0  0  0
 11 12  1  0  0  0
 11 96  1  0  0  0
 12 13  2  0  0  0
 12 97  1  0  0  0
 13 14  1  0  0  0
 13 31  1  0  0  0
 14 15  2  0  0  0
 14 98  1  0  0  0
 15 99  1  0  0  0
 16 17  2  0  0  0
 16 21  1  0  0  0
 16 31  1  0  0  0
 17 18  1  0  0  0
 17100  1  0  0  0
 18 19  2  0  0  0
 18101  1  0  0  0
 19 20  1  0  0  0
 19 24  1  0  0  0
 20 21  2  0  0  0
 20102  1  0  0  0
 21 23  1  0  0  0
 22 28  1  0  0  0
 22 32  2  0  0  0
 26 27  1  0  0  0
 28103  1  0  0  0
 28104  1  0  0  0
 29105  1  0  0  0
 29106  1  0  0  0
 33 34  1  0  0  0
 33 66  1  0  0  0
 33 70  2  0  0  0
 34 36  1  0  0  0
 34 59  1  0  0  0
 34107  1  0  0  0
 35 44  2  0  0  0
 35 45  1  0  0  0
 35 68  1  0  0  0
 36 56  1  0  0  0
 36108  1  0  0  0
 37 39  1  0  0  0
 37 47  1  0  0  0
 37 66  1  0  0  0
 37109  1  0  0  0
 38 43  2  0  0  0
 38 46  1  0  0  0
 38 47  1  0  0  0
 39 64  1  0  0  0
 39 67  2  0  0  0
 40 52  1  0  0  0
 40 53  2  0  0  0
 40 58  1  0  0  0
 41110  1  0  0  0
 41111  1  0  0  0
 41112  1  0  0  0
 41 48  1  0  0  0
 42 43  1  0  0  0
 42 66  1  0  0  0
 42113  1  0  0  0
 42114  1  0  0  0
 43 44  1  0  0  0
 44115  1  0  0  0
 45 46  2  0  0  0
 45116  1  0  0  0
 46117  1  0  0  0
 47118  1  0  0  0
 47119  1  0  0  0
 48 56  1  0  0  0
 48 65  1  0  0  0
 48120  1  0  0  0
 49 50  1  0  0  0
 49 53  1  0  0  0
 49 64  1  0  0  0
 49121  1  0  0  0
 50 51  1  0  0  0
 50122  1  0  0  0
 50123  1  0  0  0
 51 52  1  0  0  0
 51124  1  0  0  0
 51125  1  0  0  0
 52126  1  0  0  0
 52127  1  0  0  0
 53 54  1  0  0  0
 54 55  2  0  0  0
 54128  1  0  0  0
 55 57  1  0  0  0
 55129  1  0  0  0
 56 69  2  0  0  0
 57 58  2  0  0  0
 57130  1  0  0  0
 58131  1  0  0  0
 59 60  1  0  0  0
 59 61  1  0  0  0
 59 62  1  0  0  0
 60132  1  0  0  0
 60133  1  0  0  0
 60134  1  0  0  0
 61135  1  0  0  0
 61136  1  0  0  0
 61137  1  0  0  0
 62138  1  0  0  0
 62139  1  0  0  0
 62140  1  0  0  0
 63 65  1  0  0  0
 63141  1  0  0  0
 63142  1  0  0  0
 63143  1  0  0  0
 64144  1  0  0  0
 65145  1  0  0  0
 68 82  1  0  0  0
 71 72  2  0  0  0
 71 75  1  0  0  0
 71146  1  0  0  0
 72 76  1  0  0  0
 72147  1  0  0  0
 73 74  1  0  0  0
 73 76  2  0  0  0
 73148  1  0  0  0
 74 75  2  0  0  0
 74 79  1  0  0  0
 75 80  1  0  0  0
 76 85  1  0  0  0
 77 78  2  0  0  0
 77149  1  0  0  0
 77150  1  0  0  0
 78 83  1  0  0  0
 78151  1  0  0  0
 79 84  1  0  0  0
 79 86  2  0  0  0
 80152  1  0  0  0
 80153  1  0  0  0
 80154  1  0  0  0
 81 86  1  0  0  0
 81155  1  0  0  0
 81156  1  0  0  0
 81 83  1  0  0  0
 82 83  1  0  0  0
 82157  1  0  0  0
 82158  1  0  0  0
 83159  1  0  0  0
 84160  1  0  0  0
 84161  1  0  0  0
 85162  1  0  0  0
 86163  1  0  0  0
M  CHG  1  86   1
M  ISO  4   1 100  68 101  82 101  85 100
M  END
> <chiral flag>
0

> <version>
0

> <s_m_source_file>
/data/baiqing/PycharmProjects/Reinvent-master-3.2/result/LINK_invent/BTK/process_docking_weight1_custom_product_contain_oxygen_bond_distance_aromatic_linkinvent_7_9_3/rearranged_h_0057.sdf

> <i_m_source_file_index>
7

> <r_mmod_Potential_Energy-OPLS-2005>
-76.8373870849609

> <r_mmod_Stretch_Energy-OPLS-2005>
57.1491851806641

> <r_mmod_Bend_Energy-OPLS-2005>
121.532127380371

> <r_mmod_Torsional_Energy-OPLS-2005>
318.367950439453

> <r_mmod_Improper_Torsional_Energy-OPLS-2005>
13.8784217834473

> <r_mmod_Van_der_Waal_Energy-OPLS-2005>
148.785369873047

> <r_mmod_Electrostatic_Energy-OPLS-2005>
-363.136016845703

> <r_mmod_Solvation_Energy-OPLS-2005>
-406.432861328125

> <b_mmod_Minimization_Converged-OPLS-2005>
0

> <r_mmod_RMS_Derivative-OPLS-2005>
4.85032176971436

$$$$
7
                    3D
 Structure written by MMmdl.
169177  0  0  1  0            999 V2000
  -30.6542  -14.3179   20.6860 C   0  0  0  0  0  0
  -30.4104  -12.2343   19.3960 C   0  0  0  0  0  0
  -29.4883  -12.5137   18.1916 C   0  0  0  0  0  0
  -27.9977  -12.3854   18.5900 C   0  0  0  0  0  0
  -27.6620  -13.1658   19.8920 C   0  0  2  0  0  0
  -28.6767  -12.8010   20.9903 C   0  0  0  0  0  0
  -25.2538  -13.8042   20.5645 C   0  0  0  0  0  0
  -24.1780  -13.0384   20.9180 C   0  0  0  0  0  0
  -24.6258  -11.6824   20.8759 C   0  0  0  0  0  0
  -23.8969  -10.4220   21.0487 C   0  0  0  0  0  0
  -24.3566   -9.4115   21.9217 C   0  0  0  0  0  0
  -23.6244   -8.2173   22.0758 C   0  0  0  0  0  0
  -22.4231   -8.0220   21.3550 C   0  0  0  0  0  0
  -21.9867   -9.0209   20.4672 C   0  0  0  0  0  0
  -22.7189  -10.2081   20.3088 C   0  0  0  0  0  0
  -21.6816   -6.0682   22.5293 C   0  0  0  0  0  0
  -21.4004   -6.5613   23.8217 C   0  0  0  0  0  0
  -21.3697   -5.6791   24.9193 C   0  0  0  0  0  0
  -21.6039   -4.3048   24.7244 C   0  0  0  0  0  0
  -21.8784   -3.8111   23.4365 C   0  0  0  0  0  0
  -21.9154   -4.6909   22.3413 C   0  0  0  0  0  0
  -22.7821  -13.5239   21.1943 C   0  0  0  0  0  0
  -22.1613   -4.2084   21.0988 F   0  0  0  0  0  0
  -21.5667   -3.4538   25.7762 F   0  0  0  0  0  0
  -30.0181  -13.1430   20.4854 N   0  0  0  0  0  0
  -26.2920  -12.9163   20.3346 N   0  0  0  0  0  0
  -25.9120  -11.6348   20.5683 N   0  0  0  0  0  0
  -22.0509  -12.8255   22.0573 N   0  0  0  0  0  0
  -25.4324  -15.1764   20.3909 N   0  0  0  0  0  0
  -31.7840  -14.5376   20.2177 O   0  0  0  0  0  0
  -21.6598   -6.8830   21.4251 O   0  0  0  0  0  0
  -22.3539  -14.5542   20.6732 O   0  0  0  0  0  0
  -24.6101  -31.8665   23.2145 C   0  0  0  0  0  0
  -25.9022  -32.4794   23.8367 C   0  0  1  0  0  0
  -27.2047  -27.4380   20.1299 C   0  0  0  0  0  0
  -25.5902  -33.8611   24.2292 N   0  0  0  0  0  0
  -23.3905  -30.4898   21.5591 C   0  0  2  0  0  0
  -24.8307  -28.9730   20.1137 C   0  0  0  0  0  0
  -22.7411  -29.4461   22.4975 C   0  0  0  0  0  0
  -18.0160  -28.1674   22.8606 C   0  0  0  0  0  0
  -24.1462  -36.7339   23.2663 C   0  0  0  0  0  0
  -25.9239  -30.8475   21.3585 C   0  0  0  0  0  0
  -25.9905  -29.4804   20.7160 C   0  0  0  0  0  0
  -27.1796  -28.7225   20.7111 C   0  0  0  0  0  0
  -26.0409  -26.9584   19.4740 C   0  0  0  0  0  0
  -24.8469  -27.7089   19.4945 C   0  0  0  0  0  0
  -23.5959  -29.8389   20.1715 C   0  0  0  0  0  0
  -25.4104  -36.3126   24.0341 C   0  0  1  0  0  0
  -20.5812  -28.3534   23.1650 C   0  0  2  0  0  0
  -20.6094  -26.8813   22.6976 C   0  0  0  0  0  0
  -19.5893  -26.6268   21.5969 C   0  0  0  0  0  0
  -18.1785  -26.8100   22.1889 C   0  0  0  0  0  0
  -19.1539  -28.9011   23.3020 C   0  0  0  0  0  0
  -18.9705  -30.1714   23.8898 C   0  0  0  0  0  0
  -17.6748  -30.6998   24.0467 C   0  0  0  0  0  0
  -25.9032  -34.9487   23.5109 C   0  0  0  0  0  0
  -16.5477  -29.9663   23.6256 C   0  0  0  0  0  0
  -16.7175  -28.6970   23.0270 C   0  0  0  0  0  0
  -26.4380  -31.6589   25.0714 C   0  0  0  0  0  0
  -25.3605  -31.3747   26.1477 C   0  0  0  0  0  0
  -27.0237  -30.3057   24.6026 C   0  0  0  0  0  0
  -27.5976  -32.4332   25.7496 C   0  0  0  0  0  0
  -27.5569  -37.1839   24.8471 C   0  0  0  0  0  0
  -21.4141  -29.2585   22.3674 N   0  0  0  0  0  0
  -26.4286  -37.3828   23.9395 N   0  0  0  0  0  0
  -24.6606  -31.0781   22.1033 N   0  0  0  0  0  0
  -23.4301  -28.8011   23.2894 O   0  0  0  0  0  0
  -28.3639  -26.7036   20.2309 O   0  0  0  0  0  0
  -26.5618  -34.8990   22.4700 O   0  0  0  0  0  0
  -23.5280  -32.1451   23.7534 O   0  0  0  0  0  0
  -31.0483  -18.7005   20.3334 C   0  0  0  0  0  0
  -29.9505  -19.4739   20.7306 C   0  0  0  0  0  0
  -31.0364  -17.3162   20.5152 C   0  0  0  0  0  0
  -28.8607  -18.8702   21.3858 C   0  0  0  0  0  0
  -28.9445  -17.4793   21.7494 C   0  0  0  0  0  0
  -29.9776  -16.6691   21.2060 C   0  0  0  0  0  0
  -27.9065  -25.0429   22.0344 C   0  0  0  0  0  0
  -27.6315  -19.6749   21.5507 C   0  0  0  0  0  0
  -27.0453  -24.1500   22.5744 C   0  0  0  0  0  0
  -28.0142  -16.8651   22.7929 C   0  0  0  0  0  0
  -26.9020  -24.0166   24.0858 C   0  0  0  0  0  0
  -24.6595  -23.6105   21.9245 C   0  0  0  0  0  0
  -28.2227  -25.3083   20.5653 C   0  0  0  0  0  0
  -26.2827  -21.7037   21.9913 C   0  0  0  0  0  0
  -26.1438  -23.2329   21.7423 C   0  0  1  0  0  0
  -26.4859  -19.0249   21.3902 N   0  0  0  0  0  0
  -29.9261  -15.2363   21.3415 N   0  0  0  0  0  0
  -27.5805  -21.0101   21.7737 N   0  3  0  0  0  0
  -31.4593  -12.3479   19.1038 H   0  0  0  0  0  0
  -30.3161  -11.1858   19.6910 H   0  0  0  0  0  0
  -29.7132  -11.8279   17.3705 H   0  0  0  0  0  0
  -29.6885  -13.5192   17.8145 H   0  0  0  0  0  0
  -27.7709  -11.3197   18.6971 H   0  0  0  0  0  0
  -27.3683  -12.7343   17.7731 H   0  0  0  0  0  0
  -27.7695  -14.2297   19.6801 H   0  0  0  0  0  0
  -28.6154  -11.7270   21.1724 H   0  0  0  0  0  0
  -28.4325  -13.2213   21.9639 H   0  0  0  0  0  0
  -25.2736   -9.5479   22.4768 H   0  0  0  0  0  0
  -23.9939   -7.4495   22.7383 H   0  0  0  0  0  0
  -21.0848   -8.8676   19.8930 H   0  0  0  0  0  0
  -22.3723  -10.9593   19.6136 H   0  0  0  0  0  0
  -21.2010   -7.6119   23.9699 H   0  0  0  0  0  0
  -21.1619   -6.0543   25.9106 H   0  0  0  0  0  0
  -22.0550   -2.7560   23.2891 H   0  0  0  0  0  0
  -22.4091  -11.9799   22.4793 H   0  0  0  0  0  0
  -21.1038  -13.1108   22.2710 H   0  0  0  0  0  0
  -24.6532  -15.8209   20.4528 H   0  0  0  0  0  0
  -26.2178  -15.5601   19.8873 H   0  0  0  0  0  0
  -26.7173  -32.5499   23.1205 H   0  0  0  0  0  0
  -24.9881  -33.9715   25.0319 H   0  0  0  0  0  0
  -22.6745  -31.3103   21.4345 H   0  0  0  0  0  0
  -23.3686  -35.9696   23.3310 H   0  0  0  0  0  0
  -24.3530  -36.8961   22.2066 H   0  0  0  0  0  0
  -23.7208  -37.6560   23.6646 H   0  0  0  0  0  0
  -26.0272  -31.5885   20.5623 H   0  0  0  0  0  0
  -26.8248  -30.9157   21.9607 H   0  0  0  0  0  0
  -28.0728  -29.0770   21.2019 H   0  0  0  0  0  0
  -26.0396  -26.0185   18.9319 H   0  0  0  0  0  0
  -23.9496  -27.3369   19.0175 H   0  0  0  0  0  0
  -23.7065  -30.6208   19.4140 H   0  0  0  0  0  0
  -22.7129  -29.2757   19.8679 H   0  0  0  0  0  0
  -25.1238  -36.1990   25.0812 H   0  0  0  0  0  0
  -20.9806  -28.3499   24.1828 H   0  0  0  0  0  0
  -20.2958  -26.2685   23.5496 H   0  0  0  0  0  0
  -21.6102  -26.5167   22.4425 H   0  0  0  0  0  0
  -19.7135  -25.6297   21.1721 H   0  0  0  0  0  0
  -19.7766  -27.3334   20.7947 H   0  0  0  0  0  0
  -17.4263  -26.6716   21.4108 H   0  0  0  0  0  0
  -17.9554  -26.0399   22.9303 H   0  0  0  0  0  0
  -19.8322  -30.7478   24.2266 H   0  0  0  0  0  0
  -17.5458  -31.6728   24.5038 H   0  0  0  0  0  0
  -15.5546  -30.3802   23.7572 H   0  0  0  0  0  0
  -15.8433  -28.1489   22.6869 H   0  0  0  0  0  0
  -24.5736  -30.7131   25.7810 H   0  0  0  0  0  0
  -24.8848  -32.2927   26.4913 H   0  0  0  0  0  0
  -25.7939  -30.8877   27.0255 H   0  0  0  0  0  0
  -26.2793  -29.6886   24.0955 H   0  0  0  0  0  0
  -27.3971  -29.7186   25.4441 H   0  0  0  0  0  0
  -27.8599  -30.4438   23.9198 H   0  0  0  0  0  0
  -27.2522  -33.3630   26.2058 H   0  0  0  0  0  0
  -28.3745  -32.6939   25.0300 H   0  0  0  0  0  0
  -28.0641  -31.8459   26.5410 H   0  0  0  0  0  0
  -28.2637  -38.0112   24.7466 H   0  0  0  0  0  0
  -28.1010  -36.2620   24.6285 H   0  0  0  0  0  0
  -27.2301  -37.1498   25.8904 H   0  0  0  0  0  0
  -20.9024  -29.8906   21.7685 H   0  0  0  0  0  0
  -26.0150  -38.2924   24.1350 H   0  0  0  0  0  0
  -31.8725  -19.1390   19.7910 H   0  0  0  0  0  0
  -29.9416  -20.5291   20.4891 H   0  0  0  0  0  0
  -31.8796  -16.7888   20.1104 H   0  0  0  0  0  0
  -28.4913  -25.6446   22.7216 H   0  0  0  0  0  0
  -27.3218  -17.5702   23.2626 H   0  0  0  0  0  0
  -28.6250  -16.4790   23.6090 H   0  0  0  0  0  0
  -27.4555  -16.0271   22.3791 H   0  0  0  0  0  0
  -27.7695  -24.4265   24.6119 H   0  0  0  0  0  0
  -26.8250  -22.9688   24.3846 H   0  0  0  0  0  0
  -26.0141  -24.5358   24.4557 H   0  0  0  0  0  0
  -24.0530  -23.0486   21.2136 H   0  0  0  0  0  0
  -24.4695  -24.6745   21.7696 H   0  0  0  0  0  0
  -24.2811  -23.3532   22.9222 H   0  0  0  0  0  0
  -27.5462  -24.8166   19.8857 H   0  0  0  0  0  0
  -29.1811  -24.8272   20.3914 H   0  0  0  0  0  0
  -25.5653  -21.2663   21.3012 H   0  0  0  0  0  0
  -25.9410  -21.4350   22.9893 H   0  0  0  0  0  0
  -26.3375  -23.3983   20.6932 H   0  0  0  0  0  0
  -26.5585  -18.0570   21.1225 H   0  0  0  0  0  0
  -25.6083  -19.3566   21.7601 H   0  0  0  0  0  0
  -29.0612  -14.8584   21.6987 H   0  0  0  0  0  0
  -28.4338  -21.5249   21.9349 H   0  0  0  0  0  0
  1 25  1  0  0  0
  1 30  2  0  0  0
  1 87  1  0  0  0
  2  3  1  0  0  0
  2 25  1  0  0  0
  2 89  1  0  0  0
  2 90  1  0  0  0
  3  4  1  0  0  0
  3 91  1  0  0  0
  3 92  1  0  0  0
  4  5  1  0  0  0
  4 93  1  0  0  0
  4 94  1  0  0  0
  5  6  1  0  0  0
  5 26  1  0  0  0
  5 95  1  0  0  0
  6 25  1  0  0  0
  6 96  1  0  0  0
  6 97  1  0  0  0
  7  8  2  0  0  0
  7 26  1  0  0  0
  7 29  1  0  0  0
  8  9  1  0  0  0
  8 22  1  0  0  0
  9 10  1  0  0  0
  9 27  2  0  0  0
 10 11  2  0  0  0
 10 15  1  0  0  0
 11 12  1  0  0  0
 11 98  1  0  0  0
 12 13  2  0  0  0
 12 99  1  0  0  0
 13 14  1  0  0  0
 13 31  1  0  0  0
 14 15  2  0  0  0
 14100  1  0  0  0
 15101  1  0  0  0
 16 17  2  0  0  0
 16 21  1  0  0  0
 16 31  1  0  0  0
 17 18  1  0  0  0
 17102  1  0  0  0
 18 19  2  0  0  0
 18103  1  0  0  0
 19 20  1  0  0  0
 19 24  1  0  0  0
 20 21  2  0  0  0
 20104  1  0  0  0
 21 23  1  0  0  0
 22 28  1  0  0  0
 22 32  2  0  0  0
 26 27  1  0  0  0
 28105  1  0  0  0
 28106  1  0  0  0
 29107  1  0  0  0
 29108  1  0  0  0
 33 34  1  0  0  0
 33 66  1  0  0  0
 33 70  2  0  0  0
 34 36  1  0  0  0
 34 59  1  0  0  0
 34109  1  0  0  0
 35 44  2  0  0  0
 35 45  1  0  0  0
 35 68  1  0  0  0
 36 56  1  0  0  0
 36110  1  0  0  0
 37 39  1  0  0  0
 37 47  1  0  0  0
 37 66  1  0  0  0
 37111  1  0  0  0
 38 43  2  0  0  0
 38 46  1  0  0  0
 38 47  1  0  0  0
 39 64  1  0  0  0
 39 67  2  0  0  0
 40 52  1  0  0  0
 40 53  2  0  0  0
 40 58  1  0  0  0
 41112  1  0  0  0
 41113  1  0  0  0
 41114  1  0  0  0
 41 48  1  0  0  0
 42 43  1  0  0  0
 42 66  1  0  0  0
 42115  1  0  0  0
 42116  1  0  0  0
 43 44  1  0  0  0
 44117  1  0  0  0
 45 46  2  0  0  0
 45118  1  0  0  0
 46119  1  0  0  0
 47120  1  0  0  0
 47121  1  0  0  0
 48 56  1  0  0  0
 48 65  1  0  0  0
 48122  1  0  0  0
 49 50  1  0  0  0
 49 53  1  0  0  0
 49 64  1  0  0  0
 49123  1  0  0  0
 50 51  1  0  0  0
 50124  1  0  0  0
 50125  1  0  0  0
 51 52  1  0  0  0
 51126  1  0  0  0
 51127  1  0  0  0
 52128  1  0  0  0
 52129  1  0  0  0
 53 54  1  0  0  0
 54 55  2  0  0  0
 54130  1  0  0  0
 55 57  1  0  0  0
 55131  1  0  0  0
 56 69  2  0  0  0
 57 58  2  0  0  0
 57132  1  0  0  0
 58133  1  0  0  0
 59 60  1  0  0  0
 59 61  1  0  0  0
 59 62  1  0  0  0
 60134  1  0  0  0
 60135  1  0  0  0
 60136  1  0  0  0
 61137  1  0  0  0
 61138  1  0  0  0
 61139  1  0  0  0
 62140  1  0  0  0
 62141  1  0  0  0
 62142  1  0  0  0
 63 65  1  0  0  0
 63143  1  0  0  0
 63144  1  0  0  0
 63145  1  0  0  0
 64146  1  0  0  0
 65147  1  0  0  0
 68 83  1  0  0  0
 71 72  2  0  0  0
 71 73  1  0  0  0
 71148  1  0  0  0
 72 74  1  0  0  0
 72149  1  0  0  0
 73 76  2  0  0  0
 73150  1  0  0  0
 74 75  2  0  0  0
 74 78  1  0  0  0
 75 76  1  0  0  0
 75 80  1  0  0  0
 76 87  1  0  0  0
 77 79  2  0  0  0
 77 83  1  0  0  0
 77151  1  0  0  0
 78 86  1  0  0  0
 78 88  2  0  0  0
 79 81  1  0  0  0
 79 85  1  0  0  0
 80152  1  0  0  0
 80153  1  0  0  0
 80154  1  0  0  0
 81155  1  0  0  0
 81156  1  0  0  0
 81157  1  0  0  0
 82158  1  0  0  0
 82159  1  0  0  0
 82160  1  0  0  0
 82 85  1  0  0  0
 83161  1  0  0  0
 83162  1  0  0  0
 84 85  1  0  0  0
 84 88  1  0  0  0
 84163  1  0  0  0
 84164  1  0  0  0
 85165  1  0  0  0
 86166  1  0  0  0
 86167  1  0  0  0
 87168  1  0  0  0
 88169  1  0  0  0
M  CHG  1  88   1
M  ISO  4   1 100  68 101  83 101  87 100
M  END
> <chiral flag>
0

> <version>
0

> <s_m_source_file>
/data/baiqing/PycharmProjects/Reinvent-master-3.2/result/LINK_invent/BTK/process_docking_weight1_custom_product_contain_oxygen_bond_distance_aromatic_linkinvent_7_9_3/rearranged_h_0057.sdf

> <i_m_source_file_index>
8

> <r_mmod_Potential_Energy-OPLS-2005>
-157.759002685547

> <r_mmod_Stretch_Energy-OPLS-2005>
46.4379959106445

> <r_mmod_Bend_Energy-OPLS-2005>
134.686630249023

> <r_mmod_Torsional_Energy-OPLS-2005>
247.466430664062

> <r_mmod_Improper_Torsional_Energy-OPLS-2005>
7.77607393264771

> <r_mmod_Van_der_Waal_Energy-OPLS-2005>
180.209808349609

> <r_mmod_Electrostatic_Energy-OPLS-2005>
-404.966430664062

> <r_mmod_Solvation_Energy-OPLS-2005>
-397.334167480469

> <b_mmod_Minimization_Converged-OPLS-2005>
0

> <r_mmod_RMS_Derivative-OPLS-2005>
17.9525737762451

$$$$
8
                    3D
 Structure written by MMmdl.
167175  0  0  1  0            999 V2000
  -30.6638  -14.5493   20.4995 C   0  0  0  0  0  0
  -30.4288  -12.3321   19.4524 C   0  0  0  0  0  0
  -29.5117  -12.5047   18.2227 C   0  0  0  0  0  0
  -28.0289  -12.3651   18.6240 C   0  0  0  0  0  0
  -27.6623  -13.2156   19.8723 C   0  0  2  0  0  0
  -28.7029  -13.0379   21.0012 C   0  0  0  0  0  0
  -25.2634  -13.8181   20.5751 C   0  0  0  0  0  0
  -24.1857  -13.0454   20.9139 C   0  0  0  0  0  0
  -24.6407  -11.6917   20.8693 C   0  0  0  0  0  0
  -23.9068  -10.4309   21.0394 C   0  0  0  0  0  0
  -24.3624   -9.4229   21.9177 C   0  0  0  0  0  0
  -23.6282   -8.2271   22.0757 C   0  0  0  0  0  0
  -22.4269   -8.0309   21.3537 C   0  0  0  0  0  0
  -21.9898   -9.0285   20.4649 C   0  0  0  0  0  0
  -22.7233  -10.2159   20.3066 C   0  0  0  0  0  0
  -21.6869   -6.0738   22.5260 C   0  0  0  0  0  0
  -21.4029   -6.5633   23.8197 C   0  0  0  0  0  0
  -21.3663   -5.6778   24.9145 C   0  0  0  0  0  0
  -21.6053   -4.3038   24.7202 C   0  0  0  0  0  0
  -21.8835   -3.8144   23.4313 C   0  0  0  0  0  0
  -21.9200   -4.6962   22.3378 C   0  0  0  0  0  0
  -22.7881  -13.5260   21.1790 C   0  0  0  0  0  0
  -22.1686   -4.2158   21.0958 F   0  0  0  0  0  0
  -21.5611   -3.4524   25.7710 F   0  0  0  0  0  0
  -30.0311  -13.3434   20.4481 N   0  0  0  0  0  0
  -26.3049  -12.9358   20.3357 N   0  0  0  0  0  0
  -25.9348  -11.6499   20.5723 N   0  0  0  0  0  0
  -22.0505  -12.8268   22.0347 N   0  0  0  0  0  0
  -25.4438  -15.1903   20.4346 N   0  0  0  0  0  0
  -31.8149  -14.7057   20.0826 O   0  0  0  0  0  0
  -21.6644   -6.8895   21.4233 O   0  0  0  0  0  0
  -22.3570  -14.5564   20.6622 O   0  0  0  0  0  0
  -24.6181  -31.8644   23.2066 C   0  0  0  0  0  0
  -25.9061  -32.4804   23.8372 C   0  0  1  0  0  0
  -27.2379  -27.3917   20.1173 C   0  0  0  0  0  0
  -25.5911  -33.8600   24.2312 N   0  0  0  0  0  0
  -23.4097  -30.4853   21.5474 C   0  0  2  0  0  0
  -24.8599  -28.9410   20.1189 C   0  0  0  0  0  0
  -22.7430  -29.4635   22.4976 C   0  0  0  0  0  0
  -18.0274  -28.1378   22.8490 C   0  0  0  0  0  0
  -24.1486  -36.7298   23.2634 C   0  0  0  0  0  0
  -25.9419  -30.8174   21.3661 C   0  0  0  0  0  0
  -26.0219  -29.4467   20.7179 C   0  0  0  0  0  0
  -27.2169  -28.6812   20.7098 C   0  0  0  0  0  0
  -26.0587  -26.9075   19.5161 C   0  0  0  0  0  0
  -24.8754  -27.6727   19.5130 C   0  0  0  0  0  0
  -23.6228  -29.8128   20.1645 C   0  0  0  0  0  0
  -25.4107  -36.3091   24.0331 C   0  0  1  0  0  0
  -20.5864  -28.3668   23.1307 C   0  0  2  0  0  0
  -20.6767  -26.9398   22.5417 C   0  0  0  0  0  0
  -19.5745  -26.6376   21.5211 C   0  0  0  0  0  0
  -18.1920  -26.7926   22.1619 C   0  0  0  0  0  0
  -19.1524  -28.8844   23.2894 C   0  0  0  0  0  0
  -18.9452  -30.1446   23.8907 C   0  0  0  0  0  0
  -17.6454  -30.6583   24.0565 C   0  0  0  0  0  0
  -25.9036  -34.9462   23.5120 C   0  0  0  0  0  0
  -16.5346  -29.9081   23.6324 C   0  0  0  0  0  0
  -16.7261  -28.6497   23.0350 C   0  0  0  0  0  0
  -26.4485  -31.6590   25.0708 C   0  0  0  0  0  0
  -25.3764  -31.3729   26.1477 C   0  0  0  0  0  0
  -27.0298  -30.3015   24.6107 C   0  0  0  0  0  0
  -27.6057  -32.4321   25.7470 C   0  0  0  0  0  0
  -27.5581  -37.1796   24.8457 C   0  0  0  0  0  0
  -21.4151  -29.3025   22.3705 N   0  0  0  0  0  0
  -26.4286  -37.3782   23.9411 N   0  0  0  0  0  0
  -24.6745  -31.0716   22.0980 N   0  0  0  0  0  0
  -23.4182  -28.8181   23.3034 O   0  0  0  0  0  0
  -28.3823  -26.6135   20.0696 O   0  0  0  0  0  0
  -26.5598  -34.8917   22.4678 O   0  0  0  0  0  0
  -23.5359  -32.1403   23.7438 O   0  0  0  0  0  0
  -29.7607  -18.1350   18.0835 C   0  0  0  0  0  0
  -29.9553  -16.9328   18.7836 C   0  0  0  0  0  0
  -29.4859  -18.0981   20.8611 C   0  0  0  0  0  0
  -29.3039  -19.3444   20.1715 C   0  0  0  0  0  0
  -29.4257  -19.3343   18.7480 C   0  0  0  0  0  0
  -29.8193  -16.8851   20.1873 C   0  0  0  0  0  0
  -29.1800  -24.3510   20.4695 C   0  0  0  0  0  0
  -28.4107  -25.4274   20.7900 C   0  0  0  0  0  0
  -28.9177  -20.5939   20.9672 C   0  0  0  0  0  0
  -29.1865  -20.5546   17.8672 C   0  0  0  0  0  0
  -30.9078  -22.0392   23.1578 C   0  0  0  0  0  0
  -30.8071  -24.5076   22.9400 C   0  0  0  0  0  0
  -31.9593  -23.1450   21.1844 C   0  0  0  0  0  0
  -29.3916  -23.0794   21.3344 C   0  0  2  0  0  0
  -30.7437  -23.1879   22.1376 C   0  0  0  0  0  0
  -29.9099  -15.6167   20.8757 N   0  0  0  0  0  0
  -29.3671  -21.8079   20.5576 N   0  0  0  0  0  0
  -28.2748  -20.4648   22.0109 O   0  0  0  0  0  0
  -31.4775  -12.4231   19.1621 H   0  0  0  0  0  0
  -30.3234  -11.3314   19.8747 H   0  0  0  0  0  0
  -29.7631  -11.7658   17.4604 H   0  0  0  0  0  0
  -29.6788  -13.4824   17.7680 H   0  0  0  0  0  0
  -27.8356  -11.3089   18.8198 H   0  0  0  0  0  0
  -27.3903  -12.6408   17.7836 H   0  0  0  0  0  0
  -27.6913  -14.2584   19.5561 H   0  0  0  0  0  0
  -28.6852  -12.0143   21.3768 H   0  0  0  0  0  0
  -28.4656  -13.6709   21.8572 H   0  0  0  0  0  0
  -25.2786   -9.5689   22.4712 H   0  0  0  0  0  0
  -23.9992   -7.4674   22.7484 H   0  0  0  0  0  0
  -21.0823   -8.8825   19.8945 H   0  0  0  0  0  0
  -22.3712  -10.9700   19.6174 H   0  0  0  0  0  0
  -21.2042   -7.6142   23.9698 H   0  0  0  0  0  0
  -21.1468   -6.0499   25.9047 H   0  0  0  0  0  0
  -22.0609   -2.7601   23.2808 H   0  0  0  0  0  0
  -22.4105  -11.9929   22.4748 H   0  0  0  0  0  0
  -21.1174  -13.1372   22.2622 H   0  0  0  0  0  0
  -24.7036  -15.8628   20.6061 H   0  0  0  0  0  0
  -26.3278  -15.6239   20.1981 H   0  0  0  0  0  0
  -26.7135  -32.5511   23.1132 H   0  0  0  0  0  0
  -25.0107  -33.9759   25.0494 H   0  0  0  0  0  0
  -22.6994  -31.3024   21.4036 H   0  0  0  0  0  0
  -23.3749  -35.9625   23.3285 H   0  0  0  0  0  0
  -24.3586  -36.8924   22.2048 H   0  0  0  0  0  0
  -23.7232  -37.6496   23.6660 H   0  0  0  0  0  0
  -26.0584  -31.5794   20.5947 H   0  0  0  0  0  0
  -26.8271  -30.8740   21.9871 H   0  0  0  0  0  0
  -28.1170  -29.0690   21.1655 H   0  0  0  0  0  0
  -26.0617  -25.9337   19.0475 H   0  0  0  0  0  0
  -23.9836  -27.2777   19.0441 H   0  0  0  0  0  0
  -23.7313  -30.5842   19.4021 H   0  0  0  0  0  0
  -22.7467  -29.2337   19.8690 H   0  0  0  0  0  0
  -25.1278  -36.1949   25.0822 H   0  0  0  0  0  0
  -20.9956  -28.3236   24.1428 H   0  0  0  0  0  0
  -20.5654  -26.2272   23.3608 H   0  0  0  0  0  0
  -21.6641  -26.7423   22.1219 H   0  0  0  0  0  0
  -19.6905  -25.6287   21.1231 H   0  0  0  0  0  0
  -19.6685  -27.3192   20.6746 H   0  0  0  0  0  0
  -17.4190  -26.6667   21.4024 H   0  0  0  0  0  0
  -18.0316  -26.0064   22.9009 H   0  0  0  0  0  0
  -19.7928  -30.7255   24.2278 H   0  0  0  0  0  0
  -17.5009  -31.6266   24.5161 H   0  0  0  0  0  0
  -15.5351  -30.2988   23.7644 H   0  0  0  0  0  0
  -15.8658  -28.0816   22.7067 H   0  0  0  0  0  0
  -24.5909  -30.7095   25.7842 H   0  0  0  0  0  0
  -24.8999  -32.2905   26.4939 H   0  0  0  0  0  0
  -25.8132  -30.8896   27.0225 H   0  0  0  0  0  0
  -26.2827  -29.6788   24.1169 H   0  0  0  0  0  0
  -27.4052  -29.7246   25.4571 H   0  0  0  0  0  0
  -27.8679  -30.4303   23.9253 H   0  0  0  0  0  0
  -27.2671  -33.3626   26.2039 H   0  0  0  0  0  0
  -28.3870  -32.6879   25.0300 H   0  0  0  0  0  0
  -28.0717  -31.8456   26.5398 H   0  0  0  0  0  0
  -28.2589  -38.0103   24.7525 H   0  0  0  0  0  0
  -28.1093  -36.2642   24.6254 H   0  0  0  0  0  0
  -27.2314  -37.1409   25.8863 H   0  0  0  0  0  0
  -20.9318  -29.8759   21.6936 H   0  0  0  0  0  0
  -26.0172  -38.2849   24.1447 H   0  0  0  0  0  0
  -29.8482  -18.1181   17.0063 H   0  0  0  0  0  0
  -30.1732  -16.0386   18.2156 H   0  0  0  0  0  0
  -29.3636  -18.0772   21.9354 H   0  0  0  0  0  0
  -29.7532  -24.3919   19.5542 H   0  0  0  0  0  0
  -27.7934  -25.4707   21.6774 H   0  0  0  0  0  0
  -29.0177  -20.2618   16.8295 H   0  0  0  0  0  0
  -30.0549  -21.2136   17.8829 H   0  0  0  0  0  0
  -28.3038  -21.1145   18.1766 H   0  0  0  0  0  0
  -31.7748  -22.1973   23.8019 H   0  0  0  0  0  0
  -31.0621  -21.0743   22.6748 H   0  0  0  0  0  0
  -30.0359  -21.9514   23.8069 H   0  0  0  0  0  0
  -31.6951  -24.5486   23.5730 H   0  0  0  0  0  0
  -29.9384  -24.6221   23.5896 H   0  0  0  0  0  0
  -30.8531  -25.3830   22.2915 H   0  0  0  0  0  0
  -32.8976  -23.2056   21.7373 H   0  0  0  0  0  0
  -31.9511  -23.9744   20.4784 H   0  0  0  0  0  0
  -31.9946  -22.2231   20.6036 H   0  0  0  0  0  0
  -28.5704  -23.0593   22.0557 H   0  0  0  0  0  0
  -29.1194  -15.3897   21.4591 H   0  0  0  0  0  0
  -29.8778  -21.8038   19.6876 H   0  0  0  0  0  0
  1 25  1  0  0  0
  1 30  2  0  0  0
  1 86  1  0  0  0
  2  3  1  0  0  0
  2 25  1  0  0  0
  2 89  1  0  0  0
  2 90  1  0  0  0
  3  4  1  0  0  0
  3 91  1  0  0  0
  3 92  1  0  0  0
  4  5  1  0  0  0
  4 93  1  0  0  0
  4 94  1  0  0  0
  5  6  1  0  0  0
  5 26  1  0  0  0
  5 95  1  0  0  0
  6 25  1  0  0  0
  6 96  1  0  0  0
  6 97  1  0  0  0
  7  8  2  0  0  0
  7 26  1  0  0  0
  7 29  1  0  0  0
  8  9  1  0  0  0
  8 22  1  0  0  0
  9 10  1  0  0  0
  9 27  2  0  0  0
 10 11  2  0  0  0
 10 15  1  0  0  0
 11 12  1  0  0  0
 11 98  1  0  0  0
 12 13  2  0  0  0
 12 99  1  0  0  0
 13 14  1  0  0  0
 13 31  1  0  0  0
 14 15  2  0  0  0
 14100  1  0  0  0
 15101  1  0  0  0
 16 17  2  0  0  0
 16 21  1  0  0  0
 16 31  1  0  0  0
 17 18  1  0  0  0
 17102  1  0  0  0
 18 19  2  0  0  0
 18103  1  0  0  0
 19 20  1  0  0  0
 19 24  1  0  0  0
 20 21  2  0  0  0
 20104  1  0  0  0
 21 23  1  0  0  0
 22 28  1  0  0  0
 22 32  2  0  0  0
 26 27  1  0  0  0
 28105  1  0  0  0
 28106  1  0  0  0
 29107  1  0  0  0
 29108  1  0  0  0
 33 34  1  0  0  0
 33 66  1  0  0  0
 33 70  2  0  0  0
 34 36  1  0  0  0
 34 59  1  0  0  0
 34109  1  0  0  0
 35 44  2  0  0  0
 35 45  1  0  0  0
 35 68  1  0  0  0
 36 56  1  0  0  0
 36110  1  0  0  0
 37 39  1  0  0  0
 37 47  1  0  0  0
 37 66  1  0  0  0
 37111  1  0  0  0
 38 43  2  0  0  0
 38 46  1  0  0  0
 38 47  1  0  0  0
 39 64  1  0  0  0
 39 67  2  0  0  0
 40 52  1  0  0  0
 40 53  2  0  0  0
 40 58  1  0  0  0
 41112  1  0  0  0
 41113  1  0  0  0
 41114  1  0  0  0
 41 48  1  0  0  0
 42 43  1  0  0  0
 42 66  1  0  0  0
 42115  1  0  0  0
 42116  1  0  0  0
 43 44  1  0  0  0
 44117  1  0  0  0
 45 46  2  0  0  0
 45118  1  0  0  0
 46119  1  0  0  0
 47120  1  0  0  0
 47121  1  0  0  0
 48 56  1  0  0  0
 48 65  1  0  0  0
 48122  1  0  0  0
 49 50  1  0  0  0
 49 53  1  0  0  0
 49 64  1  0  0  0
 49123  1  0  0  0
 50 51  1  0  0  0
 50124  1  0  0  0
 50125  1  0  0  0
 51 52  1  0  0  0
 51126  1  0  0  0
 51127  1  0  0  0
 52128  1  0  0  0
 52129  1  0  0  0
 53 54  1  0  0  0
 54 55  2  0  0  0
 54130  1  0  0  0
 55 57  1  0  0  0
 55131  1  0  0  0
 56 69  2  0  0  0
 57 58  2  0  0  0
 57132  1  0  0  0
 58133  1  0  0  0
 59 60  1  0  0  0
 59 61  1  0  0  0
 59 62  1  0  0  0
 60134  1  0  0  0
 60135  1  0  0  0
 60136  1  0  0  0
 61137  1  0  0  0
 61138  1  0  0  0
 61139  1  0  0  0
 62140  1  0  0  0
 62141  1  0  0  0
 62142  1  0  0  0
 63 65  1  0  0  0
 63143  1  0  0  0
 63144  1  0  0  0
 63145  1  0  0  0
 64146  1  0  0  0
 65147  1  0  0  0
 68 78  1  0  0  0
 71 72  2  0  0  0
 71 75  1  0  0  0
 71148  1  0  0  0
 72 76  1  0  0  0
 72149  1  0  0  0
 73 74  1  0  0  0
 73 76  2  0  0  0
 73150  1  0  0  0
 74 75  2  0  0  0
 74 79  1  0  0  0
 75 80  1  0  0  0
 76 86  1  0  0  0
 77 78  2  0  0  0
 77 84  1  0  0  0
 77151  1  0  0  0
 78152  1  0  0  0
 79 87  1  0  0  0
 79 88  2  0  0  0
 80153  1  0  0  0
 80154  1  0  0  0
 80155  1  0  0  0
 81156  1  0  0  0
 81157  1  0  0  0
 81158  1  0  0  0
 81 85  1  0  0  0
 82 85  1  0  0  0
 82159  1  0  0  0
 82160  1  0  0  0
 82161  1  0  0  0
 83 85  1  0  0  0
 83162  1  0  0  0
 83163  1  0  0  0
 83164  1  0  0  0
 84 85  1  0  0  0
 84 87  1  0  0  0
 84165  1  0  0  0
 86166  1  0  0  0
 87167  1  0  0  0
M  ISO  4   1 100  68 101  78 101  86 100
M  END
> <chiral flag>
0

> <version>
0

> <s_m_source_file>
/data/baiqing/PycharmProjects/Reinvent-master-3.2/result/LINK_invent/BTK/process_docking_weight1_custom_product_contain_oxygen_bond_distance_aromatic_linkinvent_7_9_3/rearranged_h_0057.sdf

> <i_m_source_file_index>
9

> <r_mmod_Potential_Energy-OPLS-2005>
-54.9061317443848

> <r_mmod_Stretch_Energy-OPLS-2005>
56.5482482910156

> <r_mmod_Bend_Energy-OPLS-2005>
111.158134460449

> <r_mmod_Torsional_Energy-OPLS-2005>
269.30517578125

> <r_mmod_Improper_Torsional_Energy-OPLS-2005>
7.29964733123779

> <r_mmod_Van_der_Waal_Energy-OPLS-2005>
154.689346313477

> <r_mmod_Electrostatic_Energy-OPLS-2005>
-465.812072753906

> <r_mmod_Solvation_Energy-OPLS-2005>
-210.977203369141

> <b_mmod_Minimization_Converged-OPLS-2005>
0

> <r_mmod_RMS_Derivative-OPLS-2005>
2.68106365203857

$$$$
9
                    3D
 Structure written by MMmdl.
156164  0  0  1  0            999 V2000
  -30.4859  -15.0610   20.3799 C   0  0  0  0  0  0
  -30.4361  -12.6580   19.5125 C   0  0  0  0  0  0
  -29.5228  -12.5463   18.2676 C   0  0  0  0  0  0
  -28.0596  -12.3125   18.6853 C   0  0  0  0  0  0
  -27.6208  -13.2572   19.8333 C   0  0  2  0  0  0
  -28.6587  -13.3304   20.9730 C   0  0  0  0  0  0
  -25.2417  -13.8221   20.5703 C   0  0  0  0  0  0
  -24.1748  -13.0433   20.9223 C   0  0  0  0  0  0
  -24.6376  -11.6922   20.8743 C   0  0  0  0  0  0
  -23.9069  -10.4286   21.0394 C   0  0  0  0  0  0
  -24.3620   -9.4204   21.9175 C   0  0  0  0  0  0
  -23.6293   -8.2242   22.0752 C   0  0  0  0  0  0
  -22.4277   -8.0271   21.3541 C   0  0  0  0  0  0
  -21.9910   -9.0243   20.4643 C   0  0  0  0  0  0
  -22.7240  -10.2121   20.3044 C   0  0  0  0  0  0
  -21.6857   -6.0721   22.5272 C   0  0  0  0  0  0
  -21.4019   -6.5627   23.8204 C   0  0  0  0  0  0
  -21.3664   -5.6782   24.9169 C   0  0  0  0  0  0
  -21.6048   -4.3045   24.7222 C   0  0  0  0  0  0
  -21.8822   -3.8132   23.4347 C   0  0  0  0  0  0
  -21.9194   -4.6947   22.3399 C   0  0  0  0  0  0
  -22.7771  -13.5194   21.1890 C   0  0  0  0  0  0
  -22.1663   -4.2128   21.0976 F   0  0  0  0  0  0
  -21.5629   -3.4535   25.7740 F   0  0  0  0  0  0
  -29.9230  -13.7744   20.3704 N   0  0  0  0  0  0
  -26.2836  -12.9469   20.3224 N   0  0  0  0  0  0
  -25.9310  -11.6589   20.5722 N   0  0  0  0  0  0
  -22.0449  -12.8164   22.0450 N   0  0  0  0  0  0
  -25.4082  -15.1947   20.4121 N   0  0  0  0  0  0
  -31.6917  -15.1085   20.1034 O   0  0  0  0  0  0
  -21.6643   -6.8863   21.4236 O   0  0  0  0  0  0
  -22.3444  -14.5496   20.6737 O   0  0  0  0  0  0
  -24.6492  -31.8375   23.1781 C   0  0  0  0  0  0
  -25.9232  -32.4658   23.8211 C   0  0  1  0  0  0
  -27.2157  -27.0583   20.1664 C   0  0  0  0  0  0
  -25.5956  -33.8467   24.2132 N   0  0  0  0  0  0
  -23.4558  -30.4524   21.5244 C   0  0  2  0  0  0
  -24.9062  -28.8611   20.1030 C   0  0  0  0  0  0
  -22.7600  -29.4522   22.4816 C   0  0  0  0  0  0
  -18.0308  -28.1420   22.8482 C   0  0  0  0  0  0
  -24.1491  -36.7225   23.2644 C   0  0  0  0  0  0
  -26.0150  -30.6850   21.3871 C   0  0  0  0  0  0
  -26.0818  -29.2876   20.7320 C   0  0  0  0  0  0
  -27.2317  -28.4019   20.7462 C   0  0  0  0  0  0
  -26.0155  -26.7476   19.4921 C   0  0  0  0  0  0
  -24.8902  -27.6086   19.4653 C   0  0  0  0  0  0
  -23.6856  -29.7727   20.1453 C   0  0  0  0  0  0
  -25.4123  -36.3003   24.0319 C   0  0  1  0  0  0
  -20.5927  -28.3744   23.1215 C   0  0  2  0  0  0
  -20.6792  -26.9435   22.5402 C   0  0  0  0  0  0
  -19.5754  -26.6393   21.5216 C   0  0  0  0  0  0
  -18.1939  -26.7956   22.1621 C   0  0  0  0  0  0
  -19.1570  -28.8901   23.2838 C   0  0  0  0  0  0
  -18.9489  -30.1507   23.8853 C   0  0  0  0  0  0
  -17.6484  -30.6611   24.0575 C   0  0  0  0  0  0
  -25.9089  -34.9393   23.5037 C   0  0  0  0  0  0
  -16.5375  -29.9108   23.6355 C   0  0  0  0  0  0
  -16.7291  -28.6531   23.0365 C   0  0  0  0  0  0
  -26.4521  -31.6567   25.0690 C   0  0  0  0  0  0
  -25.3684  -31.3779   26.1374 C   0  0  0  0  0  0
  -27.0415  -30.2967   24.6318 C   0  0  0  0  0  0
  -27.6039  -32.4348   25.7468 C   0  0  0  0  0  0
  -27.5570  -37.1763   24.8452 C   0  0  0  0  0  0
  -21.4280  -29.3056   22.3582 N   0  0  0  0  0  0
  -26.4258  -37.3741   23.9433 N   0  0  0  0  0  0
  -24.7271  -31.0177   22.0837 N   0  0  0  0  0  0
  -23.4214  -28.8098   23.3011 O   0  0  0  0  0  0
  -28.2667  -26.0552   20.2940 O   0  0  0  0  0  0
  -26.5680  -34.8912   22.4619 O   0  0  0  0  0  0
  -23.5603  -32.1267   23.6986 O   0  0  0  0  0  0
  -31.0752  -19.5405   18.9734 C   0  0  0  0  0  0
  -30.2558  -20.6151   19.3997 C   0  0  0  0  0  0
  -30.8886  -18.1920   19.3768 C   0  0  0  0  0  0
  -29.1848  -20.4278   20.2931 C   0  0  0  0  0  0
  -28.9991  -18.9678   20.6747 C   0  0  0  0  0  0
  -29.8438  -17.7919   20.2396 C   0  0  0  0  0  0
  -28.3717  -21.7453   20.8126 C   0  0  0  0  0  0
  -28.0455  -23.1663   20.7251 C   0  0  0  0  0  0
  -27.0611  -23.6117   21.8422 C   0  0  0  0  0  0
  -26.4805  -18.6939   20.9046 C   0  0  0  0  0  0
  -27.8427  -18.6380   21.6092 C   0  0  0  0  0  0
  -28.3248  -24.5352   19.8090 C   0  0  0  0  0  0
  -29.6889  -16.2590   20.5503 N   0  0  0  0  0  0
  -27.5603  -23.8997   22.9490 O   0  5  0  0  0  0
  -25.8437  -23.5818   21.5652 O   0  0  0  0  0  0
  -31.4659  -12.8276   19.1946 H   0  0  0  0  0  0
  -30.4506  -11.7186   20.0684 H   0  0  0  0  0  0
  -29.8613  -11.7387   17.6172 H   0  0  0  0  0  0
  -29.5921  -13.4633   17.6805 H   0  0  0  0  0  0
  -27.9704  -11.2748   19.0093 H   0  0  0  0  0  0
  -27.3958  -12.4205   17.8273 H   0  0  0  0  0  0
  -27.5687  -14.2489   19.3831 H   0  0  0  0  0  0
  -28.7696  -12.3658   21.4697 H   0  0  0  0  0  0
  -28.3336  -14.0363   21.7394 H   0  0  0  0  0  0
  -25.2767   -9.5678   22.4745 H   0  0  0  0  0  0
  -23.9999   -7.4631   22.7475 H   0  0  0  0  0  0
  -21.0838   -8.8751   19.8950 H   0  0  0  0  0  0
  -22.3693  -10.9649   19.6142 H   0  0  0  0  0  0
  -21.2019   -7.6135   23.9698 H   0  0  0  0  0  0
  -21.1486   -6.0517   25.9070 H   0  0  0  0  0  0
  -22.0602   -2.7594   23.2852 H   0  0  0  0  0  0
  -22.4082  -11.9800   22.4781 H   0  0  0  0  0  0
  -21.1076  -13.1178   22.2717 H   0  0  0  0  0  0
  -24.6361  -15.8437   20.5142 H   0  0  0  0  0  0
  -26.2452  -15.6319   20.0505 H   0  0  0  0  0  0
  -26.7298  -32.5234   23.0938 H   0  0  0  0  0  0
  -25.0113  -33.9564   25.0284 H   0  0  0  0  0  0
  -22.7624  -31.2805   21.3648 H   0  0  0  0  0  0
  -23.3773  -35.9525   23.3256 H   0  0  0  0  0  0
  -24.3573  -36.8911   22.2062 H   0  0  0  0  0  0
  -23.7223  -37.6395   23.6716 H   0  0  0  0  0  0
  -26.1831  -31.4335   20.6120 H   0  0  0  0  0  0
  -26.8820  -30.7367   22.0349 H   0  0  0  0  0  0
  -28.1211  -28.7217   21.2713 H   0  0  0  0  0  0
  -25.9069  -25.7807   19.0239 H   0  0  0  0  0  0
  -23.9918  -27.2767   18.9635 H   0  0  0  0  0  0
  -23.8245  -30.5443   19.3865 H   0  0  0  0  0  0
  -22.7978  -29.2180   19.8368 H   0  0  0  0  0  0
  -25.1322  -36.1789   25.0807 H   0  0  0  0  0  0
  -21.0023  -28.3345   24.1332 H   0  0  0  0  0  0
  -20.5686  -26.2363   23.3638 H   0  0  0  0  0  0
  -21.6666  -26.7445   22.1197 H   0  0  0  0  0  0
  -19.6905  -25.6287   21.1283 H   0  0  0  0  0  0
  -19.6698  -27.3189   20.6728 H   0  0  0  0  0  0
  -17.4220  -26.6730   21.4011 H   0  0  0  0  0  0
  -18.0311  -26.0109   22.9019 H   0  0  0  0  0  0
  -19.7966  -30.7355   24.2180 H   0  0  0  0  0  0
  -17.5037  -31.6278   24.5205 H   0  0  0  0  0  0
  -15.5375  -30.3010   23.7695 H   0  0  0  0  0  0
  -15.8690  -28.0855   22.7079 H   0  0  0  0  0  0
  -24.5874  -30.7110   25.7702 H   0  0  0  0  0  0
  -24.8848  -32.2972   26.4696 H   0  0  0  0  0  0
  -25.7955  -30.9027   27.0217 H   0  0  0  0  0  0
  -26.3060  -29.6657   24.1321 H   0  0  0  0  0  0
  -27.4025  -29.7294   25.4905 H   0  0  0  0  0  0
  -27.8965  -30.4214   23.9667 H   0  0  0  0  0  0
  -27.2641  -33.3701   26.1925 H   0  0  0  0  0  0
  -28.3908  -32.6827   25.0331 H   0  0  0  0  0  0
  -28.0640  -31.8545   26.5474 H   0  0  0  0  0  0
  -28.2552  -38.0100   24.7590 H   0  0  0  0  0  0
  -28.1116  -36.2648   24.6178 H   0  0  0  0  0  0
  -27.2309  -37.1286   25.8856 H   0  0  0  0  0  0
  -20.9501  -29.8753   21.6747 H   0  0  0  0  0  0
  -26.0106  -38.2787   24.1488 H   0  0  0  0  0  0
  -31.8958  -19.7603   18.3051 H   0  0  0  0  0  0
  -30.4825  -21.6160   19.0564 H   0  0  0  0  0  0
  -31.5696  -17.4506   18.9812 H   0  0  0  0  0  0
  -27.8239  -21.3554   21.6584 H   0  0  0  0  0  0
  -25.6823  -18.3802   21.5772 H   0  0  0  0  0  0
  -26.4590  -18.0332   20.0382 H   0  0  0  0  0  0
  -26.2463  -19.7019   20.5603 H   0  0  0  0  0  0
  -27.8544  -19.3147   22.4636 H   0  0  0  0  0  0
  -27.9818  -17.6455   22.0375 H   0  0  0  0  0  0
  -27.6695  -24.4495   18.9439 H   0  0  0  0  0  0
  -29.3249  -24.4037   19.3971 H   0  0  0  0  0  0
  -28.7693  -16.0238   20.8904 H   0  0  0  0  0  0
  1 25  1  0  0  0
  1 30  2  0  0  0
  1 83  1  0  0  0
  2  3  1  0  0  0
  2 25  1  0  0  0
  2 86  1  0  0  0
  2 87  1  0  0  0
  3  4  1  0  0  0
  3 88  1  0  0  0
  3 89  1  0  0  0
  4  5  1  0  0  0
  4 90  1  0  0  0
  4 91  1  0  0  0
  5  6  1  0  0  0
  5 26  1  0  0  0
  5 92  1  0  0  0
  6 25  1  0  0  0
  6 93  1  0  0  0
  6 94  1  0  0  0
  7  8  2  0  0  0
  7 26  1  0  0  0
  7 29  1  0  0  0
  8  9  1  0  0  0
  8 22  1  0  0  0
  9 10  1  0  0  0
  9 27  2  0  0  0
 10 11  2  0  0  0
 10 15  1  0  0  0
 11 12  1  0  0  0
 11 95  1  0  0  0
 12 13  2  0  0  0
 12 96  1  0  0  0
 13 14  1  0  0  0
 13 31  1  0  0  0
 14 15  2  0  0  0
 14 97  1  0  0  0
 15 98  1  0  0  0
 16 17  2  0  0  0
 16 21  1  0  0  0
 16 31  1  0  0  0
 17 18  1  0  0  0
 17 99  1  0  0  0
 18 19  2  0  0  0
 18100  1  0  0  0
 19 20  1  0  0  0
 19 24  1  0  0  0
 20 21  2  0  0  0
 20101  1  0  0  0
 21 23  1  0  0  0
 22 28  1  0  0  0
 22 32  2  0  0  0
 26 27  1  0  0  0
 28102  1  0  0  0
 28103  1  0  0  0
 29104  1  0  0  0
 29105  1  0  0  0
 33 34  1  0  0  0
 33 66  1  0  0  0
 33 70  2  0  0  0
 34 36  1  0  0  0
 34 59  1  0  0  0
 34106  1  0  0  0
 35 44  2  0  0  0
 35 45  1  0  0  0
 35 68  1  0  0  0
 36 56  1  0  0  0
 36107  1  0  0  0
 37 39  1  0  0  0
 37 47  1  0  0  0
 37 66  1  0  0  0
 37108  1  0  0  0
 38 43  2  0  0  0
 38 46  1  0  0  0
 38 47  1  0  0  0
 39 64  1  0  0  0
 39 67  2  0  0  0
 40 52  1  0  0  0
 40 53  2  0  0  0
 40 58  1  0  0  0
 41109  1  0  0  0
 41110  1  0  0  0
 41111  1  0  0  0
 41 48  1  0  0  0
 42 43  1  0  0  0
 42 66  1  0  0  0
 42112  1  0  0  0
 42113  1  0  0  0
 43 44  1  0  0  0
 44114  1  0  0  0
 45 46  2  0  0  0
 45115  1  0  0  0
 46116  1  0  0  0
 47117  1  0  0  0
 47118  1  0  0  0
 48 56  1  0  0  0
 48 65  1  0  0  0
 48119  1  0  0  0
 49 50  1  0  0  0
 49 53  1  0  0  0
 49 64  1  0  0  0
 49120  1  0  0  0
 50 51  1  0  0  0
 50121  1  0  0  0
 50122  1  0  0  0
 51 52  1  0  0  0
 51123  1  0  0  0
 51124  1  0  0  0
 52125  1  0  0  0
 52126  1  0  0  0
 53 54  1  0  0  0
 54 55  2  0  0  0
 54127  1  0  0  0
 55 57  1  0  0  0
 55128  1  0  0  0
 56 69  2  0  0  0
 57 58  2  0  0  0
 57129  1  0  0  0
 58130  1  0  0  0
 59 60  1  0  0  0
 59 61  1  0  0  0
 59 62  1  0  0  0
 60131  1  0  0  0
 60132  1  0  0  0
 60133  1  0  0  0
 61134  1  0  0  0
 61135  1  0  0  0
 61136  1  0  0  0
 62137  1  0  0  0
 62138  1  0  0  0
 62139  1  0  0  0
 63 65  1  0  0  0
 63140  1  0  0  0
 63141  1  0  0  0
 63142  1  0  0  0
 64143  1  0  0  0
 65144  1  0  0  0
 68 82  1  0  0  0
 71 72  2  0  0  0
 71 73  1  0  0  0
 71145  1  0  0  0
 72 74  1  0  0  0
 72146  1  0  0  0
 73 76  2  0  0  0
 73147  1  0  0  0
 74 75  2  0  0  0
 74 77  1  0  0  0
 75 76  1  0  0  0
 75 81  1  0  0  0
 76 83  1  0  0  0
 77 78  2  0  0  0
 77148  1  0  0  0
 78 79  1  0  0  0
 78 82  1  0  0  0
 79 84  1  0  0  0
 79 85  2  0  0  0
 80 81  1  0  0  0
 80149  1  0  0  0
 80150  1  0  0  0
 80151  1  0  0  0
 81152  1  0  0  0
 81153  1  0  0  0
 82154  1  0  0  0
 82155  1  0  0  0
 83156  1  0  0  0
M  CHG  1  84  -1
M  ISO  4   1 100  68 101  82 101  83 100
M  END
> <chiral flag>
0

> <version>
0

> <s_m_source_file>
/data/baiqing/PycharmProjects/Reinvent-master-3.2/result/LINK_invent/BTK/process_docking_weight1_custom_product_contain_oxygen_bond_distance_aromatic_linkinvent_7_9_3/rearranged_h_0057.sdf

> <i_m_source_file_index>
10

> <r_mmod_Potential_Energy-OPLS-2005>
464.272521972656

> <r_mmod_Stretch_Energy-OPLS-2005>
354.188354492188

> <r_mmod_Bend_Energy-OPLS-2005>
378.962066650391

> <r_mmod_Torsional_Energy-OPLS-2005>
208.087295532227

> <r_mmod_Improper_Torsional_Energy-OPLS-2005>
4.03628396987915

> <r_mmod_Van_der_Waal_Energy-OPLS-2005>
119.084907531738

> <r_mmod_Electrostatic_Energy-OPLS-2005>
-373.799407958984

> <r_mmod_Solvation_Energy-OPLS-2005>
-500.425537109375

> <b_mmod_Minimization_Converged-OPLS-2005>
0

> <r_mmod_RMS_Derivative-OPLS-2005>
1.98189067840576

$$$$
10
                    3D
 Structure written by MMmdl.
164172  0  0  1  0            999 V2000
  -30.6086  -14.7002   20.4657 C   0  0  0  0  0  0
  -30.4274  -12.4323   19.4394 C   0  0  0  0  0  0
  -29.4958  -12.4847   18.2109 C   0  0  0  0  0  0
  -28.0242  -12.3146   18.6372 C   0  0  0  0  0  0
  -27.6356  -13.2186   19.8377 C   0  0  2  0  0  0
  -28.6834  -13.1408   20.9658 C   0  0  0  0  0  0
  -25.2512  -13.8176   20.5687 C   0  0  0  0  0  0
  -24.1802  -13.0431   20.9226 C   0  0  0  0  0  0
  -24.6376  -11.6908   20.8760 C   0  0  0  0  0  0
  -23.9044  -10.4293   21.0421 C   0  0  0  0  0  0
  -24.3604   -9.4211   21.9196 C   0  0  0  0  0  0
  -23.6293   -8.2240   22.0754 C   0  0  0  0  0  0
  -22.4275   -8.0277   21.3541 C   0  0  0  0  0  0
  -21.9912   -9.0250   20.4641 C   0  0  0  0  0  0
  -22.7227  -10.2137   20.3061 C   0  0  0  0  0  0
  -21.6852   -6.0735   22.5279 C   0  0  0  0  0  0
  -21.4013   -6.5636   23.8211 C   0  0  0  0  0  0
  -21.3657   -5.6786   24.9176 C   0  0  0  0  0  0
  -21.6040   -4.3052   24.7229 C   0  0  0  0  0  0
  -21.8820   -3.8147   23.4348 C   0  0  0  0  0  0
  -21.9195   -4.6963   22.3404 C   0  0  0  0  0  0
  -22.7829  -13.5229   21.1885 C   0  0  0  0  0  0
  -22.1663   -4.2148   21.0985 F   0  0  0  0  0  0
  -21.5631   -3.4540   25.7741 F   0  0  0  0  0  0
  -29.9752  -13.4893   20.3661 N   0  0  0  0  0  0
  -26.2902  -12.9346   20.3222 N   0  0  0  0  0  0
  -25.9292  -11.6507   20.5734 N   0  0  0  0  0  0
  -22.0459  -12.8213   22.0428 N   0  0  0  0  0  0
  -25.4205  -15.1892   20.4095 N   0  0  0  0  0  0
  -31.8065  -14.7997   20.1847 O   0  0  0  0  0  0
  -21.6638   -6.8872   21.4241 O   0  0  0  0  0  0
  -22.3526  -14.5546   20.6739 O   0  0  0  0  0  0
  -24.6288  -31.8563   23.1980 C   0  0  0  0  0  0
  -25.9137  -32.4761   23.8310 C   0  0  1  0  0  0
  -27.2260  -27.2973   20.1021 C   0  0  0  0  0  0
  -25.5931  -33.8561   24.2232 N   0  0  0  0  0  0
  -23.4232  -30.4776   21.5403 C   0  0  2  0  0  0
  -24.8669  -28.9237   20.1072 C   0  0  0  0  0  0
  -22.7491  -29.4597   22.4906 C   0  0  0  0  0  0
  -18.0285  -28.1387   22.8465 C   0  0  0  0  0  0
  -24.1499  -36.7287   23.2639 C   0  0  0  0  0  0
  -25.9668  -30.7743   21.3769 C   0  0  0  0  0  0
  -26.0355  -29.4027   20.7118 C   0  0  0  0  0  0
  -27.2146  -28.5993   20.6980 C   0  0  0  0  0  0
  -26.0276  -26.8640   19.4901 C   0  0  0  0  0  0
  -24.8656  -27.6618   19.4879 C   0  0  0  0  0  0
  -23.6376  -29.8086   20.1569 C   0  0  0  0  0  0
  -25.4126  -36.3057   24.0317 C   0  0  1  0  0  0
  -20.5880  -28.3694   23.1254 C   0  0  2  0  0  0
  -20.6777  -26.9418   22.5388 C   0  0  0  0  0  0
  -19.5758  -26.6380   21.5191 C   0  0  0  0  0  0
  -18.1928  -26.7918   22.1599 C   0  0  0  0  0  0
  -19.1541  -28.8853   23.2843 C   0  0  0  0  0  0
  -18.9477  -30.1445   23.8868 C   0  0  0  0  0  0
  -17.6479  -30.6575   24.0565 C   0  0  0  0  0  0
  -25.9072  -34.9437   23.5074 C   0  0  0  0  0  0
  -16.5359  -29.9074   23.6333 C   0  0  0  0  0  0
  -16.7279  -28.6504   23.0343 C   0  0  0  0  0  0
  -26.4503  -31.6617   25.0729 C   0  0  0  0  0  0
  -25.3716  -31.3780   26.1445 C   0  0  0  0  0  0
  -27.0396  -30.3032   24.6272 C   0  0  0  0  0  0
  -27.6027  -32.4400   25.7503 C   0  0  0  0  0  0
  -27.5591  -37.1772   24.8451 C   0  0  0  0  0  0
  -21.4198  -29.3042   22.3662 N   0  0  0  0  0  0
  -26.4294  -37.3761   23.9419 N   0  0  0  0  0  0
  -24.6903  -31.0566   22.0937 N   0  0  0  0  0  0
  -23.4206  -28.8151   23.3005 O   0  0  0  0  0  0
  -28.3624  -26.4728   20.1672 O   0  0  0  0  0  0
  -26.5658  -34.8943   22.4655 O   0  0  0  0  0  0
  -23.5455  -32.1406   23.7299 O   0  0  0  0  0  0
  -30.9642  -17.1457   23.9339 C   0  0  0  0  0  0
  -30.9939  -18.5319   23.7882 C   0  0  0  0  0  0
  -30.5539  -16.3587   22.8593 C   0  0  0  0  0  0
  -30.5553  -19.1386   22.5952 C   0  0  0  0  0  0
  -30.0181  -18.3747   21.4999 C   0  0  0  0  0  0
  -30.1372  -16.9037   21.6144 C   0  0  0  0  0  0
  -28.5393  -22.5469   20.1338 C   0  0  0  0  0  0
  -28.0522  -23.8458   20.2434 C   0  0  0  0  0  0
  -30.7609  -20.5911   22.5585 C   0  0  0  0  0  0
  -27.9045  -21.4287   20.8977 C   0  0  0  0  0  0
  -26.9961  -19.1760   20.8125 C   0  0  0  0  0  0
  -29.3764  -19.2230   20.3184 C   0  0  0  0  0  0
  -28.4707  -25.1567   19.4839 C   0  0  0  0  0  0
  -30.2211  -21.3763   23.4875 N   0  0  0  0  0  0
  -29.8377  -15.8379   20.6591 N   0  0  0  0  0  0
  -28.1574  -20.0727   20.6484 N   0  0  0  0  0  0
  -31.5241  -21.1393   21.6171 N   0  3  0  0  0  0
  -27.0089  -21.7097   21.7036 O   0  0  0  0  0  0
  -31.4646  -12.5674   19.1279 H   0  0  0  0  0  0
  -30.3827  -11.4541   19.9212 H   0  0  0  0  0  0
  -29.7684  -11.7047   17.4987 H   0  0  0  0  0  0
  -29.6212  -13.4341   17.6887 H   0  0  0  0  0  0
  -27.8837  -11.2679   18.9074 H   0  0  0  0  0  0
  -27.3613  -12.5019   17.7919 H   0  0  0  0  0  0
  -27.6315  -14.2394   19.4549 H   0  0  0  0  0  0
  -28.7172  -12.1417   21.4020 H   0  0  0  0  0  0
  -28.4288  -13.8250   21.7774 H   0  0  0  0  0  0
  -25.2745   -9.5695   22.4769 H   0  0  0  0  0  0
  -24.0006   -7.4628   22.7470 H   0  0  0  0  0  0
  -21.0841   -8.8761   19.8940 H   0  0  0  0  0  0
  -22.3683  -10.9675   19.6173 H   0  0  0  0  0  0
  -21.1996   -7.6145   23.9715 H   0  0  0  0  0  0
  -21.1478   -6.0521   25.9077 H   0  0  0  0  0  0
  -22.0600   -2.7608   23.2852 H   0  0  0  0  0  0
  -22.4080  -11.9876   22.4803 H   0  0  0  0  0  0
  -21.1075  -13.1232   22.2613 H   0  0  0  0  0  0
  -24.6467  -15.8343   20.5153 H   0  0  0  0  0  0
  -26.2486  -15.6262   20.0291 H   0  0  0  0  0  0
  -26.7218  -32.5406   23.1052 H   0  0  0  0  0  0
  -25.0058  -33.9686   25.0366 H   0  0  0  0  0  0
  -22.7182  -31.2983   21.3951 H   0  0  0  0  0  0
  -23.3770  -35.9607   23.3289 H   0  0  0  0  0  0
  -24.3578  -36.8954   22.2056 H   0  0  0  0  0  0
  -23.7240  -37.6472   23.6704 H   0  0  0  0  0  0
  -26.1200  -31.5450   20.6194 H   0  0  0  0  0  0
  -26.8388  -30.8056   22.0211 H   0  0  0  0  0  0
  -28.1157  -28.9619   21.1751 H   0  0  0  0  0  0
  -25.9581  -25.8880   19.0357 H   0  0  0  0  0  0
  -23.9672  -27.2855   19.0161 H   0  0  0  0  0  0
  -23.7557  -30.5839   19.3979 H   0  0  0  0  0  0
  -22.7568  -29.2368   19.8579 H   0  0  0  0  0  0
  -25.1295  -36.1902   25.0799 H   0  0  0  0  0  0
  -20.9962  -28.3305   24.1375 H   0  0  0  0  0  0
  -20.5673  -26.2313   23.3601 H   0  0  0  0  0  0
  -21.6649  -26.7445   22.1182 H   0  0  0  0  0  0
  -19.6949  -25.6287   21.1243 H   0  0  0  0  0  0
  -19.6718  -27.3181   20.6709 H   0  0  0  0  0  0
  -17.4201  -26.6661   21.4004 H   0  0  0  0  0  0
  -18.0329  -26.0061   22.8982 H   0  0  0  0  0  0
  -19.7969  -30.7235   24.2250 H   0  0  0  0  0  0
  -17.5054  -31.6261   24.5167 H   0  0  0  0  0  0
  -15.5370  -30.2971   23.7690 H   0  0  0  0  0  0
  -15.8676  -28.0829   22.7054 H   0  0  0  0  0  0
  -24.5844  -30.7203   25.7757 H   0  0  0  0  0  0
  -24.8964  -32.2965   26.4899 H   0  0  0  0  0  0
  -25.7994  -30.8912   27.0217 H   0  0  0  0  0  0
  -26.3022  -29.6707   24.1321 H   0  0  0  0  0  0
  -27.4091  -29.7364   25.4829 H   0  0  0  0  0  0
  -27.8877  -30.4296   23.9543 H   0  0  0  0  0  0
  -27.2597  -33.3711   26.2032 H   0  0  0  0  0  0
  -28.3833  -32.6967   25.0323 H   0  0  0  0  0  0
  -28.0700  -31.8577   26.5457 H   0  0  0  0  0  0
  -28.2541  -38.0129   24.7551 H   0  0  0  0  0  0
  -28.1144  -36.2649   24.6199 H   0  0  0  0  0  0
  -27.2307  -37.1315   25.8852 H   0  0  0  0  0  0
  -20.9416  -29.8754   21.6837 H   0  0  0  0  0  0
  -26.0186  -38.2837   24.1450 H   0  0  0  0  0  0
  -31.2882  -16.6777   24.8528 H   0  0  0  0  0  0
  -31.3782  -19.1287   24.6058 H   0  0  0  0  0  0
  -30.5677  -15.2906   23.0229 H   0  0  0  0  0  0
  -29.3664  -22.3364   19.4719 H   0  0  0  0  0  0
  -27.2219  -24.0249   20.9137 H   0  0  0  0  0  0
  -26.4482  -19.3494   21.7408 H   0  0  0  0  0  0
  -27.2645  -18.1185   20.8125 H   0  0  0  0  0  0
  -26.3000  -19.3256   19.9837 H   0  0  0  0  0  0
  -29.1023  -18.5247   19.5254 H   0  0  0  0  0  0
  -30.1303  -19.8542   19.8508 H   0  0  0  0  0  0
  -27.9392  -25.1888   18.5331 H   0  0  0  0  0  0
  -29.5166  -25.0355   19.1977 H   0  0  0  0  0  0
  -29.6598  -20.9592   24.2168 H   0  0  0  0  0  0
  -30.3504  -22.3742   23.5063 H   0  0  0  0  0  0
  -28.8552  -15.7060   20.4771 H   0  0  0  0  0  0
  -32.0479  -20.5257   21.0102 H   0  0  0  0  0  0
  -31.7636  -22.1171   21.6159 H   0  0  0  0  0  0
  1 25  1  0  0  0
  1 30  2  0  0  0
  1 85  1  0  0  0
  2  3  1  0  0  0
  2 25  1  0  0  0
  2 89  1  0  0  0
  2 90  1  0  0  0
  3  4  1  0  0  0
  3 91  1  0  0  0
  3 92  1  0  0  0
  4  5  1  0  0  0
  4 93  1  0  0  0
  4 94  1  0  0  0
  5  6  1  0  0  0
  5 26  1  0  0  0
  5 95  1  0  0  0
  6 25  1  0  0  0
  6 96  1  0  0  0
  6 97  1  0  0  0
  7  8  2  0  0  0
  7 26  1  0  0  0
  7 29  1  0  0  0
  8  9  1  0  0  0
  8 22  1  0  0  0
  9 10  1  0  0  0
  9 27  2  0  0  0
 10 11  2  0  0  0
 10 15  1  0  0  0
 11 12  1  0  0  0
 11 98  1  0  0  0
 12 13  2  0  0  0
 12 99  1  0  0  0
 13 14  1  0  0  0
 13 31  1  0  0  0
 14 15  2  0  0  0
 14100  1  0  0  0
 15101  1  0  0  0
 16 17  2  0  0  0
 16 21  1  0  0  0
 16 31  1  0  0  0
 17 18  1  0  0  0
 17102  1  0  0  0
 18 19  2  0  0  0
 18103  1  0  0  0
 19 20  1  0  0  0
 19 24  1  0  0  0
 20 21  2  0  0  0
 20104  1  0  0  0
 21 23  1  0  0  0
 22 28  1  0  0  0
 22 32  2  0  0  0
 26 27  1  0  0  0
 28105  1  0  0  0
 28106  1  0  0  0
 29107  1  0  0  0
 29108  1  0  0  0
 33 34  1  0  0  0
 33 66  1  0  0  0
 33 70  2  0  0  0
 34 36  1  0  0  0
 34 59  1  0  0  0
 34109  1  0  0  0
 35 44  2  0  0  0
 35 45  1  0  0  0
 35 68  1  0  0  0
 36 56  1  0  0  0
 36110  1  0  0  0
 37 39  1  0  0  0
 37 47  1  0  0  0
 37 66  1  0  0  0
 37111  1  0  0  0
 38 43  2  0  0  0
 38 46  1  0  0  0
 38 47  1  0  0  0
 39 64  1  0  0  0
 39 67  2  0  0  0
 40 52  1  0  0  0
 40 53  2  0  0  0
 40 58  1  0  0  0
 41112  1  0  0  0
 41113  1  0  0  0
 41114  1  0  0  0
 41 48  1  0  0  0
 42 43  1  0  0  0
 42 66  1  0  0  0
 42115  1  0  0  0
 42116  1  0  0  0
 43 44  1  0  0  0
 44117  1  0  0  0
 45 46  2  0  0  0
 45118  1  0  0  0
 46119  1  0  0  0
 47120  1  0  0  0
 47121  1  0  0  0
 48 56  1  0  0  0
 48 65  1  0  0  0
 48122  1  0  0  0
 49 50  1  0  0  0
 49 53  1  0  0  0
 49 64  1  0  0  0
 49123  1  0  0  0
 50 51  1  0  0  0
 50124  1  0  0  0
 50125  1  0  0  0
 51 52  1  0  0  0
 51126  1  0  0  0
 51127  1  0  0  0
 52128  1  0  0  0
 52129  1  0  0  0
 53 54  1  0  0  0
 54 55  2  0  0  0
 54130  1  0  0  0
 55 57  1  0  0  0
 55131  1  0  0  0
 56 69  2  0  0  0
 57 58  2  0  0  0
 57132  1  0  0  0
 58133  1  0  0  0
 59 60  1  0  0  0
 59 61  1  0  0  0
 59 62  1  0  0  0
 60134  1  0  0  0
 60135  1  0  0  0
 60136  1  0  0  0
 61137  1  0  0  0
 61138  1  0  0  0
 61139  1  0  0  0
 62140  1  0  0  0
 62141  1  0  0  0
 62142  1  0  0  0
 63 65  1  0  0  0
 63143  1  0  0  0
 63144  1  0  0  0
 63145  1  0  0  0
 64146  1  0  0  0
 65147  1  0  0  0
 68 83  1  0  0  0
 71 72  2  0  0  0
 71 73  1  0  0  0
 71148  1  0  0  0
 72 74  1  0  0  0
 72149  1  0  0  0
 73 76  2  0  0  0
 73150  1  0  0  0
 74 75  2  0  0  0
 74 79  1  0  0  0
 75 76  1  0  0  0
 75 82  1  0  0  0
 76 85  1  0  0  0
 77 78  2  0  0  0
 77 80  1  0  0  0
 77151  1  0  0  0
 78 83  1  0  0  0
 78152  1  0  0  0
 79 84  1  0  0  0
 79 87  2  0  0  0
 80 86  1  0  0  0
 80 88  2  0  0  0
 81 86  1  0  0  0
 81153  1  0  0  0
 81154  1  0  0  0
 81155  1  0  0  0
 82 86  1  0  0  0
 82156  1  0  0  0
 82157  1  0  0  0
 83158  1  0  0  0
 83159  1  0  0  0
 84160  1  0  0  0
 84161  1  0  0  0
 85162  1  0  0  0
 87163  1  0  0  0
 87164  1  0  0  0
M  CHG  1  87   1
M  ISO  4   1 100  68 101  83 101  85 100
M  END
> <chiral flag>
0

> <version>
0

> <s_m_source_file>
/data/baiqing/PycharmProjects/Reinvent-master-3.2/result/LINK_invent/BTK/process_docking_weight1_custom_product_contain_oxygen_bond_distance_aromatic_linkinvent_7_9_3/rearranged_h_0057.sdf

> <i_m_source_file_index>
11

> <r_mmod_Potential_Energy-OPLS-2005>
-65.9003677368164

> <r_mmod_Stretch_Energy-OPLS-2005>
116.044975280762

> <r_mmod_Bend_Energy-OPLS-2005>
205.658401489258

> <r_mmod_Torsional_Energy-OPLS-2005>
288.406829833984

> <r_mmod_Improper_Torsional_Energy-OPLS-2005>
9.71448802947998

> <r_mmod_Van_der_Waal_Energy-OPLS-2005>
159.575378417969

> <r_mmod_Electrostatic_Energy-OPLS-2005>
-453.560333251953

> <r_mmod_Solvation_Energy-OPLS-2005>
-459.309631347656

> <b_mmod_Minimization_Converged-OPLS-2005>
0

> <r_mmod_RMS_Derivative-OPLS-2005>
3.06373691558838

$$$$
11
                    3D
 Structure written by MMmdl.
161170  0  0  1  0            999 V2000
  -30.7017  -14.6028   20.5270 C   0  0  0  0  0  0
  -30.4116  -12.3772   19.4635 C   0  0  0  0  0  0
  -29.5025  -12.5128   18.2268 C   0  0  0  0  0  0
  -28.0240  -12.3640   18.6301 C   0  0  0  0  0  0
  -27.6487  -13.2312   19.8628 C   0  0  2  0  0  0
  -28.6918  -13.1157   20.9978 C   0  0  0  0  0  0
  -25.2512  -13.8206   20.5683 C   0  0  0  0  0  0
  -24.1806  -13.0454   20.9181 C   0  0  0  0  0  0
  -24.6393  -11.6930   20.8725 C   0  0  0  0  0  0
  -23.9058  -10.4303   21.0373 C   0  0  0  0  0  0
  -24.3618   -9.4220   21.9151 C   0  0  0  0  0  0
  -23.6303   -8.2251   22.0732 C   0  0  0  0  0  0
  -22.4280   -8.0273   21.3525 C   0  0  0  0  0  0
  -21.9906   -9.0242   20.4625 C   0  0  0  0  0  0
  -22.7228  -10.2124   20.3024 C   0  0  0  0  0  0
  -21.6858   -6.0728   22.5268 C   0  0  0  0  0  0
  -21.4032   -6.5634   23.8201 C   0  0  0  0  0  0
  -21.3671   -5.6780   24.9161 C   0  0  0  0  0  0
  -21.6047   -4.3041   24.7212 C   0  0  0  0  0  0
  -21.8820   -3.8135   23.4331 C   0  0  0  0  0  0
  -21.9205   -4.6955   22.3393 C   0  0  0  0  0  0
  -22.7816  -13.5207   21.1848 C   0  0  0  0  0  0
  -22.1658   -4.2142   21.0962 F   0  0  0  0  0  0
  -21.5637   -3.4523   25.7724 F   0  0  0  0  0  0
  -30.0070  -13.4251   20.4241 N   0  0  0  0  0  0
  -26.2964  -12.9435   20.3320 N   0  0  0  0  0  0
  -25.9335  -11.6565   20.5750 N   0  0  0  0  0  0
  -22.0483  -12.8193   22.0412 N   0  0  0  0  0  0
  -25.4186  -15.1936   20.4086 N   0  0  0  0  0  0
  -31.8600  -14.6723   20.1109 O   0  0  0  0  0  0
  -21.6645   -6.8869   21.4227 O   0  0  0  0  0  0
  -22.3498  -14.5524   20.6706 O   0  0  0  0  0  0
  -24.6291  -31.8612   23.2085 C   0  0  0  0  0  0
  -25.9131  -32.4789   23.8394 C   0  0  1  0  0  0
  -27.2030  -27.3088   20.0962 C   0  0  0  0  0  0
  -25.5958  -33.8592   24.2332 N   0  0  0  0  0  0
  -23.4220  -30.4955   21.5501 C   0  0  2  0  0  0
  -24.8643  -28.9674   20.1049 C   0  0  0  0  0  0
  -22.7491  -29.4656   22.4905 C   0  0  0  0  0  0
  -18.0302  -28.1376   22.8511 C   0  0  0  0  0  0
  -24.1478  -36.7278   23.2636 C   0  0  0  0  0  0
  -25.9700  -30.7866   21.3855 C   0  0  0  0  0  0
  -26.0376  -29.4182   20.7225 C   0  0  0  0  0  0
  -27.2100  -28.5979   20.7200 C   0  0  0  0  0  0
  -26.0088  -26.9547   19.4130 C   0  0  0  0  0  0
  -24.8539  -27.7409   19.4393 C   0  0  0  0  0  0
  -23.6382  -29.8471   20.1608 C   0  0  0  0  0  0
  -25.4097  -36.3094   24.0345 C   0  0  1  0  0  0
  -20.5904  -28.3700   23.1269 C   0  0  2  0  0  0
  -20.6792  -26.9421   22.5397 C   0  0  0  0  0  0
  -19.5757  -26.6393   21.5215 C   0  0  0  0  0  0
  -18.1943  -26.7927   22.1636 C   0  0  0  0  0  0
  -19.1551  -28.8851   23.2901 C   0  0  0  0  0  0
  -18.9471  -30.1456   23.8925 C   0  0  0  0  0  0
  -17.6467  -30.6581   24.0577 C   0  0  0  0  0  0
  -25.9043  -34.9463   23.5134 C   0  0  0  0  0  0
  -16.5363  -29.9083   23.6329 C   0  0  0  0  0  0
  -16.7292  -28.6491   23.0379 C   0  0  0  0  0  0
  -26.4511  -31.6562   25.0736 C   0  0  0  0  0  0
  -25.3760  -31.3647   26.1459 C   0  0  0  0  0  0
  -27.0321  -30.2989   24.6132 C   0  0  0  0  0  0
  -27.6104  -32.4250   25.7500 C   0  0  0  0  0  0
  -27.5573  -37.1800   24.8483 C   0  0  0  0  0  0
  -21.4201  -29.3063   22.3655 N   0  0  0  0  0  0
  -26.4277  -37.3788   23.9429 N   0  0  0  0  0  0
  -24.6935  -31.0619   22.1057 N   0  0  0  0  0  0
  -23.4218  -28.8160   23.2950 O   0  0  0  0  0  0
  -28.2706  -26.3841   20.1745 O   0  0  0  0  0  0
  -26.5598  -34.8934   22.4687 O   0  0  0  0  0  0
  -23.5444  -32.1424   23.7392 O   0  0  0  0  0  0
  -32.4923  -18.5118   21.6791 C   0  0  0  0  0  0
  -31.9063  -17.2453   21.5308 C   0  0  0  0  0  0
  -29.8288  -18.3072   20.8403 C   0  0  0  0  0  0
  -31.7712  -19.6914   21.4062 C   0  0  0  0  0  0
  -30.4109  -19.6198   21.0031 C   0  0  0  0  0  0
  -30.5755  -17.0924   21.0745 C   0  0  0  0  0  0
  -29.1169  -21.5862   21.7715 C   0  0  0  0  0  0
  -28.7282  -23.0937   21.6061 C   0  0  0  0  0  0
  -29.7596  -23.0561   19.3289 C   0  0  0  0  0  0
  -29.8350  -21.4928   19.4067 C   0  0  0  0  0  0
  -28.5687  -23.5736   20.1464 C   0  0  2  0  0  0
  -32.4936  -21.0250   21.5542 C   0  0  0  0  0  0
  -27.9054  -24.9877   19.8192 C   0  0  0  0  0  0
  -29.7108  -20.8846   20.7544 N   0  0  0  0  0  0
  -30.0286  -15.7403   20.9053 N   0  0  0  0  0  0
  -28.8810  -21.0644   22.8666 O   0  0  0  0  0  0
  -31.4601  -12.4524   19.1724 H   0  0  0  0  0  0
  -30.3003  -11.3909   19.9163 H   0  0  0  0  0  0
  -29.7653  -11.7628   17.4797 H   0  0  0  0  0  0
  -29.6631  -13.4850   17.7572 H   0  0  0  0  0  0
  -27.8466  -11.3092   18.8453 H   0  0  0  0  0  0
  -27.3802  -12.6152   17.7867 H   0  0  0  0  0  0
  -27.6613  -14.2659   19.5210 H   0  0  0  0  0  0
  -28.6931  -12.1108   21.4225 H   0  0  0  0  0  0
  -28.4473  -13.7931   21.8168 H   0  0  0  0  0  0
  -25.2766   -9.5709   22.4716 H   0  0  0  0  0  0
  -24.0019   -7.4643   22.7450 H   0  0  0  0  0  0
  -21.0846   -8.8750   19.8926 H   0  0  0  0  0  0
  -22.3674  -10.9658   19.6132 H   0  0  0  0  0  0
  -21.2022   -7.6138   23.9705 H   0  0  0  0  0  0
  -21.1496   -6.0501   25.9060 H   0  0  0  0  0  0
  -22.0599   -2.7598   23.2824 H   0  0  0  0  0  0
  -22.4125  -11.9892   22.4843 H   0  0  0  0  0  0
  -21.1080  -13.1173   22.2601 H   0  0  0  0  0  0
  -24.6492  -15.8450   20.5137 H   0  0  0  0  0  0
  -26.2673  -15.6361   20.0820 H   0  0  0  0  0  0
  -26.7199  -32.5461   23.1145 H   0  0  0  0  0  0
  -25.0199  -33.9736   25.0537 H   0  0  0  0  0  0
  -22.7190  -31.3192   21.4102 H   0  0  0  0  0  0
  -23.3749  -35.9605   23.3313 H   0  0  0  0  0  0
  -24.3581  -36.8863   22.2048 H   0  0  0  0  0  0
  -23.7206  -37.6485   23.6623 H   0  0  0  0  0  0
  -26.1034  -31.5501   20.6175 H   0  0  0  0  0  0
  -26.8543  -30.8314   22.0102 H   0  0  0  0  0  0
  -28.1013  -28.9310   21.2345 H   0  0  0  0  0  0
  -25.9069  -26.0440   18.8446 H   0  0  0  0  0  0
  -23.9637  -27.4009   18.9277 H   0  0  0  0  0  0
  -23.7623  -30.6305   19.4117 H   0  0  0  0  0  0
  -22.7597  -29.2798   19.8511 H   0  0  0  0  0  0
  -25.1255  -36.1975   25.0836 H   0  0  0  0  0  0
  -21.0030  -28.3275   24.1371 H   0  0  0  0  0  0
  -20.5704  -26.2305   23.3596 H   0  0  0  0  0  0
  -21.6658  -26.7449   22.1172 H   0  0  0  0  0  0
  -19.6925  -25.6311   21.1235 H   0  0  0  0  0  0
  -19.6691  -27.3222   20.6759 H   0  0  0  0  0  0
  -17.4212  -26.6717   21.4044 H   0  0  0  0  0  0
  -18.0341  -26.0049   22.9005 H   0  0  0  0  0  0
  -19.7947  -30.7271   24.2321 H   0  0  0  0  0  0
  -17.5017  -31.6275   24.5158 H   0  0  0  0  0  0
  -15.5368  -30.3001   23.7607 H   0  0  0  0  0  0
  -15.8699  -28.0803   22.7100 H   0  0  0  0  0  0
  -24.6032  -30.6872   25.7798 H   0  0  0  0  0  0
  -24.8830  -32.2767   26.4842 H   0  0  0  0  0  0
  -25.8126  -30.8908   27.0259 H   0  0  0  0  0  0
  -26.2868  -29.6774   24.1152 H   0  0  0  0  0  0
  -27.4035  -29.7189   25.4588 H   0  0  0  0  0  0
  -27.8744  -30.4272   23.9328 H   0  0  0  0  0  0
  -27.2783  -33.3586   26.2045 H   0  0  0  0  0  0
  -28.3945  -32.6720   25.0331 H   0  0  0  0  0  0
  -28.0724  -31.8360   26.5440 H   0  0  0  0  0  0
  -28.2604  -38.0086   24.7526 H   0  0  0  0  0  0
  -28.1057  -36.2624   24.6306 H   0  0  0  0  0  0
  -27.2304  -37.1435   25.8891 H   0  0  0  0  0  0
  -20.9371  -29.8817   21.6900 H   0  0  0  0  0  0
  -26.0169  -38.2870   24.1429 H   0  0  0  0  0  0
  -33.5225  -18.5691   22.0014 H   0  0  0  0  0  0
  -32.5190  -16.3862   21.7653 H   0  0  0  0  0  0
  -28.8017  -18.2342   20.5150 H   0  0  0  0  0  0
  -29.4908  -23.6898   22.1073 H   0  0  0  0  0  0
  -27.7981  -23.2736   22.1474 H   0  0  0  0  0  0
  -29.6558  -23.3559   18.2849 H   0  0  0  0  0  0
  -30.6898  -23.4982   19.6892 H   0  0  0  0  0  0
  -30.7612  -21.1595   18.9421 H   0  0  0  0  0  0
  -29.0350  -21.0695   18.7973 H   0  0  0  0  0  0
  -27.7659  -22.9271   19.7837 H   0  0  0  0  0  0
  -31.9677  -21.6981   22.2309 H   0  0  0  0  0  0
  -32.5901  -21.5213   20.5876 H   0  0  0  0  0  0
  -33.4992  -20.8891   21.9511 H   0  0  0  0  0  0
  -26.9197  -24.8208   20.2562 H   0  0  0  0  0  0
  -27.7849  -24.9977   18.7340 H   0  0  0  0  0  0
  -29.0372  -15.6268   21.0549 H   0  0  0  0  0  0
  1 25  1  0  0  0
  1 30  2  0  0  0
  1 85  1  0  0  0
  2  3  1  0  0  0
  2 25  1  0  0  0
  2 87  1  0  0  0
  2 88  1  0  0  0
  3  4  1  0  0  0
  3 89  1  0  0  0
  3 90  1  0  0  0
  4  5  1  0  0  0
  4 91  1  0  0  0
  4 92  1  0  0  0
  5  6  1  0  0  0
  5 26  1  0  0  0
  5 93  1  0  0  0
  6 25  1  0  0  0
  6 94  1  0  0  0
  6 95  1  0  0  0
  7  8  2  0  0  0
  7 26  1  0  0  0
  7 29  1  0  0  0
  8  9  1  0  0  0
  8 22  1  0  0  0
  9 10  1  0  0  0
  9 27  2  0  0  0
 10 11  2  0  0  0
 10 15  1  0  0  0
 11 12  1  0  0  0
 11 96  1  0  0  0
 12 13  2  0  0  0
 12 97  1  0  0  0
 13 14  1  0  0  0
 13 31  1  0  0  0
 14 15  2  0  0  0
 14 98  1  0  0  0
 15 99  1  0  0  0
 16 17  2  0  0  0
 16 21  1  0  0  0
 16 31  1  0  0  0
 17 18  1  0  0  0
 17100  1  0  0  0
 18 19  2  0  0  0
 18101  1  0  0  0
 19 20  1  0  0  0
 19 24  1  0  0  0
 20 21  2  0  0  0
 20102  1  0  0  0
 21 23  1  0  0  0
 22 28  1  0  0  0
 22 32  2  0  0  0
 26 27  1  0  0  0
 28103  1  0  0  0
 28104  1  0  0  0
 29105  1  0  0  0
 29106  1  0  0  0
 33 34  1  0  0  0
 33 66  1  0  0  0
 33 70  2  0  0  0
 34 36  1  0  0  0
 34 59  1  0  0  0
 34107  1  0  0  0
 35 44  2  0  0  0
 35 45  1  0  0  0
 35 68  1  0  0  0
 36 56  1  0  0  0
 36108  1  0  0  0
 37 39  1  0  0  0
 37 47  1  0  0  0
 37 66  1  0  0  0
 37109  1  0  0  0
 38 43  2  0  0  0
 38 46  1  0  0  0
 38 47  1  0  0  0
 39 64  1  0  0  0
 39 67  2  0  0  0
 40 52  1  0  0  0
 40 53  2  0  0  0
 40 58  1  0  0  0
 41110  1  0  0  0
 41111  1  0  0  0
 41112  1  0  0  0
 41 48  1  0  0  0
 42 43  1  0  0  0
 42 66  1  0  0  0
 42113  1  0  0  0
 42114  1  0  0  0
 43 44  1  0  0  0
 44115  1  0  0  0
 45 46  2  0  0  0
 45116  1  0  0  0
 46117  1  0  0  0
 47118  1  0  0  0
 47119  1  0  0  0
 48 56  1  0  0  0
 48 65  1  0  0  0
 48120  1  0  0  0
 49 50  1  0  0  0
 49 53  1  0  0  0
 49 64  1  0  0  0
 49121  1  0  0  0
 50 51  1  0  0  0
 50122  1  0  0  0
 50123  1  0  0  0
 51 52  1  0  0  0
 51124  1  0  0  0
 51125  1  0  0  0
 52126  1  0  0  0
 52127  1  0  0  0
 53 54  1  0  0  0
 54 55  2  0  0  0
 54128  1  0  0  0
 55 57  1  0  0  0
 55129  1  0  0  0
 56 69  2  0  0  0
 57 58  2  0  0  0
 57130  1  0  0  0
 58131  1  0  0  0
 59 60  1  0  0  0
 59 61  1  0  0  0
 59 62  1  0  0  0
 60132  1  0  0  0
 60133  1  0  0  0
 60134  1  0  0  0
 61135  1  0  0  0
 61136  1  0  0  0
 61137  1  0  0  0
 62138  1  0  0  0
 62139  1  0  0  0
 62140  1  0  0  0
 63 65  1  0  0  0
 63141  1  0  0  0
 63142  1  0  0  0
 63143  1  0  0  0
 64144  1  0  0  0
 65145  1  0  0  0
 68 83  1  0  0  0
 71 72  2  0  0  0
 71 74  1  0  0  0
 71146  1  0  0  0
 72 76  1  0  0  0
 72147  1  0  0  0
 73 75  1  0  0  0
 73 76  2  0  0  0
 73148  1  0  0  0
 74 75  2  0  0  0
 74 82  1  0  0  0
 75 84  1  0  0  0
 76 85  1  0  0  0
 77 78  1  0  0  0
 77 84  1  0  0  0
 77 86  2  0  0  0
 78 81  1  0  0  0
 78149  1  0  0  0
 78150  1  0  0  0
 79 80  1  0  0  0
 79 81  1  0  0  0
 79151  1  0  0  0
 79152  1  0  0  0
 80 84  1  0  0  0
 80153  1  0  0  0
 80154  1  0  0  0
 81 83  1  0  0  0
 81155  1  0  0  0
 82156  1  0  0  0
 82157  1  0  0  0
 82158  1  0  0  0
 83159  1  0  0  0
 83160  1  0  0  0
 85161  1  0  0  0
M  ISO  4   1 100  68 101  83 101  85 100
M  END
> <chiral flag>
0

> <version>
0

> <s_m_source_file>
/data/baiqing/PycharmProjects/Reinvent-master-3.2/result/LINK_invent/BTK/process_docking_weight1_custom_product_contain_oxygen_bond_distance_aromatic_linkinvent_7_9_3/rearranged_h_0057.sdf

> <i_m_source_file_index>
12

> <r_mmod_Potential_Energy-OPLS-2005>
225.48664855957

> <r_mmod_Stretch_Energy-OPLS-2005>
87.0697784423828

> <r_mmod_Bend_Energy-OPLS-2005>
185.146453857422

> <r_mmod_Torsional_Energy-OPLS-2005>
297.887847900391

> <r_mmod_Improper_Torsional_Energy-OPLS-2005>
4.62532138824463

> <r_mmod_Van_der_Waal_Energy-OPLS-2005>
174.429870605469

> <r_mmod_Electrostatic_Energy-OPLS-2005>
-352.691833496094

> <r_mmod_Solvation_Energy-OPLS-2005>
-225.467697143555

> <b_mmod_Minimization_Converged-OPLS-2005>
0

> <r_mmod_RMS_Derivative-OPLS-2005>
2.5349268913269

$$$$
12
                    3D
 Structure written by MMmdl.
164173  0  0  1  0            999 V2000
  -30.7421  -14.4924   20.6069 C   0  0  0  0  0  0
  -30.4180  -12.3352   19.4397 C   0  0  0  0  0  0
  -29.4960  -12.4966   18.2169 C   0  0  0  0  0  0
  -28.0214  -12.3436   18.6344 C   0  0  0  0  0  0
  -27.6564  -13.2134   19.8657 C   0  0  2  0  0  0
  -28.6961  -13.0473   20.9963 C   0  0  0  0  0  0
  -25.2578  -13.8197   20.5695 C   0  0  0  0  0  0
  -24.1824  -13.0445   20.9169 C   0  0  0  0  0  0
  -24.6392  -11.6922   20.8729 C   0  0  0  0  0  0
  -23.9063  -10.4288   21.0396 C   0  0  0  0  0  0
  -24.3605   -9.4209   21.9187 C   0  0  0  0  0  0
  -23.6275   -8.2249   22.0760 C   0  0  0  0  0  0
  -22.4270   -8.0277   21.3542 C   0  0  0  0  0  0
  -21.9913   -9.0243   20.4642 C   0  0  0  0  0  0
  -22.7237  -10.2127   20.3038 C   0  0  0  0  0  0
  -21.6851   -6.0730   22.5272 C   0  0  0  0  0  0
  -21.4016   -6.5638   23.8207 C   0  0  0  0  0  0
  -21.3656   -5.6794   24.9171 C   0  0  0  0  0  0
  -21.6036   -4.3049   24.7233 C   0  0  0  0  0  0
  -21.8818   -3.8141   23.4346 C   0  0  0  0  0  0
  -21.9199   -4.6959   22.3397 C   0  0  0  0  0  0
  -22.7841  -13.5227   21.1830 C   0  0  0  0  0  0
  -22.1658   -4.2145   21.0976 F   0  0  0  0  0  0
  -21.5632   -3.4530   25.7745 F   0  0  0  0  0  0
  -30.0262  -13.3437   20.4398 N   0  0  0  0  0  0
  -26.2988  -12.9359   20.3320 N   0  0  0  0  0  0
  -25.9317  -11.6511   20.5739 N   0  0  0  0  0  0
  -22.0484  -12.8199   22.0385 N   0  0  0  0  0  0
  -25.4323  -15.1909   20.4179 N   0  0  0  0  0  0
  -31.8442  -14.6571   20.0798 O   0  0  0  0  0  0
  -21.6628   -6.8876   21.4231 O   0  0  0  0  0  0
  -22.3526  -14.5527   20.6692 O   0  0  0  0  0  0
  -24.6143  -31.8696   23.2099 C   0  0  0  0  0  0
  -25.9034  -32.4841   23.8399 C   0  0  1  0  0  0
  -27.2460  -27.4328   20.0992 C   0  0  0  0  0  0
  -25.5850  -33.8633   24.2317 N   0  0  0  0  0  0
  -23.4051  -30.4890   21.5504 C   0  0  2  0  0  0
  -24.8582  -28.9548   20.1115 C   0  0  0  0  0  0
  -22.7427  -29.4652   22.5005 C   0  0  0  0  0  0
  -18.0264  -28.1371   22.8484 C   0  0  0  0  0  0
  -24.1480  -36.7307   23.2639 C   0  0  0  0  0  0
  -25.9357  -30.8299   21.3712 C   0  0  0  0  0  0
  -26.0178  -29.4662   20.7111 C   0  0  0  0  0  0
  -27.2157  -28.7106   20.7039 C   0  0  0  0  0  0
  -26.0733  -26.9394   19.4915 C   0  0  0  0  0  0
  -24.8816  -27.6901   19.4952 C   0  0  0  0  0  0
  -23.6184  -29.8208   20.1655 C   0  0  0  0  0  0
  -25.4101  -36.3108   24.0328 C   0  0  1  0  0  0
  -20.5852  -28.3664   23.1315 C   0  0  2  0  0  0
  -20.6756  -26.9403   22.5419 C   0  0  0  0  0  0
  -19.5750  -26.6383   21.5200 C   0  0  0  0  0  0
  -18.1914  -26.7918   22.1585 C   0  0  0  0  0  0
  -19.1511  -28.8835   23.2889 C   0  0  0  0  0  0
  -18.9451  -30.1429   23.8913 C   0  0  0  0  0  0
  -17.6469  -30.6592   24.0564 C   0  0  0  0  0  0
  -25.9026  -34.9486   23.5130 C   0  0  0  0  0  0
  -16.5357  -29.9100   23.6329 C   0  0  0  0  0  0
  -16.7250  -28.6504   23.0368 C   0  0  0  0  0  0
  -26.4466  -31.6612   25.0736 C   0  0  0  0  0  0
  -25.3711  -31.3687   26.1466 C   0  0  0  0  0  0
  -27.0363  -30.3074   24.6104 C   0  0  0  0  0  0
  -27.6022  -32.4373   25.7500 C   0  0  0  0  0  0
  -27.5572  -37.1804   24.8453 C   0  0  0  0  0  0
  -21.4150  -29.3017   22.3726 N   0  0  0  0  0  0
  -26.4297  -37.3790   23.9390 N   0  0  0  0  0  0
  -24.6693  -31.0763   22.1015 N   0  0  0  0  0  0
  -23.4205  -28.8209   23.3056 O   0  0  0  0  0  0
  -28.3767  -26.6393   20.1218 O   0  0  0  0  0  0
  -26.5635  -34.8950   22.4720 O   0  0  0  0  0  0
  -23.5325  -32.1473   23.7487 O   0  0  0  0  0  0
  -30.8232  -18.5941   20.2841 C   0  0  0  0  0  0
  -29.6659  -20.2914   22.1728 C   0  0  0  0  0  0
  -30.4740  -18.0559   21.5405 C   0  0  0  0  0  0
  -30.6044  -19.9610   19.9635 C   0  0  0  0  0  0
  -29.8297  -18.9156   22.4664 C   0  0  0  0  0  0
  -30.0718  -20.8593   20.9380 C   0  0  0  0  0  0
  -29.0032  -23.1149   21.2397 C   0  0  0  0  0  0
  -30.5305  -24.5711   20.1674 C   0  0  0  0  0  0
  -31.0664  -23.1276   20.2226 C   0  0  0  0  0  0
  -29.4551  -24.5873   21.2494 C   0  0  1  0  0  0
  -30.9259  -20.3969   18.5466 C   0  0  0  0  0  0
  -29.3155  -18.4005   23.7974 C   0  0  0  0  0  0
  -30.9203  -16.6224   21.9163 C   0  0  0  0  0  0
  -28.3598  -25.7037   21.2186 C   0  0  0  0  0  0
  -29.9685  -22.2998   20.7445 N   0  0  0  0  0  0
  -30.1845  -15.4712   21.3490 N   0  0  0  0  0  0
  -27.8881  -22.7571   21.6313 O   0  0  0  0  0  0
  -31.4637  -12.4221   19.1374 H   0  0  0  0  0  0
  -30.3178  -11.3344   19.8653 H   0  0  0  0  0  0
  -29.7451  -11.7539   17.4578 H   0  0  0  0  0  0
  -29.6549  -13.4729   17.7572 H   0  0  0  0  0  0
  -27.8542  -11.2909   18.8646 H   0  0  0  0  0  0
  -27.3627  -12.5756   17.7971 H   0  0  0  0  0  0
  -27.6888  -14.2515   19.5340 H   0  0  0  0  0  0
  -28.6784  -12.0278   21.3828 H   0  0  0  0  0  0
  -28.4429  -13.6874   21.8426 H   0  0  0  0  0  0
  -25.2744   -9.5691   22.4767 H   0  0  0  0  0  0
  -23.9982   -7.4647   22.7491 H   0  0  0  0  0  0
  -21.0848   -8.8750   19.8930 H   0  0  0  0  0  0
  -22.3697  -10.9656   19.6136 H   0  0  0  0  0  0
  -21.2002   -7.6153   23.9715 H   0  0  0  0  0  0
  -21.1476   -6.0522   25.9082 H   0  0  0  0  0  0
  -22.0605   -2.7601   23.2850 H   0  0  0  0  0  0
  -22.4092  -11.9849   22.4739 H   0  0  0  0  0  0
  -21.1099  -13.1206   22.2582 H   0  0  0  0  0  0
  -24.6783  -15.8558   20.5517 H   0  0  0  0  0  0
  -26.3002  -15.6286   20.1321 H   0  0  0  0  0  0
  -26.7108  -32.5583   23.1184 H   0  0  0  0  0  0
  -24.9947  -33.9772   25.0420 H   0  0  0  0  0  0
  -22.6915  -31.3046   21.4112 H   0  0  0  0  0  0
  -23.3759  -35.9620   23.3302 H   0  0  0  0  0  0
  -24.3545  -36.8918   22.2039 H   0  0  0  0  0  0
  -23.7241  -37.6497   23.6702 H   0  0  0  0  0  0
  -26.0565  -31.6014   20.6097 H   0  0  0  0  0  0
  -26.8161  -30.8761   21.9999 H   0  0  0  0  0  0
  -28.1087  -29.0927   21.1766 H   0  0  0  0  0  0
  -26.0813  -25.9666   19.0230 H   0  0  0  0  0  0
  -23.9919  -27.2871   19.0279 H   0  0  0  0  0  0
  -23.7287  -30.6007   19.4086 H   0  0  0  0  0  0
  -22.7448  -29.2354   19.8693 H   0  0  0  0  0  0
  -25.1300  -36.1967   25.0827 H   0  0  0  0  0  0
  -20.9918  -28.3285   24.1453 H   0  0  0  0  0  0
  -20.5652  -26.2284   23.3604 H   0  0  0  0  0  0
  -21.6634  -26.7491   22.1220 H   0  0  0  0  0  0
  -19.6929  -25.6302   21.1228 H   0  0  0  0  0  0
  -19.6707  -27.3184   20.6724 H   0  0  0  0  0  0
  -17.4188  -26.6656   21.3985 H   0  0  0  0  0  0
  -18.0305  -26.0062   22.8974 H   0  0  0  0  0  0
  -19.7958  -30.7188   24.2321 H   0  0  0  0  0  0
  -17.5067  -31.6275   24.5164 H   0  0  0  0  0  0
  -15.5367  -30.3021   23.7669 H   0  0  0  0  0  0
  -15.8626  -28.0833   22.7115 H   0  0  0  0  0  0
  -24.5928  -30.6997   25.7774 H   0  0  0  0  0  0
  -24.8853  -32.2810   26.4934 H   0  0  0  0  0  0
  -25.8042  -30.8864   27.0232 H   0  0  0  0  0  0
  -26.2928  -29.6773   24.1213 H   0  0  0  0  0  0
  -27.4198  -29.7384   25.4572 H   0  0  0  0  0  0
  -27.8723  -30.4398   23.9236 H   0  0  0  0  0  0
  -27.2608  -33.3674   26.2087 H   0  0  0  0  0  0
  -28.3829  -32.6930   25.0311 H   0  0  0  0  0  0
  -28.0710  -31.8497   26.5408 H   0  0  0  0  0  0
  -28.2605  -38.0104   24.7548 H   0  0  0  0  0  0
  -28.1078  -36.2641   24.6271 H   0  0  0  0  0  0
  -27.2287  -37.1408   25.8859 H   0  0  0  0  0  0
  -20.9328  -29.8742   21.6939 H   0  0  0  0  0  0
  -26.0197  -38.2863   24.1431 H   0  0  0  0  0  0
  -31.2926  -17.9439   19.5580 H   0  0  0  0  0  0
  -29.2447  -20.9287   22.9380 H   0  0  0  0  0  0
  -30.0887  -24.7670   19.1874 H   0  0  0  0  0  0
  -31.3138  -25.3111   20.3378 H   0  0  0  0  0  0
  -31.9018  -23.0666   20.9237 H   0  0  0  0  0  0
  -31.4321  -22.8326   19.2449 H   0  0  0  0  0  0
  -29.9660  -24.7014   22.2072 H   0  0  0  0  0  0
  -30.8515  -19.5522   17.8605 H   0  0  0  0  0  0
  -31.9409  -20.7888   18.4772 H   0  0  0  0  0  0
  -30.2162  -21.1485   18.1997 H   0  0  0  0  0  0
  -28.6669  -19.1335   24.2781 H   0  0  0  0  0  0
  -30.1347  -18.1783   24.4810 H   0  0  0  0  0  0
  -28.7280  -17.4937   23.6441 H   0  0  0  0  0  0
  -30.9015  -16.4998   22.9987 H   0  0  0  0  0  0
  -31.9827  -16.5552   21.6724 H   0  0  0  0  0  0
  -28.4797  -26.3021   22.1241 H   0  0  0  0  0  0
  -27.3707  -25.2538   21.3133 H   0  0  0  0  0  0
  -29.2560  -15.3060   21.7077 H   0  0  0  0  0  0
  1 25  1  0  0  0
  1 30  2  0  0  0
  1 86  1  0  0  0
  2  3  1  0  0  0
  2 25  1  0  0  0
  2 88  1  0  0  0
  2 89  1  0  0  0
  3  4  1  0  0  0
  3 90  1  0  0  0
  3 91  1  0  0  0
  4  5  1  0  0  0
  4 92  1  0  0  0
  4 93  1  0  0  0
  5  6  1  0  0  0
  5 26  1  0  0  0
  5 94  1  0  0  0
  6 25  1  0  0  0
  6 95  1  0  0  0
  6 96  1  0  0  0
  7  8  2  0  0  0
  7 26  1  0  0  0
  7 29  1  0  0  0
  8  9  1  0  0  0
  8 22  1  0  0  0
  9 10  1  0  0  0
  9 27  2  0  0  0
 10 11  2  0  0  0
 10 15  1  0  0  0
 11 12  1  0  0  0
 11 97  1  0  0  0
 12 13  2  0  0  0
 12 98  1  0  0  0
 13 14  1  0  0  0
 13 31  1  0  0  0
 14 15  2  0  0  0
 14 99  1  0  0  0
 15100  1  0  0  0
 16 17  2  0  0  0
 16 21  1  0  0  0
 16 31  1  0  0  0
 17 18  1  0  0  0
 17101  1  0  0  0
 18 19  2  0  0  0
 18102  1  0  0  0
 19 20  1  0  0  0
 19 24  1  0  0  0
 20 21  2  0  0  0
 20103  1  0  0  0
 21 23  1  0  0  0
 22 28  1  0  0  0
 22 32  2  0  0  0
 26 27  1  0  0  0
 28104  1  0  0  0
 28105  1  0  0  0
 29106  1  0  0  0
 29107  1  0  0  0
 33 34  1  0  0  0
 33 66  1  0  0  0
 33 70  2  0  0  0
 34 36  1  0  0  0
 34 59  1  0  0  0
 34108  1  0  0  0
 35 44  2  0  0  0
 35 45  1  0  0  0
 35 68  1  0  0  0
 36 56  1  0  0  0
 36109  1  0  0  0
 37 39  1  0  0  0
 37 47  1  0  0  0
 37 66  1  0  0  0
 37110  1  0  0  0
 38 43  2  0  0  0
 38 46  1  0  0  0
 38 47  1  0  0  0
 39 64  1  0  0  0
 39 67  2  0  0  0
 40 52  1  0  0  0
 40 53  2  0  0  0
 40 58  1  0  0  0
 41111  1  0  0  0
 41112  1  0  0  0
 41113  1  0  0  0
 41 48  1  0  0  0
 42 43  1  0  0  0
 42 66  1  0  0  0
 42114  1  0  0  0
 42115  1  0  0  0
 43 44  1  0  0  0
 44116  1  0  0  0
 45 46  2  0  0  0
 45117  1  0  0  0
 46118  1  0  0  0
 47119  1  0  0  0
 47120  1  0  0  0
 48 56  1  0  0  0
 48 65  1  0  0  0
 48121  1  0  0  0
 49 50  1  0  0  0
 49 53  1  0  0  0
 49 64  1  0  0  0
 49122  1  0  0  0
 50 51  1  0  0  0
 50123  1  0  0  0
 50124  1  0  0  0
 51 52  1  0  0  0
 51125  1  0  0  0
 51126  1  0  0  0
 52127  1  0  0  0
 52128  1  0  0  0
 53 54  1  0  0  0
 54 55  2  0  0  0
 54129  1  0  0  0
 55 57  1  0  0  0
 55130  1  0  0  0
 56 69  2  0  0  0
 57 58  2  0  0  0
 57131  1  0  0  0
 58132  1  0  0  0
 59 60  1  0  0  0
 59 61  1  0  0  0
 59 62  1  0  0  0
 60133  1  0  0  0
 60134  1  0  0  0
 60135  1  0  0  0
 61136  1  0  0  0
 61137  1  0  0  0
 61138  1  0  0  0
 62139  1  0  0  0
 62140  1  0  0  0
 62141  1  0  0  0
 63 65  1  0  0  0
 63142  1  0  0  0
 63143  1  0  0  0
 63144  1  0  0  0
 64145  1  0  0  0
 65146  1  0  0  0
 68 84  1  0  0  0
 71 73  2  0  0  0
 71 74  1  0  0  0
 71147  1  0  0  0
 72 75  2  0  0  0
 72 76  1  0  0  0
 72148  1  0  0  0
 73 75  1  0  0  0
 73 83  1  0  0  0
 74 76  2  0  0  0
 74 81  1  0  0  0
 75 82  1  0  0  0
 76 85  1  0  0  0
 77 80  1  0  0  0
 77 85  1  0  0  0
 77 87  2  0  0  0
 78 79  1  0  0  0
 78 80  1  0  0  0
 78149  1  0  0  0
 78150  1  0  0  0
 79 85  1  0  0  0
 79151  1  0  0  0
 79152  1  0  0  0
 80 84  1  0  0  0
 80153  1  0  0  0
 81154  1  0  0  0
 81155  1  0  0  0
 81156  1  0  0  0
 82157  1  0  0  0
 82158  1  0  0  0
 82159  1  0  0  0
 83 86  1  0  0  0
 83160  1  0  0  0
 83161  1  0  0  0
 84162  1  0  0  0
 84163  1  0  0  0
 86164  1  0  0  0
M  ISO  4   1 100  68 101  84 101  86 100
M  END
> <chiral flag>
0

> <version>
0

> <s_m_source_file>
/data/baiqing/PycharmProjects/Reinvent-master-3.2/result/LINK_invent/BTK/process_docking_weight1_custom_product_contain_oxygen_bond_distance_aromatic_linkinvent_7_9_3/rearranged_h_0057.sdf

> <i_m_source_file_index>
13

> <r_mmod_Potential_Energy-OPLS-2005>
51.8389892578125

> <r_mmod_Stretch_Energy-OPLS-2005>
48.1960258483887

> <r_mmod_Bend_Energy-OPLS-2005>
146.100952148438

> <r_mmod_Torsional_Energy-OPLS-2005>
302.729370117188

> <r_mmod_Improper_Torsional_Energy-OPLS-2005>
2.94141483306885

> <r_mmod_Van_der_Waal_Energy-OPLS-2005>
153.243057250977

> <r_mmod_Electrostatic_Energy-OPLS-2005>
-401.600616455078

> <r_mmod_Solvation_Energy-OPLS-2005>
-216.008392333984

> <b_mmod_Minimization_Converged-OPLS-2005>
0

> <r_mmod_RMS_Derivative-OPLS-2005>
3.54732799530029

$$$$
13
                    3D
 Structure written by MMmdl.
164173  0  0  1  0            999 V2000
  -30.6318  -14.7323   20.4164 C   0  0  0  0  0  0
  -30.4366  -12.4330   19.4601 C   0  0  0  0  0  0
  -29.5137  -12.4923   18.2250 C   0  0  0  0  0  0
  -28.0443  -12.3143   18.6500 C   0  0  0  0  0  0
  -27.6465  -13.2291   19.8367 C   0  0  2  0  0  0
  -28.6994  -13.1775   20.9687 C   0  0  0  0  0  0
  -25.2560  -13.8210   20.5617 C   0  0  0  0  0  0
  -24.1839  -13.0469   20.9179 C   0  0  0  0  0  0
  -24.6393  -11.6935   20.8693 C   0  0  0  0  0  0
  -23.9030  -10.4311   21.0317 C   0  0  0  0  0  0
  -24.3572   -9.4255   21.9119 C   0  0  0  0  0  0
  -23.6282   -8.2278   22.0707 C   0  0  0  0  0  0
  -22.4269   -8.0253   21.3510 C   0  0  0  0  0  0
  -21.9874   -9.0217   20.4614 C   0  0  0  0  0  0
  -22.7178  -10.2130   20.3002 C   0  0  0  0  0  0
  -21.6899   -6.0669   22.5237 C   0  0  0  0  0  0
  -21.4053   -6.5583   23.8157 C   0  0  0  0  0  0
  -21.3673   -5.6753   24.9126 C   0  0  0  0  0  0
  -21.6039   -4.3009   24.7200 C   0  0  0  0  0  0
  -21.8846   -3.8083   23.4330 C   0  0  0  0  0  0
  -21.9224   -4.6891   22.3373 C   0  0  0  0  0  0
  -22.7848  -13.5232   21.1821 C   0  0  0  0  0  0
  -22.1675   -4.2065   21.0963 F   0  0  0  0  0  0
  -21.5639   -3.4508   25.7708 F   0  0  0  0  0  0
  -29.9951  -13.5152   20.3678 N   0  0  0  0  0  0
  -26.2967  -12.9402   20.3191 N   0  0  0  0  0  0
  -25.9348  -11.6547   20.5712 N   0  0  0  0  0  0
  -22.0482  -12.8254   22.0391 N   0  0  0  0  0  0
  -25.4278  -15.1937   20.4070 N   0  0  0  0  0  0
  -31.8382  -14.7973   20.1709 O   0  0  0  0  0  0
  -21.6687   -6.8808   21.4196 O   0  0  0  0  0  0
  -22.3490  -14.5492   20.6614 O   0  0  0  0  0  0
  -24.6324  -31.8528   23.1968 C   0  0  0  0  0  0
  -25.9159  -32.4744   23.8316 C   0  0  1  0  0  0
  -27.2097  -27.2722   20.0967 C   0  0  0  0  0  0
  -25.5932  -33.8550   24.2227 N   0  0  0  0  0  0
  -23.4260  -30.4751   21.5442 C   0  0  2  0  0  0
  -24.8661  -28.9251   20.1068 C   0  0  0  0  0  0
  -22.7499  -29.4607   22.4934 C   0  0  0  0  0  0
  -18.0292  -28.1367   22.8512 C   0  0  0  0  0  0
  -24.1476  -36.7303   23.2649 C   0  0  0  0  0  0
  -25.9737  -30.7604   21.3800 C   0  0  0  0  0  0
  -26.0393  -29.3889   20.7154 C   0  0  0  0  0  0
  -27.2100  -28.5693   20.7026 C   0  0  0  0  0  0
  -26.0052  -26.8650   19.4788 C   0  0  0  0  0  0
  -24.8519  -27.6696   19.4845 C   0  0  0  0  0  0
  -23.6380  -29.8093   20.1606 C   0  0  0  0  0  0
  -25.4111  -36.3076   24.0329 C   0  0  1  0  0  0
  -20.5900  -28.3680   23.1291 C   0  0  2  0  0  0
  -20.6757  -26.9400   22.5422 C   0  0  0  0  0  0
  -19.5735  -26.6372   21.5225 C   0  0  0  0  0  0
  -18.1924  -26.7914   22.1640 C   0  0  0  0  0  0
  -19.1539  -28.8834   23.2894 C   0  0  0  0  0  0
  -18.9466  -30.1444   23.8895 C   0  0  0  0  0  0
  -17.6457  -30.6584   24.0562 C   0  0  0  0  0  0
  -25.9044  -34.9449   23.5073 C   0  0  0  0  0  0
  -16.5348  -29.9087   23.6353 C   0  0  0  0  0  0
  -16.7263  -28.6502   23.0373 C   0  0  0  0  0  0
  -26.4505  -31.6588   25.0736 C   0  0  0  0  0  0
  -25.3722  -31.3794   26.1449 C   0  0  0  0  0  0
  -27.0369  -30.2990   24.6304 C   0  0  0  0  0  0
  -27.6010  -32.4381   25.7529 C   0  0  0  0  0  0
  -27.5577  -37.1800   24.8458 C   0  0  0  0  0  0
  -21.4189  -29.3053   22.3681 N   0  0  0  0  0  0
  -26.4271  -37.3785   23.9415 N   0  0  0  0  0  0
  -24.6965  -31.0481   22.0964 N   0  0  0  0  0  0
  -23.4182  -28.8137   23.3033 O   0  0  0  0  0  0
  -28.3184  -26.4045   20.1539 O   0  0  0  0  0  0
  -26.5654  -34.8927   22.4664 O   0  0  0  0  0  0
  -23.5472  -32.1369   23.7263 O   0  0  0  0  0  0
  -31.3643  -17.6275   21.3737 C   0  0  0  0  0  0
  -29.4877  -18.4583   20.1025 C   0  0  0  0  0  0
  -31.7288  -18.9568   21.6687 C   0  0  0  0  0  0
  -31.0430  -20.0659   21.0762 C   0  0  0  0  0  0
  -29.8499  -19.8704   20.2907 C   0  0  0  0  0  0
  -30.2391  -17.3158   20.5966 C   0  0  0  0  0  0
  -28.0286  -20.7875   18.8523 C   0  0  0  0  0  0
  -26.7379  -21.6051   18.9414 C   0  0  0  0  0  0
  -26.9977  -23.1060   18.8305 C   0  0  0  0  0  0
  -29.2475  -22.5501   19.9328 C   0  0  0  0  0  0
  -28.0627  -23.6475   19.7982 C   0  0  1  0  0  0
  -31.6494  -21.4404   21.3146 C   0  0  0  0  0  0
  -28.4121  -25.1678   19.3250 C   0  0  0  0  0  0
  -32.8747  -19.1499   22.6725 C   0  0  0  0  0  0
  -29.0058  -21.0297   19.7605 N   0  0  0  0  0  0
  -29.8550  -15.8879   20.4443 N   0  0  0  0  0  0
  -28.1373  -19.9754   17.9276 O   0  0  0  0  0  0
  -33.0839  -18.0547   23.4060 F   0  0  0  0  0  0
  -34.0012  -19.4317   22.0217 F   0  0  0  0  0  0
  -32.6142  -20.1219   23.5465 F   0  0  0  0  0  0
  -31.4821  -12.5360   19.1677 H   0  0  0  0  0  0
  -30.3583  -11.4619   19.9508 H   0  0  0  0  0  0
  -29.7942  -11.7223   17.5050 H   0  0  0  0  0  0
  -29.6368  -13.4516   17.7220 H   0  0  0  0  0  0
  -27.9203  -11.2712   18.9404 H   0  0  0  0  0  0
  -27.3848  -12.4796   17.7981 H   0  0  0  0  0  0
  -27.6377  -14.2482   19.4464 H   0  0  0  0  0  0
  -28.7448  -12.1853   21.4211 H   0  0  0  0  0  0
  -28.4523  -13.8834   21.7644 H   0  0  0  0  0  0
  -25.2708   -9.5788   22.4682 H   0  0  0  0  0  0
  -23.9996   -7.4700   22.7477 H   0  0  0  0  0  0
  -21.0765   -8.8710   19.8970 H   0  0  0  0  0  0
  -22.3554  -10.9626   19.6099 H   0  0  0  0  0  0
  -21.2052   -7.6093   23.9627 H   0  0  0  0  0  0
  -21.1472   -6.0485   25.9028 H   0  0  0  0  0  0
  -22.0628   -2.7537   23.2867 H   0  0  0  0  0  0
  -22.4099  -11.9976   22.4878 H   0  0  0  0  0  0
  -21.1054  -13.1231   22.2465 H   0  0  0  0  0  0
  -24.6700  -15.8569   20.5242 H   0  0  0  0  0  0
  -26.2775  -15.6264   20.0745 H   0  0  0  0  0  0
  -26.7211  -32.5328   23.1025 H   0  0  0  0  0  0
  -25.0016  -33.9692   25.0324 H   0  0  0  0  0  0
  -22.7258  -31.3004   21.3960 H   0  0  0  0  0  0
  -23.3738  -35.9631   23.3281 H   0  0  0  0  0  0
  -24.3584  -36.8968   22.2071 H   0  0  0  0  0  0
  -23.7208  -37.6487   23.6702 H   0  0  0  0  0  0
  -26.1273  -31.5200   20.6137 H   0  0  0  0  0  0
  -26.8467  -30.7922   22.0207 H   0  0  0  0  0  0
  -28.1108  -28.9236   21.1887 H   0  0  0  0  0  0
  -25.9057  -25.9025   19.0086 H   0  0  0  0  0  0
  -23.9536  -27.2952   19.0111 H   0  0  0  0  0  0
  -23.7624  -30.5824   19.4020 H   0  0  0  0  0  0
  -22.7530  -29.2438   19.8590 H   0  0  0  0  0  0
  -25.1285  -36.1911   25.0823 H   0  0  0  0  0  0
  -21.0000  -28.3229   24.1398 H   0  0  0  0  0  0
  -20.5667  -26.2297   23.3622 H   0  0  0  0  0  0
  -21.6623  -26.7419   22.1197 H   0  0  0  0  0  0
  -19.6912  -25.6291   21.1263 H   0  0  0  0  0  0
  -19.6672  -27.3169   20.6740 H   0  0  0  0  0  0
  -17.4209  -26.6678   21.4028 H   0  0  0  0  0  0
  -18.0304  -26.0031   22.8991 H   0  0  0  0  0  0
  -19.7935  -30.7257   24.2247 H   0  0  0  0  0  0
  -17.5023  -31.6277   24.5135 H   0  0  0  0  0  0
  -15.5355  -30.2975   23.7676 H   0  0  0  0  0  0
  -15.8658  -28.0802   22.7095 H   0  0  0  0  0  0
  -24.5827  -30.7229   25.7794 H   0  0  0  0  0  0
  -24.8994  -32.2978   26.4926 H   0  0  0  0  0  0
  -25.7996  -30.8914   27.0207 H   0  0  0  0  0  0
  -26.2975  -29.6717   24.1299 H   0  0  0  0  0  0
  -27.3960  -29.7311   25.4902 H   0  0  0  0  0  0
  -27.8898  -30.4253   23.9634 H   0  0  0  0  0  0
  -27.2546  -33.3653   26.2129 H   0  0  0  0  0  0
  -28.3802  -32.7012   25.0360 H   0  0  0  0  0  0
  -28.0707  -31.8517   26.5438 H   0  0  0  0  0  0
  -28.2566  -38.0124   24.7525 H   0  0  0  0  0  0
  -28.1091  -36.2650   24.6217 H   0  0  0  0  0  0
  -27.2323  -37.1365   25.8870 H   0  0  0  0  0  0
  -20.9372  -29.8771   21.6865 H   0  0  0  0  0  0
  -26.0149  -38.2863   24.1410 H   0  0  0  0  0  0
  -31.9496  -16.8307   21.8072 H   0  0  0  0  0  0
  -28.5983  -18.2186   19.5344 H   0  0  0  0  0  0
  -26.2085  -21.3483   19.8601 H   0  0  0  0  0  0
  -26.0793  -21.3172   18.1178 H   0  0  0  0  0  0
  -26.0640  -23.6439   18.9920 H   0  0  0  0  0  0
  -27.3003  -23.3070   17.8003 H   0  0  0  0  0  0
  -29.6392  -22.7525   20.9196 H   0  0  0  0  0  0
  -30.0214  -22.8317   19.2122 H   0  0  0  0  0  0
  -27.5967  -23.7064   20.7822 H   0  0  0  0  0  0
  -32.7045  -21.4043   21.5592 H   0  0  0  0  0  0
  -31.1403  -21.9404   22.1421 H   0  0  0  0  0  0
  -31.6413  -22.0447   20.4152 H   0  0  0  0  0  0
  -27.8509  -25.3853   18.4156 H   0  0  0  0  0  0
  -29.4245  -25.1463   18.9329 H   0  0  0  0  0  0
  -28.8639  -15.7092   20.3908 H   0  0  0  0  0  0
  1 25  1  0  0  0
  1 30  2  0  0  0
  1 86  1  0  0  0
  2  3  1  0  0  0
  2 25  1  0  0  0
  2 91  1  0  0  0
  2 92  1  0  0  0
  3  4  1  0  0  0
  3 93  1  0  0  0
  3 94  1  0  0  0
  4  5  1  0  0  0
  4 95  1  0  0  0
  4 96  1  0  0  0
  5  6  1  0  0  0
  5 26  1  0  0  0
  5 97  1  0  0  0
  6 25  1  0  0  0
  6 98  1  0  0  0
  6 99  1  0  0  0
  7  8  2  0  0  0
  7 26  1  0  0  0
  7 29  1  0  0  0
  8  9  1  0  0  0
  8 22  1  0  0  0
  9 10  1  0  0  0
  9 27  2  0  0  0
 10 11  2  0  0  0
 10 15  1  0  0  0
 11 12  1  0  0  0
 11100  1  0  0  0
 12 13  2  0  0  0
 12101  1  0  0  0
 13 14  1  0  0  0
 13 31  1  0  0  0
 14 15  2  0  0  0
 14102  1  0  0  0
 15103  1  0  0  0
 16 17  2  0  0  0
 16 21  1  0  0  0
 16 31  1  0  0  0
 17 18  1  0  0  0
 17104  1  0  0  0
 18 19  2  0  0  0
 18105  1  0  0  0
 19 20  1  0  0  0
 19 24  1  0  0  0
 20 21  2  0  0  0
 20106  1  0  0  0
 21 23  1  0  0  0
 22 28  1  0  0  0
 22 32  2  0  0  0
 26 27  1  0  0  0
 28107  1  0  0  0
 28108  1  0  0  0
 29109  1  0  0  0
 29110  1  0  0  0
 33 34  1  0  0  0
 33 66  1  0  0  0
 33 70  2  0  0  0
 34 36  1  0  0  0
 34 59  1  0  0  0
 34111  1  0  0  0
 35 44  2  0  0  0
 35 45  1  0  0  0
 35 68  1  0  0  0
 36 56  1  0  0  0
 36112  1  0  0  0
 37 39  1  0  0  0
 37 47  1  0  0  0
 37 66  1  0  0  0
 37113  1  0  0  0
 38 43  2  0  0  0
 38 46  1  0  0  0
 38 47  1  0  0  0
 39 64  1  0  0  0
 39 67  2  0  0  0
 40 52  1  0  0  0
 40 53  2  0  0  0
 40 58  1  0  0  0
 41114  1  0  0  0
 41115  1  0  0  0
 41116  1  0  0  0
 41 48  1  0  0  0
 42 43  1  0  0  0
 42 66  1  0  0  0
 42117  1  0  0  0
 42118  1  0  0  0
 43 44  1  0  0  0
 44119  1  0  0  0
 45 46  2  0  0  0
 45120  1  0  0  0
 46121  1  0  0  0
 47122  1  0  0  0
 47123  1  0  0  0
 48 56  1  0  0  0
 48 65  1  0  0  0
 48124  1  0  0  0
 49 50  1  0  0  0
 49 53  1  0  0  0
 49 64  1  0  0  0
 49125  1  0  0  0
 50 51  1  0  0  0
 50126  1  0  0  0
 50127  1  0  0  0
 51 52  1  0  0  0
 51128  1  0  0  0
 51129  1  0  0  0
 52130  1  0  0  0
 52131  1  0  0  0
 53 54  1  0  0  0
 54 55  2  0  0  0
 54132  1  0  0  0
 55 57  1  0  0  0
 55133  1  0  0  0
 56 69  2  0  0  0
 57 58  2  0  0  0
 57134  1  0  0  0
 58135  1  0  0  0
 59 60  1  0  0  0
 59 61  1  0  0  0
 59 62  1  0  0  0
 60136  1  0  0  0
 60137  1  0  0  0
 60138  1  0  0  0
 61139  1  0  0  0
 61140  1  0  0  0
 61141  1  0  0  0
 62142  1  0  0  0
 62143  1  0  0  0
 62144  1  0  0  0
 63 65  1  0  0  0
 63145  1  0  0  0
 63146  1  0  0  0
 63147  1  0  0  0
 64148  1  0  0  0
 65149  1  0  0  0
 68 83  1  0  0  0
 71 73  2  0  0  0
 71 76  1  0  0  0
 71150  1  0  0  0
 72 75  1  0  0  0
 72 76  2  0  0  0
 72151  1  0  0  0
 73 74  1  0  0  0
 73 84  1  0  0  0
 74 75  2  0  0  0
 74 82  1  0  0  0
 75 85  1  0  0  0
 76 86  1  0  0  0
 77 78  1  0  0  0
 77 85  1  0  0  0
 77 87  2  0  0  0
 78 79  1  0  0  0
 78152  1  0  0  0
 78153  1  0  0  0
 79 81  1  0  0  0
 79154  1  0  0  0
 79155  1  0  0  0
 80 81  1  0  0  0
 80 85  1  0  0  0
 80156  1  0  0  0
 80157  1  0  0  0
 81 83  1  0  0  0
 81158  1  0  0  0
 82159  1  0  0  0
 82160  1  0  0  0
 82161  1  0  0  0
 83162  1  0  0  0
 83163  1  0  0  0
 84 88  1  0  0  0
 84 89  1  0  0  0
 84 90  1  0  0  0
 86164  1  0  0  0
M  ISO  4   1 100  68 101  83 101  86 100
M  END
> <chiral flag>
0

> <version>
0

> <s_m_source_file>
/data/baiqing/PycharmProjects/Reinvent-master-3.2/result/LINK_invent/BTK/process_docking_weight1_custom_product_contain_oxygen_bond_distance_aromatic_linkinvent_7_9_3/rearranged_h_0057.sdf

> <i_m_source_file_index>
14

> <r_mmod_Potential_Energy-OPLS-2005>
400.325836181641

> <r_mmod_Stretch_Energy-OPLS-2005>
148.209655761719

> <r_mmod_Bend_Energy-OPLS-2005>
198.720916748047

> <r_mmod_Torsional_Energy-OPLS-2005>
308.36865234375

> <r_mmod_Improper_Torsional_Energy-OPLS-2005>
8.00654125213623

> <r_mmod_Van_der_Waal_Energy-OPLS-2005>
187.076416015625

> <r_mmod_Electrostatic_Energy-OPLS-2005>
-315.315277099609

> <r_mmod_Solvation_Energy-OPLS-2005>
-217.461868286133

> <b_mmod_Minimization_Converged-OPLS-2005>
0

> <r_mmod_RMS_Derivative-OPLS-2005>
7.26708555221558

$$$$
14
                    3D
 Structure written by MMmdl.
160168  0  0  1  0            999 V2000
  -30.6078  -14.6224   20.5930 C   0  0  0  0  0  0
  -30.4308  -12.4211   19.4218 C   0  0  0  0  0  0
  -29.4863  -12.5231   18.2046 C   0  0  0  0  0  0
  -28.0165  -12.3314   18.6334 C   0  0  0  0  0  0
  -27.6412  -13.2081   19.8585 C   0  0  2  0  0  0
  -28.6809  -13.0496   20.9834 C   0  0  0  0  0  0
  -25.2506  -13.8148   20.5736 C   0  0  0  0  0  0
  -24.1773  -13.0418   20.9179 C   0  0  0  0  0  0
  -24.6346  -11.6889   20.8734 C   0  0  0  0  0  0
  -23.9024  -10.4283   21.0383 C   0  0  0  0  0  0
  -24.3566   -9.4220   21.9171 C   0  0  0  0  0  0
  -23.6273   -8.2241   22.0751 C   0  0  0  0  0  0
  -22.4255   -8.0263   21.3536 C   0  0  0  0  0  0
  -21.9868   -9.0237   20.4642 C   0  0  0  0  0  0
  -22.7188  -10.2120   20.3067 C   0  0  0  0  0  0
  -21.6859   -6.0722   22.5293 C   0  0  0  0  0  0
  -21.4017   -6.5632   23.8209 C   0  0  0  0  0  0
  -21.3653   -5.6799   24.9172 C   0  0  0  0  0  0
  -21.6035   -4.3063   24.7242 C   0  0  0  0  0  0
  -21.8823   -3.8150   23.4371 C   0  0  0  0  0  0
  -21.9192   -4.6961   22.3424 C   0  0  0  0  0  0
  -22.7804  -13.5203   21.1889 C   0  0  0  0  0  0
  -22.1676   -4.2159   21.1002 F   0  0  0  0  0  0
  -21.5622   -3.4536   25.7736 F   0  0  0  0  0  0
  -29.9811  -13.4229   20.4143 N   0  0  0  0  0  0
  -26.2897  -12.9323   20.3289 N   0  0  0  0  0  0
  -25.9260  -11.6485   20.5724 N   0  0  0  0  0  0
  -22.0479  -12.8144   22.0421 N   0  0  0  0  0  0
  -25.4245  -15.1862   20.4257 N   0  0  0  0  0  0
  -31.7850  -14.7914   20.2676 O   0  0  0  0  0  0
  -21.6636   -6.8843   21.4236 O   0  0  0  0  0  0
  -22.3474  -14.5549   20.6816 O   0  0  0  0  0  0
  -24.6308  -31.8555   23.1966 C   0  0  0  0  0  0
  -25.9138  -32.4752   23.8316 C   0  0  1  0  0  0
  -27.2144  -27.2763   20.1353 C   0  0  0  0  0  0
  -25.5938  -33.8546   24.2260 N   0  0  0  0  0  0
  -23.4302  -30.4760   21.5416 C   0  0  2  0  0  0
  -24.8745  -28.9248   20.1184 C   0  0  0  0  0  0
  -22.7481  -29.4613   22.4922 C   0  0  0  0  0  0
  -18.0275  -28.1386   22.8486 C   0  0  0  0  0  0
  -24.1490  -36.7270   23.2660 C   0  0  0  0  0  0
  -25.9762  -30.7703   21.3853 C   0  0  0  0  0  0
  -26.0467  -29.3955   20.7260 C   0  0  0  0  0  0
  -27.2249  -28.5827   20.7211 C   0  0  0  0  0  0
  -26.0267  -26.8721   19.4884 C   0  0  0  0  0  0
  -24.8679  -27.6701   19.4893 C   0  0  0  0  0  0
  -23.6461  -29.8107   20.1583 C   0  0  0  0  0  0
  -25.4121  -36.3076   24.0339 C   0  0  1  0  0  0
  -20.5884  -28.3728   23.1285 C   0  0  2  0  0  0
  -20.6786  -26.9452   22.5420 C   0  0  0  0  0  0
  -19.5752  -26.6352   21.5262 C   0  0  0  0  0  0
  -18.1920  -26.7900   22.1670 C   0  0  0  0  0  0
  -19.1525  -28.8863   23.2887 C   0  0  0  0  0  0
  -18.9450  -30.1466   23.8878 C   0  0  0  0  0  0
  -17.6450  -30.6590   24.0540 C   0  0  0  0  0  0
  -25.9050  -34.9442   23.5114 C   0  0  0  0  0  0
  -16.5335  -29.9079   23.6328 C   0  0  0  0  0  0
  -16.7254  -28.6495   23.0361 C   0  0  0  0  0  0
  -26.4499  -31.6593   25.0735 C   0  0  0  0  0  0
  -25.3709  -31.3735   26.1451 C   0  0  0  0  0  0
  -27.0393  -30.2999   24.6285 C   0  0  0  0  0  0
  -27.6051  -32.4345   25.7501 C   0  0  0  0  0  0
  -27.5570  -37.1809   24.8479 C   0  0  0  0  0  0
  -21.4197  -29.3052   22.3626 N   0  0  0  0  0  0
  -26.4304  -37.3770   23.9402 N   0  0  0  0  0  0
  -24.6964  -31.0532   22.0947 N   0  0  0  0  0  0
  -23.4163  -28.8136   23.3021 O   0  0  0  0  0  0
  -28.3043  -26.3878   20.1630 O   0  0  0  0  0  0
  -26.5638  -34.8912   22.4687 O   0  0  0  0  0  0
  -23.5453  -32.1335   23.7264 O   0  0  0  0  0  0
  -29.9046  -16.4595   24.5226 C   0  0  0  0  0  0
  -29.6768  -17.8345   24.5887 C   0  0  0  0  0  0
  -29.9924  -15.8358   23.2725 C   0  0  0  0  0  0
  -29.5628  -18.5980   23.4108 C   0  0  0  0  0  0
  -29.5877  -17.9925   22.1127 C   0  0  0  0  0  0
  -29.8385  -16.5477   22.0559 C   0  0  0  0  0  0
  -28.0648  -21.2112   20.5021 C   0  0  0  0  0  0
  -29.4804  -20.0986   23.6169 C   0  0  0  0  0  0
  -29.4480  -18.9664   20.8822 C   0  0  0  0  0  0
  -29.1010  -22.3615   20.7740 C   0  0  0  0  0  0
  -29.0046  -23.8000   20.0477 C   0  0  0  0  0  0
  -28.0465  -24.9686   20.5669 C   0  0  0  0  0  0
  -29.7917  -15.6942   20.8865 N   0  0  0  0  0  0
  -28.2578  -19.8783   20.8004 N   0  0  0  0  0  0
  -26.9613  -21.5446   20.0747 O   0  0  0  0  0  0
  -31.4622  -12.5970   19.1076 H   0  0  0  0  0  0
  -30.4026  -11.4229   19.8564 H   0  0  0  0  0  0
  -29.7539  -11.7907   17.4435 H   0  0  0  0  0  0
  -29.6050  -13.5019   17.7403 H   0  0  0  0  0  0
  -27.8754  -11.2741   18.8738 H   0  0  0  0  0  0
  -27.3468  -12.5371   17.7988 H   0  0  0  0  0  0
  -27.6621  -14.2433   19.5231 H   0  0  0  0  0  0
  -28.6989  -12.0194   21.3432 H   0  0  0  0  0  0
  -28.4148  -13.6585   21.8470 H   0  0  0  0  0  0
  -25.2710   -9.5718   22.4724 H   0  0  0  0  0  0
  -24.0024   -7.4628   22.7454 H   0  0  0  0  0  0
  -21.0802   -8.8728   19.8931 H   0  0  0  0  0  0
  -22.3637  -10.9647   19.6183 H   0  0  0  0  0  0
  -21.2023   -7.6147   23.9707 H   0  0  0  0  0  0
  -21.1462   -6.0530   25.9058 H   0  0  0  0  0  0
  -22.0604   -2.7630   23.2871 H   0  0  0  0  0  0
  -22.4126  -11.9782   22.4756 H   0  0  0  0  0  0
  -21.1142  -13.1174   22.2776 H   0  0  0  0  0  0
  -24.6624  -15.8384   20.5800 H   0  0  0  0  0  0
  -26.2822  -15.6401   20.1437 H   0  0  0  0  0  0
  -26.7215  -32.5376   23.1061 H   0  0  0  0  0  0
  -25.0059  -33.9679   25.0378 H   0  0  0  0  0  0
  -22.7321  -31.3009   21.3917 H   0  0  0  0  0  0
  -23.3745  -35.9616   23.3345 H   0  0  0  0  0  0
  -24.3569  -36.8835   22.2069 H   0  0  0  0  0  0
  -23.7231  -37.6478   23.6639 H   0  0  0  0  0  0
  -26.1372  -31.5344   20.6240 H   0  0  0  0  0  0
  -26.8440  -30.7988   22.0309 H   0  0  0  0  0  0
  -28.1258  -28.9358   21.2048 H   0  0  0  0  0  0
  -25.9799  -25.9198   18.9771 H   0  0  0  0  0  0
  -23.9724  -27.3047   19.0024 H   0  0  0  0  0  0
  -23.7826  -30.5870   19.4027 H   0  0  0  0  0  0
  -22.7651  -29.2474   19.8404 H   0  0  0  0  0  0
  -25.1299  -36.1951   25.0830 H   0  0  0  0  0  0
  -20.9979  -28.3306   24.1403 H   0  0  0  0  0  0
  -20.5720  -26.2338   23.3631 H   0  0  0  0  0  0
  -21.6657  -26.7473   22.1228 H   0  0  0  0  0  0
  -19.6934  -25.6245   21.1325 H   0  0  0  0  0  0
  -19.6666  -27.3119   20.6767 H   0  0  0  0  0  0
  -17.4176  -26.6581   21.4063 H   0  0  0  0  0  0
  -18.0353  -26.0079   22.9113 H   0  0  0  0  0  0
  -19.7922  -30.7290   24.2230 H   0  0  0  0  0  0
  -17.5013  -31.6279   24.5132 H   0  0  0  0  0  0
  -15.5330  -30.2978   23.7693 H   0  0  0  0  0  0
  -15.8642  -28.0815   22.7116 H   0  0  0  0  0  0
  -24.5887  -30.7105   25.7724 H   0  0  0  0  0  0
  -24.8935  -32.2919   26.4871 H   0  0  0  0  0  0
  -25.8034  -30.8891   27.0220 H   0  0  0  0  0  0
  -26.3020  -29.6709   24.1298 H   0  0  0  0  0  0
  -27.4003  -29.7302   25.4856 H   0  0  0  0  0  0
  -27.8912  -30.4232   23.9609 H   0  0  0  0  0  0
  -27.2635  -33.3618   26.2088 H   0  0  0  0  0  0
  -28.3853  -32.6926   25.0340 H   0  0  0  0  0  0
  -28.0741  -31.8475   26.5401 H   0  0  0  0  0  0
  -28.2638  -38.0065   24.7478 H   0  0  0  0  0  0
  -28.1035  -36.2591   24.6383 H   0  0  0  0  0  0
  -27.2301  -37.1528   25.8897 H   0  0  0  0  0  0
  -20.9394  -29.8713   21.6769 H   0  0  0  0  0  0
  -26.0191  -38.2860   24.1358 H   0  0  0  0  0  0
  -30.0095  -15.8840   25.4331 H   0  0  0  0  0  0
  -29.6260  -18.3083   25.5562 H   0  0  0  0  0  0
  -30.1513  -14.7664   23.2903 H   0  0  0  0  0  0
  -29.8715  -20.3793   24.5971 H   0  0  0  0  0  0
  -28.4499  -20.4392   23.5618 H   0  0  0  0  0  0
  -30.0867  -20.6241   22.8816 H   0  0  0  0  0  0
  -29.4909  -18.3832   19.9635 H   0  0  0  0  0  0
  -30.3425  -19.5846   20.8513 H   0  0  0  0  0  0
  -30.0808  -21.9390   20.5355 H   0  0  0  0  0  0
  -29.1026  -22.5406   21.8481 H   0  0  0  0  0  0
  -28.8428  -23.6445   18.9787 H   0  0  0  0  0  0
  -30.0147  -24.2094   20.1159 H   0  0  0  0  0  0
  -28.0905  -24.9608   21.6561 H   0  0  0  0  0  0
  -27.0304  -24.6599   20.3327 H   0  0  0  0  0  0
  -28.8419  -15.4807   20.6385 H   0  0  0  0  0  0
  -27.3935  -19.3520   20.7627 H   0  0  0  0  0  0
  1 25  1  0  0  0
  1 30  2  0  0  0
  1 83  1  0  0  0
  2  3  1  0  0  0
  2 25  1  0  0  0
  2 86  1  0  0  0
  2 87  1  0  0  0
  3  4  1  0  0  0
  3 88  1  0  0  0
  3 89  1  0  0  0
  4  5  1  0  0  0
  4 90  1  0  0  0
  4 91  1  0  0  0
  5  6  1  0  0  0
  5 26  1  0  0  0
  5 92  1  0  0  0
  6 25  1  0  0  0
  6 93  1  0  0  0
  6 94  1  0  0  0
  7  8  2  0  0  0
  7 26  1  0  0  0
  7 29  1  0  0  0
  8  9  1  0  0  0
  8 22  1  0  0  0
  9 10  1  0  0  0
  9 27  2  0  0  0
 10 11  2  0  0  0
 10 15  1  0  0  0
 11 12  1  0  0  0
 11 95  1  0  0  0
 12 13  2  0  0  0
 12 96  1  0  0  0
 13 14  1  0  0  0
 13 31  1  0  0  0
 14 15  2  0  0  0
 14 97  1  0  0  0
 15 98  1  0  0  0
 16 17  2  0  0  0
 16 21  1  0  0  0
 16 31  1  0  0  0
 17 18  1  0  0  0
 17 99  1  0  0  0
 18 19  2  0  0  0
 18100  1  0  0  0
 19 20  1  0  0  0
 19 24  1  0  0  0
 20 21  2  0  0  0
 20101  1  0  0  0
 21 23  1  0  0  0
 22 28  1  0  0  0
 22 32  2  0  0  0
 26 27  1  0  0  0
 28102  1  0  0  0
 28103  1  0  0  0
 29104  1  0  0  0
 29105  1  0  0  0
 33 34  1  0  0  0
 33 66  1  0  0  0
 33 70  2  0  0  0
 34 36  1  0  0  0
 34 59  1  0  0  0
 34106  1  0  0  0
 35 44  2  0  0  0
 35 45  1  0  0  0
 35 68  1  0  0  0
 36 56  1  0  0  0
 36107  1  0  0  0
 37 39  1  0  0  0
 37 47  1  0  0  0
 37 66  1  0  0  0
 37108  1  0  0  0
 38 43  2  0  0  0
 38 46  1  0  0  0
 38 47  1  0  0  0
 39 64  1  0  0  0
 39 67  2  0  0  0
 40 52  1  0  0  0
 40 53  2  0  0  0
 40 58  1  0  0  0
 41109  1  0  0  0
 41110  1  0  0  0
 41111  1  0  0  0
 41 48  1  0  0  0
 42 43  1  0  0  0
 42 66  1  0  0  0
 42112  1  0  0  0
 42113  1  0  0  0
 43 44  1  0  0  0
 44114  1  0  0  0
 45 46  2  0  0  0
 45115  1  0  0  0
 46116  1  0  0  0
 47117  1  0  0  0
 47118  1  0  0  0
 48 56  1  0  0  0
 48 65  1  0  0  0
 48119  1  0  0  0
 49 50  1  0  0  0
 49 53  1  0  0  0
 49 64  1  0  0  0
 49120  1  0  0  0
 50 51  1  0  0  0
 50121  1  0  0  0
 50122  1  0  0  0
 51 52  1  0  0  0
 51123  1  0  0  0
 51124  1  0  0  0
 52125  1  0  0  0
 52126  1  0  0  0
 53 54  1  0  0  0
 54 55  2  0  0  0
 54127  1  0  0  0
 55 57  1  0  0  0
 55128  1  0  0  0
 56 69  2  0  0  0
 57 58  2  0  0  0
 57129  1  0  0  0
 58130  1  0  0  0
 59 60  1  0  0  0
 59 61  1  0  0  0
 59 62  1  0  0  0
 60131  1  0  0  0
 60132  1  0  0  0
 60133  1  0  0  0
 61134  1  0  0  0
 61135  1  0  0  0
 61136  1  0  0  0
 62137  1  0  0  0
 62138  1  0  0  0
 62139  1  0  0  0
 63 65  1  0  0  0
 63140  1  0  0  0
 63141  1  0  0  0
 63142  1  0  0  0
 64143  1  0  0  0
 65144  1  0  0  0
 68 82  1  0  0  0
 71 72  2  0  0  0
 71 73  1  0  0  0
 71145  1  0  0  0
 72 74  1  0  0  0
 72146  1  0  0  0
 73 76  2  0  0  0
 73147  1  0  0  0
 74 75  2  0  0  0
 74 78  1  0  0  0
 75 76  1  0  0  0
 75 79  1  0  0  0
 76 83  1  0  0  0
 77 80  1  0  0  0
 77 84  1  0  0  0
 77 85  2  0  0  0
 78148  1  0  0  0
 78149  1  0  0  0
 78150  1  0  0  0
 79 84  1  0  0  0
 79151  1  0  0  0
 79152  1  0  0  0
 80 81  1  0  0  0
 80153  1  0  0  0
 80154  1  0  0  0
 81 82  1  0  0  0
 81155  1  0  0  0
 81156  1  0  0  0
 82157  1  0  0  0
 82158  1  0  0  0
 83159  1  0  0  0
 84160  1  0  0  0
M  ISO  4   1 100  68 101  82 101  83 100
M  END
> <chiral flag>
0

> <version>
0

> <s_m_source_file>
/data/baiqing/PycharmProjects/Reinvent-master-3.2/result/LINK_invent/BTK/process_docking_weight1_custom_product_contain_oxygen_bond_distance_aromatic_linkinvent_7_9_3/rearranged_h_0057.sdf

> <i_m_source_file_index>
15

> <r_mmod_Potential_Energy-OPLS-2005>
96.4026260375977

> <r_mmod_Stretch_Energy-OPLS-2005>
97.3175659179688

> <r_mmod_Bend_Energy-OPLS-2005>
182.395935058594

> <r_mmod_Torsional_Energy-OPLS-2005>
283.351043701172

> <r_mmod_Improper_Torsional_Energy-OPLS-2005>
11.7829313278198

> <r_mmod_Van_der_Waal_Energy-OPLS-2005>
140.408355712891

> <r_mmod_Electrostatic_Energy-OPLS-2005>
-447.273590087891

> <r_mmod_Solvation_Energy-OPLS-2005>
-233.291290283203

> <b_mmod_Minimization_Converged-OPLS-2005>
0

> <r_mmod_RMS_Derivative-OPLS-2005>
6.97539520263672

$$$$
15
                    3D
 Structure written by MMmdl.
158167  0  0  1  0            999 V2000
  -30.6824  -14.4860   20.5855 C   0  0  0  0  0  0
  -30.4339  -12.3199   19.4178 C   0  0  0  0  0  0
  -29.4960  -12.5043   18.2048 C   0  0  0  0  0  0
  -28.0177  -12.3582   18.6209 C   0  0  0  0  0  0
  -27.6631  -13.1998   19.8754 C   0  0  2  0  0  0
  -28.7050  -12.9673   20.9928 C   0  0  0  0  0  0
  -25.2609  -13.8143   20.5679 C   0  0  0  0  0  0
  -24.1853  -13.0434   20.9185 C   0  0  0  0  0  0
  -24.6391  -11.6895   20.8736 C   0  0  0  0  0  0
  -23.9056  -10.4293   21.0408 C   0  0  0  0  0  0
  -24.3608   -9.4206   21.9192 C   0  0  0  0  0  0
  -23.6286   -8.2239   22.0758 C   0  0  0  0  0  0
  -22.4270   -8.0279   21.3549 C   0  0  0  0  0  0
  -21.9907   -9.0247   20.4642 C   0  0  0  0  0  0
  -22.7232  -10.2130   20.3053 C   0  0  0  0  0  0
  -21.6849   -6.0737   22.5283 C   0  0  0  0  0  0
  -21.4004   -6.5640   23.8214 C   0  0  0  0  0  0
  -21.3656   -5.6793   24.9178 C   0  0  0  0  0  0
  -21.6046   -4.3055   24.7225 C   0  0  0  0  0  0
  -21.8822   -3.8147   23.4342 C   0  0  0  0  0  0
  -21.9192   -4.6966   22.3404 C   0  0  0  0  0  0
  -22.7878  -13.5248   21.1843 C   0  0  0  0  0  0
  -22.1663   -4.2155   21.0980 F   0  0  0  0  0  0
  -21.5634   -3.4536   25.7733 F   0  0  0  0  0  0
  -30.0361  -13.2938   20.4467 N   0  0  0  0  0  0
  -26.3028  -12.9294   20.3363 N   0  0  0  0  0  0
  -25.9317  -11.6464   20.5767 N   0  0  0  0  0  0
  -22.0500  -12.8229   22.0377 N   0  0  0  0  0  0
  -25.4355  -15.1856   20.4085 N   0  0  0  0  0  0
  -31.8027  -14.6909   20.1088 O   0  0  0  0  0  0
  -21.6640   -6.8875   21.4238 O   0  0  0  0  0  0
  -22.3579  -14.5563   20.6708 O   0  0  0  0  0  0
  -24.6156  -31.8667   23.2081 C   0  0  0  0  0  0
  -25.9033  -32.4827   23.8387 C   0  0  1  0  0  0
  -27.2319  -27.4169   20.0971 C   0  0  0  0  0  0
  -25.5884  -33.8625   24.2317 N   0  0  0  0  0  0
  -23.4047  -30.4925   21.5494 C   0  0  2  0  0  0
  -24.8496  -28.9592   20.1124 C   0  0  0  0  0  0
  -22.7420  -29.4662   22.4974 C   0  0  0  0  0  0
  -18.0280  -28.1381   22.8520 C   0  0  0  0  0  0
  -24.1474  -36.7298   23.2641 C   0  0  0  0  0  0
  -25.9354  -30.8318   21.3588 C   0  0  0  0  0  0
  -26.0132  -29.4642   20.7053 C   0  0  0  0  0  0
  -27.2069  -28.7031   20.6900 C   0  0  0  0  0  0
  -26.0439  -26.9354   19.4940 C   0  0  0  0  0  0
  -24.8605  -27.6950   19.5032 C   0  0  0  0  0  0
  -23.6129  -29.8266   20.1639 C   0  0  0  0  0  0
  -25.4099  -36.3111   24.0348 C   0  0  1  0  0  0
  -20.5880  -28.3660   23.1321 C   0  0  2  0  0  0
  -20.6761  -26.9398   22.5414 C   0  0  0  0  0  0
  -19.5731  -26.6401   21.5219 C   0  0  0  0  0  0
  -18.1914  -26.7942   22.1639 C   0  0  0  0  0  0
  -19.1538  -28.8834   23.2924 C   0  0  0  0  0  0
  -18.9460  -30.1444   23.8921 C   0  0  0  0  0  0
  -17.6461  -30.6592   24.0584 C   0  0  0  0  0  0
  -25.9040  -34.9485   23.5134 C   0  0  0  0  0  0
  -16.5349  -29.9101   23.6337 C   0  0  0  0  0  0
  -16.7271  -28.6521   23.0358 C   0  0  0  0  0  0
  -26.4457  -31.6605   25.0709 C   0  0  0  0  0  0
  -25.3730  -31.3703   26.1463 C   0  0  0  0  0  0
  -27.0282  -30.3061   24.6053 C   0  0  0  0  0  0
  -27.6020  -32.4329   25.7479 C   0  0  0  0  0  0
  -27.5574  -37.1807   24.8475 C   0  0  0  0  0  0
  -21.4151  -29.3033   22.3720 N   0  0  0  0  0  0
  -26.4279  -37.3799   23.9430 N   0  0  0  0  0  0
  -24.6713  -31.0769   22.0985 N   0  0  0  0  0  0
  -23.4195  -28.8198   23.3014 O   0  0  0  0  0  0
  -28.3952  -26.6637   20.1273 O   0  0  0  0  0  0
  -26.5603  -34.8934   22.4700 O   0  0  0  0  0  0
  -23.5342  -32.1414   23.7476 O   0  0  0  0  0  0
  -29.0985  -19.0605   21.7412 C   0  0  0  0  0  0
  -31.4841  -18.9250   21.3270 C   0  0  0  0  0  0
  -28.9931  -17.6632   21.5534 C   0  0  0  0  0  0
  -31.3785  -17.5277   21.1330 C   0  0  0  0  0  0
  -30.3517  -19.7030   21.6606 C   0  0  0  0  0  0
  -30.1300  -16.8715   21.2643 C   0  0  0  0  0  0
  -29.3432  -23.2956   21.4544 C   0  0  0  0  0  0
  -30.2577  -23.7271   19.2946 C   0  0  0  0  0  0
  -30.8347  -22.4351   19.9014 C   0  0  0  0  0  0
  -29.5333  -24.4408   20.4479 C   0  0  1  0  0  0
  -30.5122  -21.1705   22.0825 C   0  0  0  0  0  0
  -28.2467  -25.2280   20.0534 C   0  0  0  0  0  0
  -30.0936  -22.2218   21.1367 N   0  0  0  0  0  0
  -29.9434  -15.4519   21.1752 N   0  0  0  0  0  0
  -28.6474  -23.4064   22.4686 O   0  0  0  0  0  0
  -31.4746  -12.4404   19.1119 H   0  0  0  0  0  0
  -30.3576  -11.3057   19.8133 H   0  0  0  0  0  0
  -29.7385  -11.7755   17.4300 H   0  0  0  0  0  0
  -29.6551  -13.4873   17.7587 H   0  0  0  0  0  0
  -27.8360  -11.3025   18.8239 H   0  0  0  0  0  0
  -27.3628  -12.6222   17.7894 H   0  0  0  0  0  0
  -27.7108  -14.2482   19.5811 H   0  0  0  0  0  0
  -28.6873  -11.9233   21.3093 H   0  0  0  0  0  0
  -28.4585  -13.5407   21.8869 H   0  0  0  0  0  0
  -25.2749   -9.5691   22.4766 H   0  0  0  0  0  0
  -23.9998   -7.4631   22.7477 H   0  0  0  0  0  0
  -21.0847   -8.8757   19.8941 H   0  0  0  0  0  0
  -22.3694  -10.9664   19.6155 H   0  0  0  0  0  0
  -21.1982   -7.6147   23.9716 H   0  0  0  0  0  0
  -21.1482   -6.0525   25.9085 H   0  0  0  0  0  0
  -22.0600   -2.7611   23.2838 H   0  0  0  0  0  0
  -22.4096  -11.9870   22.4740 H   0  0  0  0  0  0
  -21.1116  -13.1269   22.2565 H   0  0  0  0  0  0
  -24.6689  -15.8417   20.5110 H   0  0  0  0  0  0
  -26.2835  -15.6178   20.0633 H   0  0  0  0  0  0
  -26.7100  -32.5525   23.1149 H   0  0  0  0  0  0
  -25.0030  -33.9792   25.0460 H   0  0  0  0  0  0
  -22.6957  -31.3114   21.4107 H   0  0  0  0  0  0
  -23.3756  -35.9612   23.3310 H   0  0  0  0  0  0
  -24.3569  -36.8897   22.2052 H   0  0  0  0  0  0
  -23.7203  -37.6500   23.6643 H   0  0  0  0  0  0
  -26.0427  -31.5964   20.5889 H   0  0  0  0  0  0
  -26.8252  -30.8882   21.9741 H   0  0  0  0  0  0
  -28.1057  -29.0925   21.1500 H   0  0  0  0  0  0
  -26.0053  -25.9716   19.0091 H   0  0  0  0  0  0
  -23.9661  -27.3003   19.0414 H   0  0  0  0  0  0
  -23.7200  -30.6016   19.4040 H   0  0  0  0  0  0
  -22.7367  -29.2448   19.8691 H   0  0  0  0  0  0
  -25.1275  -36.1966   25.0840 H   0  0  0  0  0  0
  -20.9998  -28.3200   24.1435 H   0  0  0  0  0  0
  -20.5663  -26.2260   23.3598 H   0  0  0  0  0  0
  -21.6619  -26.7433   22.1185 H   0  0  0  0  0  0
  -19.6886  -25.6329   21.1200 H   0  0  0  0  0  0
  -19.6662  -27.3251   20.6780 H   0  0  0  0  0  0
  -17.4192  -26.6724   21.4028 H   0  0  0  0  0  0
  -18.0296  -26.0070   22.9017 H   0  0  0  0  0  0
  -19.7928  -30.7266   24.2280 H   0  0  0  0  0  0
  -17.5018  -31.6271   24.5188 H   0  0  0  0  0  0
  -15.5352  -30.3011   23.7652 H   0  0  0  0  0  0
  -15.8678  -28.0852   22.7038 H   0  0  0  0  0  0
  -24.5911  -30.7043   25.7801 H   0  0  0  0  0  0
  -24.8907  -32.2848   26.4919 H   0  0  0  0  0  0
  -25.8092  -30.8872   27.0214 H   0  0  0  0  0  0
  -26.2805  -29.6845   24.1113 H   0  0  0  0  0  0
  -27.4090  -29.7271   25.4472 H   0  0  0  0  0  0
  -27.8624  -30.4408   23.9168 H   0  0  0  0  0  0
  -27.2634  -33.3641   26.2034 H   0  0  0  0  0  0
  -28.3848  -32.6869   25.0322 H   0  0  0  0  0  0
  -28.0668  -31.8468   26.5416 H   0  0  0  0  0  0
  -28.2593  -38.0100   24.7529 H   0  0  0  0  0  0
  -28.1061  -36.2639   24.6285 H   0  0  0  0  0  0
  -27.2300  -37.1432   25.8877 H   0  0  0  0  0  0
  -20.9298  -29.8778   21.6967 H   0  0  0  0  0  0
  -26.0171  -38.2874   24.1443 H   0  0  0  0  0  0
  -28.2169  -19.6295   22.0033 H   0  0  0  0  0  0
  -32.4588  -19.3901   21.2678 H   0  0  0  0  0  0
  -28.0235  -17.1976   21.6630 H   0  0  0  0  0  0
  -32.2806  -16.9717   20.9262 H   0  0  0  0  0  0
  -29.5581  -23.4677   18.4987 H   0  0  0  0  0  0
  -31.0377  -24.3490   18.8538 H   0  0  0  0  0  0
  -31.8943  -22.5589   20.1306 H   0  0  0  0  0  0
  -30.7313  -21.5860   19.2250 H   0  0  0  0  0  0
  -30.2300  -25.1283   20.9289 H   0  0  0  0  0  0
  -31.5599  -21.3481   22.3279 H   0  0  0  0  0  0
  -29.9875  -21.2906   23.0316 H   0  0  0  0  0  0
  -27.4233  -24.9287   20.7046 H   0  0  0  0  0  0
  -27.9519  -24.9532   19.0405 H   0  0  0  0  0  0
  -29.0441  -15.1190   21.4873 H   0  0  0  0  0  0
  1 25  1  0  0  0
  1 30  2  0  0  0
  1 84  1  0  0  0
  2  3  1  0  0  0
  2 25  1  0  0  0
  2 86  1  0  0  0
  2 87  1  0  0  0
  3  4  1  0  0  0
  3 88  1  0  0  0
  3 89  1  0  0  0
  4  5  1  0  0  0
  4 90  1  0  0  0
  4 91  1  0  0  0
  5  6  1  0  0  0
  5 26  1  0  0  0
  5 92  1  0  0  0
  6 25  1  0  0  0
  6 93  1  0  0  0
  6 94  1  0  0  0
  7  8  2  0  0  0
  7 26  1  0  0  0
  7 29  1  0  0  0
  8  9  1  0  0  0
  8 22  1  0  0  0
  9 10  1  0  0  0
  9 27  2  0  0  0
 10 11  2  0  0  0
 10 15  1  0  0  0
 11 12  1  0  0  0
 11 95  1  0  0  0
 12 13  2  0  0  0
 12 96  1  0  0  0
 13 14  1  0  0  0
 13 31  1  0  0  0
 14 15  2  0  0  0
 14 97  1  0  0  0
 15 98  1  0  0  0
 16 17  2  0  0  0
 16 21  1  0  0  0
 16 31  1  0  0  0
 17 18  1  0  0  0
 17 99  1  0  0  0
 18 19  2  0  0  0
 18100  1  0  0  0
 19 20  1  0  0  0
 19 24  1  0  0  0
 20 21  2  0  0  0
 20101  1  0  0  0
 21 23  1  0  0  0
 22 28  1  0  0  0
 22 32  2  0  0  0
 26 27  1  0  0  0
 28102  1  0  0  0
 28103  1  0  0  0
 29104  1  0  0  0
 29105  1  0  0  0
 33 34  1  0  0  0
 33 66  1  0  0  0
 33 70  2  0  0  0
 34 36  1  0  0  0
 34 59  1  0  0  0
 34106  1  0  0  0
 35 44  2  0  0  0
 35 45  1  0  0  0
 35 68  1  0  0  0
 36 56  1  0  0  0
 36107  1  0  0  0
 37 39  1  0  0  0
 37 47  1  0  0  0
 37 66  1  0  0  0
 37108  1  0  0  0
 38 43  2  0  0  0
 38 46  1  0  0  0
 38 47  1  0  0  0
 39 64  1  0  0  0
 39 67  2  0  0  0
 40 52  1  0  0  0
 40 53  2  0  0  0
 40 58  1  0  0  0
 41109  1  0  0  0
 41110  1  0  0  0
 41111  1  0  0  0
 41 48  1  0  0  0
 42 43  1  0  0  0
 42 66  1  0  0  0
 42112  1  0  0  0
 42113  1  0  0  0
 43 44  1  0  0  0
 44114  1  0  0  0
 45 46  2  0  0  0
 45115  1  0  0  0
 46116  1  0  0  0
 47117  1  0  0  0
 47118  1  0  0  0
 48 56  1  0  0  0
 48 65  1  0  0  0
 48119  1  0  0  0
 49 50  1  0  0  0
 49 53  1  0  0  0
 49 64  1  0  0  0
 49120  1  0  0  0
 50 51  1  0  0  0
 50121  1  0  0  0
 50122  1  0  0  0
 51 52  1  0  0  0
 51123  1  0  0  0
 51124  1  0  0  0
 52125  1  0  0  0
 52126  1  0  0  0
 53 54  1  0  0  0
 54 55  2  0  0  0
 54127  1  0  0  0
 55 57  1  0  0  0
 55128  1  0  0  0
 56 69  2  0  0  0
 57 58  2  0  0  0
 57129  1  0  0  0
 58130  1  0  0  0
 59 60  1  0  0  0
 59 61  1  0  0  0
 59 62  1  0  0  0
 60131  1  0  0  0
 60132  1  0  0  0
 60133  1  0  0  0
 61134  1  0  0  0
 61135  1  0  0  0
 61136  1  0  0  0
 62137  1  0  0  0
 62138  1  0  0  0
 62139  1  0  0  0
 63 65  1  0  0  0
 63140  1  0  0  0
 63141  1  0  0  0
 63142  1  0  0  0
 64143  1  0  0  0
 65144  1  0  0  0
 68 82  1  0  0  0
 71 73  2  0  0  0
 71 75  1  0  0  0
 71145  1  0  0  0
 72 74  1  0  0  0
 72 75  2  0  0  0
 72146  1  0  0  0
 73 76  1  0  0  0
 73147  1  0  0  0
 74 76  2  0  0  0
 74148  1  0  0  0
 75 81  1  0  0  0
 76 84  1  0  0  0
 77 80  1  0  0  0
 77 83  1  0  0  0
 77 85  2  0  0  0
 78 79  1  0  0  0
 78 80  1  0  0  0
 78149  1  0  0  0
 78150  1  0  0  0
 79 83  1  0  0  0
 79151  1  0  0  0
 79152  1  0  0  0
 80 82  1  0  0  0
 80153  1  0  0  0
 81 83  1  0  0  0
 81154  1  0  0  0
 81155  1  0  0  0
 82156  1  0  0  0
 82157  1  0  0  0
 84158  1  0  0  0
M  ISO  4   1 100  68 101  82 101  84 100
M  END
> <chiral flag>
0

> <version>
0

> <s_m_source_file>
/data/baiqing/PycharmProjects/Reinvent-master-3.2/result/LINK_invent/BTK/process_docking_weight1_custom_product_contain_oxygen_bond_distance_aromatic_linkinvent_7_9_3/rearranged_h_0057.sdf

> <i_m_source_file_index>
16

> <r_mmod_Potential_Energy-OPLS-2005>
-6.18163681030273

> <r_mmod_Stretch_Energy-OPLS-2005>
40.9648971557617

> <r_mmod_Bend_Energy-OPLS-2005>
128.747619628906

> <r_mmod_Torsional_Energy-OPLS-2005>
252.361419677734

> <r_mmod_Improper_Torsional_Energy-OPLS-2005>
5.40645551681519

> <r_mmod_Van_der_Waal_Energy-OPLS-2005>
152.988586425781

> <r_mmod_Electrostatic_Energy-OPLS-2005>
-372.244598388672

> <r_mmod_Solvation_Energy-OPLS-2005>
-229.024993896484

> <b_mmod_Minimization_Converged-OPLS-2005>
0

> <r_mmod_RMS_Derivative-OPLS-2005>
1.73813021183014

$$$$
16
                    3D
 Structure written by MMmdl.
165173  0  0  1  0            999 V2000
  -29.4035  -16.0495   20.3489 C   0  0  0  0  0  0
  -30.2400  -13.4654   19.6238 C   0  0  0  0  0  0
  -29.5103  -12.7789   18.4187 C   0  0  0  0  0  0
  -28.1265  -12.2579   18.8414 C   0  0  0  0  0  0
  -27.4916  -13.2704   19.8121 C   0  0  2  0  0  0
  -28.3891  -13.6532   20.9902 C   0  0  0  0  0  0
  -25.1813  -13.8149   20.5611 C   0  0  0  0  0  0
  -24.1303  -13.0387   20.9391 C   0  0  0  0  0  0
  -24.5984  -11.6880   20.8903 C   0  0  0  0  0  0
  -23.8782  -10.4266   21.0524 C   0  0  0  0  0  0
  -24.3450   -9.4188   21.9225 C   0  0  0  0  0  0
  -23.6211   -8.2178   22.0724 C   0  0  0  0  0  0
  -22.4186   -8.0207   21.3529 C   0  0  0  0  0  0
  -21.9781   -9.0151   20.4615 C   0  0  0  0  0  0
  -22.7015  -10.2087   20.3098 C   0  0  0  0  0  0
  -21.6830   -6.0666   22.5287 C   0  0  0  0  0  0
  -21.3985   -6.5593   23.8213 C   0  0  0  0  0  0
  -21.3649   -5.6765   24.9187 C   0  0  0  0  0  0
  -21.6060   -4.3030   24.7245 C   0  0  0  0  0  0
  -21.8826   -3.8096   23.4371 C   0  0  0  0  0  0
  -21.9187   -4.6898   22.3418 C   0  0  0  0  0  0
  -22.7410  -13.5202   21.2052 C   0  0  0  0  0  0
  -22.1659   -4.2092   21.0994 F   0  0  0  0  0  0
  -21.5636   -3.4516   25.7760 F   0  0  0  0  0  0
  -29.3431  -14.5452   20.3382 N   0  0  0  0  0  0
  -26.1948  -12.9261   20.2901 N   0  0  0  0  0  0
  -25.8825  -11.6445   20.5687 N   0  0  0  0  0  0
  -22.0117  -12.8201   22.0625 N   0  0  0  0  0  0
  -25.3756  -15.1825   20.3754 N   0  0  0  0  0  0
  -30.6559  -16.1751   20.1477 O   0  0  0  0  0  0
  -21.6601   -6.8781   21.4230 O   0  0  0  0  0  0
  -22.3182  -14.5551   20.6915 O   0  0  0  0  0  0
  -24.7679  -31.8650   22.7812 C   0  0  0  0  0  0
  -26.0070  -32.4686   23.6285 C   0  0  1  0  0  0
  -26.6528  -27.9691   21.3682 C   0  0  0  0  0  0
  -25.6185  -33.8203   24.0811 N   0  0  0  0  0  0
  -24.0919  -29.4036   21.1803 C   0  0  2  0  0  0
  -25.3618  -29.0257   19.4628 C   0  0  0  0  0  0
  -23.6150  -27.6578   22.2618 C   0  0  0  0  0  0
  -18.1145  -28.0596   22.7732 C   0  0  0  0  0  0
  -24.1466  -36.7193   23.2714 C   0  0  0  0  0  0
  -26.0413  -31.0412   20.8844 C   0  0  0  0  0  0
  -26.3734  -29.7425   20.1730 C   0  0  0  0  0  0
  -27.3672  -28.9721   20.7574 C   0  0  0  0  0  0
  -26.0802  -27.0456   20.4159 C   0  0  0  0  0  0
  -25.4076  -27.6372   19.3432 C   0  0  0  0  0  0
  -24.0376  -29.4897   19.6584 C   0  0  0  0  0  0
  -25.4139  -36.2840   24.0242 C   0  0  1  0  0  0
  -20.7116  -27.5326   23.2582 C   0  0  2  0  0  0
  -20.3475  -26.2491   22.5461 C   0  0  0  0  0  0
  -19.3350  -26.3342   21.4166 C   0  0  0  0  0  0
  -18.0334  -26.7393   22.0472 C   0  0  0  0  0  0
  -19.3707  -28.5954   23.2508 C   0  0  0  0  0  0
  -19.1259  -29.8877   23.8875 C   0  0  0  0  0  0
  -17.8575  -30.5092   24.0570 C   0  0  0  0  0  0
  -25.9268  -34.9510   23.4431 C   0  0  0  0  0  0
  -16.6915  -29.8832   23.6239 C   0  0  0  0  0  0
  -16.8387  -28.6586   22.9652 C   0  0  0  0  0  0
  -26.5110  -31.7203   24.9837 C   0  0  0  0  0  0
  -25.4250  -31.5574   26.1061 C   0  0  0  0  0  0
  -27.2390  -30.3734   24.6776 C   0  0  0  0  0  0
  -27.6243  -32.5564   25.6832 C   0  0  0  0  0  0
  -27.5533  -37.1735   24.8479 C   0  0  0  0  0  0
  -22.3466  -27.3814   23.0717 N   0  0  0  0  0  0
  -26.4141  -37.3752   23.9577 N   0  0  0  0  0  0
  -24.8193  -30.8993   21.6633 N   0  0  0  0  0  0
  -24.3549  -26.9501   22.8452 O   0  0  0  0  0  0
  -26.1112  -28.5455   22.6460 O   0  0  0  0  0  0
  -26.6014  -34.9507   22.4131 O   0  0  0  0  0  0
  -23.7296  -32.1858   23.3723 O   0  0  0  0  0  0
  -23.2865  -22.2644   20.6388 C   0  0  0  0  0  0
  -23.5194  -20.8337   20.6442 C   0  0  0  0  0  0
  -24.2542  -23.3038   20.5089 C   0  0  0  0  0  0
  -26.0602  -20.5839   20.4658 C   0  0  0  0  0  0
  -25.6598  -22.2809   20.4098 C   0  0  0  0  0  0
  -24.7401  -20.0619   20.5713 C   0  0  0  0  0  0
  -23.3369  -25.0393   20.1159 C   0  0  0  0  0  0
  -21.6698  -31.0157   22.2660 C   0  0  0  0  0  0
  -22.0659  -29.8164   24.3682 C   0  0  0  0  0  0
  -27.5843  -19.1573   20.3743 C   0  0  0  0  0  0
  -21.7385  -28.3609   20.9608 C   0  0  0  0  0  0
  -24.5960  -29.3654   23.5694 C   0  0  0  0  0  0
  -22.4619  -29.7329   22.8078 C   0  0  0  0  0  0
  -23.3175  -24.9639   18.7917 N   0  0  0  0  0  0
  -28.2177  -17.2662   20.4409 N   0  0  0  0  0  0
  -22.5019  -26.5452   20.2827 N   0  3  0  0  0  0
  -26.7759  -23.0234   20.2221 F   0  0  0  0  0  0
  -24.5546  -18.3473   20.6077 Cl  0  0  0  0  0  0
  -31.1711  -13.9187   19.2809 H   0  0  0  0  0  0
  -30.5790  -12.7081   20.3303 H   0  0  0  0  0  0
  -30.1191  -11.9743   18.0019 H   0  0  0  0  0  0
  -29.3845  -13.5226   17.6360 H   0  0  0  0  0  0
  -28.2515  -11.3037   19.3571 H   0  0  0  0  0  0
  -27.4890  -12.0623   17.9806 H   0  0  0  0  0  0
  -27.3322  -14.1503   19.1820 H   0  0  0  0  0  0
  -28.8167  -12.7756   21.4848 H   0  0  0  0  0  0
  -27.8515  -14.2065   21.7719 H   0  0  0  0  0  0
  -25.2585   -9.5729   22.4785 H   0  0  0  0  0  0
  -23.9971   -7.4555   22.7404 H   0  0  0  0  0  0
  -21.0731   -8.8589   19.8891 H   0  0  0  0  0  0
  -22.3414  -10.9617   19.6219 H   0  0  0  0  0  0
  -21.1967   -7.6099   23.9704 H   0  0  0  0  0  0
  -21.1469   -6.0489   25.9093 H   0  0  0  0  0  0
  -22.0624   -2.7555   23.2892 H   0  0  0  0  0  0
  -22.3796  -11.9854   22.4915 H   0  0  0  0  0  0
  -21.0745  -13.1185   22.2932 H   0  0  0  0  0  0
  -24.5782  -15.8063   20.4363 H   0  0  0  0  0  0
  -25.9853  -15.4375   19.6107 H   0  0  0  0  0  0
  -26.8868  -32.5800   23.0002 H   0  0  0  0  0  0
  -25.0109  -33.8621   24.8863 H   0  0  0  0  0  0
  -23.2797  -30.0120   20.8578 H   0  0  0  0  0  0
  -23.3821  -35.9419   23.3078 H   0  0  0  0  0  0
  -24.3555  -36.9221   22.2208 H   0  0  0  0  0  0
  -23.7131  -37.6199   23.7046 H   0  0  0  0  0  0
  -25.8738  -31.8042   20.1248 H   0  0  0  0  0  0
  -26.9235  -31.3479   21.4337 H   0  0  0  0  0  0
  -28.0131  -29.5274   21.4235 H   0  0  0  0  0  0
  -25.8084  -26.0472   20.7176 H   0  0  0  0  0  0
  -24.6888  -27.0900   18.7586 H   0  0  0  0  0  0
  -23.9592  -30.4843   19.1918 H   0  0  0  0  0  0
  -23.3654  -28.8323   19.1101 H   0  0  0  0  0  0
  -25.1403  -36.1210   25.0702 H   0  0  0  0  0  0
  -20.6513  -27.2482   24.3112 H   0  0  0  0  0  0
  -19.8968  -25.5815   23.2881 H   0  0  0  0  0  0
  -21.1817  -25.6395   22.2079 H   0  0  0  0  0  0
  -19.2280  -25.3462   20.9772 H   0  0  0  0  0  0
  -19.5523  -26.9483   20.5523 H   0  0  0  0  0  0
  -17.2676  -26.8001   21.2695 H   0  0  0  0  0  0
  -17.6877  -25.9735   22.7423 H   0  0  0  0  0  0
  -19.8567  -30.5033   24.3625 H   0  0  0  0  0  0
  -17.7849  -31.4546   24.5784 H   0  0  0  0  0  0
  -15.7217  -30.3307   23.7927 H   0  0  0  0  0  0
  -15.9429  -28.1792   22.5922 H   0  0  0  0  0  0
  -24.4094  -31.3969   25.7557 H   0  0  0  0  0  0
  -25.3316  -32.4763   26.6865 H   0  0  0  0  0  0
  -25.6752  -30.7709   26.8190 H   0  0  0  0  0  0
  -26.7100  -29.4778   25.0036 H   0  0  0  0  0  0
  -28.1831  -30.2859   25.2176 H   0  0  0  0  0  0
  -27.5119  -30.2862   23.6269 H   0  0  0  0  0  0
  -27.2680  -33.5215   26.0441 H   0  0  0  0  0  0
  -28.4598  -32.7613   25.0144 H   0  0  0  0  0  0
  -28.0319  -32.0484   26.5586 H   0  0  0  0  0  0
  -28.2365  -38.0190   24.7664 H   0  0  0  0  0  0
  -28.1176  -36.2743   24.5994 H   0  0  0  0  0  0
  -27.2377  -37.1057   25.8898 H   0  0  0  0  0  0
  -22.6367  -26.6442   23.6959 H   0  0  0  0  0  0
  -25.9882  -38.2717   24.1766 H   0  0  0  0  0  0
  -22.2504  -22.5708   20.6515 H   0  0  0  0  0  0
  -22.6259  -20.2274   20.6741 H   0  0  0  0  0  0
  -20.6781  -30.6958   21.9432 H   0  0  0  0  0  0
  -22.0866  -31.5029   21.3852 H   0  0  0  0  0  0
  -21.4643  -31.8231   22.9665 H   0  0  0  0  0  0
  -21.3195  -29.1764   24.7947 H   0  0  0  0  0  0
  -21.8675  -30.8255   24.7253 H   0  0  0  0  0  0
  -22.8543  -29.5517   25.0531 H   0  0  0  0  0  0
  -28.2813  -19.6192   21.0762 H   0  0  0  0  0  0
  -27.9927  -19.4075   19.3938 H   0  0  0  0  0  0
  -21.6772  -28.9858   20.0746 H   0  0  0  0  0  0
  -20.6726  -28.3673   21.0474 H   0  0  0  0  0  0
  -24.8575  -30.0577   24.3160 H   0  0  0  0  0  0
  -24.5315  -28.6297   24.3810 H   0  0  0  0  0  0
  -23.7235  -24.1388   18.3771 H   0  0  0  0  0  0
  -23.1422  -25.7535   18.1965 H   0  0  0  0  0  0
  -27.3747  -16.7313   20.6225 H   0  0  0  0  0  0
  -21.9027  -26.4904   19.4689 H   0  0  0  0  0  0
  1 25  1  0  0  0
  1 30  2  0  0  0
  1 85  1  0  0  0
  2  3  1  0  0  0
  2 25  1  0  0  0
  2 89  1  0  0  0
  2 90  1  0  0  0
  3  4  1  0  0  0
  3 91  1  0  0  0
  3 92  1  0  0  0
  4  5  1  0  0  0
  4 93  1  0  0  0
  4 94  1  0  0  0
  5  6  1  0  0  0
  5 26  1  0  0  0
  5 95  1  0  0  0
  6 25  1  0  0  0
  6 96  1  0  0  0
  6 97  1  0  0  0
  7  8  2  0  0  0
  7 26  1  0  0  0
  7 29  1  0  0  0
  8  9  1  0  0  0
  8 22  1  0  0  0
  9 10  1  0  0  0
  9 27  2  0  0  0
 10 11  2  0  0  0
 10 15  1  0  0  0
 11 12  1  0  0  0
 11 98  1  0  0  0
 12 13  2  0  0  0
 12 99  1  0  0  0
 13 14  1  0  0  0
 13 31  1  0  0  0
 14 15  2  0  0  0
 14100  1  0  0  0
 15101  1  0  0  0
 16 17  2  0  0  0
 16 21  1  0  0  0
 16 31  1  0  0  0
 17 18  1  0  0  0
 17102  1  0  0  0
 18 19  2  0  0  0
 18103  1  0  0  0
 19 20  1  0  0  0
 19 24  1  0  0  0
 20 21  2  0  0  0
 20104  1  0  0  0
 21 23  1  0  0  0
 22 28  1  0  0  0
 22 32  2  0  0  0
 26 27  1  0  0  0
 28105  1  0  0  0
 28106  1  0  0  0
 29107  1  0  0  0
 29108  1  0  0  0
 33 34  1  0  0  0
 33 66  1  0  0  0
 33 70  2  0  0  0
 34 36  1  0  0  0
 34 59  1  0  0  0
 34109  1  0  0  0
 35 44  2  0  0  0
 35 45  1  0  0  0
 35 68  1  0  0  0
 36 56  1  0  0  0
 36110  1  0  0  0
 37 39  1  0  0  0
 37 47  1  0  0  0
 37 66  1  0  0  0
 37111  1  0  0  0
 38 43  2  0  0  0
 38 46  1  0  0  0
 38 47  1  0  0  0
 39 64  1  0  0  0
 39 67  2  0  0  0
 40 52  1  0  0  0
 40 53  2  0  0  0
 40 58  1  0  0  0
 41112  1  0  0  0
 41113  1  0  0  0
 41114  1  0  0  0
 41 48  1  0  0  0
 42 43  1  0  0  0
 42 66  1  0  0  0
 42115  1  0  0  0
 42116  1  0  0  0
 43 44  1  0  0  0
 44117  1  0  0  0
 45 46  2  0  0  0
 45118  1  0  0  0
 46119  1  0  0  0
 47120  1  0  0  0
 47121  1  0  0  0
 48 56  1  0  0  0
 48 65  1  0  0  0
 48122  1  0  0  0
 49 50  1  0  0  0
 49 53  1  0  0  0
 49 64  1  0  0  0
 49123  1  0  0  0
 50 51  1  0  0  0
 50124  1  0  0  0
 50125  1  0  0  0
 51 52  1  0  0  0
 51126  1  0  0  0
 51127  1  0  0  0
 52128  1  0  0  0
 52129  1  0  0  0
 53 54  1  0  0  0
 54 55  2  0  0  0
 54130  1  0  0  0
 55 57  1  0  0  0
 55131  1  0  0  0
 56 69  2  0  0  0
 57 58  2  0  0  0
 57132  1  0  0  0
 58133  1  0  0  0
 59 60  1  0  0  0
 59 61  1  0  0  0
 59 62  1  0  0  0
 60134  1  0  0  0
 60135  1  0  0  0
 60136  1  0  0  0
 61137  1  0  0  0
 61138  1  0  0  0
 61139  1  0  0  0
 62140  1  0  0  0
 62141  1  0  0  0
 62142  1  0  0  0
 63 65  1  0  0  0
 63143  1  0  0  0
 63144  1  0  0  0
 63145  1  0  0  0
 64146  1  0  0  0
 65147  1  0  0  0
 68 82  1  0  0  0
 71 72  2  0  0  0
 71 73  1  0  0  0
 71148  1  0  0  0
 72 76  1  0  0  0
 72149  1  0  0  0
 73 75  2  0  0  0
 73 77  1  0  0  0
 74 75  1  0  0  0
 74 76  2  0  0  0
 74 80  1  0  0  0
 75 87  1  0  0  0
 76 88  1  0  0  0
 77 84  1  0  0  0
 77 86  2  0  0  0
 78150  1  0  0  0
 78151  1  0  0  0
 78152  1  0  0  0
 78 83  1  0  0  0
 79 83  1  0  0  0
 79153  1  0  0  0
 79154  1  0  0  0
 79155  1  0  0  0
 80 85  1  0  0  0
 80156  1  0  0  0
 80157  1  0  0  0
 81 83  1  0  0  0
 81 86  1  0  0  0
 81158  1  0  0  0
 81159  1  0  0  0
 82 83  1  0  0  0
 82160  1  0  0  0
 82161  1  0  0  0
 84162  1  0  0  0
 84163  1  0  0  0
 85164  1  0  0  0
 86165  1  0  0  0
M  CHG  1  86   1
M  ISO  4   1 100  68 101  82 101  85 100
M  END
> <chiral flag>
0

> <version>
0

> <s_m_source_file>
/data/baiqing/PycharmProjects/Reinvent-master-3.2/result/LINK_invent/BTK/process_docking_weight1_custom_product_contain_oxygen_bond_distance_aromatic_linkinvent_7_9_3/rearranged_h_0057.sdf

> <i_m_source_file_index>
17

> <r_mmod_Potential_Energy-OPLS-2005>
15296.6298828125

> <r_mmod_Stretch_Energy-OPLS-2005>
5836.53857421875

> <r_mmod_Bend_Energy-OPLS-2005>
2326.21313476562

> <r_mmod_Torsional_Energy-OPLS-2005>
697.514038085938

> <r_mmod_Improper_Torsional_Energy-OPLS-2005>
84.1511077880859

> <r_mmod_Van_der_Waal_Energy-OPLS-2005>
1854.58215332031

> <r_mmod_Electrostatic_Energy-OPLS-2005>
-315.058746337891

> <r_mmod_Solvation_Energy-OPLS-2005>
-420.854827880859

> <b_mmod_Minimization_Converged-OPLS-2005>
0

> <r_mmod_RMS_Derivative-OPLS-2005>
11.0377206802368

$$$$
18
                    3D
 Structure written by MMmdl.
178186  0  0  1  0            999 V2000
  -30.7768  -14.3778   20.6312 C   0  0  0  0  0  0
  -30.4010  -12.2748   19.4140 C   0  0  0  0  0  0
  -29.4833  -12.5061   18.1999 C   0  0  0  0  0  0
  -28.0067  -12.3705   18.6142 C   0  0  0  0  0  0
  -27.6604  -13.2087   19.8745 C   0  0  2  0  0  0
  -28.6978  -12.9857   20.9977 C   0  0  0  0  0  0
  -25.2580  -13.8170   20.5672 C   0  0  0  0  0  0
  -24.1830  -13.0448   20.9165 C   0  0  0  0  0  0
  -24.6383  -11.6915   20.8729 C   0  0  0  0  0  0
  -23.9052  -10.4298   21.0401 C   0  0  0  0  0  0
  -24.3610   -9.4214   21.9178 C   0  0  0  0  0  0
  -23.6289   -8.2246   22.0754 C   0  0  0  0  0  0
  -22.4274   -8.0278   21.3543 C   0  0  0  0  0  0
  -21.9898   -9.0253   20.4650 C   0  0  0  0  0  0
  -22.7223  -10.2134   20.3054 C   0  0  0  0  0  0
  -21.6852   -6.0735   22.5278 C   0  0  0  0  0  0
  -21.4015   -6.5638   23.8213 C   0  0  0  0  0  0
  -21.3659   -5.6791   24.9173 C   0  0  0  0  0  0
  -21.6044   -4.3055   24.7226 C   0  0  0  0  0  0
  -21.8818   -3.8147   23.4349 C   0  0  0  0  0  0
  -21.9195   -4.6963   22.3404 C   0  0  0  0  0  0
  -22.7855  -13.5248   21.1838 C   0  0  0  0  0  0
  -22.1661   -4.2147   21.0981 F   0  0  0  0  0  0
  -21.5630   -3.4540   25.7741 F   0  0  0  0  0  0
  -30.0366  -13.2554   20.4485 N   0  0  0  0  0  0
  -26.3016  -12.9344   20.3366 N   0  0  0  0  0  0
  -25.9310  -11.6503   20.5760 N   0  0  0  0  0  0
  -22.0493  -12.8242   22.0394 N   0  0  0  0  0  0
  -25.4307  -15.1885   20.4075 N   0  0  0  0  0  0
  -31.8558  -14.5493   20.0654 O   0  0  0  0  0  0
  -21.6640   -6.8877   21.4239 O   0  0  0  0  0  0
  -22.3539  -14.5554   20.6687 O   0  0  0  0  0  0
  -24.6101  -31.8711   23.2151 C   0  0  0  0  0  0
  -25.9006  -32.4850   23.8422 C   0  0  1  0  0  0
  -27.2380  -27.4833   20.0864 C   0  0  0  0  0  0
  -25.5894  -33.8655   24.2352 N   0  0  0  0  0  0
  -23.3971  -30.4948   21.5539 C   0  0  2  0  0  0
  -24.8448  -28.9646   20.1170 C   0  0  0  0  0  0
  -22.7375  -29.4664   22.5009 C   0  0  0  0  0  0
  -18.0262  -28.1387   22.8483 C   0  0  0  0  0  0
  -24.1485  -36.7322   23.2636 C   0  0  0  0  0  0
  -25.9191  -30.8500   21.3615 C   0  0  0  0  0  0
  -25.9992  -29.4852   20.7169 C   0  0  0  0  0  0
  -27.1992  -28.7473   20.7086 C   0  0  0  0  0  0
  -26.0756  -26.9662   19.4805 C   0  0  0  0  0  0
  -24.8735  -27.6987   19.5041 C   0  0  0  0  0  0
  -23.6044  -29.8266   20.1684 C   0  0  0  0  0  0
  -25.4102  -36.3134   24.0343 C   0  0  1  0  0  0
  -20.5843  -28.3652   23.1341 C   0  0  2  0  0  0
  -20.6760  -26.9392   22.5436 C   0  0  0  0  0  0
  -19.5744  -26.6391   21.5222 C   0  0  0  0  0  0
  -18.1908  -26.7938   22.1607 C   0  0  0  0  0  0
  -19.1507  -28.8829   23.2919 C   0  0  0  0  0  0
  -18.9441  -30.1437   23.8930 C   0  0  0  0  0  0
  -17.6450  -30.6593   24.0556 C   0  0  0  0  0  0
  -25.9028  -34.9498   23.5136 C   0  0  0  0  0  0
  -16.5339  -29.9092   23.6330 C   0  0  0  0  0  0
  -16.7253  -28.6516   23.0342 C   0  0  0  0  0  0
  -26.4465  -31.6626   25.0736 C   0  0  0  0  0  0
  -25.3741  -31.3739   26.1502 C   0  0  0  0  0  0
  -27.0280  -30.3067   24.6091 C   0  0  0  0  0  0
  -27.6074  -32.4329   25.7465 C   0  0  0  0  0  0
  -27.5578  -37.1805   24.8460 C   0  0  0  0  0  0
  -21.4101  -29.3028   22.3748 N   0  0  0  0  0  0
  -26.4290  -37.3814   23.9417 N   0  0  0  0  0  0
  -24.6604  -31.0844   22.1036 N   0  0  0  0  0  0
  -23.4167  -28.8186   23.3018 O   0  0  0  0  0  0
  -28.3995  -26.7597   20.0344 O   0  0  0  0  0  0
  -26.5571  -34.8931   22.4687 O   0  0  0  0  0  0
  -23.5300  -32.1442   23.7564 O   0  0  0  0  0  0
  -32.8023  -18.2777   19.0219 C   0  0  0  0  0  0
  -31.9614  -19.3596   18.7316 C   0  0  0  0  0  0
  -32.4681  -17.4055   20.0650 C   0  0  0  0  0  0
  -30.7839  -19.5880   19.4806 C   0  0  0  0  0  0
  -31.2632  -17.5544   20.7864 C   0  0  0  0  0  0
  -30.4024  -18.6567   20.5022 C   0  0  0  0  0  0
  -30.0835  -20.8471   19.1721 C   0  0  0  0  0  0
  -27.7509  -22.7633   20.1711 C   0  0  0  0  0  0
  -29.1473  -18.8353   21.3597 C   0  0  0  0  0  0
  -27.2553  -22.2349   15.6878 C   0  0  0  0  0  0
  -25.3087  -20.7211   16.2246 C   0  0  0  0  0  0
  -30.9694  -16.5246   21.8902 C   0  0  0  0  0  0
  -26.5910  -21.8110   18.1208 C   0  0  0  0  0  0
  -27.9197  -24.8720   21.4770 C   0  0  0  0  0  0
  -28.7599  -26.1419   21.2676 C   0  0  0  0  0  0
  -27.9493  -22.1317   18.7843 C   0  0  2  0  0  0
  -26.6827  -21.2232   16.6947 C   0  0  0  0  0  0
  -30.8044  -21.9697   19.0964 N   0  0  0  0  0  0
  -27.9684  -24.0735   20.2608 N   0  0  0  0  0  0
  -30.2693  -15.3099   21.4496 N   0  0  0  0  0  0
  -28.7637  -20.9057   18.9318 N   0  3  0  0  0  0
  -27.4377  -22.0658   21.1375 O   0  0  0  0  0  0
  -31.4482  -12.3392   19.1132 H   0  0  0  0  0  0
  -30.2722  -11.2636   19.8033 H   0  0  0  0  0  0
  -29.7167  -11.7902   17.4105 H   0  0  0  0  0  0
  -29.6612  -13.4972   17.7804 H   0  0  0  0  0  0
  -27.8148  -11.3141   18.8085 H   0  0  0  0  0  0
  -27.3548  -12.6489   17.7850 H   0  0  0  0  0  0
  -27.7092  -14.2574   19.5816 H   0  0  0  0  0  0
  -28.6565  -11.9546   21.3519 H   0  0  0  0  0  0
  -28.4591  -13.6004   21.8659 H   0  0  0  0  0  0
  -25.2758   -9.5692   22.4746 H   0  0  0  0  0  0
  -24.0004   -7.4638   22.7470 H   0  0  0  0  0  0
  -21.0829   -8.8767   19.8956 H   0  0  0  0  0  0
  -22.3678  -10.9670   19.6164 H   0  0  0  0  0  0
  -21.2003   -7.6146   23.9713 H   0  0  0  0  0  0
  -21.1481   -6.0524   25.9076 H   0  0  0  0  0  0
  -22.0598   -2.7607   23.2850 H   0  0  0  0  0  0
  -22.4106  -11.9904   22.4787 H   0  0  0  0  0  0
  -21.1109  -13.1269   22.2598 H   0  0  0  0  0  0
  -24.6657  -15.8463   20.5114 H   0  0  0  0  0  0
  -26.2883  -15.6236   20.0911 H   0  0  0  0  0  0
  -26.7067  -32.5590   23.1186 H   0  0  0  0  0  0
  -25.0118  -33.9835   25.0540 H   0  0  0  0  0  0
  -22.6861  -31.3113   21.4144 H   0  0  0  0  0  0
  -23.3754  -35.9647   23.3313 H   0  0  0  0  0  0
  -24.3581  -36.8920   22.2047 H   0  0  0  0  0  0
  -23.7218  -37.6527   23.6631 H   0  0  0  0  0  0
  -26.0222  -31.6131   20.5887 H   0  0  0  0  0  0
  -26.8114  -30.9101   21.9723 H   0  0  0  0  0  0
  -28.0940  -29.1477   21.1645 H   0  0  0  0  0  0
  -26.1018  -26.0001   18.9971 H   0  0  0  0  0  0
  -23.9849  -27.2908   19.0425 H   0  0  0  0  0  0
  -23.7062  -30.6031   19.4090 H   0  0  0  0  0  0
  -22.7305  -29.2442   19.8723 H   0  0  0  0  0  0
  -25.1269  -36.2012   25.0836 H   0  0  0  0  0  0
  -20.9939  -28.3214   24.1458 H   0  0  0  0  0  0
  -20.5673  -26.2247   23.3610 H   0  0  0  0  0  0
  -21.6627  -26.7452   22.1210 H   0  0  0  0  0  0
  -19.6911  -25.6310   21.1235 H   0  0  0  0  0  0
  -19.6709  -27.3217   20.6765 H   0  0  0  0  0  0
  -17.4193  -26.6698   21.3996 H   0  0  0  0  0  0
  -18.0278  -26.0083   22.9003 H   0  0  0  0  0  0
  -19.7922  -30.7235   24.2323 H   0  0  0  0  0  0
  -17.5009  -31.6277   24.5144 H   0  0  0  0  0  0
  -15.5342  -30.3001   23.7657 H   0  0  0  0  0  0
  -15.8649  -28.0852   22.7046 H   0  0  0  0  0  0
  -24.5974  -30.6993   25.7873 H   0  0  0  0  0  0
  -24.8849  -32.2891   26.4864 H   0  0  0  0  0  0
  -25.8115  -30.9018   27.0310 H   0  0  0  0  0  0
  -26.2811  -29.6842   24.1151 H   0  0  0  0  0  0
  -27.4066  -29.7305   25.4545 H   0  0  0  0  0  0
  -27.8641  -30.4401   23.9215 H   0  0  0  0  0  0
  -27.2755  -33.3661   26.2029 H   0  0  0  0  0  0
  -28.3876  -32.6838   25.0264 H   0  0  0  0  0  0
  -28.0745  -31.8456   26.5382 H   0  0  0  0  0  0
  -28.2608  -38.0094   24.7525 H   0  0  0  0  0  0
  -28.1061  -36.2634   24.6258 H   0  0  0  0  0  0
  -27.2307  -37.1425   25.8866 H   0  0  0  0  0  0
  -20.9247  -29.8750   21.6979 H   0  0  0  0  0  0
  -26.0189  -38.2893   24.1447 H   0  0  0  0  0  0
  -33.7138  -18.1260   18.4595 H   0  0  0  0  0  0
  -32.2480  -20.0371   17.9384 H   0  0  0  0  0  0
  -33.1498  -16.6005   20.2985 H   0  0  0  0  0  0
  -28.3898  -19.4868   20.9383 H   0  0  0  0  0  0
  -29.4206  -19.2435   22.3331 H   0  0  0  0  0  0
  -28.6480  -17.8798   21.5219 H   0  0  0  0  0  0
  -27.2363  -21.8368   14.6733 H   0  0  0  0  0  0
  -28.2934  -22.4818   15.9100 H   0  0  0  0  0  0
  -26.6846  -23.1643   15.6889 H   0  0  0  0  0  0
  -25.3671  -20.2867   15.2254 H   0  0  0  0  0  0
  -24.5765  -21.5288   16.1920 H   0  0  0  0  0  0
  -24.9206  -19.9480   16.8892 H   0  0  0  0  0  0
  -30.4089  -16.9787   22.7062 H   0  0  0  0  0  0
  -31.9157  -16.2285   22.3465 H   0  0  0  0  0  0
  -25.9908  -22.7235   18.0842 H   0  0  0  0  0  0
  -26.0329  -21.1270   18.7626 H   0  0  0  0  0  0
  -26.8824  -25.1273   21.6974 H   0  0  0  0  0  0
  -28.2971  -24.3121   22.3341 H   0  0  0  0  0  0
  -29.8159  -25.8754   21.2128 H   0  0  0  0  0  0
  -28.6570  -26.8241   22.1125 H   0  0  0  0  0  0
  -28.4795  -22.8450   18.1509 H   0  0  0  0  0  0
  -27.3440  -20.3567   16.7115 H   0  0  0  0  0  0
  -31.7807  -21.9385   19.3487 H   0  0  0  0  0  0
  -30.4404  -22.8145   18.6940 H   0  0  0  0  0  0
  -28.2059  -24.5780   19.4171 H   0  0  0  0  0  0
  -29.3777  -15.1084   21.8772 H   0  0  0  0  0  0
  -28.2580  -20.0435   19.0701 H   0  0  0  0  0  0
  1 25  1  0  0  0
  1 30  2  0  0  0
  1 90  1  0  0  0
  2  3  1  0  0  0
  2 25  1  0  0  0
  2 93  1  0  0  0
  2 94  1  0  0  0
  3  4  1  0  0  0
  3 95  1  0  0  0
  3 96  1  0  0  0
  4  5  1  0  0  0
  4 97  1  0  0  0
  4 98  1  0  0  0
  5  6  1  0  0  0
  5 26  1  0  0  0
  5 99  1  0  0  0
  6 25  1  0  0  0
  6100  1  0  0  0
  6101  1  0  0  0
  7  8  2  0  0  0
  7 26  1  0  0  0
  7 29  1  0  0  0
  8  9  1  0  0  0
  8 22  1  0  0  0
  9 10  1  0  0  0
  9 27  2  0  0  0
 10 11  2  0  0  0
 10 15  1  0  0  0
 11 12  1  0  0  0
 11102  1  0  0  0
 12 13  2  0  0  0
 12103  1  0  0  0
 13 14  1  0  0  0
 13 31  1  0  0  0
 14 15  2  0  0  0
 14104  1  0  0  0
 15105  1  0  0  0
 16 17  2  0  0  0
 16 21  1  0  0  0
 16 31  1  0  0  0
 17 18  1  0  0  0
 17106  1  0  0  0
 18 19  2  0  0  0
 18107  1  0  0  0
 19 20  1  0  0  0
 19 24  1  0  0  0
 20 21  2  0  0  0
 20108  1  0  0  0
 21 23  1  0  0  0
 22 28  1  0  0  0
 22 32  2  0  0  0
 26 27  1  0  0  0
 28109  1  0  0  0
 28110  1  0  0  0
 29111  1  0  0  0
 29112  1  0  0  0
 33 34  1  0  0  0
 33 66  1  0  0  0
 33 70  2  0  0  0
 34 36  1  0  0  0
 34 59  1  0  0  0
 34113  1  0  0  0
 35 44  2  0  0  0
 35 45  1  0  0  0
 35 68  1  0  0  0
 36 56  1  0  0  0
 36114  1  0  0  0
 37 39  1  0  0  0
 37 47  1  0  0  0
 37 66  1  0  0  0
 37115  1  0  0  0
 38 43  2  0  0  0
 38 46  1  0  0  0
 38 47  1  0  0  0
 39 64  1  0  0  0
 39 67  2  0  0  0
 40 52  1  0  0  0
 40 53  2  0  0  0
 40 58  1  0  0  0
 41116  1  0  0  0
 41117  1  0  0  0
 41118  1  0  0  0
 41 48  1  0  0  0
 42 43  1  0  0  0
 42 66  1  0  0  0
 42119  1  0  0  0
 42120  1  0  0  0
 43 44  1  0  0  0
 44121  1  0  0  0
 45 46  2  0  0  0
 45122  1  0  0  0
 46123  1  0  0  0
 47124  1  0  0  0
 47125  1  0  0  0
 48 56  1  0  0  0
 48 65  1  0  0  0
 48126  1  0  0  0
 49 50  1  0  0  0
 49 53  1  0  0  0
 49 64  1  0  0  0
 49127  1  0  0  0
 50 51  1  0  0  0
 50128  1  0  0  0
 50129  1  0  0  0
 51 52  1  0  0  0
 51130  1  0  0  0
 51131  1  0  0  0
 52132  1  0  0  0
 52133  1  0  0  0
 53 54  1  0  0  0
 54 55  2  0  0  0
 54134  1  0  0  0
 55 57  1  0  0  0
 55135  1  0  0  0
 56 69  2  0  0  0
 57 58  2  0  0  0
 57136  1  0  0  0
 58137  1  0  0  0
 59 60  1  0  0  0
 59 61  1  0  0  0
 59 62  1  0  0  0
 60138  1  0  0  0
 60139  1  0  0  0
 60140  1  0  0  0
 61141  1  0  0  0
 61142  1  0  0  0
 61143  1  0  0  0
 62144  1  0  0  0
 62145  1  0  0  0
 62146  1  0  0  0
 63 65  1  0  0  0
 63147  1  0  0  0
 63148  1  0  0  0
 63149  1  0  0  0
 64150  1  0  0  0
 65151  1  0  0  0
 68 85  1  0  0  0
 71 72  2  0  0  0
 71 73  1  0  0  0
 71152  1  0  0  0
 72 74  1  0  0  0
 72153  1  0  0  0
 73 75  2  0  0  0
 73154  1  0  0  0
 74 76  2  0  0  0
 74 77  1  0  0  0
 75 76  1  0  0  0
 75 82  1  0  0  0
 76 79  1  0  0  0
 77 88  1  0  0  0
 77 91  2  0  0  0
 78 86  1  0  0  0
 78 89  1  0  0  0
 78 92  2  0  0  0
 79155  1  0  0  0
 79156  1  0  0  0
 79157  1  0  0  0
 80158  1  0  0  0
 80159  1  0  0  0
 80160  1  0  0  0
 80 87  1  0  0  0
 81 87  1  0  0  0
 81161  1  0  0  0
 81162  1  0  0  0
 81163  1  0  0  0
 82 90  1  0  0  0
 82164  1  0  0  0
 82165  1  0  0  0
 83 87  1  0  0  0
 83166  1  0  0  0
 83167  1  0  0  0
 83 86  1  0  0  0
 84 85  1  0  0  0
 84 89  1  0  0  0
 84168  1  0  0  0
 84169  1  0  0  0
 85170  1  0  0  0
 85171  1  0  0  0
 86 91  1  0  0  0
 86172  1  0  0  0
 87173  1  0  0  0
 88174  1  0  0  0
 88175  1  0  0  0
 89176  1  0  0  0
 90177  1  0  0  0
 91178  1  0  0  0
M  CHG  1  91   1
M  ISO  4   1 100  68 101  85 101  90 100
M  END
> <chiral flag>
0

> <version>
0

> <s_m_source_file>
/data/baiqing/PycharmProjects/Reinvent-master-3.2/result/LINK_invent/BTK/process_docking_weight1_custom_product_contain_oxygen_bond_distance_aromatic_linkinvent_7_9_3/rearranged_h_0057.sdf

> <i_m_source_file_index>
18

> <r_mmod_Potential_Energy-OPLS-2005>
-409.211639404297

> <r_mmod_Stretch_Energy-OPLS-2005>
36.8679161071777

> <r_mmod_Bend_Energy-OPLS-2005>
101.54776763916

> <r_mmod_Torsional_Energy-OPLS-2005>
239.376037597656

> <r_mmod_Improper_Torsional_Energy-OPLS-2005>
2.82013416290283

> <r_mmod_Van_der_Waal_Energy-OPLS-2005>
167.060150146484

> <r_mmod_Electrostatic_Energy-OPLS-2005>
-559.660827636719

> <r_mmod_Solvation_Energy-OPLS-2005>
-405.846252441406

> <b_mmod_Minimization_Converged-OPLS-2005>
0

> <r_mmod_RMS_Derivative-OPLS-2005>
1.80429232120514

$$$$
19
                    3D
 Structure written by MMmdl.
163171  0  0  1  0            999 V2000
  -27.6069  -17.5417   20.8559 C   0  0  0  0  0  0
  -29.3758  -14.9600   19.7249 C   0  0  0  0  0  0
  -29.3098  -13.6059   18.7332 C   0  0  0  0  0  0
  -28.2572  -12.5798   19.1347 C   0  0  0  0  0  0
  -27.3293  -13.4741   19.9323 C   0  0  2  0  0  0
  -27.8824  -14.4160   21.0813 C   0  0  0  0  0  0
  -25.0445  -13.8219   20.5573 C   0  0  0  0  0  0
  -24.0455  -13.0109   20.9391 C   0  0  0  0  0  0
  -24.5678  -11.6781   20.8868 C   0  0  0  0  0  0
  -23.8748  -10.4101   21.0502 C   0  0  0  0  0  0
  -24.3434   -9.4087   21.9265 C   0  0  0  0  0  0
  -23.6168   -8.2095   22.0809 C   0  0  0  0  0  0
  -22.4153   -8.0130   21.3583 C   0  0  0  0  0  0
  -21.9728   -9.0051   20.4665 C   0  0  0  0  0  0
  -22.7005  -10.1929   20.3092 C   0  0  0  0  0  0
  -21.6782   -6.0609   22.5304 C   0  0  0  0  0  0
  -21.3971   -6.5569   23.8217 C   0  0  0  0  0  0
  -21.3644   -5.6753   24.9197 C   0  0  0  0  0  0
  -21.6036   -4.3016   24.7272 C   0  0  0  0  0  0
  -21.8833   -3.8074   23.4415 C   0  0  0  0  0  0
  -21.9179   -4.6853   22.3448 C   0  0  0  0  0  0
  -22.6603  -13.4826   21.2122 C   0  0  0  0  0  0
  -22.1658   -4.2052   21.1018 F   0  0  0  0  0  0
  -21.5635   -3.4521   25.7793 F   0  0  0  0  0  0
  -28.0692  -15.8468   20.4915 N   0  0  0  0  0  0
  -26.0979  -12.9763   20.3380 N   0  0  0  0  0  0
  -25.8583  -11.6720   20.5717 N   0  0  0  0  0  0
  -21.9428  -12.7877   22.0795 N   0  0  0  0  0  0
  -25.1350  -15.2012   20.3654 N   0  0  0  0  0  0
  -28.9619  -17.5061   20.7360 O   0  0  0  0  0  0
  -21.6589   -6.8704   21.4245 O   0  0  0  0  0  0
  -22.2346  -14.5201   20.7049 O   0  0  0  0  0  0
  -24.6974  -31.9220   22.9933 C   0  0  0  0  0  0
  -25.9851  -32.4732   23.7604 C   0  0  1  0  0  0
  -26.7052  -27.7675   21.1212 C   0  0  0  0  0  0
  -25.6855  -33.8454   24.2164 N   0  0  0  0  0  0
  -23.5379  -30.1096   21.2301 C   0  0  2  0  0  0
  -25.2364  -29.2842   19.5564 C   0  0  0  0  0  0
  -23.3457  -28.4575   21.3314 C   0  0  0  0  0  0
  -18.6396  -26.8546   23.1646 C   0  0  0  0  0  0
  -24.1605  -36.7076   23.2660 C   0  0  0  0  0  0
  -25.9399  -31.0534   21.1748 C   0  0  0  0  0  0
  -26.2087  -29.7983   20.4239 C   0  0  0  0  0  0
  -27.2526  -28.9967   20.8718 C   0  0  0  0  0  0
  -26.2321  -27.1123   19.9153 C   0  0  0  0  0  0
  -25.4031  -27.9336   19.0879 C   0  0  0  0  0  0
  -23.8831  -29.9906   19.7109 C   0  0  0  0  0  0
  -25.4239  -36.2968   24.0392 C   0  0  1  0  0  0
  -22.0781  -26.5365   23.1990 C   0  0  2  0  0  0
  -22.1797  -25.9608   20.7423 C   0  0  0  0  0  0
  -20.1625  -25.1916   20.6141 C   0  0  0  0  0  0
  -18.7468  -25.6056   21.9184 C   0  0  0  0  0  0
  -19.9698  -27.2031   23.9852 C   0  0  0  0  0  0
  -19.4880  -28.6234   24.4985 C   0  0  0  0  0  0
  -18.3018  -29.4983   24.3082 C   0  0  0  0  0  0
  -25.9386  -34.9475   23.5011 C   0  0  0  0  0  0
  -17.2138  -29.0432   23.5733 C   0  0  0  0  0  0
  -17.4237  -27.7364   23.0445 C   0  0  0  0  0  0
  -26.4941  -31.6513   25.0177 C   0  0  0  0  0  0
  -25.3588  -31.3314   26.0196 C   0  0  0  0  0  0
  -27.2736  -30.3777   24.5915 C   0  0  0  0  0  0
  -27.5617  -32.4419   25.8206 C   0  0  0  0  0  0
  -27.5718  -37.1767   24.8514 C   0  0  0  0  0  0
  -23.0940  -27.3362   22.1885 N   0  0  0  0  0  0
  -26.4359  -37.3741   23.9533 N   0  0  0  0  0  0
  -24.6868  -30.9798   21.9409 N   0  0  0  0  0  0
  -24.1135  -27.6666   21.2454 O   0  0  0  0  0  0
  -26.0558  -27.7372   22.4687 O   0  0  0  0  0  0
  -26.5613  -34.9119   22.4373 O   0  0  0  0  0  0
  -23.6862  -32.5108   23.3740 O   0  0  0  0  0  0
  -21.7606  -21.6145   22.5527 C   0  0  0  0  0  0
  -21.2432  -23.0724   22.5769 C   0  0  0  0  0  0
  -23.0307  -20.8081   22.1670 C   0  0  0  0  0  0
  -21.8432  -24.3873   22.2018 C   0  0  0  0  0  0
  -23.5068  -23.0357   21.7418 C   0  0  0  0  0  0
  -24.4122  -21.0776   21.6167 C   0  0  0  0  0  0
  -20.6189  -27.2692   21.6610 C   0  0  0  0  0  0
  -24.6991  -23.8438   21.2820 C   0  0  0  0  0  0
  -20.8518  -31.3029   23.5779 C   0  0  0  0  0  0
  -22.4366  -28.5163   25.1962 C   0  0  0  0  0  0
  -22.1069  -30.5040   24.0371 C   0  0  0  0  0  0
  -24.7063  -28.6086   23.5191 C   0  0  0  0  0  0
  -22.5536  -29.0644   23.7156 C   0  0  1  0  0  0
  -26.1098  -19.1511   21.1483 N   0  0  0  0  0  0
  -21.1200  -28.6535   22.4513 N   0  0  0  0  0  0
  -19.9286  -27.6805   20.6950 O   0  0  0  0  0  0
  -29.8011  -15.7152   19.0611 H   0  0  0  0  0  0
  -30.1866  -14.8412   20.4461 H   0  0  0  0  0  0
  -30.2914  -13.1398   18.6602 H   0  0  0  0  0  0
  -29.0761  -13.9463   17.7211 H   0  0  0  0  0  0
  -28.6805  -11.7960   19.7665 H   0  0  0  0  0  0
  -27.7836  -12.1193   18.2692 H   0  0  0  0  0  0
  -27.0091  -14.1433   19.1248 H   0  0  0  0  0  0
  -28.7037  -13.9898   21.6651 H   0  0  0  0  0  0
  -27.1518  -14.5541   21.8795 H   0  0  0  0  0  0
  -25.2522   -9.5629   22.4912 H   0  0  0  0  0  0
  -23.9888   -7.4478   22.7527 H   0  0  0  0  0  0
  -21.0674   -8.8511   19.8957 H   0  0  0  0  0  0
  -22.3446  -10.9476   19.6240 H   0  0  0  0  0  0
  -21.1973   -7.6086   23.9683 H   0  0  0  0  0  0
  -21.1441   -6.0502   25.9088 H   0  0  0  0  0  0
  -22.0626   -2.7535   23.2958 H   0  0  0  0  0  0
  -22.3076  -11.9579   22.5227 H   0  0  0  0  0  0
  -21.0076  -13.0950   22.3066 H   0  0  0  0  0  0
  -24.3202  -15.8068   20.3943 H   0  0  0  0  0  0
  -25.9492  -15.6130   19.9341 H   0  0  0  0  0  0
  -26.8418  -32.5928   23.1123 H   0  0  0  0  0  0
  -25.1412  -33.9297   25.0616 H   0  0  0  0  0  0
  -22.5924  -30.6471   21.1727 H   0  0  0  0  0  0
  -23.4084  -35.9195   23.3074 H   0  0  0  0  0  0
  -24.3863  -36.8897   22.2166 H   0  0  0  0  0  0
  -23.7133  -37.6094   23.6825 H   0  0  0  0  0  0
  -25.8833  -31.8870   20.4706 H   0  0  0  0  0  0
  -26.8424  -31.2193   21.7400 H   0  0  0  0  0  0
  -27.8762  -29.4099   21.6512 H   0  0  0  0  0  0
  -25.9811  -26.0577   19.9206 H   0  0  0  0  0  0
  -24.6746  -27.4412   18.4631 H   0  0  0  0  0  0
  -23.9480  -30.9819   19.2527 H   0  0  0  0  0  0
  -23.1203  -29.4787   19.1127 H   0  0  0  0  0  0
  -25.1433  -36.1692   25.0894 H   0  0  0  0  0  0
  -22.6578  -25.9434   23.9061 H   0  0  0  0  0  0
  -22.9847  -25.3373   20.3743 H   0  0  0  0  0  0
  -22.2234  -26.7096   19.9412 H   0  0  0  0  0  0
  -20.1618  -24.1196   20.4192 H   0  0  0  0  0  0
  -19.7568  -25.5026   19.6445 H   0  0  0  0  0  0
  -17.8504  -25.7459   21.3184 H   0  0  0  0  0  0
  -18.5145  -24.6676   22.4260 H   0  0  0  0  0  0
  -20.1269  -29.1470   25.1657 H   0  0  0  0  0  0
  -18.2313  -30.4597   24.7960 H   0  0  0  0  0  0
  -16.3041  -29.6029   23.4092 H   0  0  0  0  0  0
  -16.6293  -27.3572   22.4212 H   0  0  0  0  0  0
  -24.5734  -30.7452   25.5583 H   0  0  0  0  0  0
  -24.8916  -32.2481   26.3844 H   0  0  0  0  0  0
  -25.6943  -30.7799   26.8989 H   0  0  0  0  0  0
  -27.1958  -29.5739   25.3247 H   0  0  0  0  0  0
  -28.3469  -30.5717   24.4924 H   0  0  0  0  0  0
  -27.0257  -29.9915   23.6120 H   0  0  0  0  0  0
  -27.1424  -33.2910   26.3565 H   0  0  0  0  0  0
  -28.3671  -32.8119   25.1852 H   0  0  0  0  0  0
  -28.0253  -31.8067   26.5797 H   0  0  0  0  0  0
  -28.2467  -38.0294   24.7811 H   0  0  0  0  0  0
  -28.1465  -36.2852   24.5990 H   0  0  0  0  0  0
  -27.2503  -37.0933   25.8897 H   0  0  0  0  0  0
  -23.8054  -26.7173   21.8311 H   0  0  0  0  0  0
  -26.0174  -38.2792   24.1468 H   0  0  0  0  0  0
  -20.9766  -20.9377   22.8700 H   0  0  0  0  0  0
  -20.2148  -23.1603   22.9017 H   0  0  0  0  0  0
  -22.8894  -19.7525   22.3411 H   0  0  0  0  0  0
  -24.7599  -24.8379   21.7278 H   0  0  0  0  0  0
  -24.7396  -23.8974   20.1916 H   0  0  0  0  0  0
  -25.6018  -23.3262   21.5999 H   0  0  0  0  0  0
  -21.1648  -32.3211   23.3367 H   0  0  0  0  0  0
  -20.1002  -31.4261   24.3506 H   0  0  0  0  0  0
  -20.3837  -30.9562   22.6555 H   0  0  0  0  0  0
  -23.4174  -28.4313   25.6452 H   0  0  0  0  0  0
  -21.9959  -27.5408   25.3512 H   0  0  0  0  0  0
  -21.9430  -29.1611   25.9195 H   0  0  0  0  0  0
  -22.6284  -30.9907   24.8616 H   0  0  0  0  0  0
  -22.5211  -30.7619   23.1414 H   0  0  0  0  0  0
  -24.7749  -27.7951   24.2416 H   0  0  0  0  0  0
  -25.1684  -29.3993   24.0569 H   0  0  0  0  0  0
  -26.8667  -19.7815   20.9371 H   0  0  0  0  0  0
  -20.5551  -29.4509   22.2095 H   0  0  0  0  0  0
  1 25  1  0  0  0
  1 30  2  0  0  0
  1 84  1  0  0  0
  2  3  1  0  0  0
  2 25  1  0  0  0
  2 87  1  0  0  0
  2 88  1  0  0  0
  3  4  1  0  0  0
  3 89  1  0  0  0
  3 90  1  0  0  0
  4  5  1  0  0  0
  4 91  1  0  0  0
  4 92  1  0  0  0
  5  6  1  0  0  0
  5 26  1  0  0  0
  5 93  1  0  0  0
  6 25  1  0  0  0
  6 94  1  0  0  0
  6 95  1  0  0  0
  7  8  2  0  0  0
  7 26  1  0  0  0
  7 29  1  0  0  0
  8  9  1  0  0  0
  8 22  1  0  0  0
  9 10  1  0  0  0
  9 27  2  0  0  0
 10 11  2  0  0  0
 10 15  1  0  0  0
 11 12  1  0  0  0
 11 96  1  0  0  0
 12 13  2  0  0  0
 12 97  1  0  0  0
 13 14  1  0  0  0
 13 31  1  0  0  0
 14 15  2  0  0  0
 14 98  1  0  0  0
 15 99  1  0  0  0
 16 17  2  0  0  0
 16 21  1  0  0  0
 16 31  1  0  0  0
 17 18  1  0  0  0
 17100  1  0  0  0
 18 19  2  0  0  0
 18101  1  0  0  0
 19 20  1  0  0  0
 19 24  1  0  0  0
 20 21  2  0  0  0
 20102  1  0  0  0
 21 23  1  0  0  0
 22 28  1  0  0  0
 22 32  2  0  0  0
 26 27  1  0  0  0
 28103  1  0  0  0
 28104  1  0  0  0
 29105  1  0  0  0
 29106  1  0  0  0
 33 34  1  0  0  0
 33 66  1  0  0  0
 33 70  2  0  0  0
 34 36  1  0  0  0
 34 59  1  0  0  0
 34107  1  0  0  0
 35 44  2  0  0  0
 35 45  1  0  0  0
 35 68  1  0  0  0
 36 56  1  0  0  0
 36108  1  0  0  0
 37 39  1  0  0  0
 37 47  1  0  0  0
 37 66  1  0  0  0
 37109  1  0  0  0
 38 43  2  0  0  0
 38 46  1  0  0  0
 38 47  1  0  0  0
 39 64  1  0  0  0
 39 67  2  0  0  0
 40 52  1  0  0  0
 40 53  2  0  0  0
 40 58  1  0  0  0
 41110  1  0  0  0
 41111  1  0  0  0
 41112  1  0  0  0
 41 48  1  0  0  0
 42 43  1  0  0  0
 42 66  1  0  0  0
 42113  1  0  0  0
 42114  1  0  0  0
 43 44  1  0  0  0
 44115  1  0  0  0
 45 46  2  0  0  0
 45116  1  0  0  0
 46117  1  0  0  0
 47118  1  0  0  0
 47119  1  0  0  0
 48 56  1  0  0  0
 48 65  1  0  0  0
 48120  1  0  0  0
 49 50  1  0  0  0
 49 53  1  0  0  0
 49 64  1  0  0  0
 49121  1  0  0  0
 50 51  1  0  0  0
 50122  1  0  0  0
 50123  1  0  0  0
 51 52  1  0  0  0
 51124  1  0  0  0
 51125  1  0  0  0
 52126  1  0  0  0
 52127  1  0  0  0
 53 54  1  0  0  0
 54 55  2  0  0  0
 54128  1  0  0  0
 55 57  1  0  0  0
 55129  1  0  0  0
 56 69  2  0  0  0
 57 58  2  0  0  0
 57130  1  0  0  0
 58131  1  0  0  0
 59 60  1  0  0  0
 59 61  1  0  0  0
 59 62  1  0  0  0
 60132  1  0  0  0
 60133  1  0  0  0
 60134  1  0  0  0
 61135  1  0  0  0
 61136  1  0  0  0
 61137  1  0  0  0
 62138  1  0  0  0
 62139  1  0  0  0
 62140  1  0  0  0
 63 65  1  0  0  0
 63141  1  0  0  0
 63142  1  0  0  0
 63143  1  0  0  0
 64144  1  0  0  0
 65145  1  0  0  0
 68 82  1  0  0  0
 71 72  2  0  0  0
 71 73  1  0  0  0
 71146  1  0  0  0
 72 74  1  0  0  0
 72147  1  0  0  0
 73 76  2  0  0  0
 73148  1  0  0  0
 74 75  2  0  0  0
 74 77  1  0  0  0
 75 76  1  0  0  0
 75 78  1  0  0  0
 76 84  1  0  0  0
 77 85  1  0  0  0
 77 86  2  0  0  0
 78149  1  0  0  0
 78150  1  0  0  0
 78151  1  0  0  0
 79 81  1  0  0  0
 79152  1  0  0  0
 79153  1  0  0  0
 79154  1  0  0  0
 80155  1  0  0  0
 80156  1  0  0  0
 80157  1  0  0  0
 80 83  1  0  0  0
 81 83  1  0  0  0
 81158  1  0  0  0
 81159  1  0  0  0
 82 83  1  0  0  0
 82160  1  0  0  0
 82161  1  0  0  0
 83 85  1  0  0  0
 84162  1  0  0  0
 85163  1  0  0  0
M  ISO  4   1 100  68 101  82 101  84 100
M  END
> <chiral flag>
0

> <version>
0

> <s_m_source_file>
/data/baiqing/PycharmProjects/Reinvent-master-3.2/result/LINK_invent/BTK/process_docking_weight1_custom_product_contain_oxygen_bond_distance_aromatic_linkinvent_7_9_3/rearranged_h_0057.sdf

> <i_m_source_file_index>
19

> <r_mmod_Potential_Energy-OPLS-2005>
36046.53515625

> <r_mmod_Stretch_Energy-OPLS-2005>
16416.373046875

> <r_mmod_Bend_Energy-OPLS-2005>
3435.34643554688

> <r_mmod_Torsional_Energy-OPLS-2005>
713.708312988281

> <r_mmod_Improper_Torsional_Energy-OPLS-2005>
131.599166870117

> <r_mmod_Van_der_Waal_Energy-OPLS-2005>
3602.81567382812

> <r_mmod_Electrostatic_Energy-OPLS-2005>
-474.843292236328

> <r_mmod_Solvation_Energy-OPLS-2005>
-185.984909057617

> <b_mmod_Minimization_Converged-OPLS-2005>
0

> <r_mmod_RMS_Derivative-OPLS-2005>
16.4233875274658

$$$$
20
                    3D
 Structure written by MMmdl.
155163  0  0  1  0            999 V2000
  -30.7208  -14.4754   20.5837 C   0  0  0  0  0  0
  -30.4189  -12.3161   19.4229 C   0  0  0  0  0  0
  -29.4924  -12.5110   18.2061 C   0  0  0  0  0  0
  -28.0148  -12.3678   18.6192 C   0  0  0  0  0  0
  -27.6595  -13.2109   19.8730 C   0  0  2  0  0  0
  -28.7029  -13.0080   20.9955 C   0  0  0  0  0  0
  -25.2580  -13.8170   20.5678 C   0  0  0  0  0  0
  -24.1840  -13.0443   20.9183 C   0  0  0  0  0  0
  -24.6402  -11.6910   20.8740 C   0  0  0  0  0  0
  -23.9071  -10.4296   21.0408 C   0  0  0  0  0  0
  -24.3619   -9.4209   21.9185 C   0  0  0  0  0  0
  -23.6297   -8.2244   22.0757 C   0  0  0  0  0  0
  -22.4280   -8.0282   21.3546 C   0  0  0  0  0  0
  -21.9916   -9.0254   20.4645 C   0  0  0  0  0  0
  -22.7244  -10.2135   20.3056 C   0  0  0  0  0  0
  -21.6855   -6.0737   22.5280 C   0  0  0  0  0  0
  -21.4008   -6.5641   23.8213 C   0  0  0  0  0  0
  -21.3658   -5.6794   24.9176 C   0  0  0  0  0  0
  -21.6046   -4.3058   24.7227 C   0  0  0  0  0  0
  -21.8820   -3.8151   23.4347 C   0  0  0  0  0  0
  -21.9191   -4.6964   22.3400 C   0  0  0  0  0  0
  -22.7861  -13.5236   21.1844 C   0  0  0  0  0  0
  -22.1662   -4.2152   21.0978 F   0  0  0  0  0  0
  -21.5629   -3.4542   25.7741 F   0  0  0  0  0  0
  -30.0323  -13.3090   20.4390 N   0  0  0  0  0  0
  -26.3018  -12.9347   20.3364 N   0  0  0  0  0  0
  -25.9329  -11.6502   20.5770 N   0  0  0  0  0  0
  -22.0498  -12.8225   22.0392 N   0  0  0  0  0  0
  -25.4304  -15.1886   20.4066 N   0  0  0  0  0  0
  -31.8444  -14.6377   20.1002 O   0  0  0  0  0  0
  -21.6640   -6.8883   21.4245 O   0  0  0  0  0  0
  -22.3550  -14.5549   20.6700 O   0  0  0  0  0  0
  -24.6183  -31.8683   23.2115 C   0  0  0  0  0  0
  -25.9069  -32.4823   23.8412 C   0  0  1  0  0  0
  -27.2212  -27.4055   20.0947 C   0  0  0  0  0  0
  -25.5921  -33.8624   24.2342 N   0  0  0  0  0  0
  -23.4063  -30.4952   21.5534 C   0  0  2  0  0  0
  -24.8503  -28.9701   20.1090 C   0  0  0  0  0  0
  -22.7426  -29.4664   22.4982 C   0  0  0  0  0  0
  -18.0274  -28.1381   22.8495 C   0  0  0  0  0  0
  -24.1486  -36.7306   23.2639 C   0  0  0  0  0  0
  -25.9415  -30.8242   21.3721 C   0  0  0  0  0  0
  -26.0159  -29.4608   20.7115 C   0  0  0  0  0  0
  -27.2053  -28.6874   20.7010 C   0  0  0  0  0  0
  -26.0368  -26.9582   19.4579 C   0  0  0  0  0  0
  -24.8579  -27.7195   19.4765 C   0  0  0  0  0  0
  -23.6142  -29.8378   20.1654 C   0  0  0  0  0  0
  -25.4109  -36.3112   24.0337 C   0  0  1  0  0  0
  -20.5868  -28.3675   23.1309 C   0  0  2  0  0  0
  -20.6770  -26.9410   22.5414 C   0  0  0  0  0  0
  -19.5745  -26.6389   21.5216 C   0  0  0  0  0  0
  -18.1920  -26.7929   22.1623 C   0  0  0  0  0  0
  -19.1523  -28.8845   23.2901 C   0  0  0  0  0  0
  -18.9451  -30.1452   23.8911 C   0  0  0  0  0  0
  -17.6452  -30.6587   24.0566 C   0  0  0  0  0  0
  -25.9042  -34.9476   23.5134 C   0  0  0  0  0  0
  -16.5344  -29.9087   23.6335 C   0  0  0  0  0  0
  -16.7264  -28.6503   23.0359 C   0  0  0  0  0  0
  -26.4479  -31.6600   25.0746 C   0  0  0  0  0  0
  -25.3736  -31.3708   26.1487 C   0  0  0  0  0  0
  -27.0312  -30.3038   24.6142 C   0  0  0  0  0  0
  -27.6063  -32.4311   25.7502 C   0  0  0  0  0  0
  -27.5582  -37.1813   24.8468 C   0  0  0  0  0  0
  -21.4148  -29.3044   22.3716 N   0  0  0  0  0  0
  -26.4297  -37.3795   23.9409 N   0  0  0  0  0  0
  -24.6739  -31.0759   22.1036 N   0  0  0  0  0  0
  -23.4188  -28.8198   23.3027 O   0  0  0  0  0  0
  -28.3502  -26.5949   20.1575 O   0  0  0  0  0  0
  -26.5595  -34.8923   22.4689 O   0  0  0  0  0  0
  -23.5367  -32.1447   23.7490 O   0  0  0  0  0  0
  -32.2592  -18.4442   21.9669 C   0  0  0  0  0  0
  -31.3451  -19.5126   21.8766 C   0  0  0  0  0  0
  -31.8421  -17.1223   21.7223 C   0  0  0  0  0  0
  -29.5863  -17.9282   21.2760 C   0  0  0  0  0  0
  -29.9971  -19.2695   21.5325 C   0  0  0  0  0  0
  -30.5009  -16.8432   21.3648 C   0  0  0  0  0  0
  -29.0231  -20.3872   21.5312 C   0  0  0  0  0  0
  -28.5218  -22.8397   21.1829 C   0  0  0  0  0  0
  -29.1376  -24.1958   20.7341 C   0  0  0  0  0  0
  -28.0769  -25.1673   20.1292 C   0  0  0  0  0  0
  -30.0433  -15.4979   21.1523 N   0  0  0  0  0  0
  -29.3545  -21.6483   21.1242 N   0  0  0  0  0  0
  -27.7986  -20.1104   21.9945 N   0  3  0  0  0  0
  -27.3614  -22.7795   21.6099 O   0  0  0  0  0  0
  -31.4634  -12.4075   19.1193 H   0  0  0  0  0  0
  -30.3155  -11.3074   19.8260 H   0  0  0  0  0  0
  -29.7340  -11.7880   17.4257 H   0  0  0  0  0  0
  -29.6583  -13.4977   17.7706 H   0  0  0  0  0  0
  -27.8278  -11.3121   18.8167 H   0  0  0  0  0  0
  -27.3639  -12.6403   17.7873 H   0  0  0  0  0  0
  -27.6991  -14.2569   19.5680 H   0  0  0  0  0  0
  -28.6816  -11.9772   21.3520 H   0  0  0  0  0  0
  -28.4642  -13.6217   21.8652 H   0  0  0  0  0  0
  -25.2765   -9.5679   22.4760 H   0  0  0  0  0  0
  -24.0005   -7.4635   22.7480 H   0  0  0  0  0  0
  -21.0846   -8.8770   19.8951 H   0  0  0  0  0  0
  -22.3707  -10.9669   19.6162 H   0  0  0  0  0  0
  -21.1999   -7.6150   23.9717 H   0  0  0  0  0  0
  -21.1478   -6.0526   25.9079 H   0  0  0  0  0  0
  -22.0599   -2.7614   23.2850 H   0  0  0  0  0  0
  -22.4108  -11.9873   22.4760 H   0  0  0  0  0  0
  -21.1115  -13.1249   22.2601 H   0  0  0  0  0  0
  -24.6605  -15.8423   20.5009 H   0  0  0  0  0  0
  -26.2742  -15.6216   20.0536 H   0  0  0  0  0  0
  -26.7139  -32.5519   23.1174 H   0  0  0  0  0  0
  -25.0098  -33.9791   25.0506 H   0  0  0  0  0  0
  -22.6965  -31.3141   21.4185 H   0  0  0  0  0  0
  -23.3756  -35.9632   23.3304 H   0  0  0  0  0  0
  -24.3579  -36.8916   22.2053 H   0  0  0  0  0  0
  -23.7227  -37.6506   23.6647 H   0  0  0  0  0  0
  -26.0629  -31.5928   20.6074 H   0  0  0  0  0  0
  -26.8266  -30.8708   21.9949 H   0  0  0  0  0  0
  -28.0985  -29.0560   21.1860 H   0  0  0  0  0  0
  -25.9913  -26.0078   18.9471 H   0  0  0  0  0  0
  -23.9658  -27.3401   18.9971 H   0  0  0  0  0  0
  -23.7220  -30.6180   19.4111 H   0  0  0  0  0  0
  -22.7369  -29.2610   19.8667 H   0  0  0  0  0  0
  -25.1285  -36.1986   25.0831 H   0  0  0  0  0  0
  -20.9961  -28.3244   24.1430 H   0  0  0  0  0  0
  -20.5691  -26.2280   23.3601 H   0  0  0  0  0  0
  -21.6638  -26.7461   22.1195 H   0  0  0  0  0  0
  -19.6908  -25.6304   21.1240 H   0  0  0  0  0  0
  -19.6685  -27.3209   20.6753 H   0  0  0  0  0  0
  -17.4194  -26.6690   21.4021 H   0  0  0  0  0  0
  -18.0314  -26.0064   22.9011 H   0  0  0  0  0  0
  -19.7924  -30.7272   24.2284 H   0  0  0  0  0  0
  -17.5003  -31.6267   24.5169 H   0  0  0  0  0  0
  -15.5349  -30.2995   23.7651 H   0  0  0  0  0  0
  -15.8660  -28.0831   22.7074 H   0  0  0  0  0  0
  -24.5906  -30.7061   25.7813 H   0  0  0  0  0  0
  -24.8931  -32.2865   26.4945 H   0  0  0  0  0  0
  -25.8082  -30.8862   27.0241 H   0  0  0  0  0  0
  -26.2865  -29.6798   24.1187 H   0  0  0  0  0  0
  -27.4062  -29.7277   25.4612 H   0  0  0  0  0  0
  -27.8708  -30.4349   23.9313 H   0  0  0  0  0  0
  -27.2710  -33.3628   26.2069 H   0  0  0  0  0  0
  -28.3877  -32.6839   25.0323 H   0  0  0  0  0  0
  -28.0717  -31.8431   26.5423 H   0  0  0  0  0  0
  -28.2608  -38.0102   24.7512 H   0  0  0  0  0  0
  -28.1070  -36.2634   24.6303 H   0  0  0  0  0  0
  -27.2294  -37.1474   25.8869 H   0  0  0  0  0  0
  -20.9309  -29.8781   21.6949 H   0  0  0  0  0  0
  -26.0188  -38.2875   24.1405 H   0  0  0  0  0  0
  -33.2855  -18.6355   22.2480 H   0  0  0  0  0  0
  -31.6882  -20.5117   22.1078 H   0  0  0  0  0  0
  -32.5664  -16.3281   21.8326 H   0  0  0  0  0  0
  -28.5562  -17.7270   21.0168 H   0  0  0  0  0  0
  -29.9506  -24.0355   20.0266 H   0  0  0  0  0  0
  -29.5770  -24.6528   21.6206 H   0  0  0  0  0  0
  -27.1423  -25.0072   20.6691 H   0  0  0  0  0  0
  -27.8975  -24.8662   19.0960 H   0  0  0  0  0  0
  -29.0817  -15.3018   21.3825 H   0  0  0  0  0  0
  -30.2932  -21.6906   20.7582 H   0  0  0  0  0  0
  -27.5850  -19.2099   22.3918 H   0  0  0  0  0  0
  -27.1263  -20.8664   22.0503 H   0  0  0  0  0  0
  1 25  1  0  0  0
  1 30  2  0  0  0
  1 81  1  0  0  0
  2  3  1  0  0  0
  2 25  1  0  0  0
  2 85  1  0  0  0
  2 86  1  0  0  0
  3  4  1  0  0  0
  3 87  1  0  0  0
  3 88  1  0  0  0
  4  5  1  0  0  0
  4 89  1  0  0  0
  4 90  1  0  0  0
  5  6  1  0  0  0
  5 26  1  0  0  0
  5 91  1  0  0  0
  6 25  1  0  0  0
  6 92  1  0  0  0
  6 93  1  0  0  0
  7  8  2  0  0  0
  7 26  1  0  0  0
  7 29  1  0  0  0
  8  9  1  0  0  0
  8 22  1  0  0  0
  9 10  1  0  0  0
  9 27  2  0  0  0
 10 11  2  0  0  0
 10 15  1  0  0  0
 11 12  1  0  0  0
 11 94  1  0  0  0
 12 13  2  0  0  0
 12 95  1  0  0  0
 13 14  1  0  0  0
 13 31  1  0  0  0
 14 15  2  0  0  0
 14 96  1  0  0  0
 15 97  1  0  0  0
 16 17  2  0  0  0
 16 21  1  0  0  0
 16 31  1  0  0  0
 17 18  1  0  0  0
 17 98  1  0  0  0
 18 19  2  0  0  0
 18 99  1  0  0  0
 19 20  1  0  0  0
 19 24  1  0  0  0
 20 21  2  0  0  0
 20100  1  0  0  0
 21 23  1  0  0  0
 22 28  1  0  0  0
 22 32  2  0  0  0
 26 27  1  0  0  0
 28101  1  0  0  0
 28102  1  0  0  0
 29103  1  0  0  0
 29104  1  0  0  0
 33 34  1  0  0  0
 33 66  1  0  0  0
 33 70  2  0  0  0
 34 36  1  0  0  0
 34 59  1  0  0  0
 34105  1  0  0  0
 35 44  2  0  0  0
 35 45  1  0  0  0
 35 68  1  0  0  0
 36 56  1  0  0  0
 36106  1  0  0  0
 37 39  1  0  0  0
 37 47  1  0  0  0
 37 66  1  0  0  0
 37107  1  0  0  0
 38 43  2  0  0  0
 38 46  1  0  0  0
 38 47  1  0  0  0
 39 64  1  0  0  0
 39 67  2  0  0  0
 40 52  1  0  0  0
 40 53  2  0  0  0
 40 58  1  0  0  0
 41108  1  0  0  0
 41109  1  0  0  0
 41110  1  0  0  0
 41 48  1  0  0  0
 42 43  1  0  0  0
 42 66  1  0  0  0
 42111  1  0  0  0
 42112  1  0  0  0
 43 44  1  0  0  0
 44113  1  0  0  0
 45 46  2  0  0  0
 45114  1  0  0  0
 46115  1  0  0  0
 47116  1  0  0  0
 47117  1  0  0  0
 48 56  1  0  0  0
 48 65  1  0  0  0
 48118  1  0  0  0
 49 50  1  0  0  0
 49 53  1  0  0  0
 49 64  1  0  0  0
 49119  1  0  0  0
 50 51  1  0  0  0
 50120  1  0  0  0
 50121  1  0  0  0
 51 52  1  0  0  0
 51122  1  0  0  0
 51123  1  0  0  0
 52124  1  0  0  0
 52125  1  0  0  0
 53 54  1  0  0  0
 54 55  2  0  0  0
 54126  1  0  0  0
 55 57  1  0  0  0
 55127  1  0  0  0
 56 69  2  0  0  0
 57 58  2  0  0  0
 57128  1  0  0  0
 58129  1  0  0  0
 59 60  1  0  0  0
 59 61  1  0  0  0
 59 62  1  0  0  0
 60130  1  0  0  0
 60131  1  0  0  0
 60132  1  0  0  0
 61133  1  0  0  0
 61134  1  0  0  0
 61135  1  0  0  0
 62136  1  0  0  0
 62137  1  0  0  0
 62138  1  0  0  0
 63 65  1  0  0  0
 63139  1  0  0  0
 63140  1  0  0  0
 63141  1  0  0  0
 64142  1  0  0  0
 65143  1  0  0  0
 68 80  1  0  0  0
 71 72  2  0  0  0
 71 73  1  0  0  0
 71144  1  0  0  0
 72 75  1  0  0  0
 72145  1  0  0  0
 73 76  2  0  0  0
 73146  1  0  0  0
 74 75  2  0  0  0
 74 76  1  0  0  0
 74147  1  0  0  0
 75 77  1  0  0  0
 76 81  1  0  0  0
 77 82  1  0  0  0
 77 83  2  0  0  0
 78 79  1  0  0  0
 78 82  1  0  0  0
 78 84  2  0  0  0
 79 80  1  0  0  0
 79148  1  0  0  0
 79149  1  0  0  0
 80150  1  0  0  0
 80151  1  0  0  0
 81152  1  0  0  0
 82153  1  0  0  0
 83154  1  0  0  0
 83155  1  0  0  0
M  CHG  1  83   1
M  ISO  4   1 100  68 101  80 101  81 100
M  END
> <chiral flag>
0

> <version>
0

> <s_m_source_file>
/data/baiqing/PycharmProjects/Reinvent-master-3.2/result/LINK_invent/BTK/process_docking_weight1_custom_product_contain_oxygen_bond_distance_aromatic_linkinvent_7_9_3/rearranged_h_0057.sdf

> <i_m_source_file_index>
20

> <r_mmod_Potential_Energy-OPLS-2005>
-323.966033935547

> <r_mmod_Stretch_Energy-OPLS-2005>
46.6383590698242

> <r_mmod_Bend_Energy-OPLS-2005>
108.122512817383

> <r_mmod_Torsional_Energy-OPLS-2005>
213.364837646484

> <r_mmod_Improper_Torsional_Energy-OPLS-2005>
4.05836153030396

> <r_mmod_Van_der_Waal_Energy-OPLS-2005>
183.56526184082

> <r_mmod_Electrostatic_Energy-OPLS-2005>
-442.00390625

> <r_mmod_Solvation_Energy-OPLS-2005>
-456.107330322266

> <b_mmod_Minimization_Converged-OPLS-2005>
0

> <r_mmod_RMS_Derivative-OPLS-2005>
0.797936677932739

$$$$
21
                    3D
 Structure written by MMmdl.
160168  0  0  1  0            999 V2000
  -30.6358  -14.4884   20.6362 C   0  0  0  0  0  0
  -30.4468  -12.3430   19.4145 C   0  0  0  0  0  0
  -29.4997  -12.5514   18.2142 C   0  0  0  0  0  0
  -28.0182  -12.4028   18.6183 C   0  0  0  0  0  0
  -27.6603  -13.2037   19.8941 C   0  0  2  0  0  0
  -28.6962  -12.9286   20.9996 C   0  0  0  0  0  0
  -25.2545  -13.8137   20.5671 C   0  0  0  0  0  0
  -24.1782  -13.0420   20.9180 C   0  0  0  0  0  0
  -24.6347  -11.6883   20.8770 C   0  0  0  0  0  0
  -23.9013  -10.4294   21.0451 C   0  0  0  0  0  0
  -24.3594   -9.4194   21.9211 C   0  0  0  0  0  0
  -23.6297   -8.2206   22.0760 C   0  0  0  0  0  0
  -22.4289   -8.0254   21.3534 C   0  0  0  0  0  0
  -21.9908   -9.0226   20.4640 C   0  0  0  0  0  0
  -22.7205  -10.2135   20.3066 C   0  0  0  0  0  0
  -21.6840   -6.0728   22.5254 C   0  0  0  0  0  0
  -21.4029   -6.5657   23.8193 C   0  0  0  0  0  0
  -21.3676   -5.6827   24.9159 C   0  0  0  0  0  0
  -21.6037   -4.3086   24.7228 C   0  0  0  0  0  0
  -21.8826   -3.8155   23.4381 C   0  0  0  0  0  0
  -21.9189   -4.6952   22.3410 C   0  0  0  0  0  0
  -22.7800  -13.5180   21.1814 C   0  0  0  0  0  0
  -22.1632   -4.2125   21.0992 F   0  0  0  0  0  0
  -21.5650   -3.4558   25.7757 F   0  0  0  0  0  0
  -30.0277  -13.2868   20.4604 N   0  0  0  0  0  0
  -26.2978  -12.9277   20.3404 N   0  0  0  0  0  0
  -25.9272  -11.6459   20.5802 N   0  0  0  0  0  0
  -22.0506  -12.8110   22.0426 N   0  0  0  0  0  0
  -25.4304  -15.1816   20.3985 N   0  0  0  0  0  0
  -31.7684  -14.7537   20.2073 O   0  0  0  0  0  0
  -21.6651   -6.8847   21.4224 O   0  0  0  0  0  0
  -22.3406  -14.5453   20.6694 O   0  0  0  0  0  0
  -24.6086  -31.8732   23.2152 C   0  0  0  0  0  0
  -25.8987  -32.4848   23.8466 C   0  0  1  0  0  0
  -27.2303  -27.4886   20.0840 C   0  0  0  0  0  0
  -25.5865  -33.8642   24.2397 N   0  0  0  0  0  0
  -23.3922  -30.4953   21.5597 C   0  0  2  0  0  0
  -24.8314  -28.9647   20.1185 C   0  0  0  0  0  0
  -22.7371  -29.4698   22.5080 C   0  0  0  0  0  0
  -18.0271  -28.1370   22.8526 C   0  0  0  0  0  0
  -24.1467  -36.7317   23.2653 C   0  0  0  0  0  0
  -25.9124  -30.8544   21.3602 C   0  0  0  0  0  0
  -25.9864  -29.4921   20.7057 C   0  0  0  0  0  0
  -27.1891  -28.7631   20.6784 C   0  0  0  0  0  0
  -26.0597  -26.9519   19.5037 C   0  0  0  0  0  0
  -24.8601  -27.6909   19.5174 C   0  0  0  0  0  0
  -23.5925  -29.8283   20.1724 C   0  0  0  0  0  0
  -25.4075  -36.3120   24.0368 C   0  0  1  0  0  0
  -20.5864  -28.3647   23.1374 C   0  0  2  0  0  0
  -20.6768  -26.9400   22.5458 C   0  0  0  0  0  0
  -19.5741  -26.6394   21.5243 C   0  0  0  0  0  0
  -18.1902  -26.7928   22.1642 C   0  0  0  0  0  0
  -19.1527  -28.8829   23.2934 C   0  0  0  0  0  0
  -18.9426  -30.1435   23.8949 C   0  0  0  0  0  0
  -17.6433  -30.6584   24.0568 C   0  0  0  0  0  0
  -25.8998  -34.9487   23.5164 C   0  0  0  0  0  0
  -16.5327  -29.9093   23.6336 C   0  0  0  0  0  0
  -16.7260  -28.6503   23.0373 C   0  0  0  0  0  0
  -26.4481  -31.6631   25.0772 C   0  0  0  0  0  0
  -25.3783  -31.3713   26.1550 C   0  0  0  0  0  0
  -27.0354  -30.3097   24.6147 C   0  0  0  0  0  0
  -27.6067  -32.4390   25.7496 C   0  0  0  0  0  0
  -27.5576  -37.1802   24.8465 C   0  0  0  0  0  0
  -21.4121  -29.3014   22.3801 N   0  0  0  0  0  0
  -26.4257  -37.3796   23.9432 N   0  0  0  0  0  0
  -24.6566  -31.0884   22.1054 N   0  0  0  0  0  0
  -23.4168  -28.8239   23.3103 O   0  0  0  0  0  0
  -28.4400  -26.8504   20.0586 O   0  0  0  0  0  0
  -26.5558  -34.8937   22.4730 O   0  0  0  0  0  0
  -23.5302  -32.1477   23.7586 O   0  0  0  0  0  0
  -30.7429  -18.3023   23.3240 C   0  0  0  0  0  0
  -30.0122  -19.3450   22.7210 C   0  0  0  0  0  0
  -30.7180  -17.0066   22.7703 C   0  0  0  0  0  0
  -29.2962  -19.1280   21.5194 C   0  0  0  0  0  0
  -29.3102  -17.8280   20.9348 C   0  0  0  0  0  0
  -29.9987  -16.7579   21.5762 C   0  0  0  0  0  0
  -29.2265  -22.6659   21.3491 C   0  0  0  0  0  0
  -28.6263  -17.6090   19.5871 C   0  0  0  0  0  0
  -28.5407  -20.3058   20.8889 C   0  0  0  0  0  0
  -30.2604  -23.7227   20.9703 C   0  0  0  0  0  0
  -29.7446  -25.1678   20.9880 C   0  0  0  0  0  0
  -28.4749  -25.4409   20.1663 C   0  0  0  0  0  0
  -29.7930  -15.4184   21.1310 N   0  0  0  0  0  0
  -29.3764  -21.4897   20.7372 N   0  0  0  0  0  0
  -28.3260  -22.9077   22.1542 O   0  0  0  0  0  0
  -31.4848  -12.5004   19.1112 H   0  0  0  0  0  0
  -30.3866  -11.3207   19.7861 H   0  0  0  0  0  0
  -29.7444  -11.8541   17.4125 H   0  0  0  0  0  0
  -29.6478  -13.5517   17.8037 H   0  0  0  0  0  0
  -27.8032  -11.3465   18.7758 H   0  0  0  0  0  0
  -27.3738  -12.7281   17.7997 H   0  0  0  0  0  0
  -27.7152  -14.2590   19.6433 H   0  0  0  0  0  0
  -28.6837  -11.8728   21.2763 H   0  0  0  0  0  0
  -28.4408  -13.4659   21.9132 H   0  0  0  0  0  0
  -25.2761   -9.5699   22.4733 H   0  0  0  0  0  0
  -24.0031   -7.4611   22.7456 H   0  0  0  0  0  0
  -21.0826   -8.8727   19.8937 H   0  0  0  0  0  0
  -22.3644  -10.9660   19.6173 H   0  0  0  0  0  0
  -21.2045   -7.6170   23.9687 H   0  0  0  0  0  0
  -21.1466   -6.0566   25.9054 H   0  0  0  0  0  0
  -22.0604   -2.7605   23.2881 H   0  0  0  0  0  0
  -22.4220  -11.9787   22.4759 H   0  0  0  0  0  0
  -21.1165  -13.1120   22.2766 H   0  0  0  0  0  0
  -24.6598  -15.8354   20.4478 H   0  0  0  0  0  0
  -26.2552  -15.5771   19.9742 H   0  0  0  0  0  0
  -26.7052  -32.5584   23.1244 H   0  0  0  0  0  0
  -25.0037  -33.9858   25.0563 H   0  0  0  0  0  0
  -22.6752  -31.3066   21.4284 H   0  0  0  0  0  0
  -23.3731  -35.9638   23.3290 H   0  0  0  0  0  0
  -24.3542  -36.8962   22.2069 H   0  0  0  0  0  0
  -23.7208  -37.6521   23.6661 H   0  0  0  0  0  0
  -26.0198  -31.6284   20.6001 H   0  0  0  0  0  0
  -26.8023  -30.9047   21.9757 H   0  0  0  0  0  0
  -28.0920  -29.1739   21.1117 H   0  0  0  0  0  0
  -26.0721  -25.9833   19.0221 H   0  0  0  0  0  0
  -23.9713  -27.2845   19.0561 H   0  0  0  0  0  0
  -23.6862  -30.6086   19.4149 H   0  0  0  0  0  0
  -22.7164  -29.2448   19.8847 H   0  0  0  0  0  0
  -25.1239  -36.2014   25.0854 H   0  0  0  0  0  0
  -20.9928  -28.3181   24.1491 H   0  0  0  0  0  0
  -20.5704  -26.2225   23.3611 H   0  0  0  0  0  0
  -21.6611  -26.7459   22.1198 H   0  0  0  0  0  0
  -19.6873  -25.6298   21.1257 H   0  0  0  0  0  0
  -19.6686  -27.3217   20.6768 H   0  0  0  0  0  0
  -17.4197  -26.6749   21.4012 H   0  0  0  0  0  0
  -18.0240  -26.0048   22.9005 H   0  0  0  0  0  0
  -19.7886  -30.7243   24.2342 H   0  0  0  0  0  0
  -17.4973  -31.6255   24.5149 H   0  0  0  0  0  0
  -15.5325  -30.2992   23.7592 H   0  0  0  0  0  0
  -15.8665  -28.0791   22.7091 H   0  0  0  0  0  0
  -24.5851  -30.7200   25.7868 H   0  0  0  0  0  0
  -24.9091  -32.2867   26.5162 H   0  0  0  0  0  0
  -25.8141  -30.8730   27.0221 H   0  0  0  0  0  0
  -26.2907  -29.6808   24.1246 H   0  0  0  0  0  0
  -27.4212  -29.7395   25.4621 H   0  0  0  0  0  0
  -27.8688  -30.4470   23.9240 H   0  0  0  0  0  0
  -27.2667  -33.3652   26.2154 H   0  0  0  0  0  0
  -28.3778  -32.7061   25.0246 H   0  0  0  0  0  0
  -28.0853  -31.8496   26.5352 H   0  0  0  0  0  0
  -28.2585  -38.0128   24.7510 H   0  0  0  0  0  0
  -28.1103  -36.2643   24.6250 H   0  0  0  0  0  0
  -27.2306  -37.1401   25.8885 H   0  0  0  0  0  0
  -20.9262  -29.8689   21.7002 H   0  0  0  0  0  0
  -26.0182  -38.2877   24.1453 H   0  0  0  0  0  0
  -31.3021  -18.5000   24.2325 H   0  0  0  0  0  0
  -30.0112  -20.3283   23.1803 H   0  0  0  0  0  0
  -31.2268  -16.2024   23.2791 H   0  0  0  0  0  0
  -27.5633  -17.8511   19.6307 H   0  0  0  0  0  0
  -28.7202  -16.5938   19.2070 H   0  0  0  0  0  0
  -29.1050  -18.2605   18.8511 H   0  0  0  0  0  0
  -27.6591  -20.5398   21.4901 H   0  0  0  0  0  0
  -28.1655  -20.0811   19.8913 H   0  0  0  0  0  0
  -30.6473  -23.5114   19.9782 H   0  0  0  0  0  0
  -31.1077  -23.6239   21.6484 H   0  0  0  0  0  0
  -30.5523  -25.7873   20.5952 H   0  0  0  0  0  0
  -29.6046  -25.5013   22.0145 H   0  0  0  0  0  0
  -27.5950  -25.0441   20.6801 H   0  0  0  0  0  0
  -28.5263  -24.9977   19.1715 H   0  0  0  0  0  0
  -28.8395  -15.0949   21.1775 H   0  0  0  0  0  0
  -30.1186  -21.4215   20.0547 H   0  0  0  0  0  0
  1 25  1  0  0  0
  1 30  2  0  0  0
  1 83  1  0  0  0
  2  3  1  0  0  0
  2 25  1  0  0  0
  2 86  1  0  0  0
  2 87  1  0  0  0
  3  4  1  0  0  0
  3 88  1  0  0  0
  3 89  1  0  0  0
  4  5  1  0  0  0
  4 90  1  0  0  0
  4 91  1  0  0  0
  5  6  1  0  0  0
  5 26  1  0  0  0
  5 92  1  0  0  0
  6 25  1  0  0  0
  6 93  1  0  0  0
  6 94  1  0  0  0
  7  8  2  0  0  0
  7 26  1  0  0  0
  7 29  1  0  0  0
  8  9  1  0  0  0
  8 22  1  0  0  0
  9 10  1  0  0  0
  9 27  2  0  0  0
 10 11  2  0  0  0
 10 15  1  0  0  0
 11 12  1  0  0  0
 11 95  1  0  0  0
 12 13  2  0  0  0
 12 96  1  0  0  0
 13 14  1  0  0  0
 13 31  1  0  0  0
 14 15  2  0  0  0
 14 97  1  0  0  0
 15 98  1  0  0  0
 16 17  2  0  0  0
 16 21  1  0  0  0
 16 31  1  0  0  0
 17 18  1  0  0  0
 17 99  1  0  0  0
 18 19  2  0  0  0
 18100  1  0  0  0
 19 20  1  0  0  0
 19 24  1  0  0  0
 20 21  2  0  0  0
 20101  1  0  0  0
 21 23  1  0  0  0
 22 28  1  0  0  0
 22 32  2  0  0  0
 26 27  1  0  0  0
 28102  1  0  0  0
 28103  1  0  0  0
 29104  1  0  0  0
 29105  1  0  0  0
 33 34  1  0  0  0
 33 66  1  0  0  0
 33 70  2  0  0  0
 34 36  1  0  0  0
 34 59  1  0  0  0
 34106  1  0  0  0
 35 44  2  0  0  0
 35 45  1  0  0  0
 35 68  1  0  0  0
 36 56  1  0  0  0
 36107  1  0  0  0
 37 39  1  0  0  0
 37 47  1  0  0  0
 37 66  1  0  0  0
 37108  1  0  0  0
 38 43  2  0  0  0
 38 46  1  0  0  0
 38 47  1  0  0  0
 39 64  1  0  0  0
 39 67  2  0  0  0
 40 52  1  0  0  0
 40 53  2  0  0  0
 40 58  1  0  0  0
 41109  1  0  0  0
 41110  1  0  0  0
 41111  1  0  0  0
 41 48  1  0  0  0
 42 43  1  0  0  0
 42 66  1  0  0  0
 42112  1  0  0  0
 42113  1  0  0  0
 43 44  1  0  0  0
 44114  1  0  0  0
 45 46  2  0  0  0
 45115  1  0  0  0
 46116  1  0  0  0
 47117  1  0  0  0
 47118  1  0  0  0
 48 56  1  0  0  0
 48 65  1  0  0  0
 48119  1  0  0  0
 49 50  1  0  0  0
 49 53  1  0  0  0
 49 64  1  0  0  0
 49120  1  0  0  0
 50 51  1  0  0  0
 50121  1  0  0  0
 50122  1  0  0  0
 51 52  1  0  0  0
 51123  1  0  0  0
 51124  1  0  0  0
 52125  1  0  0  0
 52126  1  0  0  0
 53 54  1  0  0  0
 54 55  2  0  0  0
 54127  1  0  0  0
 55 57  1  0  0  0
 55128  1  0  0  0
 56 69  2  0  0  0
 57 58  2  0  0  0
 57129  1  0  0  0
 58130  1  0  0  0
 59 60  1  0  0  0
 59 61  1  0  0  0
 59 62  1  0  0  0
 60131  1  0  0  0
 60132  1  0  0  0
 60133  1  0  0  0
 61134  1  0  0  0
 61135  1  0  0  0
 61136  1  0  0  0
 62137  1  0  0  0
 62138  1  0  0  0
 62139  1  0  0  0
 63 65  1  0  0  0
 63140  1  0  0  0
 63141  1  0  0  0
 63142  1  0  0  0
 64143  1  0  0  0
 65144  1  0  0  0
 68 82  1  0  0  0
 71 72  2  0  0  0
 71 73  1  0  0  0
 71145  1  0  0  0
 72 74  1  0  0  0
 72146  1  0  0  0
 73 76  2  0  0  0
 73147  1  0  0  0
 74 75  2  0  0  0
 74 79  1  0  0  0
 75 76  1  0  0  0
 75 78  1  0  0  0
 76 83  1  0  0  0
 77 80  1  0  0  0
 77 84  1  0  0  0
 77 85  2  0  0  0
 78148  1  0  0  0
 78149  1  0  0  0
 78150  1  0  0  0
 79 84  1  0  0  0
 79151  1  0  0  0
 79152  1  0  0  0
 80 81  1  0  0  0
 80153  1  0  0  0
 80154  1  0  0  0
 81 82  1  0  0  0
 81155  1  0  0  0
 81156  1  0  0  0
 82157  1  0  0  0
 82158  1  0  0  0
 83159  1  0  0  0
 84160  1  0  0  0
M  ISO  4   1 100  68 101  82 101  83 100
M  END
> <chiral flag>
0

> <version>
0

> <s_m_source_file>
/data/baiqing/PycharmProjects/Reinvent-master-3.2/result/LINK_invent/BTK/process_docking_weight1_custom_product_contain_oxygen_bond_distance_aromatic_linkinvent_7_9_3/rearranged_h_0057.sdf

> <i_m_source_file_index>
21

> <r_mmod_Potential_Energy-OPLS-2005>
-167.195510864258

> <r_mmod_Stretch_Energy-OPLS-2005>
34.2859649658203

> <r_mmod_Bend_Energy-OPLS-2005>
106.567176818848

> <r_mmod_Torsional_Energy-OPLS-2005>
234.587554931641

> <r_mmod_Improper_Torsional_Energy-OPLS-2005>
6.43892765045166

> <r_mmod_Van_der_Waal_Energy-OPLS-2005>
158.637084960938

> <r_mmod_Electrostatic_Energy-OPLS-2005>
-487.646575927734

> <r_mmod_Solvation_Energy-OPLS-2005>
-236.4072265625

> <b_mmod_Minimization_Converged-OPLS-2005>
0

> <r_mmod_RMS_Derivative-OPLS-2005>
7.95747947692871

$$$$
22
                    3D
 Structure written by MMmdl.
157165  0  0  1  0            999 V2000
  -30.7295  -14.3739   20.6863 C   0  0  0  0  0  0
  -30.4261  -12.2932   19.3921 C   0  0  0  0  0  0
  -29.4936  -12.5493   18.1931 C   0  0  0  0  0  0
  -28.0132  -12.4008   18.5968 C   0  0  0  0  0  0
  -27.6708  -13.1986   19.8848 C   0  0  2  0  0  0
  -28.7041  -12.9090   20.9934 C   0  0  0  0  0  0
  -25.2615  -13.8155   20.5608 C   0  0  0  0  0  0
  -24.1858  -13.0438   20.9142 C   0  0  0  0  0  0
  -24.6374  -11.6903   20.8657 C   0  0  0  0  0  0
  -23.9026  -10.4289   21.0316 C   0  0  0  0  0  0
  -24.3594   -9.4224   21.9108 C   0  0  0  0  0  0
  -23.6292   -8.2253   22.0702 C   0  0  0  0  0  0
  -22.4270   -8.0261   21.3524 C   0  0  0  0  0  0
  -21.9866   -9.0206   20.4623 C   0  0  0  0  0  0
  -22.7158  -10.2095   20.2999 C   0  0  0  0  0  0
  -21.6884   -6.0710   22.5262 C   0  0  0  0  0  0
  -21.4023   -6.5625   23.8174 C   0  0  0  0  0  0
  -21.3662   -5.6783   24.9155 C   0  0  0  0  0  0
  -21.6052   -4.3040   24.7210 C   0  0  0  0  0  0
  -21.8845   -3.8130   23.4325 C   0  0  0  0  0  0
  -21.9210   -4.6942   22.3391 C   0  0  0  0  0  0
  -22.7883  -13.5222   21.1837 C   0  0  0  0  0  0
  -22.1686   -4.2130   21.0964 F   0  0  0  0  0  0
  -21.5610   -3.4518   25.7723 F   0  0  0  0  0  0
  -30.0498  -13.2157   20.4699 N   0  0  0  0  0  0
  -26.3046  -12.9296   20.3347 N   0  0  0  0  0  0
  -25.9307  -11.6468   20.5749 N   0  0  0  0  0  0
  -22.0562  -12.8209   22.0429 N   0  0  0  0  0  0
  -25.4375  -15.1860   20.3899 N   0  0  0  0  0  0
  -31.7423  -14.7013   20.0565 O   0  0  0  0  0  0
  -21.6670   -6.8823   21.4211 O   0  0  0  0  0  0
  -22.3536  -14.5491   20.6641 O   0  0  0  0  0  0
  -24.6107  -31.8695   23.2093 C   0  0  0  0  0  0
  -25.9032  -32.4838   23.8357 C   0  0  1  0  0  0
  -27.2448  -27.4579   20.1099 C   0  0  0  0  0  0
  -25.5922  -33.8634   24.2296 N   0  0  0  0  0  0
  -23.3957  -30.4924   21.5476 C   0  0  2  0  0  0
  -24.8441  -28.9575   20.1159 C   0  0  0  0  0  0
  -22.7357  -29.4673   22.4988 C   0  0  0  0  0  0
  -18.0273  -28.1358   22.8483 C   0  0  0  0  0  0
  -24.1495  -36.7319   23.2644 C   0  0  0  0  0  0
  -25.9194  -30.8537   21.3456 C   0  0  0  0  0  0
  -26.0032  -29.4880   20.6950 C   0  0  0  0  0  0
  -27.2065  -28.7503   20.6766 C   0  0  0  0  0  0
  -26.0644  -26.9321   19.5349 C   0  0  0  0  0  0
  -24.8702  -27.6796   19.5318 C   0  0  0  0  0  0
  -23.6013  -29.8197   20.1625 C   0  0  0  0  0  0
  -25.4111  -36.3105   24.0334 C   0  0  1  0  0  0
  -20.5879  -28.3646   23.1309 C   0  0  2  0  0  0
  -20.6767  -26.9377   22.5400 C   0  0  0  0  0  0
  -19.5753  -26.6363   21.5201 C   0  0  0  0  0  0
  -18.1932  -26.7909   22.1610 C   0  0  0  0  0  0
  -19.1520  -28.8811   23.2911 C   0  0  0  0  0  0
  -18.9465  -30.1442   23.8902 C   0  0  0  0  0  0
  -17.6470  -30.6591   24.0559 C   0  0  0  0  0  0
  -25.9035  -34.9484   23.5092 C   0  0  0  0  0  0
  -16.5357  -29.9086   23.6354 C   0  0  0  0  0  0
  -16.7255  -28.6502   23.0358 C   0  0  0  0  0  0
  -26.4494  -31.6633   25.0687 C   0  0  0  0  0  0
  -25.3787  -31.3718   26.1476 C   0  0  0  0  0  0
  -27.0342  -30.3086   24.6040 C   0  0  0  0  0  0
  -27.6055  -32.4363   25.7444 C   0  0  0  0  0  0
  -27.5593  -37.1779   24.8455 C   0  0  0  0  0  0
  -21.4102  -29.3023   22.3709 N   0  0  0  0  0  0
  -26.4278  -37.3805   23.9440 N   0  0  0  0  0  0
  -24.6597  -31.0862   22.0919 N   0  0  0  0  0  0
  -23.4137  -28.8191   23.3003 O   0  0  0  0  0  0
  -28.4377  -26.7689   20.1442 O   0  0  0  0  0  0
  -26.5593  -34.8938   22.4656 O   0  0  0  0  0  0
  -23.5317  -32.1392   23.7525 O   0  0  0  0  0  0
  -31.1362  -16.9321   23.0286 C   0  0  0  0  0  0
  -31.2359  -18.3066   23.3111 C   0  0  0  0  0  0
  -29.8619  -17.4532   21.0113 C   0  0  0  0  0  0
  -29.9585  -18.8392   21.2872 C   0  0  0  0  0  0
  -30.4453  -16.5032   21.8815 C   0  0  0  0  0  0
  -30.6403  -19.2581   22.4645 C   0  0  0  0  0  0
  -29.3956  -22.2742   20.0668 C   0  0  0  0  0  0
  -29.2401  -19.8176   20.3484 C   0  0  0  0  0  0
  -30.3123  -23.5062   20.0270 C   0  0  0  0  0  0
  -29.7206  -24.7843   20.6906 C   0  0  0  0  0  0
  -28.4099  -25.3410   20.0732 C   0  0  0  0  0  0
  -30.2390  -15.1171   21.6860 N   0  0  0  0  0  0
  -29.9593  -21.0560   20.0336 N   0  0  0  0  0  0
  -28.1761  -22.4142   20.1532 O   0  0  0  0  0  0
  -30.7478  -20.9125   22.9516 Cl  0  0  0  0  0  0
  -31.4653  -12.4198   19.0883 H   0  0  0  0  0  0
  -30.3385  -11.2606   19.7369 H   0  0  0  0  0  0
  -29.7342  -11.8662   17.3764 H   0  0  0  0  0  0
  -29.6722  -13.5568   17.8136 H   0  0  0  0  0  0
  -27.8127  -11.3405   18.7497 H   0  0  0  0  0  0
  -27.3683  -12.7178   17.7750 H   0  0  0  0  0  0
  -27.7377  -14.2608   19.6443 H   0  0  0  0  0  0
  -28.6653  -11.8541   21.2740 H   0  0  0  0  0  0
  -28.4396  -13.4484   21.9030 H   0  0  0  0  0  0
  -25.2733   -9.5738   22.4664 H   0  0  0  0  0  0
  -24.0046   -7.4659   22.7388 H   0  0  0  0  0  0
  -21.0813   -8.8653   19.8937 H   0  0  0  0  0  0
  -22.3559  -10.9602   19.6103 H   0  0  0  0  0  0
  -21.2015   -7.6133   23.9663 H   0  0  0  0  0  0
  -21.1471   -6.0522   25.9053 H   0  0  0  0  0  0
  -22.0628   -2.7590   23.2839 H   0  0  0  0  0  0
  -22.4270  -11.9935   22.4881 H   0  0  0  0  0  0
  -21.1114  -13.1082   22.2545 H   0  0  0  0  0  0
  -24.6665  -15.8408   20.4581 H   0  0  0  0  0  0
  -26.2889  -15.6104   20.0390 H   0  0  0  0  0  0
  -26.7089  -32.5555   23.1116 H   0  0  0  0  0  0
  -25.0168  -33.9828   25.0506 H   0  0  0  0  0  0
  -22.6849  -31.3096   21.4068 H   0  0  0  0  0  0
  -23.3775  -35.9634   23.3286 H   0  0  0  0  0  0
  -24.3575  -36.8949   22.2048 H   0  0  0  0  0  0
  -23.7193  -37.6496   23.6671 H   0  0  0  0  0  0
  -26.0234  -31.6205   20.5732 H   0  0  0  0  0  0
  -26.8066  -30.9121   21.9602 H   0  0  0  0  0  0
  -28.1048  -29.1659   21.1089 H   0  0  0  0  0  0
  -26.0561  -25.9437   19.0986 H   0  0  0  0  0  0
  -23.9754  -27.2560   19.0951 H   0  0  0  0  0  0
  -23.6951  -30.5929   19.3994 H   0  0  0  0  0  0
  -22.7262  -29.2374   19.8711 H   0  0  0  0  0  0
  -25.1265  -36.1958   25.0813 H   0  0  0  0  0  0
  -21.0002  -28.3204   24.1418 H   0  0  0  0  0  0
  -20.5694  -26.2228   23.3567 H   0  0  0  0  0  0
  -21.6630  -26.7432   22.1171 H   0  0  0  0  0  0
  -19.6928  -25.6275   21.1225 H   0  0  0  0  0  0
  -19.6720  -27.3182   20.6730 H   0  0  0  0  0  0
  -17.4195  -26.6676   21.4003 H   0  0  0  0  0  0
  -18.0350  -26.0022   22.8964 H   0  0  0  0  0  0
  -19.7944  -30.7264   24.2230 H   0  0  0  0  0  0
  -17.5038  -31.6272   24.5134 H   0  0  0  0  0  0
  -15.5367  -30.2992   23.7701 H   0  0  0  0  0  0
  -15.8656  -28.0840   22.7082 H   0  0  0  0  0  0
  -24.5945  -30.7096   25.7831 H   0  0  0  0  0  0
  -24.9060  -32.2890   26.4984 H   0  0  0  0  0  0
  -25.8196  -30.8824   27.0186 H   0  0  0  0  0  0
  -26.2862  -29.6764   24.1259 H   0  0  0  0  0  0
  -27.4326  -29.7396   25.4460 H   0  0  0  0  0  0
  -27.8581  -30.4424   23.9030 H   0  0  0  0  0  0
  -27.2657  -33.3627   26.2070 H   0  0  0  0  0  0
  -28.3833  -32.6975   25.0273 H   0  0  0  0  0  0
  -28.0779  -31.8477   26.5307 H   0  0  0  0  0  0
  -28.2551  -38.0142   24.7615 H   0  0  0  0  0  0
  -28.1127  -36.2667   24.6128 H   0  0  0  0  0  0
  -27.2335  -37.1267   25.8862 H   0  0  0  0  0  0
  -20.9245  -29.8711   21.6925 H   0  0  0  0  0  0
  -26.0166  -38.2858   24.1545 H   0  0  0  0  0  0
  -31.5760  -16.2205   23.7116 H   0  0  0  0  0  0
  -31.7590  -18.6384   24.1977 H   0  0  0  0  0  0
  -29.3062  -17.1149   20.1458 H   0  0  0  0  0  0
  -28.2855  -20.0397   20.8279 H   0  0  0  0  0  0
  -28.9866  -19.3195   19.4105 H   0  0  0  0  0  0
  -30.5742  -23.7216   18.9911 H   0  0  0  0  0  0
  -31.2556  -23.2538   20.5215 H   0  0  0  0  0  0
  -30.4842  -25.5618   20.6335 H   0  0  0  0  0  0
  -29.5684  -24.6141   21.7582 H   0  0  0  0  0  0
  -27.5552  -24.9405   20.6269 H   0  0  0  0  0  0
  -28.3042  -25.0369   19.0289 H   0  0  0  0  0  0
  -29.5060  -14.6870   22.2326 H   0  0  0  0  0  0
  -30.9563  -20.9826   19.8870 H   0  0  0  0  0  0
  1 25  1  0  0  0
  1 30  2  0  0  0
  1 82  1  0  0  0
  2  3  1  0  0  0
  2 25  1  0  0  0
  2 86  1  0  0  0
  2 87  1  0  0  0
  3  4  1  0  0  0
  3 88  1  0  0  0
  3 89  1  0  0  0
  4  5  1  0  0  0
  4 90  1  0  0  0
  4 91  1  0  0  0
  5  6  1  0  0  0
  5 26  1  0  0  0
  5 92  1  0  0  0
  6 25  1  0  0  0
  6 93  1  0  0  0
  6 94  1  0  0  0
  7  8  2  0  0  0
  7 26  1  0  0  0
  7 29  1  0  0  0
  8  9  1  0  0  0
  8 22  1  0  0  0
  9 10  1  0  0  0
  9 27  2  0  0  0
 10 11  2  0  0  0
 10 15  1  0  0  0
 11 12  1  0  0  0
 11 95  1  0  0  0
 12 13  2  0  0  0
 12 96  1  0  0  0
 13 14  1  0  0  0
 13 31  1  0  0  0
 14 15  2  0  0  0
 14 97  1  0  0  0
 15 98  1  0  0  0
 16 17  2  0  0  0
 16 21  1  0  0  0
 16 31  1  0  0  0
 17 18  1  0  0  0
 17 99  1  0  0  0
 18 19  2  0  0  0
 18100  1  0  0  0
 19 20  1  0  0  0
 19 24  1  0  0  0
 20 21  2  0  0  0
 20101  1  0  0  0
 21 23  1  0  0  0
 22 28  1  0  0  0
 22 32  2  0  0  0
 26 27  1  0  0  0
 28102  1  0  0  0
 28103  1  0  0  0
 29104  1  0  0  0
 29105  1  0  0  0
 33 34  1  0  0  0
 33 66  1  0  0  0
 33 70  2  0  0  0
 34 36  1  0  0  0
 34 59  1  0  0  0
 34106  1  0  0  0
 35 44  2  0  0  0
 35 45  1  0  0  0
 35 68  1  0  0  0
 36 56  1  0  0  0
 36107  1  0  0  0
 37 39  1  0  0  0
 37 47  1  0  0  0
 37 66  1  0  0  0
 37108  1  0  0  0
 38 43  2  0  0  0
 38 46  1  0  0  0
 38 47  1  0  0  0
 39 64  1  0  0  0
 39 67  2  0  0  0
 40 52  1  0  0  0
 40 53  2  0  0  0
 40 58  1  0  0  0
 41109  1  0  0  0
 41110  1  0  0  0
 41111  1  0  0  0
 41 48  1  0  0  0
 42 43  1  0  0  0
 42 66  1  0  0  0
 42112  1  0  0  0
 42113  1  0  0  0
 43 44  1  0  0  0
 44114  1  0  0  0
 45 46  2  0  0  0
 45115  1  0  0  0
 46116  1  0  0  0
 47117  1  0  0  0
 47118  1  0  0  0
 48 56  1  0  0  0
 48 65  1  0  0  0
 48119  1  0  0  0
 49 50  1  0  0  0
 49 53  1  0  0  0
 49 64  1  0  0  0
 49120  1  0  0  0
 50 51  1  0  0  0
 50121  1  0  0  0
 50122  1  0  0  0
 51 52  1  0  0  0
 51123  1  0  0  0
 51124  1  0  0  0
 52125  1  0  0  0
 52126  1  0  0  0
 53 54  1  0  0  0
 54 55  2  0  0  0
 54127  1  0  0  0
 55 57  1  0  0  0
 55128  1  0  0  0
 56 69  2  0  0  0
 57 58  2  0  0  0
 57129  1  0  0  0
 58130  1  0  0  0
 59 60  1  0  0  0
 59 61  1  0  0  0
 59 62  1  0  0  0
 60131  1  0  0  0
 60132  1  0  0  0
 60133  1  0  0  0
 61134  1  0  0  0
 61135  1  0  0  0
 61136  1  0  0  0
 62137  1  0  0  0
 62138  1  0  0  0
 62139  1  0  0  0
 63 65  1  0  0  0
 63140  1  0  0  0
 63141  1  0  0  0
 63142  1  0  0  0
 64143  1  0  0  0
 65144  1  0  0  0
 68 81  1  0  0  0
 71 72  2  0  0  0
 71 75  1  0  0  0
 71145  1  0  0  0
 72 76  1  0  0  0
 72146  1  0  0  0
 73 74  1  0  0  0
 73 75  2  0  0  0
 73147  1  0  0  0
 74 76  2  0  0  0
 74 78  1  0  0  0
 75 82  1  0  0  0
 76 85  1  0  0  0
 77 79  1  0  0  0
 77 83  1  0  0  0
 77 84  2  0  0  0
 78 83  1  0  0  0
 78148  1  0  0  0
 78149  1  0  0  0
 79 80  1  0  0  0
 79150  1  0  0  0
 79151  1  0  0  0
 80 81  1  0  0  0
 80152  1  0  0  0
 80153  1  0  0  0
 81154  1  0  0  0
 81155  1  0  0  0
 82156  1  0  0  0
 83157  1  0  0  0
M  ISO  4   1 100  68 101  81 101  82 100
M  END
> <chiral flag>
0

> <version>
0

> <s_m_source_file>
/data/baiqing/PycharmProjects/Reinvent-master-3.2/result/LINK_invent/BTK/process_docking_weight1_custom_product_contain_oxygen_bond_distance_aromatic_linkinvent_7_9_3/rearranged_h_0057.sdf

> <i_m_source_file_index>
22

> <r_mmod_Potential_Energy-OPLS-2005>
-167.23876953125

> <r_mmod_Stretch_Energy-OPLS-2005>
36.3024673461914

> <r_mmod_Bend_Energy-OPLS-2005>
94.9621124267578

> <r_mmod_Torsional_Energy-OPLS-2005>
232.102966308594

> <r_mmod_Improper_Torsional_Energy-OPLS-2005>
3.52596092224121

> <r_mmod_Van_der_Waal_Energy-OPLS-2005>
161.110931396484

> <r_mmod_Electrostatic_Energy-OPLS-2005>
-470.1884765625

> <r_mmod_Solvation_Energy-OPLS-2005>
-234.483795166016

> <b_mmod_Minimization_Converged-OPLS-2005>
0

> <r_mmod_RMS_Derivative-OPLS-2005>
5.89052772521973

$$$$
23
                    3D
 Structure written by MMmdl.
154162  0  0  1  0            999 V2000
  -30.6560  -14.5536   20.5528 C   0  0  0  0  0  0
  -30.4375  -12.3518   19.4357 C   0  0  0  0  0  0
  -29.5040  -12.5012   18.2152 C   0  0  0  0  0  0
  -28.0260  -12.3437   18.6293 C   0  0  0  0  0  0
  -27.6561  -13.2060   19.8647 C   0  0  2  0  0  0
  -28.6997  -13.0258   20.9905 C   0  0  0  0  0  0
  -25.2577  -13.8156   20.5691 C   0  0  0  0  0  0
  -24.1834  -13.0430   20.9185 C   0  0  0  0  0  0
  -24.6368  -11.6901   20.8721 C   0  0  0  0  0  0
  -23.9026  -10.4292   21.0396 C   0  0  0  0  0  0
  -24.3584   -9.4213   21.9179 C   0  0  0  0  0  0
  -23.6273   -8.2241   22.0747 C   0  0  0  0  0  0
  -22.4259   -8.0265   21.3536 C   0  0  0  0  0  0
  -21.9878   -9.0238   20.4643 C   0  0  0  0  0  0
  -22.7191  -10.2125   20.3053 C   0  0  0  0  0  0
  -21.6851   -6.0722   22.5272 C   0  0  0  0  0  0
  -21.4016   -6.5627   23.8204 C   0  0  0  0  0  0
  -21.3665   -5.6777   24.9167 C   0  0  0  0  0  0
  -21.6046   -4.3043   24.7215 C   0  0  0  0  0  0
  -21.8818   -3.8132   23.4340 C   0  0  0  0  0  0
  -21.9186   -4.6951   22.3393 C   0  0  0  0  0  0
  -22.7846  -13.5237   21.1833 C   0  0  0  0  0  0
  -22.1661   -4.2132   21.0979 F   0  0  0  0  0  0
  -21.5626   -3.4533   25.7736 F   0  0  0  0  0  0
  -30.0219  -13.3520   20.4320 N   0  0  0  0  0  0
  -26.2994  -12.9318   20.3314 N   0  0  0  0  0  0
  -25.9296  -11.6481   20.5733 N   0  0  0  0  0  0
  -22.0470  -12.8264   22.0405 N   0  0  0  0  0  0
  -25.4295  -15.1881   20.4142 N   0  0  0  0  0  0
  -31.8093  -14.7367   20.1516 O   0  0  0  0  0  0
  -21.6625   -6.8864   21.4237 O   0  0  0  0  0  0
  -22.3550  -14.5533   20.6656 O   0  0  0  0  0  0
  -24.6187  -31.8655   23.2064 C   0  0  0  0  0  0
  -25.9061  -32.4804   23.8372 C   0  0  1  0  0  0
  -27.2312  -27.3870   20.1198 C   0  0  0  0  0  0
  -25.5915  -33.8604   24.2317 N   0  0  0  0  0  0
  -23.4088  -30.4876   21.5475 C   0  0  2  0  0  0
  -24.8569  -28.9416   20.1198 C   0  0  0  0  0  0
  -22.7427  -29.4661   22.4979 C   0  0  0  0  0  0
  -18.0281  -28.1379   22.8499 C   0  0  0  0  0  0
  -24.1487  -36.7314   23.2642 C   0  0  0  0  0  0
  -25.9411  -30.8153   21.3664 C   0  0  0  0  0  0
  -26.0180  -29.4428   20.7221 C   0  0  0  0  0  0
  -27.2105  -28.6734   20.7192 C   0  0  0  0  0  0
  -26.0570  -26.9140   19.5011 C   0  0  0  0  0  0
  -24.8728  -27.6782   19.5033 C   0  0  0  0  0  0
  -23.6205  -29.8155   20.1646 C   0  0  0  0  0  0
  -25.4103  -36.3101   24.0346 C   0  0  1  0  0  0
  -20.5874  -28.3678   23.1312 C   0  0  2  0  0  0
  -20.6776  -26.9408   22.5429 C   0  0  0  0  0  0
  -19.5757  -26.6387   21.5222 C   0  0  0  0  0  0
  -18.1929  -26.7928   22.1620 C   0  0  0  0  0  0
  -19.1531  -28.8843   23.2904 C   0  0  0  0  0  0
  -18.9454  -30.1446   23.8919 C   0  0  0  0  0  0
  -17.6455  -30.6582   24.0573 C   0  0  0  0  0  0
  -25.9038  -34.9470   23.5127 C   0  0  0  0  0  0
  -16.5348  -29.9089   23.6318 C   0  0  0  0  0  0
  -16.7271  -28.6503   23.0347 C   0  0  0  0  0  0
  -26.4487  -31.6585   25.0708 C   0  0  0  0  0  0
  -25.3750  -31.3707   26.1465 C   0  0  0  0  0  0
  -27.0330  -30.3022   24.6102 C   0  0  0  0  0  0
  -27.6064  -32.4321   25.7463 C   0  0  0  0  0  0
  -27.5585  -37.1800   24.8461 C   0  0  0  0  0  0
  -21.4155  -29.3038   22.3707 N   0  0  0  0  0  0
  -26.4288  -37.3787   23.9422 N   0  0  0  0  0  0
  -24.6745  -31.0724   22.0977 N   0  0  0  0  0  0
  -23.4190  -28.8214   23.3044 O   0  0  0  0  0  0
  -28.3777  -26.6138   20.0659 O   0  0  0  0  0  0
  -26.5594  -34.8931   22.4686 O   0  0  0  0  0  0
  -23.5374  -32.1432   23.7432 O   0  0  0  0  0  0
  -30.6563  -19.7092   21.7924 C   0  0  0  0  0  0
  -31.2846  -18.6881   22.5337 C   0  0  0  0  0  0
  -29.5562  -18.0061   20.4428 C   0  0  0  0  0  0
  -29.7844  -19.3863   20.7341 C   0  0  0  0  0  0
  -30.1920  -16.9616   21.1806 C   0  0  0  0  0  0
  -31.0561  -17.3259   22.2435 C   0  0  0  0  0  0
  -28.8773  -23.0208   20.1827 C   0  0  0  0  0  0
  -29.1670  -20.5126   19.8731 C   0  0  0  0  0  0
  -27.9178  -24.1235   20.7187 C   0  0  0  0  0  0
  -28.5061  -25.5472   21.0421 C   0  0  0  0  0  0
  -29.8558  -15.5820   20.9332 N   0  0  0  0  0  0
  -28.6725  -21.7325   20.5639 N   0  0  0  0  0  0
  -29.7549  -23.3234   19.3728 O   0  0  0  0  0  0
  -31.7996  -16.1383   23.2582 Cl  0  0  0  0  0  0
  -31.4792  -12.4755   19.1347 H   0  0  0  0  0  0
  -30.3652  -11.3489   19.8595 H   0  0  0  0  0  0
  -29.7597  -11.7626   17.4537 H   0  0  0  0  0  0
  -29.6519  -13.4795   17.7541 H   0  0  0  0  0  0
  -27.8600  -11.2908   18.8598 H   0  0  0  0  0  0
  -27.3684  -12.5777   17.7908 H   0  0  0  0  0  0
  -27.6836  -14.2442   19.5325 H   0  0  0  0  0  0
  -28.6969  -11.9978   21.3571 H   0  0  0  0  0  0
  -28.4539  -13.6454   21.8545 H   0  0  0  0  0  0
  -25.2731   -9.5704   22.4752 H   0  0  0  0  0  0
  -23.9980   -7.4644   22.7475 H   0  0  0  0  0  0
  -21.0793   -8.8751   19.8966 H   0  0  0  0  0  0
  -22.3633  -10.9660   19.6162 H   0  0  0  0  0  0
  -21.2026   -7.6137   23.9706 H   0  0  0  0  0  0
  -21.1487   -6.0511   25.9070 H   0  0  0  0  0  0
  -22.0596   -2.7595   23.2835 H   0  0  0  0  0  0
  -22.4056  -11.9945   22.4852 H   0  0  0  0  0  0
  -21.1095  -13.1344   22.2581 H   0  0  0  0  0  0
  -24.6601  -15.8395   20.5280 H   0  0  0  0  0  0
  -26.2752  -15.6316   20.0811 H   0  0  0  0  0  0
  -26.7135  -32.5517   23.1141 H   0  0  0  0  0  0
  -25.0081  -33.9751   25.0473 H   0  0  0  0  0  0
  -22.6993  -31.3052   21.4047 H   0  0  0  0  0  0
  -23.3741  -35.9651   23.3299 H   0  0  0  0  0  0
  -24.3587  -36.8930   22.2056 H   0  0  0  0  0  0
  -23.7242  -37.6521   23.6658 H   0  0  0  0  0  0
  -26.0550  -31.5730   20.5902 H   0  0  0  0  0  0
  -26.8294  -30.8759   21.9829 H   0  0  0  0  0  0
  -28.1087  -29.0580   21.1807 H   0  0  0  0  0  0
  -26.0576  -25.9532   19.0073 H   0  0  0  0  0  0
  -23.9843  -27.2900   19.0246 H   0  0  0  0  0  0
  -23.7323  -30.5883   19.4035 H   0  0  0  0  0  0
  -22.7431  -29.2386   19.8681 H   0  0  0  0  0  0
  -25.1273  -36.1960   25.0836 H   0  0  0  0  0  0
  -20.9973  -28.3257   24.1430 H   0  0  0  0  0  0
  -20.5683  -26.2289   23.3623 H   0  0  0  0  0  0
  -21.6646  -26.7456   22.1217 H   0  0  0  0  0  0
  -19.6920  -25.6301   21.1244 H   0  0  0  0  0  0
  -19.6694  -27.3204   20.6754 H   0  0  0  0  0  0
  -17.4211  -26.6701   21.4007 H   0  0  0  0  0  0
  -18.0308  -26.0058   22.8999 H   0  0  0  0  0  0
  -19.7934  -30.7255   24.2303 H   0  0  0  0  0  0
  -17.5010  -31.6259   24.5185 H   0  0  0  0  0  0
  -15.5349  -30.2998   23.7619 H   0  0  0  0  0  0
  -15.8674  -28.0824   22.7045 H   0  0  0  0  0  0
  -24.5893  -30.7094   25.7802 H   0  0  0  0  0  0
  -24.8977  -32.2871   26.4949 H   0  0  0  0  0  0
  -25.8100  -30.8839   27.0201 H   0  0  0  0  0  0
  -26.2869  -29.6757   24.1203 H   0  0  0  0  0  0
  -27.4146  -29.7299   25.4567 H   0  0  0  0  0  0
  -27.8687  -30.4347   23.9226 H   0  0  0  0  0  0
  -27.2677  -33.3608   26.2077 H   0  0  0  0  0  0
  -28.3841  -32.6911   25.0261 H   0  0  0  0  0  0
  -28.0775  -31.8425   26.5342 H   0  0  0  0  0  0
  -28.2596  -38.0102   24.7518 H   0  0  0  0  0  0
  -28.1085  -36.2638   24.6262 H   0  0  0  0  0  0
  -27.2321  -37.1430   25.8868 H   0  0  0  0  0  0
  -20.9323  -29.8731   21.6896 H   0  0  0  0  0  0
  -26.0178  -38.2870   24.1406 H   0  0  0  0  0  0
  -30.8577  -20.7444   22.0332 H   0  0  0  0  0  0
  -31.9472  -18.9531   23.3447 H   0  0  0  0  0  0
  -28.8857  -17.7449   19.6360 H   0  0  0  0  0  0
  -28.3322  -20.0984   19.3059 H   0  0  0  0  0  0
  -29.9145  -20.7854   19.1268 H   0  0  0  0  0  0
  -27.4787  -23.7358   21.6386 H   0  0  0  0  0  0
  -27.0848  -24.2119   20.0247 H   0  0  0  0  0  0
  -29.5707  -25.4410   21.2519 H   0  0  0  0  0  0
  -28.0772  -25.8946   21.9841 H   0  0  0  0  0  0
  -28.8859  -15.3393   21.0563 H   0  0  0  0  0  0
  -27.9574  -21.5740   21.2611 H   0  0  0  0  0  0
  1 25  1  0  0  0
  1 30  2  0  0  0
  1 81  1  0  0  0
  2  3  1  0  0  0
  2 25  1  0  0  0
  2 85  1  0  0  0
  2 86  1  0  0  0
  3  4  1  0  0  0
  3 87  1  0  0  0
  3 88  1  0  0  0
  4  5  1  0  0  0
  4 89  1  0  0  0
  4 90  1  0  0  0
  5  6  1  0  0  0
  5 26  1  0  0  0
  5 91  1  0  0  0
  6 25  1  0  0  0
  6 92  1  0  0  0
  6 93  1  0  0  0
  7  8  2  0  0  0
  7 26  1  0  0  0
  7 29  1  0  0  0
  8  9  1  0  0  0
  8 22  1  0  0  0
  9 10  1  0  0  0
  9 27  2  0  0  0
 10 11  2  0  0  0
 10 15  1  0  0  0
 11 12  1  0  0  0
 11 94  1  0  0  0
 12 13  2  0  0  0
 12 95  1  0  0  0
 13 14  1  0  0  0
 13 31  1  0  0  0
 14 15  2  0  0  0
 14 96  1  0  0  0
 15 97  1  0  0  0
 16 17  2  0  0  0
 16 21  1  0  0  0
 16 31  1  0  0  0
 17 18  1  0  0  0
 17 98  1  0  0  0
 18 19  2  0  0  0
 18 99  1  0  0  0
 19 20  1  0  0  0
 19 24  1  0  0  0
 20 21  2  0  0  0
 20100  1  0  0  0
 21 23  1  0  0  0
 22 28  1  0  0  0
 22 32  2  0  0  0
 26 27  1  0  0  0
 28101  1  0  0  0
 28102  1  0  0  0
 29103  1  0  0  0
 29104  1  0  0  0
 33 34  1  0  0  0
 33 66  1  0  0  0
 33 70  2  0  0  0
 34 36  1  0  0  0
 34 59  1  0  0  0
 34105  1  0  0  0
 35 44  2  0  0  0
 35 45  1  0  0  0
 35 68  1  0  0  0
 36 56  1  0  0  0
 36106  1  0  0  0
 37 39  1  0  0  0
 37 47  1  0  0  0
 37 66  1  0  0  0
 37107  1  0  0  0
 38 43  2  0  0  0
 38 46  1  0  0  0
 38 47  1  0  0  0
 39 64  1  0  0  0
 39 67  2  0  0  0
 40 52  1  0  0  0
 40 53  2  0  0  0
 40 58  1  0  0  0
 41108  1  0  0  0
 41109  1  0  0  0
 41110  1  0  0  0
 41 48  1  0  0  0
 42 43  1  0  0  0
 42 66  1  0  0  0
 42111  1  0  0  0
 42112  1  0  0  0
 43 44  1  0  0  0
 44113  1  0  0  0
 45 46  2  0  0  0
 45114  1  0  0  0
 46115  1  0  0  0
 47116  1  0  0  0
 47117  1  0  0  0
 48 56  1  0  0  0
 48 65  1  0  0  0
 48118  1  0  0  0
 49 50  1  0  0  0
 49 53  1  0  0  0
 49 64  1  0  0  0
 49119  1  0  0  0
 50 51  1  0  0  0
 50120  1  0  0  0
 50121  1  0  0  0
 51 52  1  0  0  0
 51122  1  0  0  0
 51123  1  0  0  0
 52124  1  0  0  0
 52125  1  0  0  0
 53 54  1  0  0  0
 54 55  2  0  0  0
 54126  1  0  0  0
 55 57  1  0  0  0
 55127  1  0  0  0
 56 69  2  0  0  0
 57 58  2  0  0  0
 57128  1  0  0  0
 58129  1  0  0  0
 59 60  1  0  0  0
 59 61  1  0  0  0
 59 62  1  0  0  0
 60130  1  0  0  0
 60131  1  0  0  0
 60132  1  0  0  0
 61133  1  0  0  0
 61134  1  0  0  0
 61135  1  0  0  0
 62136  1  0  0  0
 62137  1  0  0  0
 62138  1  0  0  0
 63 65  1  0  0  0
 63139  1  0  0  0
 63140  1  0  0  0
 63141  1  0  0  0
 64142  1  0  0  0
 65143  1  0  0  0
 68 80  1  0  0  0
 71 72  2  0  0  0
 71 74  1  0  0  0
 71144  1  0  0  0
 72 76  1  0  0  0
 72145  1  0  0  0
 73 74  2  0  0  0
 73 75  1  0  0  0
 73146  1  0  0  0
 74 78  1  0  0  0
 75 76  2  0  0  0
 75 81  1  0  0  0
 76 84  1  0  0  0
 77 79  1  0  0  0
 77 82  1  0  0  0
 77 83  2  0  0  0
 78 82  1  0  0  0
 78147  1  0  0  0
 78148  1  0  0  0
 79 80  1  0  0  0
 79149  1  0  0  0
 79150  1  0  0  0
 80151  1  0  0  0
 80152  1  0  0  0
 81153  1  0  0  0
 82154  1  0  0  0
M  ISO  4   1 100  68 101  80 101  81 100
M  END
> <chiral flag>
0

> <version>
0

> <s_m_source_file>
/data/baiqing/PycharmProjects/Reinvent-master-3.2/result/LINK_invent/BTK/process_docking_weight1_custom_product_contain_oxygen_bond_distance_aromatic_linkinvent_7_9_3/rearranged_h_0057.sdf

> <i_m_source_file_index>
23

> <r_mmod_Potential_Energy-OPLS-2005>
-114.246017456055

> <r_mmod_Stretch_Energy-OPLS-2005>
50.0473937988281

> <r_mmod_Bend_Energy-OPLS-2005>
109.841094970703

> <r_mmod_Torsional_Energy-OPLS-2005>
253.720291137695

> <r_mmod_Improper_Torsional_Energy-OPLS-2005>
6.49059391021729

> <r_mmod_Van_der_Waal_Energy-OPLS-2005>
140.597625732422

> <r_mmod_Electrostatic_Energy-OPLS-2005>
-452.536682128906

> <r_mmod_Solvation_Energy-OPLS-2005>
-245.879531860352

> <b_mmod_Minimization_Converged-OPLS-2005>
0

> <r_mmod_RMS_Derivative-OPLS-2005>
1.85268044471741

$$$$
24
                    3D
 Structure written by MMmdl.
163171  0  0  1  0            999 V2000
  -30.7403  -14.3775   20.6852 C   0  0  0  0  0  0
  -30.4129  -12.3011   19.3859 C   0  0  0  0  0  0
  -29.4760  -12.5447   18.1876 C   0  0  0  0  0  0
  -28.0004  -12.3962   18.6045 C   0  0  0  0  0  0
  -27.6614  -13.2025   19.8853 C   0  0  2  0  0  0
  -28.7009  -12.9251   20.9934 C   0  0  0  0  0  0
  -25.2584  -13.8157   20.5665 C   0  0  0  0  0  0
  -24.1824  -13.0443   20.9158 C   0  0  0  0  0  0
  -24.6356  -11.6905   20.8709 C   0  0  0  0  0  0
  -23.9027  -10.4298   21.0390 C   0  0  0  0  0  0
  -24.3583   -9.4227   21.9182 C   0  0  0  0  0  0
  -23.6270   -8.2256   22.0754 C   0  0  0  0  0  0
  -22.4272   -8.0273   21.3525 C   0  0  0  0  0  0
  -21.9890   -9.0243   20.4640 C   0  0  0  0  0  0
  -22.7198  -10.2129   20.3048 C   0  0  0  0  0  0
  -21.6846   -6.0722   22.5270 C   0  0  0  0  0  0
  -21.4020   -6.5638   23.8201 C   0  0  0  0  0  0
  -21.3667   -5.6798   24.9165 C   0  0  0  0  0  0
  -21.6041   -4.3056   24.7227 C   0  0  0  0  0  0
  -21.8822   -3.8142   23.4346 C   0  0  0  0  0  0
  -21.9200   -4.6953   22.3392 C   0  0  0  0  0  0
  -22.7852  -13.5235   21.1840 C   0  0  0  0  0  0
  -22.1664   -4.2134   21.0970 F   0  0  0  0  0  0
  -21.5637   -3.4547   25.7740 F   0  0  0  0  0  0
  -30.0382  -13.2372   20.4553 N   0  0  0  0  0  0
  -26.3001  -12.9314   20.3396 N   0  0  0  0  0  0
  -25.9287  -11.6473   20.5758 N   0  0  0  0  0  0
  -22.0496  -12.8211   22.0388 N   0  0  0  0  0  0
  -25.4336  -15.1872   20.4044 N   0  0  0  0  0  0
  -31.7946  -14.6456   20.0960 O   0  0  0  0  0  0
  -21.6641   -6.8862   21.4221 O   0  0  0  0  0  0
  -22.3544  -14.5545   20.6708 O   0  0  0  0  0  0
  -24.6096  -31.8686   23.2107 C   0  0  0  0  0  0
  -25.9008  -32.4822   23.8381 C   0  0  1  0  0  0
  -27.2433  -27.4523   20.0788 C   0  0  0  0  0  0
  -25.5852  -33.8604   24.2299 N   0  0  0  0  0  0
  -23.3953  -30.4899   21.5524 C   0  0  2  0  0  0
  -24.8428  -28.9495   20.1225 C   0  0  0  0  0  0
  -22.7353  -29.4667   22.5024 C   0  0  0  0  0  0
  -18.0251  -28.1371   22.8527 C   0  0  0  0  0  0
  -24.1484  -36.7324   23.2632 C   0  0  0  0  0  0
  -25.9218  -30.8346   21.3642 C   0  0  0  0  0  0
  -25.9983  -29.4674   20.7164 C   0  0  0  0  0  0
  -27.1951  -28.7194   20.7028 C   0  0  0  0  0  0
  -26.0632  -26.9377   19.4932 C   0  0  0  0  0  0
  -24.8644  -27.6798   19.5190 C   0  0  0  0  0  0
  -23.6031  -29.8125   20.1724 C   0  0  0  0  0  0
  -25.4116  -36.3086   24.0312 C   0  0  1  0  0  0
  -20.5841  -28.3650   23.1353 C   0  0  2  0  0  0
  -20.6766  -26.9405   22.5413 C   0  0  0  0  0  0
  -19.5736  -26.6402   21.5216 C   0  0  0  0  0  0
  -18.1917  -26.7933   22.1635 C   0  0  0  0  0  0
  -19.1499  -28.8828   23.2943 C   0  0  0  0  0  0
  -18.9441  -30.1446   23.8940 C   0  0  0  0  0  0
  -17.6456  -30.6610   24.0578 C   0  0  0  0  0  0
  -25.9031  -34.9450   23.5109 C   0  0  0  0  0  0
  -16.5334  -29.9111   23.6354 C   0  0  0  0  0  0
  -16.7246  -28.6515   23.0391 C   0  0  0  0  0  0
  -26.4447  -31.6608   25.0699 C   0  0  0  0  0  0
  -25.3693  -31.3712   26.1428 C   0  0  0  0  0  0
  -27.0306  -30.3037   24.6103 C   0  0  0  0  0  0
  -27.6004  -32.4318   25.7498 C   0  0  0  0  0  0
  -27.5582  -37.1824   24.8456 C   0  0  0  0  0  0
  -21.4083  -29.3027   22.3759 N   0  0  0  0  0  0
  -26.4299  -37.3777   23.9384 N   0  0  0  0  0  0
  -24.6599  -31.0778   22.1012 N   0  0  0  0  0  0
  -23.4149  -28.8211   23.3045 O   0  0  0  0  0  0
  -28.4583  -26.7973   20.0658 O   0  0  0  0  0  0
  -26.5619  -34.8910   22.4689 O   0  0  0  0  0  0
  -23.5294  -32.1427   23.7514 O   0  0  0  0  0  0
  -32.5672  -17.7450   22.9477 C   0  0  0  0  0  0
  -31.7577  -18.8938   22.9651 C   0  0  0  0  0  0
  -32.0421  -16.5276   22.4858 C   0  0  0  0  0  0
  -30.4095  -18.8362   22.5462 C   0  0  0  0  0  0
  -29.8686  -17.5975   22.0947 C   0  0  0  0  0  0
  -30.7041  -16.4497   22.0382 C   0  0  0  0  0  0
  -28.6459  -21.9742   21.2829 C   0  0  0  0  0  0
  -28.4095  -17.4734   21.6612 C   0  0  0  0  0  0
  -30.3992  -20.5226   20.2445 C   0  0  0  0  0  0
  -29.5924  -20.1346   22.5939 C   0  0  0  0  0  0
  -28.7268  -22.9884   20.1214 C   0  0  0  0  0  0
  -28.2094  -24.4009   20.4991 C   0  0  0  0  0  0
  -28.5923  -25.4971   19.4869 C   0  0  0  0  0  0
  -30.1832  -15.2101   21.5815 N   0  0  0  0  0  0
  -29.4896  -20.9097   21.3350 N   0  0  0  0  0  0
  -27.8235  -22.1897   22.1796 O   0  0  0  0  0  0
  -31.4539  -12.4143   19.0764 H   0  0  0  0  0  0
  -30.3203  -11.2734   19.7412 H   0  0  0  0  0  0
  -29.7081  -11.8566   17.3745 H   0  0  0  0  0  0
  -29.6422  -13.5501   17.7941 H   0  0  0  0  0  0
  -27.7989  -11.3366   18.7646 H   0  0  0  0  0  0
  -27.3481  -12.7091   17.7873 H   0  0  0  0  0  0
  -27.7238  -14.2587   19.6250 H   0  0  0  0  0  0
  -28.6706  -11.8748   21.2852 H   0  0  0  0  0  0
  -28.4482  -13.4755   21.9025 H   0  0  0  0  0  0
  -25.2721   -9.5726   22.4770 H   0  0  0  0  0  0
  -23.9991   -7.4658   22.7486 H   0  0  0  0  0  0
  -21.0827   -8.8739   19.8939 H   0  0  0  0  0  0
  -22.3636  -10.9667   19.6162 H   0  0  0  0  0  0
  -21.2013   -7.6152   23.9687 H   0  0  0  0  0  0
  -21.1492   -6.0539   25.9067 H   0  0  0  0  0  0
  -22.0602   -2.7604   23.2849 H   0  0  0  0  0  0
  -22.4123  -11.9840   22.4710 H   0  0  0  0  0  0
  -21.1117  -13.1225   22.2629 H   0  0  0  0  0  0
  -24.6653  -15.8439   20.4941 H   0  0  0  0  0  0
  -26.2847  -15.6146   20.0618 H   0  0  0  0  0  0
  -26.7061  -32.5558   23.1143 H   0  0  0  0  0  0
  -24.9869  -33.9737   25.0348 H   0  0  0  0  0  0
  -22.6809  -31.3044   21.4124 H   0  0  0  0  0  0
  -23.3715  -35.9684   23.3238 H   0  0  0  0  0  0
  -24.3545  -36.9022   22.2052 H   0  0  0  0  0  0
  -23.7283  -37.6519   23.6719 H   0  0  0  0  0  0
  -26.0211  -31.5969   20.5901 H   0  0  0  0  0  0
  -26.8131  -30.8932   21.9782 H   0  0  0  0  0  0
  -28.0885  -29.1141   21.1673 H   0  0  0  0  0  0
  -26.0467  -25.9725   19.0108 H   0  0  0  0  0  0
  -23.9686  -27.2714   19.0708 H   0  0  0  0  0  0
  -23.7041  -30.5798   19.4039 H   0  0  0  0  0  0
  -22.7305  -29.2203   19.8931 H   0  0  0  0  0  0
  -25.1312  -36.1933   25.0807 H   0  0  0  0  0  0
  -20.9929  -28.3228   24.1468 H   0  0  0  0  0  0
  -20.5729  -26.2237   23.3570 H   0  0  0  0  0  0
  -21.6637  -26.7525   22.1170 H   0  0  0  0  0  0
  -19.6894  -25.6331   21.1211 H   0  0  0  0  0  0
  -19.6672  -27.3235   20.6769 H   0  0  0  0  0  0
  -17.4188  -26.6684   21.4023 H   0  0  0  0  0  0
  -18.0296  -26.0065   22.9014 H   0  0  0  0  0  0
  -19.7917  -30.7252   24.2305 H   0  0  0  0  0  0
  -17.5024  -31.6299   24.5159 H   0  0  0  0  0  0
  -15.5342  -30.3046   23.7668 H   0  0  0  0  0  0
  -15.8626  -28.0867   22.7108 H   0  0  0  0  0  0
  -24.5846  -30.7107   25.7732 H   0  0  0  0  0  0
  -24.8900  -32.2863   26.4893 H   0  0  0  0  0  0
  -25.7990  -30.8836   27.0181 H   0  0  0  0  0  0
  -26.2893  -29.6758   24.1131 H   0  0  0  0  0  0
  -27.4028  -29.7315   25.4622 H   0  0  0  0  0  0
  -27.8734  -30.4319   23.9298 H   0  0  0  0  0  0
  -27.2636  -33.3652   26.2019 H   0  0  0  0  0  0
  -28.3874  -32.6799   25.0364 H   0  0  0  0  0  0
  -28.0581  -31.8445   26.5470 H   0  0  0  0  0  0
  -28.2587  -38.0137   24.7522 H   0  0  0  0  0  0
  -28.1096  -36.2653   24.6289 H   0  0  0  0  0  0
  -27.2259  -37.1503   25.8850 H   0  0  0  0  0  0
  -20.9213  -29.8703   21.6971 H   0  0  0  0  0  0
  -26.0154  -38.2846   24.1368 H   0  0  0  0  0  0
  -33.5945  -17.7948   23.2835 H   0  0  0  0  0  0
  -32.1827  -19.8269   23.3074 H   0  0  0  0  0  0
  -32.6764  -15.6505   22.4795 H   0  0  0  0  0  0
  -27.8463  -16.9054   22.4039 H   0  0  0  0  0  0
  -28.3380  -16.9465   20.7093 H   0  0  0  0  0  0
  -27.9076  -18.4299   21.5242 H   0  0  0  0  0  0
  -30.2861  -21.0868   19.3223 H   0  0  0  0  0  0
  -30.2431  -19.4789   19.9702 H   0  0  0  0  0  0
  -31.4344  -20.6312   20.5723 H   0  0  0  0  0  0
  -30.0488  -20.7940   23.3352 H   0  0  0  0  0  0
  -28.6049  -19.9127   22.9996 H   0  0  0  0  0  0
  -28.1804  -22.5968   19.2615 H   0  0  0  0  0  0
  -29.7689  -23.0967   19.8212 H   0  0  0  0  0  0
  -28.6309  -24.6774   21.4657 H   0  0  0  0  0  0
  -27.1275  -24.3814   20.6307 H   0  0  0  0  0  0
  -28.0690  -25.3948   18.5355 H   0  0  0  0  0  0
  -29.6495  -25.3935   19.2393 H   0  0  0  0  0  0
  -29.2568  -14.9635   21.8925 H   0  0  0  0  0  0
  1 25  1  0  0  0
  1 30  2  0  0  0
  1 84  1  0  0  0
  2  3  1  0  0  0
  2 25  1  0  0  0
  2 87  1  0  0  0
  2 88  1  0  0  0
  3  4  1  0  0  0
  3 89  1  0  0  0
  3 90  1  0  0  0
  4  5  1  0  0  0
  4 91  1  0  0  0
  4 92  1  0  0  0
  5  6  1  0  0  0
  5 26  1  0  0  0
  5 93  1  0  0  0
  6 25  1  0  0  0
  6 94  1  0  0  0
  6 95  1  0  0  0
  7  8  2  0  0  0
  7 26  1  0  0  0
  7 29  1  0  0  0
  8  9  1  0  0  0
  8 22  1  0  0  0
  9 10  1  0  0  0
  9 27  2  0  0  0
 10 11  2  0  0  0
 10 15  1  0  0  0
 11 12  1  0  0  0
 11 96  1  0  0  0
 12 13  2  0  0  0
 12 97  1  0  0  0
 13 14  1  0  0  0
 13 31  1  0  0  0
 14 15  2  0  0  0
 14 98  1  0  0  0
 15 99  1  0  0  0
 16 17  2  0  0  0
 16 21  1  0  0  0
 16 31  1  0  0  0
 17 18  1  0  0  0
 17100  1  0  0  0
 18 19  2  0  0  0
 18101  1  0  0  0
 19 20  1  0  0  0
 19 24  1  0  0  0
 20 21  2  0  0  0
 20102  1  0  0  0
 21 23  1  0  0  0
 22 28  1  0  0  0
 22 32  2  0  0  0
 26 27  1  0  0  0
 28103  1  0  0  0
 28104  1  0  0  0
 29105  1  0  0  0
 29106  1  0  0  0
 33 34  1  0  0  0
 33 66  1  0  0  0
 33 70  2  0  0  0
 34 36  1  0  0  0
 34 59  1  0  0  0
 34107  1  0  0  0
 35 44  2  0  0  0
 35 45  1  0  0  0
 35 68  1  0  0  0
 36 56  1  0  0  0
 36108  1  0  0  0
 37 39  1  0  0  0
 37 47  1  0  0  0
 37 66  1  0  0  0
 37109  1  0  0  0
 38 43  2  0  0  0
 38 46  1  0  0  0
 38 47  1  0  0  0
 39 64  1  0  0  0
 39 67  2  0  0  0
 40 52  1  0  0  0
 40 53  2  0  0  0
 40 58  1  0  0  0
 41110  1  0  0  0
 41111  1  0  0  0
 41112  1  0  0  0
 41 48  1  0  0  0
 42 43  1  0  0  0
 42 66  1  0  0  0
 42113  1  0  0  0
 42114  1  0  0  0
 43 44  1  0  0  0
 44115  1  0  0  0
 45 46  2  0  0  0
 45116  1  0  0  0
 46117  1  0  0  0
 47118  1  0  0  0
 47119  1  0  0  0
 48 56  1  0  0  0
 48 65  1  0  0  0
 48120  1  0  0  0
 49 50  1  0  0  0
 49 53  1  0  0  0
 49 64  1  0  0  0
 49121  1  0  0  0
 50 51  1  0  0  0
 50122  1  0  0  0
 50123  1  0  0  0
 51 52  1  0  0  0
 51124  1  0  0  0
 51125  1  0  0  0
 52126  1  0  0  0
 52127  1  0  0  0
 53 54  1  0  0  0
 54 55  2  0  0  0
 54128  1  0  0  0
 55 57  1  0  0  0
 55129  1  0  0  0
 56 69  2  0  0  0
 57 58  2  0  0  0
 57130  1  0  0  0
 58131  1  0  0  0
 59 60  1  0  0  0
 59 61  1  0  0  0
 59 62  1  0  0  0
 60132  1  0  0  0
 60133  1  0  0  0
 60134  1  0  0  0
 61135  1  0  0  0
 61136  1  0  0  0
 61137  1  0  0  0
 62138  1  0  0  0
 62139  1  0  0  0
 62140  1  0  0  0
 63 65  1  0  0  0
 63141  1  0  0  0
 63142  1  0  0  0
 63143  1  0  0  0
 64144  1  0  0  0
 65145  1  0  0  0
 68 83  1  0  0  0
 71 72  2  0  0  0
 71 73  1  0  0  0
 71146  1  0  0  0
 72 74  1  0  0  0
 72147  1  0  0  0
 73 76  2  0  0  0
 73148  1  0  0  0
 74 75  2  0  0  0
 74 80  1  0  0  0
 75 76  1  0  0  0
 75 78  1  0  0  0
 76 84  1  0  0  0
 77 81  1  0  0  0
 77 85  1  0  0  0
 77 86  2  0  0  0
 78149  1  0  0  0
 78150  1  0  0  0
 78151  1  0  0  0
 79 85  1  0  0  0
 79152  1  0  0  0
 79153  1  0  0  0
 79154  1  0  0  0
 80 85  1  0  0  0
 80155  1  0  0  0
 80156  1  0  0  0
 81 82  1  0  0  0
 81157  1  0  0  0
 81158  1  0  0  0
 82 83  1  0  0  0
 82159  1  0  0  0
 82160  1  0  0  0
 83161  1  0  0  0
 83162  1  0  0  0
 84163  1  0  0  0
M  ISO  4   1 100  68 101  83 101  84 100
M  END
> <chiral flag>
0

> <version>
0

> <s_m_source_file>
/data/baiqing/PycharmProjects/Reinvent-master-3.2/result/LINK_invent/BTK/process_docking_weight1_custom_product_contain_oxygen_bond_distance_aromatic_linkinvent_7_9_3/rearranged_h_0057.sdf

> <i_m_source_file_index>
24

> <r_mmod_Potential_Energy-OPLS-2005>
-98.4508209228516

> <r_mmod_Stretch_Energy-OPLS-2005>
39.0367813110352

> <r_mmod_Bend_Energy-OPLS-2005>
105.585975646973

> <r_mmod_Torsional_Energy-OPLS-2005>
226.913696289062

> <r_mmod_Improper_Torsional_Energy-OPLS-2005>
2.24807524681091

> <r_mmod_Van_der_Waal_Energy-OPLS-2005>
173.586791992188

> <r_mmod_Electrostatic_Energy-OPLS-2005>
-427.780517578125

> <r_mmod_Solvation_Energy-OPLS-2005>
-226.376434326172

> <b_mmod_Minimization_Converged-OPLS-2005>
0

> <r_mmod_RMS_Derivative-OPLS-2005>
3.09857320785522

$$$$
25
                    3D
 Structure written by MMmdl.
167176  0  0  1  0            999 V2000
  -30.6930  -14.5179   20.3940 C   0  0  0  0  0  0
  -30.3501  -12.2507   19.5101 C   0  0  0  0  0  0
  -29.5176  -12.4679   18.2358 C   0  0  0  0  0  0
  -28.0145  -12.3726   18.5922 C   0  0  0  0  0  0
  -27.6210  -13.2387   19.8243 C   0  0  2  0  0  0
  -28.6439  -13.1293   20.9579 C   0  0  0  0  0  0
  -25.2338  -13.8320   20.5746 C   0  0  0  0  0  0
  -24.1685  -13.0383   20.9366 C   0  0  0  0  0  0
  -24.6382  -11.6917   20.8933 C   0  0  0  0  0  0
  -23.9099  -10.4170   21.0492 C   0  0  0  0  0  0
  -24.3598   -9.4024   21.9235 C   0  0  0  0  0  0
  -23.6217   -8.2076   22.0773 C   0  0  0  0  0  0
  -22.4216   -8.0147   21.3564 C   0  0  0  0  0  0
  -21.9888   -9.0149   20.4704 C   0  0  0  0  0  0
  -22.7273  -10.1993   20.3147 C   0  0  0  0  0  0
  -21.6733   -6.0604   22.5294 C   0  0  0  0  0  0
  -21.3926   -6.5524   23.8238 C   0  0  0  0  0  0
  -21.3777   -5.6747   24.9275 C   0  0  0  0  0  0
  -21.6118   -4.2991   24.7335 C   0  0  0  0  0  0
  -21.8736   -3.8011   23.4446 C   0  0  0  0  0  0
  -21.9109   -4.6820   22.3481 C   0  0  0  0  0  0
  -22.7682  -13.5140   21.1993 C   0  0  0  0  0  0
  -22.1574   -4.1959   21.1074 F   0  0  0  0  0  0
  -21.5773   -3.4521   25.7882 F   0  0  0  0  0  0
  -29.9904  -13.3568   20.4044 N   0  0  0  0  0  0
  -26.2756  -12.9522   20.3147 N   0  0  0  0  0  0
  -25.9252  -11.6616   20.5701 N   0  0  0  0  0  0
  -22.0353  -12.8151   22.0655 N   0  0  0  0  0  0
  -25.3687  -15.2096   20.4360 N   0  0  0  0  0  0
  -31.8965  -14.5677   20.1192 O   0  0  0  0  0  0
  -21.6586   -6.8726   21.4225 O   0  0  0  0  0  0
  -22.3248  -14.5290   20.6669 O   0  0  0  0  0  0
  -24.6185  -31.8809   23.2063 C   0  0  0  0  0  0
  -25.9082  -32.4882   23.8442 C   0  0  1  0  0  0
  -27.2306  -27.3717   20.0491 C   0  0  0  0  0  0
  -25.5857  -33.8660   24.2365 N   0  0  0  0  0  0
  -23.4107  -30.5206   21.5398 C   0  0  2  0  0  0
  -24.8678  -28.9785   20.1021 C   0  0  0  0  0  0
  -22.7425  -29.4992   22.4980 C   0  0  0  0  0  0
  -18.0384  -28.1469   22.8730 C   0  0  0  0  0  0
  -24.1479  -36.7311   23.2640 C   0  0  0  0  0  0
  -25.9534  -30.8150   21.3946 C   0  0  0  0  0  0
  -26.0246  -29.4365   20.7374 C   0  0  0  0  0  0
  -27.1859  -28.6178   20.7557 C   0  0  0  0  0  0
  -26.0583  -26.9773   19.3643 C   0  0  0  0  0  0
  -24.8849  -27.7564   19.4145 C   0  0  0  0  0  0
  -23.6135  -29.8245   20.1650 C   0  0  0  0  0  0
  -25.4119  -36.3126   24.0325 C   0  0  1  0  0  0
  -20.5865  -28.4131   23.1524 C   0  0  2  0  0  0
  -20.7060  -26.9993   22.5258 C   0  0  0  0  0  0
  -19.5662  -26.5883   21.5897 C   0  0  0  0  0  0
  -18.1998  -26.7684   22.2723 C   0  0  0  0  0  0
  -19.1455  -28.9038   23.3214 C   0  0  0  0  0  0
  -18.9168  -30.1586   23.9343 C   0  0  0  0  0  0
  -17.6092  -30.6680   24.0561 C   0  0  0  0  0  0
  -25.9074  -34.9469   23.5151 C   0  0  0  0  0  0
  -16.5302  -29.9218   23.5603 C   0  0  0  0  0  0
  -16.7304  -28.6604   22.9799 C   0  0  0  0  0  0
  -26.4483  -31.6657   25.0755 C   0  0  0  0  0  0
  -25.3666  -31.3812   26.1442 C   0  0  0  0  0  0
  -27.0380  -30.3054   24.6318 C   0  0  0  0  0  0
  -27.6110  -32.4443   25.7359 C   0  0  0  0  0  0
  -27.5585  -37.1782   24.8438 C   0  0  0  0  0  0
  -21.4063  -29.3881   22.4275 N   0  0  0  0  0  0
  -26.4320  -37.3804   23.9355 N   0  0  0  0  0  0
  -24.6765  -31.0925   22.0982 N   0  0  0  0  0  0
  -23.4288  -28.8023   23.2494 O   0  0  0  0  0  0
  -28.4104  -26.6146   20.0459 O   0  0  0  0  0  0
  -26.5623  -34.8936   22.4745 O   0  0  0  0  0  0
  -23.5312  -32.1611   23.7461 O   0  0  0  0  0  0
  -28.5617  -17.0218   23.3799 C   0  0  0  0  0  0
  -29.1706  -16.1474   22.4781 C   0  0  0  0  0  0
  -28.8897  -17.8169   20.7307 C   0  0  0  0  0  0
  -28.1253  -18.3109   22.9718 C   0  0  0  0  0  0
  -28.2655  -18.7302   21.6252 C   0  0  0  0  0  0
  -29.3456  -16.5288   21.1364 C   0  0  0  0  0  0
  -27.2733  -22.4349   21.6571 C   0  0  0  0  0  0
  -27.7210  -23.9003   21.4043 C   0  0  0  0  0  0
  -29.8228  -23.1254   20.3891 C   0  0  0  0  0  0
  -29.4921  -21.6510   20.8476 C   0  0  0  0  0  0
  -28.5344  -23.9741   20.1061 C   0  0  1  0  0  0
  -25.9371  -19.1922   23.8830 C   0  0  0  0  0  0
  -27.4575  -19.1822   24.0150 C   0  0  0  0  0  0
  -27.5866  -20.0253   21.0693 C   0  0  0  0  0  0
  -28.5746  -25.3535   19.3036 C   0  0  0  0  0  0
  -28.1146  -21.4061   21.3280 N   0  0  0  0  0  0
  -29.9878  -15.6558   20.1999 N   0  0  0  0  0  0
  -26.1363  -22.2589   22.0902 O   0  0  0  0  0  0
  -31.4225  -12.1690   19.3245 H   0  0  0  0  0  0
  -30.0554  -11.3070   19.9718 H   0  0  0  0  0  0
  -29.7790  -11.7063   17.5017 H   0  0  0  0  0  0
  -29.7570  -13.4233   17.7682 H   0  0  0  0  0  0
  -27.7998  -11.3345   18.8151 H   0  0  0  0  0  0
  -27.4054  -12.6537   17.7303 H   0  0  0  0  0  0
  -27.6193  -14.2769   19.5061 H   0  0  0  0  0  0
  -28.5727  -12.1739   21.4630 H   0  0  0  0  0  0
  -28.3524  -13.8470   21.7124 H   0  0  0  0  0  0
  -25.2709   -9.5391   22.4878 H   0  0  0  0  0  0
  -23.9877   -7.4400   22.7440 H   0  0  0  0  0  0
  -21.0850   -8.8714   19.8942 H   0  0  0  0  0  0
  -22.3779  -10.9566   19.6276 H   0  0  0  0  0  0
  -21.1785   -7.6015   23.9685 H   0  0  0  0  0  0
  -21.1820   -6.0533   25.9209 H   0  0  0  0  0  0
  -22.0403   -2.7423   23.3088 H   0  0  0  0  0  0
  -22.3937  -11.9913   22.5245 H   0  0  0  0  0  0
  -21.0939  -13.1013   22.2806 H   0  0  0  0  0  0
  -24.5752  -15.8333   20.6024 H   0  0  0  0  0  0
  -26.2235  -15.7006   20.1826 H   0  0  0  0  0  0
  -26.7190  -32.5641   23.1245 H   0  0  0  0  0  0
  -24.9762  -33.9883   25.0297 H   0  0  0  0  0  0
  -22.7170  -31.3512   21.3763 H   0  0  0  0  0  0
  -23.3758  -35.9640   23.3326 H   0  0  0  0  0  0
  -24.3497  -36.8927   22.2044 H   0  0  0  0  0  0
  -23.7237  -37.6508   23.6690 H   0  0  0  0  0  0
  -26.1152  -31.5972   20.6497 H   0  0  0  0  0  0
  -26.8209  -30.8529   22.0431 H   0  0  0  0  0  0
  -28.0530  -28.9447   21.3069 H   0  0  0  0  0  0
  -26.0102  -26.0904   18.7462 H   0  0  0  0  0  0
  -23.9936  -27.4554   18.8805 H   0  0  0  0  0  0
  -23.6247  -30.5446   19.3498 H   0  0  0  0  0  0
  -22.7605  -29.1721   19.9530 H   0  0  0  0  0  0
  -25.1319  -36.1979   25.0815 H   0  0  0  0  0  0
  -20.9850  -28.3731   24.1749 H   0  0  0  0  0  0
  -20.7560  -26.2873   23.3477 H   0  0  0  0  0  0
  -21.6494  -26.8883   21.9859 H   0  0  0  0  0  0
  -19.6800  -25.5387   21.3005 H   0  0  0  0  0  0
  -19.6153  -27.1724   20.6667 H   0  0  0  0  0  0
  -17.4041  -26.5426   21.5610 H   0  0  0  0  0  0
  -18.0721  -26.0627   23.0994 H   0  0  0  0  0  0
  -19.7494  -30.7516   24.2903 H   0  0  0  0  0  0
  -17.4350  -31.6425   24.4898 H   0  0  0  0  0  0
  -15.5338  -30.3379   23.5896 H   0  0  0  0  0  0
  -15.8843  -28.1212   22.5707 H   0  0  0  0  0  0
  -24.5902  -30.7147   25.7727 H   0  0  0  0  0  0
  -24.8791  -32.2964   26.4761 H   0  0  0  0  0  0
  -25.7912  -30.9025   27.0269 H   0  0  0  0  0  0
  -26.3104  -29.6829   24.1149 H   0  0  0  0  0  0
  -27.3824  -29.7296   25.4929 H   0  0  0  0  0  0
  -27.9028  -30.4318   23.9834 H   0  0  0  0  0  0
  -27.2824  -33.3841   26.1811 H   0  0  0  0  0  0
  -28.3804  -32.6873   25.0027 H   0  0  0  0  0  0
  -28.0926  -31.8648   26.5229 H   0  0  0  0  0  0
  -28.2597  -38.0085   24.7473 H   0  0  0  0  0  0
  -28.1087  -36.2579   24.6318 H   0  0  0  0  0  0
  -27.2242  -37.1494   25.8834 H   0  0  0  0  0  0
  -20.9109  -30.1025   21.9141 H   0  0  0  0  0  0
  -26.0190  -38.2884   24.1401 H   0  0  0  0  0  0
  -28.4001  -16.6632   24.3851 H   0  0  0  0  0  0
  -29.4615  -15.1832   22.8459 H   0  0  0  0  0  0
  -28.9990  -18.1272   19.7031 H   0  0  0  0  0  0
  -28.2845  -24.2627   22.2702 H   0  0  0  0  0  0
  -26.8420  -24.5346   21.3048 H   0  0  0  0  0  0
  -30.4644  -23.0648   19.5108 H   0  0  0  0  0  0
  -30.4494  -23.5922   21.1505 H   0  0  0  0  0  0
  -30.1534  -21.3317   21.6649 H   0  0  0  0  0  0
  -29.6880  -20.9575   20.0181 H   0  0  0  0  0  0
  -28.0029  -23.3480   19.4029 H   0  0  0  0  0  0
  -25.5597  -18.2455   23.4894 H   0  0  0  0  0  0
  -25.5427  -19.9685   23.2266 H   0  0  0  0  0  0
  -25.4966  -19.3524   24.8618 H   0  0  0  0  0  0
  -27.8616  -20.1913   23.9326 H   0  0  0  0  0  0
  -27.7664  -18.8687   25.0090 H   0  0  0  0  0  0
  -26.5350  -19.9593   21.3283 H   0  0  0  0  0  0
  -27.5185  -19.9306   19.9890 H   0  0  0  0  0  0
  -27.9790  -25.3162   18.3773 H   0  0  0  0  0  0
  -29.5751  -25.3929   18.8686 H   0  0  0  0  0  0
  -30.4592  -16.2034   19.4909 H   0  0  0  0  0  0
  1 25  1  0  0  0
  1 30  2  0  0  0
  1 87  1  0  0  0
  2  3  1  0  0  0
  2 25  1  0  0  0
  2 89  1  0  0  0
  2 90  1  0  0  0
  3  4  1  0  0  0
  3 91  1  0  0  0
  3 92  1  0  0  0
  4  5  1  0  0  0
  4 93  1  0  0  0
  4 94  1  0  0  0
  5  6  1  0  0  0
  5 26  1  0  0  0
  5 95  1  0  0  0
  6 25  1  0  0  0
  6 96  1  0  0  0
  6 97  1  0  0  0
  7  8  2  0  0  0
  7 26  1  0  0  0
  7 29  1  0  0  0
  8  9  1  0  0  0
  8 22  1  0  0  0
  9 10  1  0  0  0
  9 27  2  0  0  0
 10 11  2  0  0  0
 10 15  1  0  0  0
 11 12  1  0  0  0
 11 98  1  0  0  0
 12 13  2  0  0  0
 12 99  1  0  0  0
 13 14  1  0  0  0
 13 31  1  0  0  0
 14 15  2  0  0  0
 14100  1  0  0  0
 15101  1  0  0  0
 16 17  2  0  0  0
 16 21  1  0  0  0
 16 31  1  0  0  0
 17 18  1  0  0  0
 17102  1  0  0  0
 18 19  2  0  0  0
 18103  1  0  0  0
 19 20  1  0  0  0
 19 24  1  0  0  0
 20 21  2  0  0  0
 20104  1  0  0  0
 21 23  1  0  0  0
 22 28  1  0  0  0
 22 32  2  0  0  0
 26 27  1  0  0  0
 28105  1  0  0  0
 28106  1  0  0  0
 29107  1  0  0  0
 29108  1  0  0  0
 33 34  1  0  0  0
 33 66  1  0  0  0
 33 70  2  0  0  0
 34 36  1  0  0  0
 34 59  1  0  0  0
 34109  1  0  0  0
 35 44  2  0  0  0
 35 45  1  0  0  0
 35 68  1  0  0  0
 36 56  1  0  0  0
 36110  1  0  0  0
 37 39  1  0  0  0
 37 47  1  0  0  0
 37 66  1  0  0  0
 37111  1  0  0  0
 38 43  2  0  0  0
 38 46  1  0  0  0
 38 47  1  0  0  0
 39 64  1  0  0  0
 39 67  2  0  0  0
 40 52  1  0  0  0
 40 53  2  0  0  0
 40 58  1  0  0  0
 41112  1  0  0  0
 41113  1  0  0  0
 41114  1  0  0  0
 41 48  1  0  0  0
 42 43  1  0  0  0
 42 66  1  0  0  0
 42115  1  0  0  0
 42116  1  0  0  0
 43 44  1  0  0  0
 44117  1  0  0  0
 45 46  2  0  0  0
 45118  1  0  0  0
 46119  1  0  0  0
 47120  1  0  0  0
 47121  1  0  0  0
 48 56  1  0  0  0
 48 65  1  0  0  0
 48122  1  0  0  0
 49 50  1  0  0  0
 49 53  1  0  0  0
 49 64  1  0  0  0
 49123  1  0  0  0
 50 51  1  0  0  0
 50124  1  0  0  0
 50125  1  0  0  0
 51 52  1  0  0  0
 51126  1  0  0  0
 51127  1  0  0  0
 52128  1  0  0  0
 52129  1  0  0  0
 53 54  1  0  0  0
 54 55  2  0  0  0
 54130  1  0  0  0
 55 57  1  0  0  0
 55131  1  0  0  0
 56 69  2  0  0  0
 57 58  2  0  0  0
 57132  1  0  0  0
 58133  1  0  0  0
 59 60  1  0  0  0
 59 61  1  0  0  0
 59 62  1  0  0  0
 60134  1  0  0  0
 60135  1  0  0  0
 60136  1  0  0  0
 61137  1  0  0  0
 61138  1  0  0  0
 61139  1  0  0  0
 62140  1  0  0  0
 62141  1  0  0  0
 62142  1  0  0  0
 63 65  1  0  0  0
 63143  1  0  0  0
 63144  1  0  0  0
 63145  1  0  0  0
 64146  1  0  0  0
 65147  1  0  0  0
 68 85  1  0  0  0
 71 72  2  0  0  0
 71 74  1  0  0  0
 71148  1  0  0  0
 72 76  1  0  0  0
 72149  1  0  0  0
 73 75  1  0  0  0
 73 76  2  0  0  0
 73150  1  0  0  0
 74 75  2  0  0  0
 74 83  1  0  0  0
 75 84  1  0  0  0
 76 87  1  0  0  0
 77 78  1  0  0  0
 77 86  1  0  0  0
 77 88  2  0  0  0
 78 81  1  0  0  0
 78151  1  0  0  0
 78152  1  0  0  0
 79 80  1  0  0  0
 79 81  1  0  0  0
 79153  1  0  0  0
 79154  1  0  0  0
 80 86  1  0  0  0
 80155  1  0  0  0
 80156  1  0  0  0
 81 85  1  0  0  0
 81157  1  0  0  0
 82 83  1  0  0  0
 82158  1  0  0  0
 82159  1  0  0  0
 82160  1  0  0  0
 83161  1  0  0  0
 83162  1  0  0  0
 84 86  1  0  0  0
 84163  1  0  0  0
 84164  1  0  0  0
 85165  1  0  0  0
 85166  1  0  0  0
 87167  1  0  0  0
M  ISO  4   1 100  68 101  85 101  87 100
M  END
> <chiral flag>
0

> <version>
0

> <s_m_source_file>
/data/baiqing/PycharmProjects/Reinvent-master-3.2/result/LINK_invent/BTK/process_docking_weight1_custom_product_contain_oxygen_bond_distance_aromatic_linkinvent_7_9_3/rearranged_h_0057.sdf

> <i_m_source_file_index>
25

> <r_mmod_Potential_Energy-OPLS-2005>
183.794799804688

> <r_mmod_Stretch_Energy-OPLS-2005>
70.485710144043

> <r_mmod_Bend_Energy-OPLS-2005>
195.799285888672

> <r_mmod_Torsional_Energy-OPLS-2005>
323.066467285156

> <r_mmod_Improper_Torsional_Energy-OPLS-2005>
20.8982009887695

> <r_mmod_Van_der_Waal_Energy-OPLS-2005>
154.279266357422

> <r_mmod_Electrostatic_Energy-OPLS-2005>
-417.51904296875

> <r_mmod_Solvation_Energy-OPLS-2005>
-210.953231811523

> <b_mmod_Minimization_Converged-OPLS-2005>
0

> <r_mmod_RMS_Derivative-OPLS-2005>
20.6115169525146

$$$$
26
                    3D
 Structure written by MMmdl.
157165  0  0  1  0            999 V2000
  -30.7468  -14.4474   20.5615 C   0  0  0  0  0  0
  -30.4049  -12.2827   19.4436 C   0  0  0  0  0  0
  -29.4972  -12.5078   18.2200 C   0  0  0  0  0  0
  -28.0164  -12.3837   18.6215 C   0  0  0  0  0  0
  -27.6632  -13.2198   19.8813 C   0  0  2  0  0  0
  -28.7013  -13.0306   21.0113 C   0  0  0  0  0  0
  -25.2615  -13.8164   20.5738 C   0  0  0  0  0  0
  -24.1851  -13.0414   20.9182 C   0  0  0  0  0  0
  -24.6422  -11.6891   20.8751 C   0  0  0  0  0  0
  -23.9065  -10.4280   21.0411 C   0  0  0  0  0  0
  -24.3601   -9.4193   21.9188 C   0  0  0  0  0  0
  -23.6283   -8.2232   22.0754 C   0  0  0  0  0  0
  -22.4282   -8.0263   21.3538 C   0  0  0  0  0  0
  -21.9905   -9.0242   20.4658 C   0  0  0  0  0  0
  -22.7222  -10.2131   20.3080 C   0  0  0  0  0  0
  -21.6880   -6.0712   22.5277 C   0  0  0  0  0  0
  -21.4008   -6.5623   23.8193 C   0  0  0  0  0  0
  -21.3666   -5.6790   24.9161 C   0  0  0  0  0  0
  -21.6052   -4.3054   24.7227 C   0  0  0  0  0  0
  -21.8825   -3.8124   23.4359 C   0  0  0  0  0  0
  -21.9187   -4.6930   22.3398 C   0  0  0  0  0  0
  -22.7878  -13.5213   21.1857 C   0  0  0  0  0  0
  -22.1680   -4.2101   21.0988 F   0  0  0  0  0  0
  -21.5625   -3.4554   25.7751 F   0  0  0  0  0  0
  -30.0374  -13.2913   20.4547 N   0  0  0  0  0  0
  -26.3049  -12.9367   20.3416 N   0  0  0  0  0  0
  -25.9355  -11.6509   20.5765 N   0  0  0  0  0  0
  -22.0514  -12.8233   22.0440 N   0  0  0  0  0  0
  -25.4402  -15.1861   20.4206 N   0  0  0  0  0  0
  -31.8880  -14.5371   20.1029 O   0  0  0  0  0  0
  -21.6662   -6.8856   21.4239 O   0  0  0  0  0  0
  -22.3584  -14.5541   20.6734 O   0  0  0  0  0  0
  -24.6062  -31.8725   23.2142 C   0  0  0  0  0  0
  -25.8983  -32.4836   23.8437 C   0  0  1  0  0  0
  -27.2378  -27.4866   20.0844 C   0  0  0  0  0  0
  -25.5907  -33.8641   24.2382 N   0  0  0  0  0  0
  -23.3905  -30.4988   21.5535 C   0  0  2  0  0  0
  -24.8402  -28.9758   20.1076 C   0  0  0  0  0  0
  -22.7432  -29.4660   22.5021 C   0  0  0  0  0  0
  -18.0319  -28.1460   22.8467 C   0  0  0  0  0  0
  -24.1501  -36.7290   23.2650 C   0  0  0  0  0  0
  -25.9155  -30.8546   21.3613 C   0  0  0  0  0  0
  -25.9927  -29.4946   20.7061 C   0  0  0  0  0  0
  -27.1924  -28.7549   20.6967 C   0  0  0  0  0  0
  -26.0645  -26.9714   19.4805 C   0  0  0  0  0  0
  -24.8682  -27.7123   19.4924 C   0  0  0  0  0  0
  -23.5943  -29.8318   20.1632 C   0  0  0  0  0  0
  -25.4106  -36.3088   24.0354 C   0  0  1  0  0  0
  -20.5881  -28.3660   23.1368 C   0  0  2  0  0  0
  -20.6756  -26.9415   22.5432 C   0  0  0  0  0  0
  -19.5817  -26.6576   21.5110 C   0  0  0  0  0  0
  -18.1928  -26.8100   22.1404 C   0  0  0  0  0  0
  -19.1576  -28.8838   23.2972 C   0  0  0  0  0  0
  -18.9524  -30.1412   23.9056 C   0  0  0  0  0  0
  -17.6536  -30.6584   24.0732 C   0  0  0  0  0  0
  -25.9023  -34.9470   23.5148 C   0  0  0  0  0  0
  -16.5408  -29.9129   23.6457 C   0  0  0  0  0  0
  -16.7304  -28.6593   23.0384 C   0  0  0  0  0  0
  -26.4464  -31.6562   25.0715 C   0  0  0  0  0  0
  -25.3779  -31.3659   26.1491 C   0  0  0  0  0  0
  -27.0325  -30.3024   24.6054 C   0  0  0  0  0  0
  -27.6069  -32.4249   25.7447 C   0  0  0  0  0  0
  -27.5571  -37.1791   24.8464 C   0  0  0  0  0  0
  -21.4152  -29.3045   22.3807 N   0  0  0  0  0  0
  -26.4276  -37.3760   23.9422 N   0  0  0  0  0  0
  -24.6552  -31.0885   22.1013 N   0  0  0  0  0  0
  -23.4270  -28.8181   23.2995 O   0  0  0  0  0  0
  -28.4384  -26.8202   20.0799 O   0  0  0  0  0  0
  -26.5613  -34.8908   22.4725 O   0  0  0  0  0  0
  -23.5289  -32.1457   23.7580 O   0  0  0  0  0  0
  -31.6838  -18.7515   19.8876 C   0  0  0  0  0  0
  -30.7932  -19.6871   20.4235 C   0  0  0  0  0  0
  -31.4881  -17.3850   20.1207 C   0  0  0  0  0  0
  -29.4781  -17.8777   21.4050 C   0  0  0  0  0  0
  -29.6756  -19.2641   21.1795 C   0  0  0  0  0  0
  -30.3794  -16.9119   20.8792 C   0  0  0  0  0  0
  -29.3099  -22.6686   21.2539 C   0  0  0  0  0  0
  -28.6771  -20.2993   21.7082 C   0  0  0  0  0  0
  -30.0011  -23.4061   20.1024 C   0  0  0  0  0  0
  -29.8561  -24.9309   20.0940 C   0  0  0  0  0  0
  -28.4139  -25.4106   19.9342 C   0  0  0  0  0  0
  -30.1089  -15.5115   21.0941 N   0  0  0  0  0  0
  -28.7115  -21.5233   20.9082 N   0  0  0  0  0  0
  -29.4021  -23.0698   22.4160 O   0  0  0  0  0  0
  -31.4548  -12.3328   19.1477 H   0  0  0  0  0  0
  -30.2648  -11.2780   19.8442 H   0  0  0  0  0  0
  -29.7361  -11.7941   17.4291 H   0  0  0  0  0  0
  -29.6853  -13.4978   17.8046 H   0  0  0  0  0  0
  -27.8042  -11.3295   18.7929 H   0  0  0  0  0  0
  -27.3805  -12.6915   17.7903 H   0  0  0  0  0  0
  -27.7026  -14.2684   19.5820 H   0  0  0  0  0  0
  -28.6666  -12.0130   21.4024 H   0  0  0  0  0  0
  -28.4742  -13.6802   21.8563 H   0  0  0  0  0  0
  -25.2750   -9.5691   22.4752 H   0  0  0  0  0  0
  -24.0002   -7.4641   22.7490 H   0  0  0  0  0  0
  -21.0818   -8.8746   19.8999 H   0  0  0  0  0  0
  -22.3642  -10.9661   19.6204 H   0  0  0  0  0  0
  -21.2026   -7.6143   23.9672 H   0  0  0  0  0  0
  -21.1492   -6.0543   25.9058 H   0  0  0  0  0  0
  -22.0610   -2.7589   23.2883 H   0  0  0  0  0  0
  -22.4115  -11.9858   22.4770 H   0  0  0  0  0  0
  -21.1143  -13.1298   22.2681 H   0  0  0  0  0  0
  -24.6869  -15.8531   20.5413 H   0  0  0  0  0  0
  -26.3098  -15.6159   20.1264 H   0  0  0  0  0  0
  -26.7065  -32.5596   23.1232 H   0  0  0  0  0  0
  -24.9980  -33.9831   25.0466 H   0  0  0  0  0  0
  -22.6760  -31.3159   21.4206 H   0  0  0  0  0  0
  -23.3731  -35.9647   23.3302 H   0  0  0  0  0  0
  -24.3583  -36.8905   22.2062 H   0  0  0  0  0  0
  -23.7299  -37.6511   23.6664 H   0  0  0  0  0  0
  -26.0342  -31.6227   20.5943 H   0  0  0  0  0  0
  -26.7993  -30.9005   21.9821 H   0  0  0  0  0  0
  -28.0862  -29.1553   21.1595 H   0  0  0  0  0  0
  -26.0657  -26.0165   18.9764 H   0  0  0  0  0  0
  -23.9799  -27.3094   19.0241 H   0  0  0  0  0  0
  -23.6817  -30.6095   19.4041 H   0  0  0  0  0  0
  -22.7263  -29.2357   19.8759 H   0  0  0  0  0  0
  -25.1280  -36.1947   25.0844 H   0  0  0  0  0  0
  -20.9989  -28.3191   24.1480 H   0  0  0  0  0  0
  -20.5591  -26.2198   23.3539 H   0  0  0  0  0  0
  -21.6674  -26.7540   22.1301 H   0  0  0  0  0  0
  -19.7067  -25.6605   21.0882 H   0  0  0  0  0  0
  -19.6942  -27.3605   20.6848 H   0  0  0  0  0  0
  -17.4259  -26.6973   21.3719 H   0  0  0  0  0  0
  -18.0191  -26.0179   22.8678 H   0  0  0  0  0  0
  -19.8014  -30.7192   24.2451 H   0  0  0  0  0  0
  -17.5097  -31.6252   24.5327 H   0  0  0  0  0  0
  -15.5432  -30.3053   23.7804 H   0  0  0  0  0  0
  -15.8671  -28.0987   22.7010 H   0  0  0  0  0  0
  -24.5949  -30.7010   25.7836 H   0  0  0  0  0  0
  -24.8984  -32.2817   26.4953 H   0  0  0  0  0  0
  -25.8153  -30.8828   27.0236 H   0  0  0  0  0  0
  -26.2894  -29.6737   24.1132 H   0  0  0  0  0  0
  -27.4192  -29.7281   25.4488 H   0  0  0  0  0  0
  -27.8672  -30.4387   23.9169 H   0  0  0  0  0  0
  -27.2732  -33.3540   26.2073 H   0  0  0  0  0  0
  -28.3815  -32.6791   25.0201 H   0  0  0  0  0  0
  -28.0778  -31.8319   26.5299 H   0  0  0  0  0  0
  -28.2585  -38.0080   24.7461 H   0  0  0  0  0  0
  -28.1066  -36.2612   24.6313 H   0  0  0  0  0  0
  -27.2306  -37.1471   25.8870 H   0  0  0  0  0  0
  -20.9226  -29.8921   21.7214 H   0  0  0  0  0  0
  -26.0156  -38.2845   24.1336 H   0  0  0  0  0  0
  -32.5171  -19.0940   19.2896 H   0  0  0  0  0  0
  -30.9927  -20.7295   20.2218 H   0  0  0  0  0  0
  -32.2229  -16.7379   19.6697 H   0  0  0  0  0  0
  -28.6085  -17.5660   21.9705 H   0  0  0  0  0  0
  -28.8797  -20.5003   22.7631 H   0  0  0  0  0  0
  -27.6673  -19.8873   21.6562 H   0  0  0  0  0  0
  -29.6539  -23.0064   19.1492 H   0  0  0  0  0  0
  -31.0647  -23.1691   20.1509 H   0  0  0  0  0  0
  -30.4380  -25.3055   19.2486 H   0  0  0  0  0  0
  -30.3091  -25.3668   20.9858 H   0  0  0  0  0  0
  -27.7641  -24.9753   20.6957 H   0  0  0  0  0  0
  -28.0476  -25.1165   18.9495 H   0  0  0  0  0  0
  -29.2335  -15.2924   21.5456 H   0  0  0  0  0  0
  -28.6265  -21.3630   19.9130 H   0  0  0  0  0  0
  1 25  1  0  0  0
  1 30  2  0  0  0
  1 82  1  0  0  0
  2  3  1  0  0  0
  2 25  1  0  0  0
  2 85  1  0  0  0
  2 86  1  0  0  0
  3  4  1  0  0  0
  3 87  1  0  0  0
  3 88  1  0  0  0
  4  5  1  0  0  0
  4 89  1  0  0  0
  4 90  1  0  0  0
  5  6  1  0  0  0
  5 26  1  0  0  0
  5 91  1  0  0  0
  6 25  1  0  0  0
  6 92  1  0  0  0
  6 93  1  0  0  0
  7  8  2  0  0  0
  7 26  1  0  0  0
  7 29  1  0  0  0
  8  9  1  0  0  0
  8 22  1  0  0  0
  9 10  1  0  0  0
  9 27  2  0  0  0
 10 11  2  0  0  0
 10 15  1  0  0  0
 11 12  1  0  0  0
 11 94  1  0  0  0
 12 13  2  0  0  0
 12 95  1  0  0  0
 13 14  1  0  0  0
 13 31  1  0  0  0
 14 15  2  0  0  0
 14 96  1  0  0  0
 15 97  1  0  0  0
 16 17  2  0  0  0
 16 21  1  0  0  0
 16 31  1  0  0  0
 17 18  1  0  0  0
 17 98  1  0  0  0
 18 19  2  0  0  0
 18 99  1  0  0  0
 19 20  1  0  0  0
 19 24  1  0  0  0
 20 21  2  0  0  0
 20100  1  0  0  0
 21 23  1  0  0  0
 22 28  1  0  0  0
 22 32  2  0  0  0
 26 27  1  0  0  0
 28101  1  0  0  0
 28102  1  0  0  0
 29103  1  0  0  0
 29104  1  0  0  0
 33 34  1  0  0  0
 33 66  1  0  0  0
 33 70  2  0  0  0
 34 36  1  0  0  0
 34 59  1  0  0  0
 34105  1  0  0  0
 35 44  2  0  0  0
 35 45  1  0  0  0
 35 68  1  0  0  0
 36 56  1  0  0  0
 36106  1  0  0  0
 37 39  1  0  0  0
 37 47  1  0  0  0
 37 66  1  0  0  0
 37107  1  0  0  0
 38 43  2  0  0  0
 38 46  1  0  0  0
 38 47  1  0  0  0
 39 64  1  0  0  0
 39 67  2  0  0  0
 40 52  1  0  0  0
 40 53  2  0  0  0
 40 58  1  0  0  0
 41108  1  0  0  0
 41109  1  0  0  0
 41110  1  0  0  0
 41 48  1  0  0  0
 42 43  1  0  0  0
 42 66  1  0  0  0
 42111  1  0  0  0
 42112  1  0  0  0
 43 44  1  0  0  0
 44113  1  0  0  0
 45 46  2  0  0  0
 45114  1  0  0  0
 46115  1  0  0  0
 47116  1  0  0  0
 47117  1  0  0  0
 48 56  1  0  0  0
 48 65  1  0  0  0
 48118  1  0  0  0
 49 50  1  0  0  0
 49 53  1  0  0  0
 49 64  1  0  0  0
 49119  1  0  0  0
 50 51  1  0  0  0
 50120  1  0  0  0
 50121  1  0  0  0
 51 52  1  0  0  0
 51122  1  0  0  0
 51123  1  0  0  0
 52124  1  0  0  0
 52125  1  0  0  0
 53 54  1  0  0  0
 54 55  2  0  0  0
 54126  1  0  0  0
 55 57  1  0  0  0
 55127  1  0  0  0
 56 69  2  0  0  0
 57 58  2  0  0  0
 57128  1  0  0  0
 58129  1  0  0  0
 59 60  1  0  0  0
 59 61  1  0  0  0
 59 62  1  0  0  0
 60130  1  0  0  0
 60131  1  0  0  0
 60132  1  0  0  0
 61133  1  0  0  0
 61134  1  0  0  0
 61135  1  0  0  0
 62136  1  0  0  0
 62137  1  0  0  0
 62138  1  0  0  0
 63 65  1  0  0  0
 63139  1  0  0  0
 63140  1  0  0  0
 63141  1  0  0  0
 64142  1  0  0  0
 65143  1  0  0  0
 68 81  1  0  0  0
 71 72  2  0  0  0
 71 73  1  0  0  0
 71144  1  0  0  0
 72 75  1  0  0  0
 72145  1  0  0  0
 73 76  2  0  0  0
 73146  1  0  0  0
 74 75  2  0  0  0
 74 76  1  0  0  0
 74147  1  0  0  0
 75 78  1  0  0  0
 76 82  1  0  0  0
 77 79  1  0  0  0
 77 83  1  0  0  0
 77 84  2  0  0  0
 78 83  1  0  0  0
 78148  1  0  0  0
 78149  1  0  0  0
 79 80  1  0  0  0
 79150  1  0  0  0
 79151  1  0  0  0
 80 81  1  0  0  0
 80152  1  0  0  0
 80153  1  0  0  0
 81154  1  0  0  0
 81155  1  0  0  0
 82156  1  0  0  0
 83157  1  0  0  0
M  ISO  4   1 100  68 101  81 101  82 100
M  END
> <chiral flag>
0

> <version>
0

> <s_m_source_file>
/data/baiqing/PycharmProjects/Reinvent-master-3.2/result/LINK_invent/BTK/process_docking_weight1_custom_product_contain_oxygen_bond_distance_aromatic_linkinvent_7_9_3/rearranged_h_0057.sdf

> <i_m_source_file_index>
26

> <r_mmod_Potential_Energy-OPLS-2005>
-165.289016723633

> <r_mmod_Stretch_Energy-OPLS-2005>
35.4242286682129

> <r_mmod_Bend_Energy-OPLS-2005>
102.426948547363

> <r_mmod_Torsional_Energy-OPLS-2005>
210.467224121094

> <r_mmod_Improper_Torsional_Energy-OPLS-2005>
5.59003734588623

> <r_mmod_Van_der_Waal_Energy-OPLS-2005>
172.608367919922

> <r_mmod_Electrostatic_Energy-OPLS-2005>
-465.573211669922

> <r_mmod_Solvation_Energy-OPLS-2005>
-240.933349609375

> <b_mmod_Minimization_Converged-OPLS-2005>
0

> <r_mmod_RMS_Derivative-OPLS-2005>
6.16086769104004

$$$$
27
                    3D
 Structure written by MMmdl.
170179  0  0  1  0            999 V2000
  -30.6504  -14.4936   20.6264 C   0  0  0  0  0  0
  -30.4447  -12.3403   19.4031 C   0  0  0  0  0  0
  -29.4997  -12.5327   18.1965 C   0  0  0  0  0  0
  -28.0201  -12.3792   18.6063 C   0  0  0  0  0  0
  -27.6677  -13.1959   19.8770 C   0  0  2  0  0  0
  -28.7072  -12.9252   20.9859 C   0  0  0  0  0  0
  -25.2628  -13.8129   20.5650 C   0  0  0  0  0  0
  -24.1853  -13.0443   20.9143 C   0  0  0  0  0  0
  -24.6380  -11.6899   20.8701 C   0  0  0  0  0  0
  -23.9022  -10.4304   21.0389 C   0  0  0  0  0  0
  -24.3582   -9.4226   21.9180 C   0  0  0  0  0  0
  -23.6260   -8.2262   22.0756 C   0  0  0  0  0  0
  -22.4248   -8.0293   21.3543 C   0  0  0  0  0  0
  -21.9866   -9.0256   20.4652 C   0  0  0  0  0  0
  -22.7190  -10.2139   20.3050 C   0  0  0  0  0  0
  -21.6859   -6.0724   22.5269 C   0  0  0  0  0  0
  -21.4025   -6.5633   23.8205 C   0  0  0  0  0  0
  -21.3658   -5.6780   24.9161 C   0  0  0  0  0  0
  -21.6037   -4.3042   24.7223 C   0  0  0  0  0  0
  -21.8823   -3.8139   23.4347 C   0  0  0  0  0  0
  -21.9196   -4.6950   22.3391 C   0  0  0  0  0  0
  -22.7887  -13.5281   21.1808 C   0  0  0  0  0  0
  -22.1670   -4.2136   21.0973 F   0  0  0  0  0  0
  -21.5615   -3.4525   25.7734 F   0  0  0  0  0  0
  -30.0412  -13.2843   20.4577 N   0  0  0  0  0  0
  -26.3051  -12.9280   20.3333 N   0  0  0  0  0  0
  -25.9303  -11.6451   20.5706 N   0  0  0  0  0  0
  -22.0482  -12.8313   22.0366 N   0  0  0  0  0  0
  -25.4396  -15.1841   20.4095 N   0  0  0  0  0  0
  -31.7112  -14.8019   20.0696 O   0  0  0  0  0  0
  -21.6641   -6.8874   21.4234 O   0  0  0  0  0  0
  -22.3599  -14.5586   20.6645 O   0  0  0  0  0  0
  -24.6187  -31.8653   23.2069 C   0  0  0  0  0  0
  -25.9070  -32.4803   23.8377 C   0  0  1  0  0  0
  -27.2406  -27.3995   20.0804 C   0  0  0  0  0  0
  -25.5914  -33.8601   24.2309 N   0  0  0  0  0  0
  -23.4083  -30.4891   21.5480 C   0  0  2  0  0  0
  -24.8550  -28.9493   20.1144 C   0  0  0  0  0  0
  -22.7424  -29.4654   22.4963 C   0  0  0  0  0  0
  -18.0276  -28.1386   22.8486 C   0  0  0  0  0  0
  -24.1489  -36.7303   23.2635 C   0  0  0  0  0  0
  -25.9423  -30.8164   21.3680 C   0  0  0  0  0  0
  -26.0184  -29.4486   20.7125 C   0  0  0  0  0  0
  -27.2093  -28.6772   20.7007 C   0  0  0  0  0  0
  -26.0450  -26.9158   19.5004 C   0  0  0  0  0  0
  -24.8636  -27.6813   19.5111 C   0  0  0  0  0  0
  -23.6192  -29.8212   20.1636 C   0  0  0  0  0  0
  -25.4108  -36.3092   24.0330 C   0  0  1  0  0  0
  -20.5867  -28.3683   23.1295 C   0  0  2  0  0  0
  -20.6770  -26.9413   22.5410 C   0  0  0  0  0  0
  -19.5747  -26.6386   21.5209 C   0  0  0  0  0  0
  -18.1922  -26.7936   22.1616 C   0  0  0  0  0  0
  -19.1529  -28.8846   23.2889 C   0  0  0  0  0  0
  -18.9460  -30.1448   23.8911 C   0  0  0  0  0  0
  -17.6464  -30.6590   24.0559 C   0  0  0  0  0  0
  -25.9039  -34.9461   23.5116 C   0  0  0  0  0  0
  -16.5355  -29.9093   23.6326 C   0  0  0  0  0  0
  -16.7264  -28.6506   23.0355 C   0  0  0  0  0  0
  -26.4484  -31.6596   25.0722 C   0  0  0  0  0  0
  -25.3744  -31.3742   26.1474 C   0  0  0  0  0  0
  -27.0311  -30.3023   24.6142 C   0  0  0  0  0  0
  -27.6059  -32.4320   25.7482 C   0  0  0  0  0  0
  -27.5576  -37.1804   24.8458 C   0  0  0  0  0  0
  -21.4146  -29.3050   22.3700 N   0  0  0  0  0  0
  -26.4290  -37.3781   23.9403 N   0  0  0  0  0  0
  -24.6743  -31.0720   22.0991 N   0  0  0  0  0  0
  -23.4174  -28.8197   23.3019 O   0  0  0  0  0  0
  -28.4008  -26.6342   20.1059 O   0  0  0  0  0  0
  -26.5597  -34.8919   22.4677 O   0  0  0  0  0  0
  -23.5370  -32.1423   23.7442 O   0  0  0  0  0  0
  -30.2762  -17.7525   20.7952 C   0  0  0  0  0  0
  -29.2841  -17.0704   22.8965 C   0  0  0  0  0  0
  -30.0721  -19.1310   21.1251 C   0  0  0  0  0  0
  -29.0778  -18.4125   23.2691 C   0  0  0  0  0  0
  -29.5436  -19.4543   22.4151 C   0  0  0  0  0  0
  -29.9089  -16.7145   21.6928 C   0  0  0  0  0  0
  -30.8554  -22.6410   20.2870 C   0  0  0  0  0  0
  -30.3549  -24.1023   20.2018 C   0  0  0  0  0  0
  -28.0654  -23.2849   19.7355 C   0  0  0  0  0  0
  -28.5951  -21.8202   19.6393 C   0  0  0  0  0  0
  -29.1423  -24.2788   19.2735 C   0  0  1  0  0  0
  -29.5201  -20.8932   22.9141 C   0  0  0  0  0  0
  -29.3339  -18.7821   25.7837 C   0  0  0  0  0  0
  -30.4752  -20.1826   20.0475 C   0  0  0  0  0  0
  -28.7046  -25.7605   18.9932 C   0  0  0  0  0  0
  -28.3585  -18.6615   24.6047 C   0  0  0  0  0  0
  -29.9917  -21.6027   20.0858 N   0  0  0  0  0  0
  -29.9849  -15.3005   21.4762 N   0  0  0  0  0  0
  -32.0468  -22.4677   20.5601 O   0  0  0  0  0  0
  -27.5517  -17.6335   24.8771 F   0  0  0  0  0  0
  -27.5709  -19.7352   24.5512 F   0  0  0  0  0  0
  -31.4832  -12.4834   19.0989 H   0  0  0  0  0  0
  -30.3854  -11.3173   19.7773 H   0  0  0  0  0  0
  -29.7420  -11.8200   17.4074 H   0  0  0  0  0  0
  -29.6563  -13.5242   17.7686 H   0  0  0  0  0  0
  -27.8293  -11.3200   18.7823 H   0  0  0  0  0  0
  -27.3715  -12.6709   17.7793 H   0  0  0  0  0  0
  -27.7247  -14.2507   19.6073 H   0  0  0  0  0  0
  -28.6997  -11.8676   21.2529 H   0  0  0  0  0  0
  -28.4327  -13.4425   21.9061 H   0  0  0  0  0  0
  -25.2718   -9.5712   22.4764 H   0  0  0  0  0  0
  -23.9962   -7.4650   22.7476 H   0  0  0  0  0  0
  -21.0790   -8.8774   19.8958 H   0  0  0  0  0  0
  -22.3634  -10.9675   19.6163 H   0  0  0  0  0  0
  -21.2042   -7.6141   23.9714 H   0  0  0  0  0  0
  -21.1464   -6.0508   25.9062 H   0  0  0  0  0  0
  -22.0604   -2.7598   23.2863 H   0  0  0  0  0  0
  -22.4050  -11.9973   22.4793 H   0  0  0  0  0  0
  -21.1114  -13.1404   22.2537 H   0  0  0  0  0  0
  -24.6822  -15.8488   20.5233 H   0  0  0  0  0  0
  -26.3083  -15.6161   20.1211 H   0  0  0  0  0  0
  -26.7146  -32.5503   23.1140 H   0  0  0  0  0  0
  -25.0083  -33.9759   25.0469 H   0  0  0  0  0  0
  -22.6994  -31.3079   21.4067 H   0  0  0  0  0  0
  -23.3738  -35.9650   23.3319 H   0  0  0  0  0  0
  -24.3584  -36.8900   22.2047 H   0  0  0  0  0  0
  -23.7265  -37.6521   23.6647 H   0  0  0  0  0  0
  -26.0656  -31.5818   20.6004 H   0  0  0  0  0  0
  -26.8254  -30.8656   21.9933 H   0  0  0  0  0  0
  -28.1057  -29.0580   21.1699 H   0  0  0  0  0  0
  -25.9976  -25.9297   19.0627 H   0  0  0  0  0  0
  -23.9629  -27.2821   19.0658 H   0  0  0  0  0  0
  -23.7325  -30.5966   19.4049 H   0  0  0  0  0  0
  -22.7407  -29.2459   19.8648 H   0  0  0  0  0  0
  -25.1288  -36.1948   25.0820 H   0  0  0  0  0  0
  -20.9958  -28.3263   24.1414 H   0  0  0  0  0  0
  -20.5670  -26.2293   23.3603 H   0  0  0  0  0  0
  -21.6643  -26.7452   22.1206 H   0  0  0  0  0  0
  -19.6910  -25.6295   21.1243 H   0  0  0  0  0  0
  -19.6685  -27.3192   20.6736 H   0  0  0  0  0  0
  -17.4188  -26.6678   21.4020 H   0  0  0  0  0  0
  -18.0322  -26.0075   22.9007 H   0  0  0  0  0  0
  -19.7932  -30.7256   24.2294 H   0  0  0  0  0  0
  -17.5023  -31.6273   24.5151 H   0  0  0  0  0  0
  -15.5361  -30.3009   23.7642 H   0  0  0  0  0  0
  -15.8657  -28.0826   22.7087 H   0  0  0  0  0  0
  -24.5892  -30.7114   25.7825 H   0  0  0  0  0  0
  -24.8972  -32.2920   26.4920 H   0  0  0  0  0  0
  -25.8088  -30.8910   27.0233 H   0  0  0  0  0  0
  -26.2863  -29.6785   24.1184 H   0  0  0  0  0  0
  -27.4042  -29.7270   25.4626 H   0  0  0  0  0  0
  -27.8721  -30.4316   23.9326 H   0  0  0  0  0  0
  -27.2676  -33.3614   26.2073 H   0  0  0  0  0  0
  -28.3857  -32.6886   25.0300 H   0  0  0  0  0  0
  -28.0737  -31.8438   26.5386 H   0  0  0  0  0  0
  -28.2602  -38.0092   24.7491 H   0  0  0  0  0  0
  -28.1067  -36.2626   24.6297 H   0  0  0  0  0  0
  -27.2297  -37.1458   25.8862 H   0  0  0  0  0  0
  -20.9310  -29.8782   21.6931 H   0  0  0  0  0  0
  -26.0173  -38.2857   24.1405 H   0  0  0  0  0  0
  -30.7018  -17.4928   19.8352 H   0  0  0  0  0  0
  -28.9564  -16.2850   23.5635 H   0  0  0  0  0  0
  -31.1733  -24.7372   19.8606 H   0  0  0  0  0  0
  -30.1041  -24.4348   21.2091 H   0  0  0  0  0  0
  -27.7694  -23.5110   20.7610 H   0  0  0  0  0  0
  -27.1642  -23.3898   19.1296 H   0  0  0  0  0  0
  -28.5410  -21.5065   18.5959 H   0  0  0  0  0  0
  -27.9298  -21.1492   20.1841 H   0  0  0  0  0  0
  -29.4588  -23.9227   18.2905 H   0  0  0  0  0  0
  -30.4620  -21.3852   22.6829 H   0  0  0  0  0  0
  -29.4425  -20.9770   23.9933 H   0  0  0  0  0  0
  -28.6923  -21.4513   22.4791 H   0  0  0  0  0  0
  -29.9045  -17.8628   25.9117 H   0  0  0  0  0  0
  -28.7988  -18.9699   26.7146 H   0  0  0  0  0  0
  -30.0501  -19.5907   25.6469 H   0  0  0  0  0  0
  -30.1546  -19.7802   19.0860 H   0  0  0  0  0  0
  -31.5630  -20.1468   19.9868 H   0  0  0  0  0  0
  -27.9328  -25.7557   18.2254 H   0  0  0  0  0  0
  -29.5447  -26.2442   18.4936 H   0  0  0  0  0  0
  -29.2988  -14.7795   22.0012 H   0  0  0  0  0  0
  1 25  1  0  0  0
  1 30  2  0  0  0
  1 88  1  0  0  0
  2  3  1  0  0  0
  2 25  1  0  0  0
  2 92  1  0  0  0
  2 93  1  0  0  0
  3  4  1  0  0  0
  3 94  1  0  0  0
  3 95  1  0  0  0
  4  5  1  0  0  0
  4 96  1  0  0  0
  4 97  1  0  0  0
  5  6  1  0  0  0
  5 26  1  0  0  0
  5 98  1  0  0  0
  6 25  1  0  0  0
  6 99  1  0  0  0
  6100  1  0  0  0
  7  8  2  0  0  0
  7 26  1  0  0  0
  7 29  1  0  0  0
  8  9  1  0  0  0
  8 22  1  0  0  0
  9 10  1  0  0  0
  9 27  2  0  0  0
 10 11  2  0  0  0
 10 15  1  0  0  0
 11 12  1  0  0  0
 11101  1  0  0  0
 12 13  2  0  0  0
 12102  1  0  0  0
 13 14  1  0  0  0
 13 31  1  0  0  0
 14 15  2  0  0  0
 14103  1  0  0  0
 15104  1  0  0  0
 16 17  2  0  0  0
 16 21  1  0  0  0
 16 31  1  0  0  0
 17 18  1  0  0  0
 17105  1  0  0  0
 18 19  2  0  0  0
 18106  1  0  0  0
 19 20  1  0  0  0
 19 24  1  0  0  0
 20 21  2  0  0  0
 20107  1  0  0  0
 21 23  1  0  0  0
 22 28  1  0  0  0
 22 32  2  0  0  0
 26 27  1  0  0  0
 28108  1  0  0  0
 28109  1  0  0  0
 29110  1  0  0  0
 29111  1  0  0  0
 33 34  1  0  0  0
 33 66  1  0  0  0
 33 70  2  0  0  0
 34 36  1  0  0  0
 34 59  1  0  0  0
 34112  1  0  0  0
 35 44  2  0  0  0
 35 45  1  0  0  0
 35 68  1  0  0  0
 36 56  1  0  0  0
 36113  1  0  0  0
 37 39  1  0  0  0
 37 47  1  0  0  0
 37 66  1  0  0  0
 37114  1  0  0  0
 38 43  2  0  0  0
 38 46  1  0  0  0
 38 47  1  0  0  0
 39 64  1  0  0  0
 39 67  2  0  0  0
 40 52  1  0  0  0
 40 53  2  0  0  0
 40 58  1  0  0  0
 41115  1  0  0  0
 41116  1  0  0  0
 41117  1  0  0  0
 41 48  1  0  0  0
 42 43  1  0  0  0
 42 66  1  0  0  0
 42118  1  0  0  0
 42119  1  0  0  0
 43 44  1  0  0  0
 44120  1  0  0  0
 45 46  2  0  0  0
 45121  1  0  0  0
 46122  1  0  0  0
 47123  1  0  0  0
 47124  1  0  0  0
 48 56  1  0  0  0
 48 65  1  0  0  0
 48125  1  0  0  0
 49 50  1  0  0  0
 49 53  1  0  0  0
 49 64  1  0  0  0
 49126  1  0  0  0
 50 51  1  0  0  0
 50127  1  0  0  0
 50128  1  0  0  0
 51 52  1  0  0  0
 51129  1  0  0  0
 51130  1  0  0  0
 52131  1  0  0  0
 52132  1  0  0  0
 53 54  1  0  0  0
 54 55  2  0  0  0
 54133  1  0  0  0
 55 57  1  0  0  0
 55134  1  0  0  0
 56 69  2  0  0  0
 57 58  2  0  0  0
 57135  1  0  0  0
 58136  1  0  0  0
 59 60  1  0  0  0
 59 61  1  0  0  0
 59 62  1  0  0  0
 60137  1  0  0  0
 60138  1  0  0  0
 60139  1  0  0  0
 61140  1  0  0  0
 61141  1  0  0  0
 61142  1  0  0  0
 62143  1  0  0  0
 62144  1  0  0  0
 62145  1  0  0  0
 63 65  1  0  0  0
 63146  1  0  0  0
 63147  1  0  0  0
 63148  1  0  0  0
 64149  1  0  0  0
 65150  1  0  0  0
 68 85  1  0  0  0
 71 73  2  0  0  0
 71 76  1  0  0  0
 71151  1  0  0  0
 72 74  1  0  0  0
 72 76  2  0  0  0
 72152  1  0  0  0
 73 75  1  0  0  0
 73 84  1  0  0  0
 74 75  2  0  0  0
 74 86  1  0  0  0
 75 82  1  0  0  0
 76 88  1  0  0  0
 77 78  1  0  0  0
 77 87  1  0  0  0
 77 89  2  0  0  0
 78 81  1  0  0  0
 78153  1  0  0  0
 78154  1  0  0  0
 79 80  1  0  0  0
 79 81  1  0  0  0
 79155  1  0  0  0
 79156  1  0  0  0
 80 87  1  0  0  0
 80157  1  0  0  0
 80158  1  0  0  0
 81 85  1  0  0  0
 81159  1  0  0  0
 82160  1  0  0  0
 82161  1  0  0  0
 82162  1  0  0  0
 83163  1  0  0  0
 83164  1  0  0  0
 83165  1  0  0  0
 83 86  1  0  0  0
 84 87  1  0  0  0
 84166  1  0  0  0
 84167  1  0  0  0
 85168  1  0  0  0
 85169  1  0  0  0
 86 90  1  0  0  0
 86 91  1  0  0  0
 88170  1  0  0  0
M  ISO  4   1 100  68 101  85 101  88 100
M  END
> <chiral flag>
0

> <version>
0

> <s_m_source_file>
/data/baiqing/PycharmProjects/Reinvent-master-3.2/result/LINK_invent/BTK/process_docking_weight1_custom_product_contain_oxygen_bond_distance_aromatic_linkinvent_7_9_3/rearranged_h_0057.sdf

> <i_m_source_file_index>
27

> <r_mmod_Potential_Energy-OPLS-2005>
8.37057304382324

> <r_mmod_Stretch_Energy-OPLS-2005>
57.9064521789551

> <r_mmod_Bend_Energy-OPLS-2005>
162.906280517578

> <r_mmod_Torsional_Energy-OPLS-2005>
244.129898071289

> <r_mmod_Improper_Torsional_Energy-OPLS-2005>
3.14966201782227

> <r_mmod_Van_der_Waal_Energy-OPLS-2005>
171.295516967773

> <r_mmod_Electrostatic_Energy-OPLS-2005>
-425.285614013672

> <r_mmod_Solvation_Energy-OPLS-2005>
-224.279098510742

> <b_mmod_Minimization_Converged-OPLS-2005>
0

> <r_mmod_RMS_Derivative-OPLS-2005>
1.89558804035187

$$$$
28
                    3D
 Structure written by MMmdl.
155163  0  0  1  0            999 V2000
  -30.7198  -14.4723   20.5866 C   0  0  0  0  0  0
  -30.4188  -12.3115   19.4280 C   0  0  0  0  0  0
  -29.4936  -12.5037   18.2093 C   0  0  0  0  0  0
  -28.0160  -12.3623   18.6222 C   0  0  0  0  0  0
  -27.6606  -13.2097   19.8737 C   0  0  2  0  0  0
  -28.7016  -13.0060   20.9982 C   0  0  0  0  0  0
  -25.2579  -13.8172   20.5679 C   0  0  0  0  0  0
  -24.1835  -13.0446   20.9179 C   0  0  0  0  0  0
  -24.6395  -11.6912   20.8734 C   0  0  0  0  0  0
  -23.9064  -10.4294   21.0405 C   0  0  0  0  0  0
  -24.3616   -9.4207   21.9181 C   0  0  0  0  0  0
  -23.6291   -8.2242   22.0750 C   0  0  0  0  0  0
  -22.4271   -8.0280   21.3545 C   0  0  0  0  0  0
  -21.9909   -9.0255   20.4646 C   0  0  0  0  0  0
  -22.7238  -10.2135   20.3054 C   0  0  0  0  0  0
  -21.6850   -6.0734   22.5281 C   0  0  0  0  0  0
  -21.4012   -6.5638   23.8215 C   0  0  0  0  0  0
  -21.3660   -5.6790   24.9175 C   0  0  0  0  0  0
  -21.6043   -4.3053   24.7226 C   0  0  0  0  0  0
  -21.8821   -3.8146   23.4348 C   0  0  0  0  0  0
  -21.9192   -4.6962   22.3402 C   0  0  0  0  0  0
  -22.7857  -13.5238   21.1851 C   0  0  0  0  0  0
  -22.1658   -4.2146   21.0982 F   0  0  0  0  0  0
  -21.5631   -3.4540   25.7741 F   0  0  0  0  0  0
  -30.0330  -13.3046   20.4455 N   0  0  0  0  0  0
  -26.3019  -12.9349   20.3366 N   0  0  0  0  0  0
  -25.9322  -11.6506   20.5771 N   0  0  0  0  0  0
  -22.0501  -12.8223   22.0409 N   0  0  0  0  0  0
  -25.4308  -15.1891   20.4074 N   0  0  0  0  0  0
  -31.8349  -14.6323   20.0835 O   0  0  0  0  0  0
  -21.6638   -6.8876   21.4242 O   0  0  0  0  0  0
  -22.3535  -14.5542   20.6703 O   0  0  0  0  0  0
  -24.6150  -31.8678   23.2093 C   0  0  0  0  0  0
  -25.9037  -32.4828   23.8385 C   0  0  1  0  0  0
  -27.2325  -27.4371   20.1026 C   0  0  0  0  0  0
  -25.5886  -33.8623   24.2318 N   0  0  0  0  0  0
  -23.4041  -30.4912   21.5493 C   0  0  2  0  0  0
  -24.8528  -28.9594   20.1100 C   0  0  0  0  0  0
  -22.7415  -29.4664   22.4980 C   0  0  0  0  0  0
  -18.0268  -28.1391   22.8493 C   0  0  0  0  0  0
  -24.1491  -36.7322   23.2640 C   0  0  0  0  0  0
  -25.9324  -30.8370   21.3600 C   0  0  0  0  0  0
  -26.0124  -29.4718   20.7065 C   0  0  0  0  0  0
  -27.2098  -28.7186   20.6990 C   0  0  0  0  0  0
  -26.0617  -26.9404   19.4940 C   0  0  0  0  0  0
  -24.8727  -27.6931   19.4985 C   0  0  0  0  0  0
  -23.6132  -29.8242   20.1631 C   0  0  0  0  0  0
  -25.4111  -36.3116   24.0337 C   0  0  1  0  0  0
  -20.5862  -28.3678   23.1322 C   0  0  2  0  0  0
  -20.6764  -26.9411   22.5425 C   0  0  0  0  0  0
  -19.5745  -26.6393   21.5225 C   0  0  0  0  0  0
  -18.1919  -26.7937   22.1624 C   0  0  0  0  0  0
  -19.1518  -28.8846   23.2908 C   0  0  0  0  0  0
  -18.9447  -30.1451   23.8921 C   0  0  0  0  0  0
  -17.6450  -30.6596   24.0568 C   0  0  0  0  0  0
  -25.9034  -34.9479   23.5129 C   0  0  0  0  0  0
  -16.5341  -29.9101   23.6328 C   0  0  0  0  0  0
  -16.7257  -28.6520   23.0345 C   0  0  0  0  0  0
  -26.4466  -31.6599   25.0710 C   0  0  0  0  0  0
  -25.3732  -31.3694   26.1457 C   0  0  0  0  0  0
  -27.0281  -30.3045   24.6065 C   0  0  0  0  0  0
  -27.6056  -32.4307   25.7458 C   0  0  0  0  0  0
  -27.5584  -37.1814   24.8464 C   0  0  0  0  0  0
  -21.4140  -29.3045   22.3726 N   0  0  0  0  0  0
  -26.4299  -37.3797   23.9408 N   0  0  0  0  0  0
  -24.6689  -31.0793   22.0983 N   0  0  0  0  0  0
  -23.4185  -28.8201   23.3020 O   0  0  0  0  0  0
  -28.3558  -26.6419   20.1474 O   0  0  0  0  0  0
  -26.5605  -34.8930   22.4695 O   0  0  0  0  0  0
  -23.5345  -32.1405   23.7501 O   0  0  0  0  0  0
  -32.1754  -18.5930   21.5862 C   0  0  0  0  0  0
  -31.1859  -19.5898   21.6543 C   0  0  0  0  0  0
  -31.8149  -17.2410   21.4419 C   0  0  0  0  0  0
  -29.4649  -17.8767   21.4215 C   0  0  0  0  0  0
  -29.8176  -19.2481   21.5852 C   0  0  0  0  0  0
  -30.4547  -16.8595   21.3360 C   0  0  0  0  0  0
  -28.7801  -20.3317   21.7529 C   0  0  0  0  0  0
  -28.2284  -25.5559   21.0893 C   0  0  0  0  0  0
  -28.6779  -24.1687   20.5692 C   0  0  0  0  0  0
  -29.0345  -21.5285   21.3010 N   0  0  0  0  0  0
  -27.6772  -19.9141   22.4775 N   0  0  0  0  0  0
  -30.0548  -15.4847   21.1918 N   0  0  0  0  0  0
  -26.6425  -22.5367   21.2251 O   0  0  0  0  0  0
  -28.2367  -23.2363   23.0593 O   0  0  0  0  0  0
  -28.0199  -22.8249   21.6613 S   0  0  0  0  0  0
  -31.4641  -12.4002   19.1259 H   0  0  0  0  0  0
  -30.3153  -11.3033   19.8321 H   0  0  0  0  0  0
  -29.7356  -11.7753   17.4343 H   0  0  0  0  0  0
  -29.6618  -13.4874   17.7684 H   0  0  0  0  0  0
  -27.8297  -11.3071   18.8255 H   0  0  0  0  0  0
  -27.3649  -12.6292   17.7889 H   0  0  0  0  0  0
  -27.7014  -14.2551   19.5667 H   0  0  0  0  0  0
  -28.6792  -11.9752   21.3542 H   0  0  0  0  0  0
  -28.4604  -13.6181   21.8681 H   0  0  0  0  0  0
  -25.2765   -9.5680   22.4748 H   0  0  0  0  0  0
  -24.0003   -7.4633   22.7465 H   0  0  0  0  0  0
  -21.0841   -8.8774   19.8951 H   0  0  0  0  0  0
  -22.3700  -10.9670   19.6156 H   0  0  0  0  0  0
  -21.2003   -7.6145   23.9716 H   0  0  0  0  0  0
  -21.1478   -6.0520   25.9078 H   0  0  0  0  0  0
  -22.0600   -2.7609   23.2852 H   0  0  0  0  0  0
  -22.4110  -11.9873   22.4786 H   0  0  0  0  0  0
  -21.1120  -13.1244   22.2623 H   0  0  0  0  0  0
  -24.6661  -15.8466   20.5125 H   0  0  0  0  0  0
  -26.2808  -15.6245   20.0725 H   0  0  0  0  0  0
  -26.7110  -32.5550   23.1146 H   0  0  0  0  0  0
  -25.0026  -33.9774   25.0455 H   0  0  0  0  0  0
  -22.6945  -31.3092   21.4100 H   0  0  0  0  0  0
  -23.3745  -35.9666   23.3319 H   0  0  0  0  0  0
  -24.3581  -36.8921   22.2052 H   0  0  0  0  0  0
  -23.7255  -37.6537   23.6639 H   0  0  0  0  0  0
  -26.0435  -31.6028   20.5908 H   0  0  0  0  0  0
  -26.8207  -30.8919   21.9771 H   0  0  0  0  0  0
  -28.1025  -29.1036   21.1720 H   0  0  0  0  0  0
  -26.0670  -25.9609   19.0363 H   0  0  0  0  0  0
  -23.9807  -27.2919   19.0376 H   0  0  0  0  0  0
  -23.7205  -30.6008   19.4048 H   0  0  0  0  0  0
  -22.7369  -29.2447   19.8669 H   0  0  0  0  0  0
  -25.1291  -36.1985   25.0831 H   0  0  0  0  0  0
  -20.9952  -28.3243   24.1441 H   0  0  0  0  0  0
  -20.5687  -26.2283   23.3613 H   0  0  0  0  0  0
  -21.6635  -26.7467   22.1206 H   0  0  0  0  0  0
  -19.6914  -25.6308   21.1242 H   0  0  0  0  0  0
  -19.6693  -27.3216   20.6768 H   0  0  0  0  0  0
  -17.4196  -26.6696   21.4013 H   0  0  0  0  0  0
  -18.0307  -26.0078   22.9016 H   0  0  0  0  0  0
  -19.7923  -30.7261   24.2308 H   0  0  0  0  0  0
  -17.5006  -31.6279   24.5169 H   0  0  0  0  0  0
  -15.5346  -30.3011   23.7647 H   0  0  0  0  0  0
  -15.8653  -28.0852   22.7048 H   0  0  0  0  0  0
  -24.5923  -30.7015   25.7794 H   0  0  0  0  0  0
  -24.8890  -32.2838   26.4899 H   0  0  0  0  0  0
  -25.8084  -30.8874   27.0218 H   0  0  0  0  0  0
  -26.2802  -29.6817   24.1140 H   0  0  0  0  0  0
  -27.4084  -29.7278   25.4507 H   0  0  0  0  0  0
  -27.8629  -30.4373   23.9178 H   0  0  0  0  0  0
  -27.2694  -33.3606   26.2056 H   0  0  0  0  0  0
  -28.3841  -32.6868   25.0258 H   0  0  0  0  0  0
  -28.0743  -31.8411   26.5346 H   0  0  0  0  0  0
  -28.2621  -38.0095   24.7502 H   0  0  0  0  0  0
  -28.1062  -36.2628   24.6299 H   0  0  0  0  0  0
  -27.2298  -37.1478   25.8867 H   0  0  0  0  0  0
  -20.9306  -29.8760   21.6936 H   0  0  0  0  0  0
  -26.0196  -38.2885   24.1383 H   0  0  0  0  0  0
  -33.2193  -18.8652   21.6587 H   0  0  0  0  0  0
  -31.4859  -20.6202   21.7885 H   0  0  0  0  0  0
  -32.6086  -16.5088   21.4208 H   0  0  0  0  0  0
  -28.4209  -17.6040   21.3600 H   0  0  0  0  0  0
  -28.8137  -25.8126   21.9730 H   0  0  0  0  0  0
  -27.2005  -25.4626   21.4491 H   0  0  0  0  0  0
  -29.7622  -24.0936   20.5554 H   0  0  0  0  0  0
  -28.3161  -23.9687   19.5643 H   0  0  0  0  0  0
  -27.5765  -18.9831   22.8616 H   0  0  0  0  0  0
  -26.8609  -20.4730   22.6939 H   0  0  0  0  0  0
  -29.1140  -15.2583   21.4758 H   0  0  0  0  0  0
  1 25  1  0  0  0
  1 30  2  0  0  0
  1 82  1  0  0  0
  2  3  1  0  0  0
  2 25  1  0  0  0
  2 86  1  0  0  0
  2 87  1  0  0  0
  3  4  1  0  0  0
  3 88  1  0  0  0
  3 89  1  0  0  0
  4  5  1  0  0  0
  4 90  1  0  0  0
  4 91  1  0  0  0
  5  6  1  0  0  0
  5 26  1  0  0  0
  5 92  1  0  0  0
  6 25  1  0  0  0
  6 93  1  0  0  0
  6 94  1  0  0  0
  7  8  2  0  0  0
  7 26  1  0  0  0
  7 29  1  0  0  0
  8  9  1  0  0  0
  8 22  1  0  0  0
  9 10  1  0  0  0
  9 27  2  0  0  0
 10 11  2  0  0  0
 10 15  1  0  0  0
 11 12  1  0  0  0
 11 95  1  0  0  0
 12 13  2  0  0  0
 12 96  1  0  0  0
 13 14  1  0  0  0
 13 31  1  0  0  0
 14 15  2  0  0  0
 14 97  1  0  0  0
 15 98  1  0  0  0
 16 17  2  0  0  0
 16 21  1  0  0  0
 16 31  1  0  0  0
 17 18  1  0  0  0
 17 99  1  0  0  0
 18 19  2  0  0  0
 18100  1  0  0  0
 19 20  1  0  0  0
 19 24  1  0  0  0
 20 21  2  0  0  0
 20101  1  0  0  0
 21 23  1  0  0  0
 22 28  1  0  0  0
 22 32  2  0  0  0
 26 27  1  0  0  0
 28102  1  0  0  0
 28103  1  0  0  0
 29104  1  0  0  0
 29105  1  0  0  0
 33 34  1  0  0  0
 33 66  1  0  0  0
 33 70  2  0  0  0
 34 36  1  0  0  0
 34 59  1  0  0  0
 34106  1  0  0  0
 35 44  2  0  0  0
 35 45  1  0  0  0
 35 68  1  0  0  0
 36 56  1  0  0  0
 36107  1  0  0  0
 37 39  1  0  0  0
 37 47  1  0  0  0
 37 66  1  0  0  0
 37108  1  0  0  0
 38 43  2  0  0  0
 38 46  1  0  0  0
 38 47  1  0  0  0
 39 64  1  0  0  0
 39 67  2  0  0  0
 40 52  1  0  0  0
 40 53  2  0  0  0
 40 58  1  0  0  0
 41109  1  0  0  0
 41110  1  0  0  0
 41111  1  0  0  0
 41 48  1  0  0  0
 42 43  1  0  0  0
 42 66  1  0  0  0
 42112  1  0  0  0
 42113  1  0  0  0
 43 44  1  0  0  0
 44114  1  0  0  0
 45 46  2  0  0  0
 45115  1  0  0  0
 46116  1  0  0  0
 47117  1  0  0  0
 47118  1  0  0  0
 48 56  1  0  0  0
 48 65  1  0  0  0
 48119  1  0  0  0
 49 50  1  0  0  0
 49 53  1  0  0  0
 49 64  1  0  0  0
 49120  1  0  0  0
 50 51  1  0  0  0
 50121  1  0  0  0
 50122  1  0  0  0
 51 52  1  0  0  0
 51123  1  0  0  0
 51124  1  0  0  0
 52125  1  0  0  0
 52126  1  0  0  0
 53 54  1  0  0  0
 54 55  2  0  0  0
 54127  1  0  0  0
 55 57  1  0  0  0
 55128  1  0  0  0
 56 69  2  0  0  0
 57 58  2  0  0  0
 57129  1  0  0  0
 58130  1  0  0  0
 59 60  1  0  0  0
 59 61  1  0  0  0
 59 62  1  0  0  0
 60131  1  0  0  0
 60132  1  0  0  0
 60133  1  0  0  0
 61134  1  0  0  0
 61135  1  0  0  0
 61136  1  0  0  0
 62137  1  0  0  0
 62138  1  0  0  0
 62139  1  0  0  0
 63 65  1  0  0  0
 63140  1  0  0  0
 63141  1  0  0  0
 63142  1  0  0  0
 64143  1  0  0  0
 65144  1  0  0  0
 68 78  1  0  0  0
 71 72  2  0  0  0
 71 73  1  0  0  0
 71145  1  0  0  0
 72 75  1  0  0  0
 72146  1  0  0  0
 73 76  2  0  0  0
 73147  1  0  0  0
 74 75  2  0  0  0
 74 76  1  0  0  0
 74148  1  0  0  0
 75 77  1  0  0  0
 76 82  1  0  0  0
 77 80  2  0  0  0
 77 81  1  0  0  0
 78 79  1  0  0  0
 78149  1  0  0  0
 78150  1  0  0  0
 79151  1  0  0  0
 79152  1  0  0  0
 79 85  1  0  0  0
 80 85  1  0  0  0
 81153  1  0  0  0
 81154  1  0  0  0
 82155  1  0  0  0
 83 85  2  0  0  0
 84 85  2  0  0  0
M  ISO  4   1 100  68 101  78 101  82 100
M  END
> <chiral flag>
0

> <version>
0

> <s_m_source_file>
/data/baiqing/PycharmProjects/Reinvent-master-3.2/result/LINK_invent/BTK/process_docking_weight1_custom_product_contain_oxygen_bond_distance_aromatic_linkinvent_7_9_3/rearranged_h_0057.sdf

> <i_m_source_file_index>
28

> <r_mmod_Potential_Energy-OPLS-2005>
-190.948654174805

> <r_mmod_Stretch_Energy-OPLS-2005>
40.9769706726074

> <r_mmod_Bend_Energy-OPLS-2005>
101.296249389648

> <r_mmod_Torsional_Energy-OPLS-2005>
244.231185913086

> <r_mmod_Improper_Torsional_Energy-OPLS-2005>
3.75788378715515

> <r_mmod_Van_der_Waal_Energy-OPLS-2005>
156.557479858398

> <r_mmod_Electrostatic_Energy-OPLS-2005>
-495.227752685547

> <r_mmod_Solvation_Energy-OPLS-2005>
-256.874267578125

> <b_mmod_Minimization_Converged-OPLS-2005>
0

> <r_mmod_RMS_Derivative-OPLS-2005>
0.961364030838013

$$$$
29
                    3D
 Structure written by MMmdl.
158166  0  0  1  0            999 V2000
  -30.7467  -14.3994   20.6337 C   0  0  0  0  0  0
  -30.4125  -12.2888   19.4051 C   0  0  0  0  0  0
  -29.4836  -12.5125   18.1964 C   0  0  0  0  0  0
  -28.0072  -12.3704   18.6133 C   0  0  0  0  0  0
  -27.6604  -13.2041   19.8754 C   0  0  2  0  0  0
  -28.6995  -12.9667   20.9928 C   0  0  0  0  0  0
  -25.2578  -13.8151   20.5676 C   0  0  0  0  0  0
  -24.1826  -13.0430   20.9161 C   0  0  0  0  0  0
  -24.6380  -11.6902   20.8719 C   0  0  0  0  0  0
  -23.9044  -10.4289   21.0393 C   0  0  0  0  0  0
  -24.3608   -9.4208   21.9171 C   0  0  0  0  0  0
  -23.6292   -8.2238   22.0748 C   0  0  0  0  0  0
  -22.4271   -8.0271   21.3540 C   0  0  0  0  0  0
  -21.9897   -9.0237   20.4637 C   0  0  0  0  0  0
  -22.7218  -10.2124   20.3042 C   0  0  0  0  0  0
  -21.6853   -6.0725   22.5279 C   0  0  0  0  0  0
  -21.4015   -6.5635   23.8208 C   0  0  0  0  0  0
  -21.3657   -5.6793   24.9175 C   0  0  0  0  0  0
  -21.6045   -4.3053   24.7230 C   0  0  0  0  0  0
  -21.8822   -3.8140   23.4352 C   0  0  0  0  0  0
  -21.9197   -4.6952   22.3406 C   0  0  0  0  0  0
  -22.7853  -13.5222   21.1843 C   0  0  0  0  0  0
  -22.1666   -4.2137   21.0982 F   0  0  0  0  0  0
  -21.5629   -3.4539   25.7742 F   0  0  0  0  0  0
  -30.0351  -13.2582   20.4431 N   0  0  0  0  0  0
  -26.3011  -12.9318   20.3363 N   0  0  0  0  0  0
  -25.9306  -11.6480   20.5753 N   0  0  0  0  0  0
  -22.0515  -12.8195   22.0409 N   0  0  0  0  0  0
  -25.4309  -15.1875   20.4115 N   0  0  0  0  0  0
  -31.8606  -14.5874   20.1385 O   0  0  0  0  0  0
  -21.6644   -6.8868   21.4238 O   0  0  0  0  0  0
  -22.3526  -14.5536   20.6717 O   0  0  0  0  0  0
  -24.6108  -31.8711   23.2106 C   0  0  0  0  0  0
  -25.9007  -32.4833   23.8406 C   0  0  1  0  0  0
  -27.2420  -27.4746   20.0866 C   0  0  0  0  0  0
  -25.5876  -33.8635   24.2334 N   0  0  0  0  0  0
  -23.3990  -30.4918   21.5510 C   0  0  2  0  0  0
  -24.8491  -28.9598   20.1164 C   0  0  0  0  0  0
  -22.7397  -29.4668   22.5022 C   0  0  0  0  0  0
  -18.0262  -28.1368   22.8498 C   0  0  0  0  0  0
  -24.1487  -36.7335   23.2638 C   0  0  0  0  0  0
  -25.9224  -30.8465   21.3596 C   0  0  0  0  0  0
  -26.0039  -29.4798   20.7170 C   0  0  0  0  0  0
  -27.2055  -28.7388   20.7107 C   0  0  0  0  0  0
  -26.0798  -26.9616   19.4797 C   0  0  0  0  0  0
  -24.8785  -27.6966   19.4975 C   0  0  0  0  0  0
  -23.6062  -29.8196   20.1665 C   0  0  0  0  0  0
  -25.4102  -36.3115   24.0338 C   0  0  1  0  0  0
  -20.5849  -28.3658   23.1324 C   0  0  2  0  0  0
  -20.6746  -26.9397   22.5418 C   0  0  0  0  0  0
  -19.5728  -26.6377   21.5206 C   0  0  0  0  0  0
  -18.1901  -26.7919   22.1616 C   0  0  0  0  0  0
  -19.1513  -28.8837   23.2894 C   0  0  0  0  0  0
  -18.9444  -30.1442   23.8905 C   0  0  0  0  0  0
  -17.6446  -30.6583   24.0561 C   0  0  0  0  0  0
  -25.9027  -34.9479   23.5130 C   0  0  0  0  0  0
  -16.5327  -29.9080   23.6335 C   0  0  0  0  0  0
  -16.7247  -28.6489   23.0365 C   0  0  0  0  0  0
  -26.4433  -31.6611   25.0731 C   0  0  0  0  0  0
  -25.3702  -31.3717   26.1481 C   0  0  0  0  0  0
  -27.0267  -30.3067   24.6078 C   0  0  0  0  0  0
  -27.6003  -32.4339   25.7494 C   0  0  0  0  0  0
  -27.5587  -37.1802   24.8456 C   0  0  0  0  0  0
  -21.4133  -29.3027   22.3734 N   0  0  0  0  0  0
  -26.4295  -37.3795   23.9410 N   0  0  0  0  0  0
  -24.6619  -31.0835   22.0994 N   0  0  0  0  0  0
  -23.4168  -28.8210   23.3073 O   0  0  0  0  0  0
  -28.3969  -26.7402   20.0213 O   0  0  0  0  0  0
  -26.5604  -34.8922   22.4695 O   0  0  0  0  0  0
  -23.5312  -32.1446   23.7528 O   0  0  0  0  0  0
  -30.8819  -17.5962   19.3677 C   0  0  0  0  0  0
  -30.7583  -18.6505   18.4475 C   0  0  0  0  0  0
  -30.0695  -19.0441   21.1442 C   0  0  0  0  0  0
  -30.5301  -17.7770   20.7224 C   0  0  0  0  0  0
  -30.2841  -19.9098   18.8634 C   0  0  0  0  0  0
  -29.9610  -20.1169   20.2307 C   0  0  0  0  0  0
  -29.2292  -23.6221   21.0851 C   0  0  0  0  0  0
  -29.6239  -24.9025   20.9375 C   0  0  0  0  0  0
  -30.1089  -22.5247   20.7223 C   0  0  0  0  0  0
  -30.1137  -20.9968   17.8140 C   0  0  0  0  0  0
  -30.6892  -16.6462   21.7390 C   0  0  0  0  0  0
  -28.7596  -26.1077   21.2399 C   0  0  0  0  0  0
  -29.4521  -21.3548   20.6973 N   0  0  0  0  0  0
  -30.1259  -15.3552   21.3381 N   0  0  0  0  0  0
  -31.3107  -22.6338   20.4611 O   0  0  0  0  0  0
  -31.4568  -12.3806   19.1014 H   0  0  0  0  0  0
  -30.3034  -11.2730   19.7888 H   0  0  0  0  0  0
  -29.7174  -11.8010   17.4037 H   0  0  0  0  0  0
  -29.6526  -13.5057   17.7778 H   0  0  0  0  0  0
  -27.8185  -11.3135   18.8061 H   0  0  0  0  0  0
  -27.3522  -12.6498   17.7871 H   0  0  0  0  0  0
  -27.7117  -14.2545   19.5879 H   0  0  0  0  0  0
  -28.6657  -11.9285   21.3264 H   0  0  0  0  0  0
  -28.4581  -13.5584   21.8763 H   0  0  0  0  0  0
  -25.2758   -9.5691   22.4735 H   0  0  0  0  0  0
  -24.0007   -7.4632   22.7471 H   0  0  0  0  0  0
  -21.0825   -8.8747   19.8942 H   0  0  0  0  0  0
  -22.3669  -10.9659   19.6146 H   0  0  0  0  0  0
  -21.2007   -7.6144   23.9709 H   0  0  0  0  0  0
  -21.1473   -6.0525   25.9079 H   0  0  0  0  0  0
  -22.0605   -2.7601   23.2860 H   0  0  0  0  0  0
  -22.4158  -11.9848   22.4756 H   0  0  0  0  0  0
  -21.1138  -13.1201   22.2660 H   0  0  0  0  0  0
  -24.6660  -15.8455   20.5173 H   0  0  0  0  0  0
  -26.2945  -15.6270   20.1160 H   0  0  0  0  0  0
  -26.7089  -32.5570   23.1197 H   0  0  0  0  0  0
  -25.0028  -33.9802   25.0481 H   0  0  0  0  0  0
  -22.6861  -31.3063   21.4114 H   0  0  0  0  0  0
  -23.3738  -35.9681   23.3280 H   0  0  0  0  0  0
  -24.3578  -36.8982   22.2056 H   0  0  0  0  0  0
  -23.7257  -37.6537   23.6672 H   0  0  0  0  0  0
  -26.0214  -31.6068   20.5832 H   0  0  0  0  0  0
  -26.8138  -30.9085   21.9710 H   0  0  0  0  0  0
  -28.1022  -29.1384   21.1644 H   0  0  0  0  0  0
  -26.1075  -25.9969   18.9925 H   0  0  0  0  0  0
  -23.9935  -27.2939   19.0248 H   0  0  0  0  0  0
  -23.7031  -30.5906   19.4013 H   0  0  0  0  0  0
  -22.7331  -29.2300   19.8796 H   0  0  0  0  0  0
  -25.1270  -36.1980   25.0835 H   0  0  0  0  0  0
  -20.9916  -28.3214   24.1454 H   0  0  0  0  0  0
  -20.5644  -26.2265   23.3604 H   0  0  0  0  0  0
  -21.6622  -26.7452   22.1217 H   0  0  0  0  0  0
  -19.6895  -25.6286   21.1246 H   0  0  0  0  0  0
  -19.6672  -27.3181   20.6728 H   0  0  0  0  0  0
  -17.4175  -26.6683   21.3994 H   0  0  0  0  0  0
  -18.0282  -26.0050   22.9007 H   0  0  0  0  0  0
  -19.7933  -30.7236   24.2284 H   0  0  0  0  0  0
  -17.5016  -31.6271   24.5149 H   0  0  0  0  0  0
  -15.5329  -30.2974   23.7688 H   0  0  0  0  0  0
  -15.8642  -28.0800   22.7095 H   0  0  0  0  0  0
  -24.5886  -30.7041   25.7824 H   0  0  0  0  0  0
  -24.8861  -32.2867   26.4920 H   0  0  0  0  0  0
  -25.8059  -30.8914   27.0253 H   0  0  0  0  0  0
  -26.2810  -29.6824   24.1146 H   0  0  0  0  0  0
  -27.4068  -29.7300   25.4519 H   0  0  0  0  0  0
  -27.8612  -30.4408   23.9194 H   0  0  0  0  0  0
  -27.2622  -33.3653   26.2061 H   0  0  0  0  0  0
  -28.3802  -32.6893   25.0302 H   0  0  0  0  0  0
  -28.0664  -31.8474   26.5420 H   0  0  0  0  0  0
  -28.2570  -38.0131   24.7521 H   0  0  0  0  0  0
  -28.1111  -36.2651   24.6241 H   0  0  0  0  0  0
  -27.2303  -37.1409   25.8860 H   0  0  0  0  0  0
  -20.9301  -29.8736   21.6938 H   0  0  0  0  0  0
  -26.0179  -38.2878   24.1402 H   0  0  0  0  0  0
  -31.2608  -16.6527   19.0085 H   0  0  0  0  0  0
  -31.0289  -18.4827   17.4144 H   0  0  0  0  0  0
  -29.8072  -19.1989   22.1825 H   0  0  0  0  0  0
  -28.2377  -23.4183   21.4645 H   0  0  0  0  0  0
  -30.6119  -25.1266   20.5575 H   0  0  0  0  0  0
  -30.0460  -20.5682   16.8137 H   0  0  0  0  0  0
  -30.9640  -21.6783   17.8287 H   0  0  0  0  0  0
  -29.2025  -21.5709   17.9826 H   0  0  0  0  0  0
  -30.2106  -16.9321   22.6766 H   0  0  0  0  0  0
  -31.7491  -16.5339   21.9754 H   0  0  0  0  0  0
  -29.3157  -26.8045   21.8677 H   0  0  0  0  0  0
  -27.8742  -25.7945   21.7996 H   0  0  0  0  0  0
  -28.5037  -21.3541   21.0456 H   0  0  0  0  0  0
  -29.1999  -15.1378   21.6748 H   0  0  0  0  0  0
  1 25  1  0  0  0
  1 30  2  0  0  0
  1 84  1  0  0  0
  2  3  1  0  0  0
  2 25  1  0  0  0
  2 86  1  0  0  0
  2 87  1  0  0  0
  3  4  1  0  0  0
  3 88  1  0  0  0
  3 89  1  0  0  0
  4  5  1  0  0  0
  4 90  1  0  0  0
  4 91  1  0  0  0
  5  6  1  0  0  0
  5 26  1  0  0  0
  5 92  1  0  0  0
  6 25  1  0  0  0
  6 93  1  0  0  0
  6 94  1  0  0  0
  7  8  2  0  0  0
  7 26  1  0  0  0
  7 29  1  0  0  0
  8  9  1  0  0  0
  8 22  1  0  0  0
  9 10  1  0  0  0
  9 27  2  0  0  0
 10 11  2  0  0  0
 10 15  1  0  0  0
 11 12  1  0  0  0
 11 95  1  0  0  0
 12 13  2  0  0  0
 12 96  1  0  0  0
 13 14  1  0  0  0
 13 31  1  0  0  0
 14 15  2  0  0  0
 14 97  1  0  0  0
 15 98  1  0  0  0
 16 17  2  0  0  0
 16 21  1  0  0  0
 16 31  1  0  0  0
 17 18  1  0  0  0
 17 99  1  0  0  0
 18 19  2  0  0  0
 18100  1  0  0  0
 19 20  1  0  0  0
 19 24  1  0  0  0
 20 21  2  0  0  0
 20101  1  0  0  0
 21 23  1  0  0  0
 22 28  1  0  0  0
 22 32  2  0  0  0
 26 27  1  0  0  0
 28102  1  0  0  0
 28103  1  0  0  0
 29104  1  0  0  0
 29105  1  0  0  0
 33 34  1  0  0  0
 33 66  1  0  0  0
 33 70  2  0  0  0
 34 36  1  0  0  0
 34 59  1  0  0  0
 34106  1  0  0  0
 35 44  2  0  0  0
 35 45  1  0  0  0
 35 68  1  0  0  0
 36 56  1  0  0  0
 36107  1  0  0  0
 37 39  1  0  0  0
 37 47  1  0  0  0
 37 66  1  0  0  0
 37108  1  0  0  0
 38 43  2  0  0  0
 38 46  1  0  0  0
 38 47  1  0  0  0
 39 64  1  0  0  0
 39 67  2  0  0  0
 40 52  1  0  0  0
 40 53  2  0  0  0
 40 58  1  0  0  0
 41109  1  0  0  0
 41110  1  0  0  0
 41111  1  0  0  0
 41 48  1  0  0  0
 42 43  1  0  0  0
 42 66  1  0  0  0
 42112  1  0  0  0
 42113  1  0  0  0
 43 44  1  0  0  0
 44114  1  0  0  0
 45 46  2  0  0  0
 45115  1  0  0  0
 46116  1  0  0  0
 47117  1  0  0  0
 47118  1  0  0  0
 48 56  1  0  0  0
 48 65  1  0  0  0
 48119  1  0  0  0
 49 50  1  0  0  0
 49 53  1  0  0  0
 49 64  1  0  0  0
 49120  1  0  0  0
 50 51  1  0  0  0
 50121  1  0  0  0
 50122  1  0  0  0
 51 52  1  0  0  0
 51123  1  0  0  0
 51124  1  0  0  0
 52125  1  0  0  0
 52126  1  0  0  0
 53 54  1  0  0  0
 54 55  2  0  0  0
 54127  1  0  0  0
 55 57  1  0  0  0
 55128  1  0  0  0
 56 69  2  0  0  0
 57 58  2  0  0  0
 57129  1  0  0  0
 58130  1  0  0  0
 59 60  1  0  0  0
 59 61  1  0  0  0
 59 62  1  0  0  0
 60131  1  0  0  0
 60132  1  0  0  0
 60133  1  0  0  0
 61134  1  0  0  0
 61135  1  0  0  0
 61136  1  0  0  0
 62137  1  0  0  0
 62138  1  0  0  0
 62139  1  0  0  0
 63 65  1  0  0  0
 63140  1  0  0  0
 63141  1  0  0  0
 63142  1  0  0  0
 64143  1  0  0  0
 65144  1  0  0  0
 68 82  1  0  0  0
 71 72  2  0  0  0
 71 74  1  0  0  0
 71145  1  0  0  0
 72 75  1  0  0  0
 72146  1  0  0  0
 73 74  2  0  0  0
 73 76  1  0  0  0
 73147  1  0  0  0
 74 81  1  0  0  0
 75 76  2  0  0  0
 75 80  1  0  0  0
 76 83  1  0  0  0
 77 78  2  0  0  0
 77 79  1  0  0  0
 77148  1  0  0  0
 78 82  1  0  0  0
 78149  1  0  0  0
 79 83  1  0  0  0
 79 85  2  0  0  0
 80150  1  0  0  0
 80151  1  0  0  0
 80152  1  0  0  0
 81 84  1  0  0  0
 81153  1  0  0  0
 81154  1  0  0  0
 82155  1  0  0  0
 82156  1  0  0  0
 83157  1  0  0  0
 84158  1  0  0  0
M  ISO  4   1 100  68 101  82 101  84 100
M  END
> <chiral flag>
0

> <version>
0

> <s_m_source_file>
/data/baiqing/PycharmProjects/Reinvent-master-3.2/result/LINK_invent/BTK/process_docking_weight1_custom_product_contain_oxygen_bond_distance_aromatic_linkinvent_7_9_3/rearranged_h_0057.sdf

> <i_m_source_file_index>
29

> <r_mmod_Potential_Energy-OPLS-2005>
-188.316818237305

> <r_mmod_Stretch_Energy-OPLS-2005>
31.8676567077637

> <r_mmod_Bend_Energy-OPLS-2005>
86.4751358032227

> <r_mmod_Torsional_Energy-OPLS-2005>
245.669921875

> <r_mmod_Improper_Torsional_Energy-OPLS-2005>
2.3802502155304

> <r_mmod_Van_der_Waal_Energy-OPLS-2005>
155.936676025391

> <r_mmod_Electrostatic_Energy-OPLS-2005>
-484.646240234375

> <r_mmod_Solvation_Energy-OPLS-2005>
-234.603149414062

> <b_mmod_Minimization_Converged-OPLS-2005>
0

> <r_mmod_RMS_Derivative-OPLS-2005>
1.8924617767334

$$$$
30
                    3D
 Structure written by MMmdl.
173182  0  0  1  0            999 V2000
  -29.9271  -15.3827   20.8220 C   0  0  0  0  0  0
  -30.3741  -12.9886   19.6664 C   0  0  0  0  0  0
  -29.5397  -12.6726   18.3814 C   0  0  0  0  0  0
  -28.0920  -12.2953   18.7402 C   0  0  0  0  0  0
  -27.5618  -13.2302   19.8492 C   0  0  2  0  0  0
  -28.4931  -13.2873   21.0625 C   0  0  0  0  0  0
  -25.2133  -13.8109   20.5691 C   0  0  0  0  0  0
  -24.1493  -13.0344   20.9227 C   0  0  0  0  0  0
  -24.6084  -11.6830   20.8680 C   0  0  0  0  0  0
  -23.8839  -10.4222   21.0368 C   0  0  0  0  0  0
  -24.3470   -9.4185   21.9156 C   0  0  0  0  0  0
  -23.6215   -8.2184   22.0726 C   0  0  0  0  0  0
  -22.4216   -8.0184   21.3498 C   0  0  0  0  0  0
  -21.9767   -9.0121   20.4609 C   0  0  0  0  0  0
  -22.7011  -10.2038   20.3019 C   0  0  0  0  0  0
  -21.6845   -6.0671   22.5275 C   0  0  0  0  0  0
  -21.4003   -6.5601   23.8196 C   0  0  0  0  0  0
  -21.3662   -5.6770   24.9172 C   0  0  0  0  0  0
  -21.6055   -4.3033   24.7236 C   0  0  0  0  0  0
  -21.8827   -3.8102   23.4368 C   0  0  0  0  0  0
  -21.9189   -4.6905   22.3413 C   0  0  0  0  0  0
  -22.7576  -13.5158   21.1947 C   0  0  0  0  0  0
  -22.1670   -4.2083   21.0996 F   0  0  0  0  0  0
  -21.5631   -3.4536   25.7762 F   0  0  0  0  0  0
  -29.6565  -13.9954   20.5788 N   0  0  0  0  0  0
  -26.2326  -12.9211   20.2924 N   0  0  0  0  0  0
  -25.8928  -11.6383   20.5488 N   0  0  0  0  0  0
  -22.0274  -12.8132   22.0533 N   0  0  0  0  0  0
  -25.3963  -15.1841   20.4302 N   0  0  0  0  0  0
  -31.1148  -15.6039   20.4732 O   0  0  0  0  0  0
  -21.6615   -6.8772   21.4216 O   0  0  0  0  0  0
  -22.3287  -14.5486   20.6814 O   0  0  0  0  0  0
  -24.7933  -31.8486   23.2698 C   0  0  0  0  0  0
  -26.0128  -32.5122   23.9132 C   0  0  1  0  0  0
  -26.0173  -27.3200   20.2373 C   0  0  0  0  0  0
  -25.6358  -33.8816   24.2729 N   0  0  0  0  0  0
  -23.9570  -30.2075   21.6931 C   0  0  2  0  0  0
  -25.2473  -29.6076   19.6264 C   0  0  0  0  0  0
  -23.8118  -28.6589   22.4915 C   0  0  0  0  0  0
  -18.1341  -27.9155   22.7556 C   0  0  0  0  0  0
  -24.1483  -36.7331   23.2576 C   0  0  0  0  0  0
  -26.3047  -30.7862   21.5568 C   0  0  0  0  0  0
  -26.2457  -29.6073   20.5954 C   0  0  0  0  0  0
  -26.7998  -28.3546   20.8413 C   0  0  0  0  0  0
  -25.9771  -27.4047   18.8833 C   0  0  0  0  0  0
  -25.2315  -28.5709   18.6333 C   0  0  0  0  0  0
  -24.0952  -30.4199   20.0999 C   0  0  0  0  0  0
  -25.4092  -36.3209   24.0340 C   0  0  1  0  0  0
  -20.8717  -27.3779   22.9033 C   0  0  2  0  0  0
  -20.5068  -26.1954   22.1155 C   0  0  0  0  0  0
  -19.3498  -26.4319   21.1856 C   0  0  0  0  0  0
  -18.0768  -26.6393   21.9835 C   0  0  0  0  0  0
  -19.4082  -28.3830   23.2087 C   0  0  0  0  0  0
  -19.1776  -29.6708   23.9114 C   0  0  0  0  0  0
  -17.9394  -30.3643   24.0629 C   0  0  0  0  0  0
  -25.9101  -34.9564   23.5248 C   0  0  0  0  0  0
  -16.7575  -29.7981   23.5870 C   0  0  0  0  0  0
  -16.8740  -28.5600   22.9465 C   0  0  0  0  0  0
  -26.5056  -31.6896   25.1567 C   0  0  0  0  0  0
  -25.3940  -31.3867   26.1892 C   0  0  0  0  0  0
  -27.1519  -30.3442   24.7534 C   0  0  0  0  0  0
  -27.6273  -32.4802   25.8513 C   0  0  0  0  0  0
  -27.5570  -37.1849   24.8466 C   0  0  0  0  0  0
  -22.6311  -27.5725   22.4933 N   0  0  0  0  0  0
  -26.4298  -37.3862   23.9403 N   0  0  0  0  0  0
  -25.0229  -30.9852   22.2511 N   0  0  0  0  0  0
  -24.6054  -28.5966   23.3806 O   0  0  0  0  0  0
  -24.5724  -27.2710   20.5375 O   0  0  0  0  0  0
  -26.5498  -34.8918   22.4715 O   0  0  0  0  0  0
  -23.6645  -32.1010   23.7327 O   0  0  0  0  0  0
  -22.5250  -26.4581   26.0480 C   0  0  0  0  0  0
  -22.8923  -25.1054   26.3835 C   0  0  0  0  0  0
  -23.9729  -26.0224   24.1996 C   0  0  0  0  0  0
  -22.9761  -27.1386   24.8887 C   0  0  0  0  0  0
  -23.7158  -24.1785   25.6333 C   0  0  0  0  0  0
  -24.3771  -24.5011   24.4068 C   0  0  0  0  0  0
  -26.0034  -18.5933   22.7589 C   0  0  0  0  0  0
  -24.9112  -19.2678   23.2269 C   0  0  0  0  0  0
  -27.2461  -19.2171   22.3387 C   0  0  0  0  0  0
  -27.0572  -20.6947   22.5773 C   0  0  0  0  0  0
  -24.7385  -20.7451   23.3571 C   0  0  0  0  0  0
  -21.5847  -29.3146   21.0853 C   0  0  0  0  0  0
  -23.8602  -22.7831   26.2101 C   0  0  0  0  0  0
  -28.1393  -21.5965   22.0142 C   0  0  0  0  0  0
  -25.5395  -23.2974   23.5507 C   0  0  0  0  0  0
  -22.1496  -28.9250   24.4169 C   0  0  0  0  0  0
  -28.5636  -18.1308   21.6419 C   0  0  0  0  0  0
  -22.8868  -28.0730   20.1071 C   0  0  0  0  0  0
  -25.8262  -21.5661   23.2087 N   0  0  0  0  0  0
  -21.5562  -29.7214   22.6958 N   0  0  0  0  0  0
  -28.8868  -16.4283   21.3176 N   0  0  0  0  0  0
  -23.6191  -21.2166   23.5705 O   0  0  0  0  0  0
  -20.7730  -29.8879   20.3636 O   0  0  0  0  0  0
  -31.3513  -13.3711   19.3705 H   0  0  0  0  0  0
  -30.5758  -12.0628   20.2088 H   0  0  0  0  0  0
  -30.0071  -11.8771   17.7985 H   0  0  0  0  0  0
  -29.5255  -13.5552   17.7383 H   0  0  0  0  0  0
  -28.0852  -11.2647   19.0982 H   0  0  0  0  0  0
  -27.4497  -12.3154   17.8590 H   0  0  0  0  0  0
  -27.5104  -14.2200   19.3910 H   0  0  0  0  0  0
  -28.7300  -12.2896   21.4362 H   0  0  0  0  0  0
  -28.0359  -13.8230   21.8957 H   0  0  0  0  0  0
  -25.2598   -9.5756   22.4724 H   0  0  0  0  0  0
  -23.9961   -7.4600   22.7455 H   0  0  0  0  0  0
  -21.0681   -8.8559   19.8938 H   0  0  0  0  0  0
  -22.3378  -10.9553   19.6146 H   0  0  0  0  0  0
  -21.1997   -7.6116   23.9670 H   0  0  0  0  0  0
  -21.1486   -6.0522   25.9069 H   0  0  0  0  0  0
  -22.0608   -2.7563   23.2895 H   0  0  0  0  0  0
  -22.3893  -11.9781   22.4875 H   0  0  0  0  0  0
  -21.0894  -13.1132   22.2780 H   0  0  0  0  0  0
  -24.6161  -15.8244   20.5265 H   0  0  0  0  0  0
  -26.2109  -15.6137   20.0116 H   0  0  0  0  0  0
  -26.8495  -32.5750   23.2189 H   0  0  0  0  0  0
  -25.0546  -33.9974   25.0897 H   0  0  0  0  0  0
  -23.1838  -30.9538   21.8217 H   0  0  0  0  0  0
  -23.3743  -35.9662   23.3282 H   0  0  0  0  0  0
  -24.3595  -36.8877   22.1986 H   0  0  0  0  0  0
  -23.7192  -37.6551   23.6503 H   0  0  0  0  0  0
  -26.5355  -31.6889   20.9892 H   0  0  0  0  0  0
  -27.1517  -30.6218   22.2129 H   0  0  0  0  0  0
  -27.3327  -28.1800   21.7680 H   0  0  0  0  0  0
  -25.7335  -26.5591   18.2546 H   0  0  0  0  0  0
  -24.5641  -28.6126   17.7833 H   0  0  0  0  0  0
  -24.3873  -31.4574   19.9229 H   0  0  0  0  0  0
  -23.2146  -30.4014   19.4665 H   0  0  0  0  0  0
  -25.1201  -36.2176   25.0824 H   0  0  0  0  0  0
  -20.8507  -26.9005   23.8796 H   0  0  0  0  0  0
  -20.1915  -25.3839   22.7738 H   0  0  0  0  0  0
  -21.3486  -25.7721   21.5672 H   0  0  0  0  0  0
  -19.2063  -25.5436   20.5696 H   0  0  0  0  0  0
  -19.5226  -27.2523   20.4869 H   0  0  0  0  0  0
  -17.2317  -26.6693   21.2933 H   0  0  0  0  0  0
  -17.8887  -25.8066   22.6610 H   0  0  0  0  0  0
  -19.9632  -30.2318   24.3844 H   0  0  0  0  0  0
  -17.9247  -31.3090   24.5862 H   0  0  0  0  0  0
  -15.8006  -30.2869   23.7052 H   0  0  0  0  0  0
  -15.9819  -28.0966   22.5522 H   0  0  0  0  0  0
  -24.6596  -30.6790   25.8072 H   0  0  0  0  0  0
  -24.8614  -32.2909   26.4857 H   0  0  0  0  0  0
  -25.8040  -30.9471   27.0994 H   0  0  0  0  0  0
  -26.4838  -29.6845   24.2222 H   0  0  0  0  0  0
  -27.4709  -29.7918   25.6380 H   0  0  0  0  0  0
  -28.0478  -30.4841   24.1494 H   0  0  0  0  0  0
  -27.2600  -33.4060   26.2948 H   0  0  0  0  0  0
  -28.4189  -32.7436   25.1482 H   0  0  0  0  0  0
  -28.0832  -31.9053   26.6593 H   0  0  0  0  0  0
  -28.2581  -38.0143   24.7491 H   0  0  0  0  0  0
  -28.1074  -36.2669   24.6337 H   0  0  0  0  0  0
  -27.2262  -37.1533   25.8858 H   0  0  0  0  0  0
  -23.0647  -26.7021   22.7779 H   0  0  0  0  0  0
  -26.0224  -38.2956   24.1392 H   0  0  0  0  0  0
  -21.8314  -26.9723   26.7033 H   0  0  0  0  0  0
  -22.4662  -24.7385   27.3061 H   0  0  0  0  0  0
  -24.5583  -26.3206   23.3457 H   0  0  0  0  0  0
  -25.9270  -17.5153   22.6665 H   0  0  0  0  0  0
  -24.0778  -18.6475   23.5334 H   0  0  0  0  0  0
  -23.8771  -22.7703   27.3001 H   0  0  0  0  0  0
  -24.7875  -22.3192   25.8887 H   0  0  0  0  0  0
  -23.0177  -22.1805   25.8676 H   0  0  0  0  0  0
  -28.4671  -21.1719   21.0635 H   0  0  0  0  0  0
  -29.0156  -21.6213   22.6585 H   0  0  0  0  0  0
  -27.8098  -22.6147   21.7963 H   0  0  0  0  0  0
  -26.4625  -23.5591   24.0781 H   0  0  0  0  0  0
  -25.6856  -23.7371   22.5665 H   0  0  0  0  0  0
  -22.8210  -29.6715   24.8443 H   0  0  0  0  0  0
  -21.3339  -28.9672   25.1329 H   0  0  0  0  0  0
  -29.4545  -18.4670   22.1706 H   0  0  0  0  0  0
  -28.6770  -18.5634   20.6485 H   0  0  0  0  0  0
  -22.2738  -27.1817   19.9746 H   0  0  0  0  0  0
  -22.8428  -28.3738   19.0676 H   0  0  0  0  0  0
  -20.9114  -30.4854   22.8573 H   0  0  0  0  0  0
  -28.0158  -15.9351   21.4540 H   0  0  0  0  0  0
  1 25  1  0  0  0
  1 30  2  0  0  0
  1 91  1  0  0  0
  2  3  1  0  0  0
  2 25  1  0  0  0
  2 94  1  0  0  0
  2 95  1  0  0  0
  3  4  1  0  0  0
  3 96  1  0  0  0
  3 97  1  0  0  0
  4  5  1  0  0  0
  4 98  1  0  0  0
  4 99  1  0  0  0
  5  6  1  0  0  0
  5 26  1  0  0  0
  5100  1  0  0  0
  6 25  1  0  0  0
  6101  1  0  0  0
  6102  1  0  0  0
  7  8  2  0  0  0
  7 26  1  0  0  0
  7 29  1  0  0  0
  8  9  1  0  0  0
  8 22  1  0  0  0
  9 10  1  0  0  0
  9 27  2  0  0  0
 10 11  2  0  0  0
 10 15  1  0  0  0
 11 12  1  0  0  0
 11103  1  0  0  0
 12 13  2  0  0  0
 12104  1  0  0  0
 13 14  1  0  0  0
 13 31  1  0  0  0
 14 15  2  0  0  0
 14105  1  0  0  0
 15106  1  0  0  0
 16 17  2  0  0  0
 16 21  1  0  0  0
 16 31  1  0  0  0
 17 18  1  0  0  0
 17107  1  0  0  0
 18 19  2  0  0  0
 18108  1  0  0  0
 19 20  1  0  0  0
 19 24  1  0  0  0
 20 21  2  0  0  0
 20109  1  0  0  0
 21 23  1  0  0  0
 22 28  1  0  0  0
 22 32  2  0  0  0
 26 27  1  0  0  0
 28110  1  0  0  0
 28111  1  0  0  0
 29112  1  0  0  0
 29113  1  0  0  0
 33 34  1  0  0  0
 33 66  1  0  0  0
 33 70  2  0  0  0
 34 36  1  0  0  0
 34 59  1  0  0  0
 34114  1  0  0  0
 35 44  2  0  0  0
 35 45  1  0  0  0
 35 68  1  0  0  0
 36 56  1  0  0  0
 36115  1  0  0  0
 37 39  1  0  0  0
 37 47  1  0  0  0
 37 66  1  0  0  0
 37116  1  0  0  0
 38 43  2  0  0  0
 38 46  1  0  0  0
 38 47  1  0  0  0
 39 64  1  0  0  0
 39 67  2  0  0  0
 40 52  1  0  0  0
 40 53  2  0  0  0
 40 58  1  0  0  0
 41117  1  0  0  0
 41118  1  0  0  0
 41119  1  0  0  0
 41 48  1  0  0  0
 42 43  1  0  0  0
 42 66  1  0  0  0
 42120  1  0  0  0
 42121  1  0  0  0
 43 44  1  0  0  0
 44122  1  0  0  0
 45 46  2  0  0  0
 45123  1  0  0  0
 46124  1  0  0  0
 47125  1  0  0  0
 47126  1  0  0  0
 48 56  1  0  0  0
 48 65  1  0  0  0
 48127  1  0  0  0
 49 50  1  0  0  0
 49 53  1  0  0  0
 49 64  1  0  0  0
 49128  1  0  0  0
 50 51  1  0  0  0
 50129  1  0  0  0
 50130  1  0  0  0
 51 52  1  0  0  0
 51131  1  0  0  0
 51132  1  0  0  0
 52133  1  0  0  0
 52134  1  0  0  0
 53 54  1  0  0  0
 54 55  2  0  0  0
 54135  1  0  0  0
 55 57  1  0  0  0
 55136  1  0  0  0
 56 69  2  0  0  0
 57 58  2  0  0  0
 57137  1  0  0  0
 58138  1  0  0  0
 59 60  1  0  0  0
 59 61  1  0  0  0
 59 62  1  0  0  0
 60139  1  0  0  0
 60140  1  0  0  0
 60141  1  0  0  0
 61142  1  0  0  0
 61143  1  0  0  0
 61144  1  0  0  0
 62145  1  0  0  0
 62146  1  0  0  0
 62147  1  0  0  0
 63 65  1  0  0  0
 63148  1  0  0  0
 63149  1  0  0  0
 63150  1  0  0  0
 64151  1  0  0  0
 65152  1  0  0  0
 68 88  1  0  0  0
 71 72  2  0  0  0
 71 74  1  0  0  0
 71153  1  0  0  0
 72 75  1  0  0  0
 72154  1  0  0  0
 73 74  2  0  0  0
 73 76  1  0  0  0
 73155  1  0  0  0
 74 86  1  0  0  0
 75 76  2  0  0  0
 75 83  1  0  0  0
 76 85  1  0  0  0
 77 78  2  0  0  0
 77 79  1  0  0  0
 77156  1  0  0  0
 78 81  1  0  0  0
 78157  1  0  0  0
 79 80  2  0  0  0
 79 87  1  0  0  0
 80 84  1  0  0  0
 80 89  1  0  0  0
 81 89  1  0  0  0
 81 92  2  0  0  0
 82 88  1  0  0  0
 82 90  1  0  0  0
 82 93  2  0  0  0
 83158  1  0  0  0
 83159  1  0  0  0
 83160  1  0  0  0
 84161  1  0  0  0
 84162  1  0  0  0
 84163  1  0  0  0
 85 89  1  0  0  0
 85164  1  0  0  0
 85165  1  0  0  0
 86 90  1  0  0  0
 86166  1  0  0  0
 86167  1  0  0  0
 87 91  1  0  0  0
 87168  1  0  0  0
 87169  1  0  0  0
 88170  1  0  0  0
 88171  1  0  0  0
 90172  1  0  0  0
 91173  1  0  0  0
M  ISO  4   1 100  68 101  88 101  91 100
M  END
> <chiral flag>
0

> <version>
0

> <s_m_source_file>
/data/baiqing/PycharmProjects/Reinvent-master-3.2/result/LINK_invent/BTK/process_docking_weight1_custom_product_contain_oxygen_bond_distance_aromatic_linkinvent_7_9_3/rearranged_h_0057.sdf

> <i_m_source_file_index>
30

> <r_mmod_Potential_Energy-OPLS-2005>
10104.7197265625

> <r_mmod_Stretch_Energy-OPLS-2005>
3431.07495117188

> <r_mmod_Bend_Energy-OPLS-2005>
1321.18786621094

> <r_mmod_Torsional_Energy-OPLS-2005>
566.211730957031

> <r_mmod_Improper_Torsional_Energy-OPLS-2005>
60.6235809326172

> <r_mmod_Van_der_Waal_Energy-OPLS-2005>
1593.95812988281

> <r_mmod_Electrostatic_Energy-OPLS-2005>
-431.859008789062

> <r_mmod_Solvation_Energy-OPLS-2005>
-216.445541381836

> <b_mmod_Minimization_Converged-OPLS-2005>
0

> <r_mmod_RMS_Derivative-OPLS-2005>
9.64305305480957

$$$$
31
                    3D
 Structure written by MMmdl.
161170  0  0  1  0            999 V2000
  -30.6036  -14.7962   20.3426 C   0  0  0  0  0  0
  -30.4489  -12.4638   19.4517 C   0  0  0  0  0  0
  -29.4966  -12.3836   18.2318 C   0  0  0  0  0  0
  -28.0203  -12.2832   18.6601 C   0  0  0  0  0  0
  -27.6418  -13.2258   19.8333 C   0  0  2  0  0  0
  -28.7046  -13.1988   20.9531 C   0  0  0  0  0  0
  -25.2538  -13.8199   20.5696 C   0  0  0  0  0  0
  -24.1814  -13.0450   20.9204 C   0  0  0  0  0  0
  -24.6390  -11.6923   20.8755 C   0  0  0  0  0  0
  -23.9072  -10.4282   21.0414 C   0  0  0  0  0  0
  -24.3628   -9.4182   21.9172 C   0  0  0  0  0  0
  -23.6313   -8.2220   22.0737 C   0  0  0  0  0  0
  -22.4296   -8.0262   21.3511 C   0  0  0  0  0  0
  -21.9910   -9.0258   20.4634 C   0  0  0  0  0  0
  -22.7247  -10.2127   20.3057 C   0  0  0  0  0  0
  -21.6839   -6.0732   22.5267 C   0  0  0  0  0  0
  -21.4016   -6.5635   23.8204 C   0  0  0  0  0  0
  -21.3651   -5.6789   24.9164 C   0  0  0  0  0  0
  -21.6043   -4.3052   24.7208 C   0  0  0  0  0  0
  -21.8822   -3.8141   23.4333 C   0  0  0  0  0  0
  -21.9175   -4.6958   22.3390 C   0  0  0  0  0  0
  -22.7826  -13.5238   21.1857 C   0  0  0  0  0  0
  -22.1647   -4.2149   21.0966 F   0  0  0  0  0  0
  -21.5628   -3.4541   25.7724 F   0  0  0  0  0  0
  -29.9916  -13.5579   20.3409 N   0  0  0  0  0  0
  -26.2963  -12.9395   20.3303 N   0  0  0  0  0  0
  -25.9320  -11.6553   20.5818 N   0  0  0  0  0  0
  -22.0443  -12.8236   22.0390 N   0  0  0  0  0  0
  -25.4252  -15.1914   20.4057 N   0  0  0  0  0  0
  -31.8180  -14.8775   20.1462 O   0  0  0  0  0  0
  -21.6633   -6.8875   21.4235 O   0  0  0  0  0  0
  -22.3505  -14.5530   20.6683 O   0  0  0  0  0  0
  -24.6327  -31.8523   23.1967 C   0  0  0  0  0  0
  -25.9150  -32.4743   23.8322 C   0  0  1  0  0  0
  -27.2375  -27.2549   20.1361 C   0  0  0  0  0  0
  -25.5931  -33.8551   24.2220 N   0  0  0  0  0  0
  -23.4309  -30.4759   21.5365 C   0  0  2  0  0  0
  -24.8806  -28.9158   20.1055 C   0  0  0  0  0  0
  -22.7518  -29.4593   22.4874 C   0  0  0  0  0  0
  -18.0298  -28.1381   22.8469 C   0  0  0  0  0  0
  -24.1484  -36.7296   23.2641 C   0  0  0  0  0  0
  -25.9763  -30.7632   21.3762 C   0  0  0  0  0  0
  -26.0483  -29.3852   20.7143 C   0  0  0  0  0  0
  -27.2226  -28.5701   20.7122 C   0  0  0  0  0  0
  -26.0382  -26.8373   19.5118 C   0  0  0  0  0  0
  -24.8812  -27.6515   19.4897 C   0  0  0  0  0  0
  -23.6522  -29.8088   20.1511 C   0  0  0  0  0  0
  -25.4107  -36.3063   24.0315 C   0  0  1  0  0  0
  -20.5906  -28.3701   23.1250 C   0  0  2  0  0  0
  -20.6775  -26.9406   22.5419 C   0  0  0  0  0  0
  -19.5764  -26.6368   21.5208 C   0  0  0  0  0  0
  -18.1940  -26.7925   22.1612 C   0  0  0  0  0  0
  -19.1553  -28.8858   23.2855 C   0  0  0  0  0  0
  -18.9469  -30.1453   23.8877 C   0  0  0  0  0  0
  -17.6472  -30.6580   24.0559 C   0  0  0  0  0  0
  -25.9049  -34.9431   23.5081 C   0  0  0  0  0  0
  -16.5363  -29.9082   23.6315 C   0  0  0  0  0  0
  -16.7285  -28.6501   23.0331 C   0  0  0  0  0  0
  -26.4487  -31.6586   25.0738 C   0  0  0  0  0  0
  -25.3704  -31.3784   26.1465 C   0  0  0  0  0  0
  -27.0339  -30.2991   24.6264 C   0  0  0  0  0  0
  -27.6012  -32.4350   25.7528 C   0  0  0  0  0  0
  -27.5572  -37.1800   24.8440 C   0  0  0  0  0  0
  -21.4220  -29.3047   22.3632 N   0  0  0  0  0  0
  -26.4275  -37.3765   23.9408 N   0  0  0  0  0  0
  -24.6984  -31.0492   22.0921 N   0  0  0  0  0  0
  -23.4211  -28.8107   23.2964 O   0  0  0  0  0  0
  -28.3763  -26.4168   20.2382 O   0  0  0  0  0  0
  -26.5642  -34.8916   22.4657 O   0  0  0  0  0  0
  -23.5480  -32.1354   23.7241 O   0  0  0  0  0  0
  -29.9610  -19.9800   18.5694 C   0  0  0  0  0  0
  -29.5648  -18.5162   20.4548 C   0  0  0  0  0  0
  -30.3566  -18.8814   17.8028 C   0  0  0  0  0  0
  -30.3362  -17.5471   18.3217 C   0  0  0  0  0  0
  -29.5471  -19.8665   19.8971 C   0  0  0  0  0  0
  -29.9551  -17.3107   19.7053 C   0  0  0  0  0  0
  -30.0325  -21.8082   21.3878 C   0  0  0  0  0  0
  -29.8069  -23.3414   21.4528 C   0  0  0  0  0  0
  -28.4085  -22.2673   19.8519 C   0  0  0  0  0  0
  -28.5412  -23.6586   20.6101 C   0  0  2  0  0  0
  -30.8178  -19.2352   16.3876 C   0  0  0  0  0  0
  -28.4954  -25.0174   19.6993 C   0  0  0  0  0  0
  -30.6989  -16.4618   17.2837 C   0  0  0  0  0  0
  -29.2085  -21.1750   20.5241 N   0  0  0  0  0  0
  -29.7940  -15.9369   20.3096 N   0  0  0  0  0  0
  -30.8974  -21.2568   22.0774 O   0  0  0  0  0  0
  -31.9669  -16.6140   16.8998 F   0  0  0  0  0  0
  -30.5640  -15.2189   17.6715 F   0  0  0  0  0  0
  -29.9148  -16.5561   16.2078 F   0  0  0  0  0  0
  -31.4715  -12.6224   19.1008 H   0  0  0  0  0  0
  -30.4575  -11.5178   19.9929 H   0  0  0  0  0  0
  -29.7597  -11.5112   17.6288 H   0  0  0  0  0  0
  -29.6125  -13.2222   17.5572 H   0  0  0  0  0  0
  -27.8460  -11.2476   18.9516 H   0  0  0  0  0  0
  -27.3620  -12.4638   17.8071 H   0  0  0  0  0  0
  -27.6269  -14.2324   19.4163 H   0  0  0  0  0  0
  -28.7543  -12.2103   21.4131 H   0  0  0  0  0  0
  -28.4516  -13.8936   21.7545 H   0  0  0  0  0  0
  -25.2777   -9.5672   22.4735 H   0  0  0  0  0  0
  -24.0002   -7.4622   22.7475 H   0  0  0  0  0  0
  -21.0805   -8.8823   19.8980 H   0  0  0  0  0  0
  -22.3711  -10.9686   19.6180 H   0  0  0  0  0  0
  -21.2034   -7.6160   23.9723 H   0  0  0  0  0  0
  -21.1466   -6.0502   25.9067 H   0  0  0  0  0  0
  -22.0605   -2.7613   23.2823 H   0  0  0  0  0  0
  -22.4034  -11.9896   22.4825 H   0  0  0  0  0  0
  -21.1059  -13.1281   22.2571 H   0  0  0  0  0  0
  -24.6658  -15.8503   20.5335 H   0  0  0  0  0  0
  -26.2743  -15.6295   20.0716 H   0  0  0  0  0  0
  -26.7222  -32.5359   23.1057 H   0  0  0  0  0  0
  -25.0034  -33.9673   25.0342 H   0  0  0  0  0  0
  -22.7265  -31.2978   21.3917 H   0  0  0  0  0  0
  -23.3741  -35.9635   23.3269 H   0  0  0  0  0  0
  -24.3572  -36.8972   22.2063 H   0  0  0  0  0  0
  -23.7242  -37.6487   23.6698 H   0  0  0  0  0  0
  -26.1237  -31.5227   20.6071 H   0  0  0  0  0  0
  -26.8521  -30.8059   22.0129 H   0  0  0  0  0  0
  -28.1192  -28.9311   21.1947 H   0  0  0  0  0  0
  -25.9497  -25.8584   19.0657 H   0  0  0  0  0  0
  -23.9812  -27.2883   19.0112 H   0  0  0  0  0  0
  -23.7845  -30.5918   19.4031 H   0  0  0  0  0  0
  -22.7665  -29.2543   19.8375 H   0  0  0  0  0  0
  -25.1284  -36.1903   25.0806 H   0  0  0  0  0  0
  -21.0001  -28.3290   24.1366 H   0  0  0  0  0  0
  -20.5646  -26.2306   23.3624 H   0  0  0  0  0  0
  -21.6633  -26.7401   22.1226 H   0  0  0  0  0  0
  -19.6923  -25.6269   21.1245 H   0  0  0  0  0  0
  -19.6717  -27.3161   20.6725 H   0  0  0  0  0  0
  -17.4207  -26.6670   21.4012 H   0  0  0  0  0  0
  -18.0345  -26.0070   22.9011 H   0  0  0  0  0  0
  -19.7943  -30.7272   24.2227 H   0  0  0  0  0  0
  -17.5025  -31.6243   24.5183 H   0  0  0  0  0  0
  -15.5359  -30.2985   23.7641 H   0  0  0  0  0  0
  -15.8681  -28.0832   22.7031 H   0  0  0  0  0  0
  -24.5832  -30.7174   25.7808 H   0  0  0  0  0  0
  -24.8955  -32.2990   26.4881 H   0  0  0  0  0  0
  -25.8017  -30.8960   27.0249 H   0  0  0  0  0  0
  -26.2945  -29.6748   24.1231 H   0  0  0  0  0  0
  -27.3927  -29.7246   25.4816 H   0  0  0  0  0  0
  -27.8857  -30.4234   23.9574 H   0  0  0  0  0  0
  -27.2567  -33.3623   26.2116 H   0  0  0  0  0  0
  -28.3827  -32.6975   25.0388 H   0  0  0  0  0  0
  -28.0681  -31.8499   26.5457 H   0  0  0  0  0  0
  -28.2550  -38.0131   24.7493 H   0  0  0  0  0  0
  -28.1104  -36.2656   24.6229 H   0  0  0  0  0  0
  -27.2300  -37.1403   25.8846 H   0  0  0  0  0  0
  -20.9391  -29.8814   21.6883 H   0  0  0  0  0  0
  -26.0143  -38.2836   24.1430 H   0  0  0  0  0  0
  -30.0201  -20.9554   18.1144 H   0  0  0  0  0  0
  -29.2601  -18.3966   21.4864 H   0  0  0  0  0  0
  -30.6953  -23.8312   21.0518 H   0  0  0  0  0  0
  -29.7042  -23.6527   22.4944 H   0  0  0  0  0  0
  -28.7325  -22.4188   18.8239 H   0  0  0  0  0  0
  -27.3609  -21.9667   19.8035 H   0  0  0  0  0  0
  -27.7085  -23.7221   21.3133 H   0  0  0  0  0  0
  -30.7447  -20.3079   16.1942 H   0  0  0  0  0  0
  -30.2210  -18.7582   15.6109 H   0  0  0  0  0  0
  -31.8671  -18.9809   16.2479 H   0  0  0  0  0  0
  -27.7940  -24.8706   18.8781 H   0  0  0  0  0  0
  -29.4499  -25.0333   19.1689 H   0  0  0  0  0  0
  -28.8514  -15.7361   20.6024 H   0  0  0  0  0  0
  1 25  1  0  0  0
  1 30  2  0  0  0
  1 85  1  0  0  0
  2  3  1  0  0  0
  2 25  1  0  0  0
  2 90  1  0  0  0
  2 91  1  0  0  0
  3  4  1  0  0  0
  3 92  1  0  0  0
  3 93  1  0  0  0
  4  5  1  0  0  0
  4 94  1  0  0  0
  4 95  1  0  0  0
  5  6  1  0  0  0
  5 26  1  0  0  0
  5 96  1  0  0  0
  6 25  1  0  0  0
  6 97  1  0  0  0
  6 98  1  0  0  0
  7  8  2  0  0  0
  7 26  1  0  0  0
  7 29  1  0  0  0
  8  9  1  0  0  0
  8 22  1  0  0  0
  9 10  1  0  0  0
  9 27  2  0  0  0
 10 11  2  0  0  0
 10 15  1  0  0  0
 11 12  1  0  0  0
 11 99  1  0  0  0
 12 13  2  0  0  0
 12100  1  0  0  0
 13 14  1  0  0  0
 13 31  1  0  0  0
 14 15  2  0  0  0
 14101  1  0  0  0
 15102  1  0  0  0
 16 17  2  0  0  0
 16 21  1  0  0  0
 16 31  1  0  0  0
 17 18  1  0  0  0
 17103  1  0  0  0
 18 19  2  0  0  0
 18104  1  0  0  0
 19 20  1  0  0  0
 19 24  1  0  0  0
 20 21  2  0  0  0
 20105  1  0  0  0
 21 23  1  0  0  0
 22 28  1  0  0  0
 22 32  2  0  0  0
 26 27  1  0  0  0
 28106  1  0  0  0
 28107  1  0  0  0
 29108  1  0  0  0
 29109  1  0  0  0
 33 34  1  0  0  0
 33 66  1  0  0  0
 33 70  2  0  0  0
 34 36  1  0  0  0
 34 59  1  0  0  0
 34110  1  0  0  0
 35 44  2  0  0  0
 35 45  1  0  0  0
 35 68  1  0  0  0
 36 56  1  0  0  0
 36111  1  0  0  0
 37 39  1  0  0  0
 37 47  1  0  0  0
 37 66  1  0  0  0
 37112  1  0  0  0
 38 43  2  0  0  0
 38 46  1  0  0  0
 38 47  1  0  0  0
 39 64  1  0  0  0
 39 67  2  0  0  0
 40 52  1  0  0  0
 40 53  2  0  0  0
 40 58  1  0  0  0
 41113  1  0  0  0
 41114  1  0  0  0
 41115  1  0  0  0
 41 48  1  0  0  0
 42 43  1  0  0  0
 42 66  1  0  0  0
 42116  1  0  0  0
 42117  1  0  0  0
 43 44  1  0  0  0
 44118  1  0  0  0
 45 46  2  0  0  0
 45119  1  0  0  0
 46120  1  0  0  0
 47121  1  0  0  0
 47122  1  0  0  0
 48 56  1  0  0  0
 48 65  1  0  0  0
 48123  1  0  0  0
 49 50  1  0  0  0
 49 53  1  0  0  0
 49 64  1  0  0  0
 49124  1  0  0  0
 50 51  1  0  0  0
 50125  1  0  0  0
 50126  1  0  0  0
 51 52  1  0  0  0
 51127  1  0  0  0
 51128  1  0  0  0
 52129  1  0  0  0
 52130  1  0  0  0
 53 54  1  0  0  0
 54 55  2  0  0  0
 54131  1  0  0  0
 55 57  1  0  0  0
 55132  1  0  0  0
 56 69  2  0  0  0
 57 58  2  0  0  0
 57133  1  0  0  0
 58134  1  0  0  0
 59 60  1  0  0  0
 59 61  1  0  0  0
 59 62  1  0  0  0
 60135  1  0  0  0
 60136  1  0  0  0
 60137  1  0  0  0
 61138  1  0  0  0
 61139  1  0  0  0
 61140  1  0  0  0
 62141  1  0  0  0
 62142  1  0  0  0
 62143  1  0  0  0
 63 65  1  0  0  0
 63144  1  0  0  0
 63145  1  0  0  0
 63146  1  0  0  0
 64147  1  0  0  0
 65148  1  0  0  0
 68 82  1  0  0  0
 71 73  2  0  0  0
 71 75  1  0  0  0
 71149  1  0  0  0
 72 75  2  0  0  0
 72 76  1  0  0  0
 72150  1  0  0  0
 73 74  1  0  0  0
 73 81  1  0  0  0
 74 76  2  0  0  0
 74 83  1  0  0  0
 75 84  1  0  0  0
 76 85  1  0  0  0
 77 78  1  0  0  0
 77 84  1  0  0  0
 77 86  2  0  0  0
 78 80  1  0  0  0
 78151  1  0  0  0
 78152  1  0  0  0
 79 80  1  0  0  0
 79 84  1  0  0  0
 79153  1  0  0  0
 79154  1  0  0  0
 80 82  1  0  0  0
 80155  1  0  0  0
 81156  1  0  0  0
 81157  1  0  0  0
 81158  1  0  0  0
 82159  1  0  0  0
 82160  1  0  0  0
 83 87  1  0  0  0
 83 88  1  0  0  0
 83 89  1  0  0  0
 85161  1  0  0  0
M  ISO  4   1 100  68 101  82 101  85 100
M  END
> <chiral flag>
0

> <version>
0

> <s_m_source_file>
/data/baiqing/PycharmProjects/Reinvent-master-3.2/result/LINK_invent/BTK/process_docking_weight1_custom_product_contain_oxygen_bond_distance_aromatic_linkinvent_7_9_3/rearranged_h_0057.sdf

> <i_m_source_file_index>
31

> <r_mmod_Potential_Energy-OPLS-2005>
455.859893798828

> <r_mmod_Stretch_Energy-OPLS-2005>
146.949249267578

> <r_mmod_Bend_Energy-OPLS-2005>
231.815841674805

> <r_mmod_Torsional_Energy-OPLS-2005>
320.775634765625

> <r_mmod_Improper_Torsional_Energy-OPLS-2005>
8.75326824188232

> <r_mmod_Van_der_Waal_Energy-OPLS-2005>
154.630966186523

> <r_mmod_Electrostatic_Energy-OPLS-2005>
-284.408355712891

> <r_mmod_Solvation_Energy-OPLS-2005>
-228.539245605469

> <b_mmod_Minimization_Converged-OPLS-2005>
0

> <r_mmod_RMS_Derivative-OPLS-2005>
5.0462646484375

$$$$
32
                    3D
 Structure written by MMmdl.
155163  0  0  1  0            999 V2000
  -30.7192  -14.4205   20.6326 C   0  0  0  0  0  0
  -30.4177  -12.2916   19.4154 C   0  0  0  0  0  0
  -29.4874  -12.5105   18.2052 C   0  0  0  0  0  0
  -28.0086  -12.3727   18.6155 C   0  0  0  0  0  0
  -27.6627  -13.2011   19.8799 C   0  0  2  0  0  0
  -28.7000  -12.9493   20.9989 C   0  0  0  0  0  0
  -25.2580  -13.8160   20.5663 C   0  0  0  0  0  0
  -24.1827  -13.0439   20.9165 C   0  0  0  0  0  0
  -24.6367  -11.6904   20.8713 C   0  0  0  0  0  0
  -23.9029  -10.4300   21.0393 C   0  0  0  0  0  0
  -24.3585   -9.4216   21.9171 C   0  0  0  0  0  0
  -23.6276   -8.2249   22.0753 C   0  0  0  0  0  0
  -22.4267   -8.0276   21.3533 C   0  0  0  0  0  0
  -21.9886   -9.0238   20.4631 C   0  0  0  0  0  0
  -22.7202  -10.2126   20.3042 C   0  0  0  0  0  0
  -21.6839   -6.0723   22.5266 C   0  0  0  0  0  0
  -21.4013   -6.5623   23.8196 C   0  0  0  0  0  0
  -21.3663   -5.6788   24.9168 C   0  0  0  0  0  0
  -21.6054   -4.3046   24.7234 C   0  0  0  0  0  0
  -21.8820   -3.8139   23.4348 C   0  0  0  0  0  0
  -21.9188   -4.6952   22.3394 C   0  0  0  0  0  0
  -22.7848  -13.5235   21.1838 C   0  0  0  0  0  0
  -22.1654   -4.2142   21.0974 F   0  0  0  0  0  0
  -21.5635   -3.4536   25.7746 F   0  0  0  0  0  0
  -30.0389  -13.2543   20.4620 N   0  0  0  0  0  0
  -26.3009  -12.9315   20.3363 N   0  0  0  0  0  0
  -25.9292  -11.6476   20.5750 N   0  0  0  0  0  0
  -22.0506  -12.8223   22.0405 N   0  0  0  0  0  0
  -25.4310  -15.1883   20.4073 N   0  0  0  0  0  0
  -31.7957  -14.6437   20.0708 O   0  0  0  0  0  0
  -21.6631   -6.8869   21.4229 O   0  0  0  0  0  0
  -22.3527  -14.5533   20.6688 O   0  0  0  0  0  0
  -24.6132  -31.8700   23.2070 C   0  0  0  0  0  0
  -25.9035  -32.4838   23.8370 C   0  0  1  0  0  0
  -27.2433  -27.4547   20.0812 C   0  0  0  0  0  0
  -25.5887  -33.8627   24.2334 N   0  0  0  0  0  0
  -23.3970  -30.4919   21.5503 C   0  0  2  0  0  0
  -24.8425  -28.9549   20.1191 C   0  0  0  0  0  0
  -22.7398  -29.4661   22.5015 C   0  0  0  0  0  0
  -18.0275  -28.1366   22.8496 C   0  0  0  0  0  0
  -24.1474  -36.7309   23.2641 C   0  0  0  0  0  0
  -25.9226  -30.8433   21.3525 C   0  0  0  0  0  0
  -26.0000  -29.4741   20.7092 C   0  0  0  0  0  0
  -27.1977  -28.7291   20.6894 C   0  0  0  0  0  0
  -26.0580  -26.9341   19.5104 C   0  0  0  0  0  0
  -24.8655  -27.6838   19.5204 C   0  0  0  0  0  0
  -23.6005  -29.8159   20.1676 C   0  0  0  0  0  0
  -25.4097  -36.3123   24.0348 C   0  0  1  0  0  0
  -20.5857  -28.3654   23.1329 C   0  0  2  0  0  0
  -20.6740  -26.9385   22.5435 C   0  0  0  0  0  0
  -19.5730  -26.6367   21.5224 C   0  0  0  0  0  0
  -18.1912  -26.7912   22.1637 C   0  0  0  0  0  0
  -19.1521  -28.8828   23.2901 C   0  0  0  0  0  0
  -18.9461  -30.1443   23.8902 C   0  0  0  0  0  0
  -17.6462  -30.6584   24.0549 C   0  0  0  0  0  0
  -25.9038  -34.9484   23.5151 C   0  0  0  0  0  0
  -16.5354  -29.9090   23.6305 C   0  0  0  0  0  0
  -16.7267  -28.6504   23.0335 C   0  0  0  0  0  0
  -26.4441  -31.6607   25.0689 C   0  0  0  0  0  0
  -25.3683  -31.3710   26.1413 C   0  0  0  0  0  0
  -27.0282  -30.3069   24.6033 C   0  0  0  0  0  0
  -27.6009  -32.4309   25.7470 C   0  0  0  0  0  0
  -27.5581  -37.1802   24.8470 C   0  0  0  0  0  0
  -21.4133  -29.3023   22.3746 N   0  0  0  0  0  0
  -26.4287  -37.3810   23.9433 N   0  0  0  0  0  0
  -24.6629  -31.0814   22.0959 N   0  0  0  0  0  0
  -23.4187  -28.8201   23.3040 O   0  0  0  0  0  0
  -28.4630  -26.8109   20.0715 O   0  0  0  0  0  0
  -26.5602  -34.8934   22.4708 O   0  0  0  0  0  0
  -23.5335  -32.1443   23.7488 O   0  0  0  0  0  0
  -31.7912  -18.7008   21.4628 C   0  0  0  0  0  0
  -30.6820  -19.5361   21.6906 C   0  0  0  0  0  0
  -31.6218  -17.3054   21.3824 C   0  0  0  0  0  0
  -29.2311  -17.5792   21.7636 C   0  0  0  0  0  0
  -29.3950  -18.9812   21.8554 C   0  0  0  0  0  0
  -30.3347  -16.7302   21.5067 C   0  0  0  0  0  0
  -28.2363  -23.2290   20.5201 C   0  0  0  0  0  0
  -28.7915  -24.4569   20.5476 C   0  0  0  0  0  0
  -28.4967  -22.2889   21.5973 C   0  0  0  0  0  0
  -28.1991  -19.8764   22.1754 C   0  0  0  0  0  0
  -28.6410  -25.5231   19.4812 C   0  0  0  0  0  0
  -30.1028  -15.3249   21.4191 N   0  0  0  0  0  0
  -28.0741  -21.0509   21.3078 N   0  0  0  0  0  0
  -29.0579  -22.5648   22.6605 O   0  0  0  0  0  0
  -31.4618  -12.3861   19.1125 H   0  0  0  0  0  0
  -30.3142  -11.2738   19.7954 H   0  0  0  0  0  0
  -29.7184  -11.7945   17.4159 H   0  0  0  0  0  0
  -29.6621  -13.5007   17.7805 H   0  0  0  0  0  0
  -27.8091  -11.3162   18.8007 H   0  0  0  0  0  0
  -27.3610  -12.6614   17.7870 H   0  0  0  0  0  0
  -27.7183  -14.2520   19.5956 H   0  0  0  0  0  0
  -28.6717  -11.9024   21.3074 H   0  0  0  0  0  0
  -28.4512  -13.5174   21.8950 H   0  0  0  0  0  0
  -25.2729   -9.5698   22.4741 H   0  0  0  0  0  0
  -23.9975   -7.4652   22.7489 H   0  0  0  0  0  0
  -21.0816   -8.8751   19.8945 H   0  0  0  0  0  0
  -22.3647  -10.9658   19.6150 H   0  0  0  0  0  0
  -21.2006   -7.6132   23.9692 H   0  0  0  0  0  0
  -21.1484   -6.0523   25.9067 H   0  0  0  0  0  0
  -22.0601   -2.7602   23.2852 H   0  0  0  0  0  0
  -22.4127  -11.9860   22.4742 H   0  0  0  0  0  0
  -21.1134  -13.1257   22.2660 H   0  0  0  0  0  0
  -24.6661  -15.8469   20.5087 H   0  0  0  0  0  0
  -26.2874  -15.6232   20.0859 H   0  0  0  0  0  0
  -26.7103  -32.5571   23.1146 H   0  0  0  0  0  0
  -24.9988  -33.9787   25.0434 H   0  0  0  0  0  0
  -22.6835  -31.3070   21.4078 H   0  0  0  0  0  0
  -23.3749  -35.9617   23.3299 H   0  0  0  0  0  0
  -24.3558  -36.8955   22.2056 H   0  0  0  0  0  0
  -23.7208  -37.6503   23.6651 H   0  0  0  0  0  0
  -26.0188  -31.6038   20.5756 H   0  0  0  0  0  0
  -26.8189  -30.9104   21.9593 H   0  0  0  0  0  0
  -28.0969  -29.1327   21.1331 H   0  0  0  0  0  0
  -26.0179  -25.9564   19.0549 H   0  0  0  0  0  0
  -23.9726  -27.2697   19.0743 H   0  0  0  0  0  0
  -23.6959  -30.5840   19.3992 H   0  0  0  0  0  0
  -22.7284  -29.2249   19.8807 H   0  0  0  0  0  0
  -25.1260  -36.1991   25.0836 H   0  0  0  0  0  0
  -20.9954  -28.3222   24.1442 H   0  0  0  0  0  0
  -20.5684  -26.2246   23.3621 H   0  0  0  0  0  0
  -21.6609  -26.7451   22.1214 H   0  0  0  0  0  0
  -19.6886  -25.6290   21.1239 H   0  0  0  0  0  0
  -19.6663  -27.3177   20.6743 H   0  0  0  0  0  0
  -17.4185  -26.6698   21.4032 H   0  0  0  0  0  0
  -18.0295  -26.0046   22.9026 H   0  0  0  0  0  0
  -19.7931  -30.7252   24.2290 H   0  0  0  0  0  0
  -17.5024  -31.6256   24.5158 H   0  0  0  0  0  0
  -15.5367  -30.2999   23.7628 H   0  0  0  0  0  0
  -15.8660  -28.0852   22.7024 H   0  0  0  0  0  0
  -24.5838  -30.7103   25.7716 H   0  0  0  0  0  0
  -24.8867  -32.2866   26.4829 H   0  0  0  0  0  0
  -25.7982  -30.8862   27.0192 H   0  0  0  0  0  0
  -26.2833  -29.6857   24.1046 H   0  0  0  0  0  0
  -27.4060  -29.7262   25.4463 H   0  0  0  0  0  0
  -27.8637  -30.4423   23.9163 H   0  0  0  0  0  0
  -27.2636  -33.3618   26.2027 H   0  0  0  0  0  0
  -28.3814  -32.6885   25.0305 H   0  0  0  0  0  0
  -28.0647  -31.8439   26.5412 H   0  0  0  0  0  0
  -28.2579  -38.0124   24.7571 H   0  0  0  0  0  0
  -28.1114  -36.2662   24.6219 H   0  0  0  0  0  0
  -27.2299  -37.1385   25.8876 H   0  0  0  0  0  0
  -20.9300  -29.8775   21.6994 H   0  0  0  0  0  0
  -26.0188  -38.2894   24.1435 H   0  0  0  0  0  0
  -32.7762  -19.1327   21.3588 H   0  0  0  0  0  0
  -30.8297  -20.6039   21.7610 H   0  0  0  0  0  0
  -32.4977  -16.6926   21.2284 H   0  0  0  0  0  0
  -28.2435  -17.1574   21.8843 H   0  0  0  0  0  0
  -27.6043  -22.9476   19.6877 H   0  0  0  0  0  0
  -29.4260  -24.7371   21.3783 H   0  0  0  0  0  0
  -28.2733  -20.1816   23.2209 H   0  0  0  0  0  0
  -27.2734  -19.3035   22.1100 H   0  0  0  0  0  0
  -27.9159  -25.2473   18.7197 H   0  0  0  0  0  0
  -29.5950  -25.5662   18.9561 H   0  0  0  0  0  0
  -29.2405  -14.9931   21.8218 H   0  0  0  0  0  0
  -27.6021  -20.9141   20.4259 H   0  0  0  0  0  0
  1 25  1  0  0  0
  1 30  2  0  0  0
  1 82  1  0  0  0
  2  3  1  0  0  0
  2 25  1  0  0  0
  2 85  1  0  0  0
  2 86  1  0  0  0
  3  4  1  0  0  0
  3 87  1  0  0  0
  3 88  1  0  0  0
  4  5  1  0  0  0
  4 89  1  0  0  0
  4 90  1  0  0  0
  5  6  1  0  0  0
  5 26  1  0  0  0
  5 91  1  0  0  0
  6 25  1  0  0  0
  6 92  1  0  0  0
  6 93  1  0  0  0
  7  8  2  0  0  0
  7 26  1  0  0  0
  7 29  1  0  0  0
  8  9  1  0  0  0
  8 22  1  0  0  0
  9 10  1  0  0  0
  9 27  2  0  0  0
 10 11  2  0  0  0
 10 15  1  0  0  0
 11 12  1  0  0  0
 11 94  1  0  0  0
 12 13  2  0  0  0
 12 95  1  0  0  0
 13 14  1  0  0  0
 13 31  1  0  0  0
 14 15  2  0  0  0
 14 96  1  0  0  0
 15 97  1  0  0  0
 16 17  2  0  0  0
 16 21  1  0  0  0
 16 31  1  0  0  0
 17 18  1  0  0  0
 17 98  1  0  0  0
 18 19  2  0  0  0
 18 99  1  0  0  0
 19 20  1  0  0  0
 19 24  1  0  0  0
 20 21  2  0  0  0
 20100  1  0  0  0
 21 23  1  0  0  0
 22 28  1  0  0  0
 22 32  2  0  0  0
 26 27  1  0  0  0
 28101  1  0  0  0
 28102  1  0  0  0
 29103  1  0  0  0
 29104  1  0  0  0
 33 34  1  0  0  0
 33 66  1  0  0  0
 33 70  2  0  0  0
 34 36  1  0  0  0
 34 59  1  0  0  0
 34105  1  0  0  0
 35 44  2  0  0  0
 35 45  1  0  0  0
 35 68  1  0  0  0
 36 56  1  0  0  0
 36106  1  0  0  0
 37 39  1  0  0  0
 37 47  1  0  0  0
 37 66  1  0  0  0
 37107  1  0  0  0
 38 43  2  0  0  0
 38 46  1  0  0  0
 38 47  1  0  0  0
 39 64  1  0  0  0
 39 67  2  0  0  0
 40 52  1  0  0  0
 40 53  2  0  0  0
 40 58  1  0  0  0
 41108  1  0  0  0
 41109  1  0  0  0
 41110  1  0  0  0
 41 48  1  0  0  0
 42 43  1  0  0  0
 42 66  1  0  0  0
 42111  1  0  0  0
 42112  1  0  0  0
 43 44  1  0  0  0
 44113  1  0  0  0
 45 46  2  0  0  0
 45114  1  0  0  0
 46115  1  0  0  0
 47116  1  0  0  0
 47117  1  0  0  0
 48 56  1  0  0  0
 48 65  1  0  0  0
 48118  1  0  0  0
 49 50  1  0  0  0
 49 53  1  0  0  0
 49 64  1  0  0  0
 49119  1  0  0  0
 50 51  1  0  0  0
 50120  1  0  0  0
 50121  1  0  0  0
 51 52  1  0  0  0
 51122  1  0  0  0
 51123  1  0  0  0
 52124  1  0  0  0
 52125  1  0  0  0
 53 54  1  0  0  0
 54 55  2  0  0  0
 54126  1  0  0  0
 55 57  1  0  0  0
 55127  1  0  0  0
 56 69  2  0  0  0
 57 58  2  0  0  0
 57128  1  0  0  0
 58129  1  0  0  0
 59 60  1  0  0  0
 59 61  1  0  0  0
 59 62  1  0  0  0
 60130  1  0  0  0
 60131  1  0  0  0
 60132  1  0  0  0
 61133  1  0  0  0
 61134  1  0  0  0
 61135  1  0  0  0
 62136  1  0  0  0
 62137  1  0  0  0
 62138  1  0  0  0
 63 65  1  0  0  0
 63139  1  0  0  0
 63140  1  0  0  0
 63141  1  0  0  0
 64142  1  0  0  0
 65143  1  0  0  0
 68 81  1  0  0  0
 71 72  2  0  0  0
 71 73  1  0  0  0
 71144  1  0  0  0
 72 75  1  0  0  0
 72145  1  0  0  0
 73 76  2  0  0  0
 73146  1  0  0  0
 74 75  2  0  0  0
 74 76  1  0  0  0
 74147  1  0  0  0
 75 80  1  0  0  0
 76 82  1  0  0  0
 77 78  2  0  0  0
 77 79  1  0  0  0
 77148  1  0  0  0
 78 81  1  0  0  0
 78149  1  0  0  0
 79 83  1  0  0  0
 79 84  2  0  0  0
 80 83  1  0  0  0
 80150  1  0  0  0
 80151  1  0  0  0
 81152  1  0  0  0
 81153  1  0  0  0
 82154  1  0  0  0
 83155  1  0  0  0
M  ISO  4   1 100  68 101  81 101  82 100
M  END
> <chiral flag>
0

> <version>
0

> <s_m_source_file>
/data/baiqing/PycharmProjects/Reinvent-master-3.2/result/LINK_invent/BTK/process_docking_weight1_custom_product_contain_oxygen_bond_distance_aromatic_linkinvent_7_9_3/rearranged_h_0057.sdf

> <i_m_source_file_index>
32

> <r_mmod_Potential_Energy-OPLS-2005>
-198.623962402344

> <r_mmod_Stretch_Energy-OPLS-2005>
34.0698394775391

> <r_mmod_Bend_Energy-OPLS-2005>
105.001525878906

> <r_mmod_Torsional_Energy-OPLS-2005>
195.473526000977

> <r_mmod_Improper_Torsional_Energy-OPLS-2005>
2.85309195518494

> <r_mmod_Van_der_Waal_Energy-OPLS-2005>
161.974914550781

> <r_mmod_Electrostatic_Energy-OPLS-2005>
-466.150909423828

> <r_mmod_Solvation_Energy-OPLS-2005>
-241.060882568359

> <b_mmod_Minimization_Converged-OPLS-2005>
0

> <r_mmod_RMS_Derivative-OPLS-2005>
2.72616934776306

$$$$
33
                    3D
 Structure written by MMmdl.
164173  0  0  1  0            999 V2000
  -30.6624  -14.4952   20.6353 C   0  0  0  0  0  0
  -30.4429  -12.3445   19.4108 C   0  0  0  0  0  0
  -29.5035  -12.5360   18.2008 C   0  0  0  0  0  0
  -28.0241  -12.3784   18.6093 C   0  0  0  0  0  0
  -27.6673  -13.1976   19.8771 C   0  0  2  0  0  0
  -28.7050  -12.9413   20.9909 C   0  0  0  0  0  0
  -25.2627  -13.8127   20.5656 C   0  0  0  0  0  0
  -24.1851  -13.0437   20.9136 C   0  0  0  0  0  0
  -24.6381  -11.6897   20.8685 C   0  0  0  0  0  0
  -23.9034  -10.4298   21.0379 C   0  0  0  0  0  0
  -24.3592   -9.4227   21.9171 C   0  0  0  0  0  0
  -23.6270   -8.2265   22.0757 C   0  0  0  0  0  0
  -22.4251   -8.0293   21.3544 C   0  0  0  0  0  0
  -21.9875   -9.0259   20.4653 C   0  0  0  0  0  0
  -22.7199  -10.2140   20.3048 C   0  0  0  0  0  0
  -21.6864   -6.0728   22.5272 C   0  0  0  0  0  0
  -21.4024   -6.5627   23.8200 C   0  0  0  0  0  0
  -21.3656   -5.6780   24.9164 C   0  0  0  0  0  0
  -21.6041   -4.3042   24.7220 C   0  0  0  0  0  0
  -21.8820   -3.8141   23.4338 C   0  0  0  0  0  0
  -21.9196   -4.6954   22.3394 C   0  0  0  0  0  0
  -22.7886  -13.5274   21.1805 C   0  0  0  0  0  0
  -22.1672   -4.2140   21.0970 F   0  0  0  0  0  0
  -21.5624   -3.4525   25.7732 F   0  0  0  0  0  0
  -30.0383  -13.2934   20.4608 N   0  0  0  0  0  0
  -26.3053  -12.9279   20.3328 N   0  0  0  0  0  0
  -25.9299  -11.6442   20.5687 N   0  0  0  0  0  0
  -22.0488  -12.8306   22.0363 N   0  0  0  0  0  0
  -25.4397  -15.1843   20.4113 N   0  0  0  0  0  0
  -31.7325  -14.7844   20.0894 O   0  0  0  0  0  0
  -21.6644   -6.8877   21.4235 O   0  0  0  0  0  0
  -22.3607  -14.5592   20.6655 O   0  0  0  0  0  0
  -24.6186  -31.8664   23.2079 C   0  0  0  0  0  0
  -25.9069  -32.4810   23.8382 C   0  0  1  0  0  0
  -27.2391  -27.4089   20.0798 C   0  0  0  0  0  0
  -25.5915  -33.8609   24.2319 N   0  0  0  0  0  0
  -23.4072  -30.4907   21.5489 C   0  0  2  0  0  0
  -24.8526  -28.9514   20.1152 C   0  0  0  0  0  0
  -22.7422  -29.4664   22.4972 C   0  0  0  0  0  0
  -18.0278  -28.1387   22.8488 C   0  0  0  0  0  0
  -24.1488  -36.7310   23.2635 C   0  0  0  0  0  0
  -25.9404  -30.8201   21.3668 C   0  0  0  0  0  0
  -26.0156  -29.4522   20.7127 C   0  0  0  0  0  0
  -27.2072  -28.6846   20.6996 C   0  0  0  0  0  0
  -26.0440  -26.9193   19.5042 C   0  0  0  0  0  0
  -24.8616  -27.6823   19.5136 C   0  0  0  0  0  0
  -23.6170  -29.8230   20.1641 C   0  0  0  0  0  0
  -25.4108  -36.3103   24.0332 C   0  0  1  0  0  0
  -20.5869  -28.3683   23.1298 C   0  0  2  0  0  0
  -20.6771  -26.9415   22.5410 C   0  0  0  0  0  0
  -19.5747  -26.6389   21.5212 C   0  0  0  0  0  0
  -18.1926  -26.7933   22.1621 C   0  0  0  0  0  0
  -19.1526  -28.8850   23.2893 C   0  0  0  0  0  0
  -18.9457  -30.1449   23.8910 C   0  0  0  0  0  0
  -17.6461  -30.6590   24.0565 C   0  0  0  0  0  0
  -25.9037  -34.9467   23.5123 C   0  0  0  0  0  0
  -16.5353  -29.9094   23.6323 C   0  0  0  0  0  0
  -16.7270  -28.6509   23.0351 C   0  0  0  0  0  0
  -26.4482  -31.6600   25.0725 C   0  0  0  0  0  0
  -25.3745  -31.3749   26.1483 C   0  0  0  0  0  0
  -27.0299  -30.3027   24.6135 C   0  0  0  0  0  0
  -27.6070  -32.4315   25.7472 C   0  0  0  0  0  0
  -27.5579  -37.1805   24.8461 C   0  0  0  0  0  0
  -21.4148  -29.3050   22.3704 N   0  0  0  0  0  0
  -26.4293  -37.3787   23.9402 N   0  0  0  0  0  0
  -24.6738  -31.0739   22.0993 N   0  0  0  0  0  0
  -23.4181  -28.8201   23.3023 O   0  0  0  0  0  0
  -28.4055  -26.6557   20.0940 O   0  0  0  0  0  0
  -26.5596  -34.8923   22.4682 O   0  0  0  0  0  0
  -23.5368  -32.1434   23.7455 O   0  0  0  0  0  0
  -30.1742  -17.7641   20.7526 C   0  0  0  0  0  0
  -29.9790  -17.1102   23.0771 C   0  0  0  0  0  0
  -30.0971  -19.1500   21.1021 C   0  0  0  0  0  0
  -29.9841  -19.4963   22.4867 C   0  0  0  0  0  0
  -30.1109  -16.7365   21.7303 C   0  0  0  0  0  0
  -29.9309  -18.4609   23.4595 C   0  0  0  0  0  0
  -30.7499  -22.5758   20.1412 C   0  0  0  0  0  0
  -30.3455  -24.0660   20.0604 C   0  0  0  0  0  0
  -27.9669  -23.4092   19.8583 C   0  0  0  0  0  0
  -28.3755  -21.9092   19.7724 C   0  0  0  0  0  0
  -29.0593  -24.2989   19.2500 C   0  0  1  0  0  0
  -29.9266  -20.9464   22.9563 C   0  0  0  0  0  0
  -30.1741  -20.1595   19.9198 C   0  0  0  0  0  0
  -28.6997  -25.7968   18.9712 C   0  0  0  0  0  0
  -29.8002  -21.6021   20.0488 N   0  0  0  0  0  0
  -29.9893  -15.3367   21.4482 N   0  0  0  0  0  0
  -31.9477  -22.3181   20.2963 O   0  0  0  0  0  0
  -29.7844  -18.7873   25.1545 Cl  0  0  0  0  0  0
  -31.4828  -12.4816   19.1102 H   0  0  0  0  0  0
  -30.3763  -11.3231   19.7868 H   0  0  0  0  0  0
  -29.7512  -11.8233   17.4128 H   0  0  0  0  0  0
  -29.6602  -13.5269   17.7722 H   0  0  0  0  0  0
  -27.8355  -11.3195   18.7864 H   0  0  0  0  0  0
  -27.3768  -12.6700   17.7815 H   0  0  0  0  0  0
  -27.7214  -14.2510   19.6024 H   0  0  0  0  0  0
  -28.6964  -11.8878   21.2733 H   0  0  0  0  0  0
  -28.4319  -13.4751   21.9019 H   0  0  0  0  0  0
  -25.2727   -9.5718   22.4748 H   0  0  0  0  0  0
  -23.9979   -7.4662   22.7478 H   0  0  0  0  0  0
  -21.0800   -8.8773   19.8961 H   0  0  0  0  0  0
  -22.3640  -10.9677   19.6168 H   0  0  0  0  0  0
  -21.2025   -7.6135   23.9708 H   0  0  0  0  0  0
  -21.1475   -6.0506   25.9062 H   0  0  0  0  0  0
  -22.0602   -2.7604   23.2844 H   0  0  0  0  0  0
  -22.4063  -11.9977   22.4782 H   0  0  0  0  0  0
  -21.1120  -13.1404   22.2542 H   0  0  0  0  0  0
  -24.6799  -15.8465   20.5232 H   0  0  0  0  0  0
  -26.3026  -15.6200   20.1105 H   0  0  0  0  0  0
  -26.7144  -32.5511   23.1145 H   0  0  0  0  0  0
  -25.0084  -33.9765   25.0479 H   0  0  0  0  0  0
  -22.6977  -31.3090   21.4085 H   0  0  0  0  0  0
  -23.3739  -35.9655   23.3320 H   0  0  0  0  0  0
  -24.3588  -36.8903   22.2046 H   0  0  0  0  0  0
  -23.7256  -37.6526   23.6642 H   0  0  0  0  0  0
  -26.0604  -31.5844   20.5976 H   0  0  0  0  0  0
  -26.8262  -30.8714   21.9885 H   0  0  0  0  0  0
  -28.1049  -29.0689   21.1644 H   0  0  0  0  0  0
  -25.9996  -25.9328   19.0666 H   0  0  0  0  0  0
  -23.9619  -27.2812   19.0677 H   0  0  0  0  0  0
  -23.7293  -30.5989   19.4058 H   0  0  0  0  0  0
  -22.7387  -29.2478   19.8653 H   0  0  0  0  0  0
  -25.1284  -36.1968   25.0825 H   0  0  0  0  0  0
  -20.9961  -28.3264   24.1417 H   0  0  0  0  0  0
  -20.5684  -26.2292   23.3602 H   0  0  0  0  0  0
  -21.6644  -26.7464   22.1196 H   0  0  0  0  0  0
  -19.6909  -25.6302   21.1237 H   0  0  0  0  0  0
  -19.6680  -27.3200   20.6742 H   0  0  0  0  0  0
  -17.4190  -26.6677   21.4031 H   0  0  0  0  0  0
  -18.0329  -26.0081   22.9021 H   0  0  0  0  0  0
  -19.7934  -30.7262   24.2291 H   0  0  0  0  0  0
  -17.5020  -31.6271   24.5162 H   0  0  0  0  0  0
  -15.5357  -30.3007   23.7640 H   0  0  0  0  0  0
  -15.8663  -28.0833   22.7070 H   0  0  0  0  0  0
  -24.5872  -30.7147   25.7831 H   0  0  0  0  0  0
  -24.8998  -32.2930   26.4954 H   0  0  0  0  0  0
  -25.8085  -30.8887   27.0228 H   0  0  0  0  0  0
  -26.2842  -29.6790   24.1191 H   0  0  0  0  0  0
  -27.4045  -29.7273   25.4612 H   0  0  0  0  0  0
  -27.8695  -30.4322   23.9302 H   0  0  0  0  0  0
  -27.2710  -33.3618   26.2065 H   0  0  0  0  0  0
  -28.3862  -32.6870   25.0278 H   0  0  0  0  0  0
  -28.0756  -31.8429   26.5371 H   0  0  0  0  0  0
  -28.2611  -38.0089   24.7494 H   0  0  0  0  0  0
  -28.1063  -36.2624   24.6300 H   0  0  0  0  0  0
  -27.2303  -37.1467   25.8867 H   0  0  0  0  0  0
  -20.9312  -29.8779   21.6926 H   0  0  0  0  0  0
  -26.0184  -38.2867   24.1402 H   0  0  0  0  0  0
  -30.2409  -17.4875   19.7085 H   0  0  0  0  0  0
  -29.9001  -16.3522   23.8440 H   0  0  0  0  0  0
  -31.1655  -24.6258   19.6107 H   0  0  0  0  0  0
  -30.2255  -24.4507   21.0732 H   0  0  0  0  0  0
  -27.7955  -23.6950   20.8971 H   0  0  0  0  0  0
  -27.0175  -23.5594   19.3418 H   0  0  0  0  0  0
  -28.1642  -21.5623   18.7600 H   0  0  0  0  0  0
  -27.7403  -21.3145   20.4305 H   0  0  0  0  0  0
  -29.2518  -23.8935   18.2545 H   0  0  0  0  0  0
  -30.8584  -21.4550   22.7164 H   0  0  0  0  0  0
  -29.7879  -21.0636   24.0279 H   0  0  0  0  0  0
  -29.0900  -21.4734   22.5017 H   0  0  0  0  0  0
  -29.5559  -19.7442   19.1229 H   0  0  0  0  0  0
  -31.1871  -20.0791   19.5214 H   0  0  0  0  0  0
  -27.9381  -25.8345   18.1937 H   0  0  0  0  0  0
  -29.5654  -26.2509   18.4882 H   0  0  0  0  0  0
  -29.2450  -14.8719   21.9466 H   0  0  0  0  0  0
  1 25  1  0  0  0
  1 30  2  0  0  0
  1 86  1  0  0  0
  2  3  1  0  0  0
  2 25  1  0  0  0
  2 89  1  0  0  0
  2 90  1  0  0  0
  3  4  1  0  0  0
  3 91  1  0  0  0
  3 92  1  0  0  0
  4  5  1  0  0  0
  4 93  1  0  0  0
  4 94  1  0  0  0
  5  6  1  0  0  0
  5 26  1  0  0  0
  5 95  1  0  0  0
  6 25  1  0  0  0
  6 96  1  0  0  0
  6 97  1  0  0  0
  7  8  2  0  0  0
  7 26  1  0  0  0
  7 29  1  0  0  0
  8  9  1  0  0  0
  8 22  1  0  0  0
  9 10  1  0  0  0
  9 27  2  0  0  0
 10 11  2  0  0  0
 10 15  1  0  0  0
 11 12  1  0  0  0
 11 98  1  0  0  0
 12 13  2  0  0  0
 12 99  1  0  0  0
 13 14  1  0  0  0
 13 31  1  0  0  0
 14 15  2  0  0  0
 14100  1  0  0  0
 15101  1  0  0  0
 16 17  2  0  0  0
 16 21  1  0  0  0
 16 31  1  0  0  0
 17 18  1  0  0  0
 17102  1  0  0  0
 18 19  2  0  0  0
 18103  1  0  0  0
 19 20  1  0  0  0
 19 24  1  0  0  0
 20 21  2  0  0  0
 20104  1  0  0  0
 21 23  1  0  0  0
 22 28  1  0  0  0
 22 32  2  0  0  0
 26 27  1  0  0  0
 28105  1  0  0  0
 28106  1  0  0  0
 29107  1  0  0  0
 29108  1  0  0  0
 33 34  1  0  0  0
 33 66  1  0  0  0
 33 70  2  0  0  0
 34 36  1  0  0  0
 34 59  1  0  0  0
 34109  1  0  0  0
 35 44  2  0  0  0
 35 45  1  0  0  0
 35 68  1  0  0  0
 36 56  1  0  0  0
 36110  1  0  0  0
 37 39  1  0  0  0
 37 47  1  0  0  0
 37 66  1  0  0  0
 37111  1  0  0  0
 38 43  2  0  0  0
 38 46  1  0  0  0
 38 47  1  0  0  0
 39 64  1  0  0  0
 39 67  2  0  0  0
 40 52  1  0  0  0
 40 53  2  0  0  0
 40 58  1  0  0  0
 41112  1  0  0  0
 41113  1  0  0  0
 41114  1  0  0  0
 41 48  1  0  0  0
 42 43  1  0  0  0
 42 66  1  0  0  0
 42115  1  0  0  0
 42116  1  0  0  0
 43 44  1  0  0  0
 44117  1  0  0  0
 45 46  2  0  0  0
 45118  1  0  0  0
 46119  1  0  0  0
 47120  1  0  0  0
 47121  1  0  0  0
 48 56  1  0  0  0
 48 65  1  0  0  0
 48122  1  0  0  0
 49 50  1  0  0  0
 49 53  1  0  0  0
 49 64  1  0  0  0
 49123  1  0  0  0
 50 51  1  0  0  0
 50124  1  0  0  0
 50125  1  0  0  0
 51 52  1  0  0  0
 51126  1  0  0  0
 51127  1  0  0  0
 52128  1  0  0  0
 52129  1  0  0  0
 53 54  1  0  0  0
 54 55  2  0  0  0
 54130  1  0  0  0
 55 57  1  0  0  0
 55131  1  0  0  0
 56 69  2  0  0  0
 57 58  2  0  0  0
 57132  1  0  0  0
 58133  1  0  0  0
 59 60  1  0  0  0
 59 61  1  0  0  0
 59 62  1  0  0  0
 60134  1  0  0  0
 60135  1  0  0  0
 60136  1  0  0  0
 61137  1  0  0  0
 61138  1  0  0  0
 61139  1  0  0  0
 62140  1  0  0  0
 62141  1  0  0  0
 62142  1  0  0  0
 63 65  1  0  0  0
 63143  1  0  0  0
 63144  1  0  0  0
 63145  1  0  0  0
 64146  1  0  0  0
 65147  1  0  0  0
 68 84  1  0  0  0
 71 73  2  0  0  0
 71 75  1  0  0  0
 71148  1  0  0  0
 72 75  2  0  0  0
 72 76  1  0  0  0
 72149  1  0  0  0
 73 74  1  0  0  0
 73 83  1  0  0  0
 74 76  2  0  0  0
 74 82  1  0  0  0
 75 86  1  0  0  0
 76 88  1  0  0  0
 77 78  1  0  0  0
 77 85  1  0  0  0
 77 87  2  0  0  0
 78 81  1  0  0  0
 78150  1  0  0  0
 78151  1  0  0  0
 79 80  1  0  0  0
 79 81  1  0  0  0
 79152  1  0  0  0
 79153  1  0  0  0
 80 85  1  0  0  0
 80154  1  0  0  0
 80155  1  0  0  0
 81 84  1  0  0  0
 81156  1  0  0  0
 82157  1  0  0  0
 82158  1  0  0  0
 82159  1  0  0  0
 83 85  1  0  0  0
 83160  1  0  0  0
 83161  1  0  0  0
 84162  1  0  0  0
 84163  1  0  0  0
 86164  1  0  0  0
M  ISO  4   1 100  68 101  84 101  86 100
M  END
> <chiral flag>
0

> <version>
0

> <s_m_source_file>
/data/baiqing/PycharmProjects/Reinvent-master-3.2/result/LINK_invent/BTK/process_docking_weight1_custom_product_contain_oxygen_bond_distance_aromatic_linkinvent_7_9_3/rearranged_h_0057.sdf

> <i_m_source_file_index>
33

> <r_mmod_Potential_Energy-OPLS-2005>
24.7821636199951

> <r_mmod_Stretch_Energy-OPLS-2005>
53.9844627380371

> <r_mmod_Bend_Energy-OPLS-2005>
148.321640014648

> <r_mmod_Torsional_Energy-OPLS-2005>
248.138717651367

> <r_mmod_Improper_Torsional_Energy-OPLS-2005>
3.29887413978577

> <r_mmod_Van_der_Waal_Energy-OPLS-2005>
167.163208007812

> <r_mmod_Electrostatic_Energy-OPLS-2005>
-383.272827148438

> <r_mmod_Solvation_Energy-OPLS-2005>
-229.618667602539

> <b_mmod_Minimization_Converged-OPLS-2005>
0

> <r_mmod_RMS_Derivative-OPLS-2005>
1.72426044940948

$$$$
34
                    3D
 Structure written by MMmdl.
154162  0  0  1  0            999 V2000
  -30.6757  -14.5080   20.4956 C   0  0  0  0  0  0
  -30.4152  -12.2979   19.4537 C   0  0  0  0  0  0
  -29.5055  -12.4799   18.2200 C   0  0  0  0  0  0
  -28.0181  -12.3750   18.6125 C   0  0  0  0  0  0
  -27.6534  -13.2202   19.8644 C   0  0  2  0  0  0
  -28.6919  -13.0343   20.9944 C   0  0  0  0  0  0
  -25.2516  -13.8187   20.5707 C   0  0  0  0  0  0
  -24.1785  -13.0440   20.9200 C   0  0  0  0  0  0
  -24.6373  -11.6917   20.8745 C   0  0  0  0  0  0
  -23.9049  -10.4281   21.0395 C   0  0  0  0  0  0
  -24.3614   -9.4187   21.9159 C   0  0  0  0  0  0
  -23.6282   -8.2224   22.0733 C   0  0  0  0  0  0
  -22.4251   -8.0271   21.3536 C   0  0  0  0  0  0
  -21.9887   -9.0238   20.4645 C   0  0  0  0  0  0
  -22.7227  -10.2109   20.3040 C   0  0  0  0  0  0
  -21.6835   -6.0727   22.5271 C   0  0  0  0  0  0
  -21.4025   -6.5625   23.8212 C   0  0  0  0  0  0
  -21.3676   -5.6780   24.9178 C   0  0  0  0  0  0
  -21.6035   -4.3043   24.7225 C   0  0  0  0  0  0
  -21.8811   -3.8136   23.4351 C   0  0  0  0  0  0
  -21.9176   -4.6956   22.3404 C   0  0  0  0  0  0
  -22.7809  -13.5225   21.1855 C   0  0  0  0  0  0
  -22.1642   -4.2142   21.0982 F   0  0  0  0  0  0
  -21.5627   -3.4527   25.7740 F   0  0  0  0  0  0
  -30.0224  -13.3157   20.4399 N   0  0  0  0  0  0
  -26.2963  -12.9396   20.3310 N   0  0  0  0  0  0
  -25.9295  -11.6538   20.5730 N   0  0  0  0  0  0
  -22.0445  -12.8246   22.0444 N   0  0  0  0  0  0
  -25.4206  -15.1924   20.4148 N   0  0  0  0  0  0
  -31.8518  -14.6309   20.1443 O   0  0  0  0  0  0
  -21.6616   -6.8865   21.4233 O   0  0  0  0  0  0
  -22.3495  -14.5523   20.6705 O   0  0  0  0  0  0
  -24.6175  -31.8671   23.2102 C   0  0  0  0  0  0
  -25.9044  -32.4820   23.8408 C   0  0  1  0  0  0
  -27.2379  -27.4040   20.0878 C   0  0  0  0  0  0
  -25.5875  -33.8622   24.2315 N   0  0  0  0  0  0
  -23.4056  -30.4908   21.5540 C   0  0  2  0  0  0
  -24.8511  -28.9568   20.1180 C   0  0  0  0  0  0
  -22.7425  -29.4646   22.5009 C   0  0  0  0  0  0
  -18.0265  -28.1349   22.8521 C   0  0  0  0  0  0
  -24.1477  -36.7306   23.2640 C   0  0  0  0  0  0
  -25.9432  -30.8192   21.3745 C   0  0  0  0  0  0
  -26.0145  -29.4548   20.7140 C   0  0  0  0  0  0
  -27.2060  -28.6880   20.6924 C   0  0  0  0  0  0
  -26.0430  -26.9314   19.4912 C   0  0  0  0  0  0
  -24.8628  -27.6947   19.5062 C   0  0  0  0  0  0
  -23.6150  -29.8266   20.1680 C   0  0  0  0  0  0
  -25.4100  -36.3115   24.0340 C   0  0  1  0  0  0
  -20.5875  -28.3628   23.1330 C   0  0  2  0  0  0
  -20.6760  -26.9359   22.5424 C   0  0  0  0  0  0
  -19.5733  -26.6358   21.5225 C   0  0  0  0  0  0
  -18.1912  -26.7893   22.1638 C   0  0  0  0  0  0
  -19.1522  -28.8807   23.2923 C   0  0  0  0  0  0
  -18.9446  -30.1421   23.8923 C   0  0  0  0  0  0
  -17.6446  -30.6563   24.0555 C   0  0  0  0  0  0
  -25.9026  -34.9477   23.5128 C   0  0  0  0  0  0
  -16.5340  -29.9061   23.6326 C   0  0  0  0  0  0
  -16.7263  -28.6474   23.0377 C   0  0  0  0  0  0
  -26.4458  -31.6628   25.0749 C   0  0  0  0  0  0
  -25.3725  -31.3770   26.1497 C   0  0  0  0  0  0
  -27.0294  -30.3057   24.6183 C   0  0  0  0  0  0
  -27.6000  -32.4394   25.7505 C   0  0  0  0  0  0
  -27.5589  -37.1799   24.8459 C   0  0  0  0  0  0
  -21.4156  -29.2986   22.3728 N   0  0  0  0  0  0
  -26.4290  -37.3802   23.9421 N   0  0  0  0  0  0
  -24.6735  -31.0743   22.1026 N   0  0  0  0  0  0
  -23.4181  -28.8161   23.3041 O   0  0  0  0  0  0
  -28.4334  -26.6935   20.1084 O   0  0  0  0  0  0
  -26.5608  -34.8939   22.4697 O   0  0  0  0  0  0
  -23.5353  -32.1414   23.7481 O   0  0  0  0  0  0
  -29.3312  -17.9958   20.9338 C   0  0  0  0  0  0
  -30.3044  -19.6411   19.4166 C   0  0  0  0  0  0
  -30.9071  -17.2820   19.2286 C   0  0  0  0  0  0
  -29.4520  -19.3451   20.5000 C   0  0  0  0  0  0
  -30.0688  -16.9451   20.3221 C   0  0  0  0  0  0
  -31.0243  -18.6130   18.7807 C   0  0  0  0  0  0
  -28.4021  -22.9197   20.6940 C   0  0  0  0  0  0
  -28.6503  -20.4589   21.1932 C   0  0  0  0  0  0
  -29.0611  -24.3244   20.7114 C   0  0  0  0  0  0
  -28.5310  -25.3247   19.6374 C   0  0  0  0  0  0
  -29.9043  -15.5878   20.7839 N   0  0  0  0  0  0
  -29.1493  -21.8377   20.9988 N   0  0  0  0  0  0
  -27.2000  -22.8159   20.4402 O   0  0  0  0  0  0
  -32.0538  -18.9840   17.4443 Cl  0  0  0  0  0  0
  -31.4671  -12.3714   19.1706 H   0  0  0  0  0  0
  -30.2918  -11.3006   19.8786 H   0  0  0  0  0  0
  -29.7458  -11.7318   17.4650 H   0  0  0  0  0  0
  -29.7001  -13.4514   17.7624 H   0  0  0  0  0  0
  -27.8013  -11.3248   18.8031 H   0  0  0  0  0  0
  -27.3899  -12.6678   17.7711 H   0  0  0  0  0  0
  -27.6879  -14.2645   19.5515 H   0  0  0  0  0  0
  -28.6560  -12.0151   21.3819 H   0  0  0  0  0  0
  -28.4615  -13.6771   21.8457 H   0  0  0  0  0  0
  -25.2761   -9.5666   22.4733 H   0  0  0  0  0  0
  -23.9991   -7.4613   22.7450 H   0  0  0  0  0  0
  -21.0803   -8.8773   19.8960 H   0  0  0  0  0  0
  -22.3687  -10.9648   19.6154 H   0  0  0  0  0  0
  -21.2033   -7.6127   23.9734 H   0  0  0  0  0  0
  -21.1514   -6.0499   25.9082 H   0  0  0  0  0  0
  -22.0580   -2.7600   23.2843 H   0  0  0  0  0  0
  -22.4059  -11.9951   22.4919 H   0  0  0  0  0  0
  -21.1060  -13.1272   22.2595 H   0  0  0  0  0  0
  -24.6574  -15.8468   20.5414 H   0  0  0  0  0  0
  -26.2673  -15.6330   20.0818 H   0  0  0  0  0  0
  -26.7107  -32.5511   23.1157 H   0  0  0  0  0  0
  -25.0039  -33.9784   25.0468 H   0  0  0  0  0  0
  -22.6948  -31.3085   21.4159 H   0  0  0  0  0  0
  -23.3761  -35.9620   23.3296 H   0  0  0  0  0  0
  -24.3573  -36.8920   22.2055 H   0  0  0  0  0  0
  -23.7194  -37.6490   23.6662 H   0  0  0  0  0  0
  -26.0803  -31.5914   20.6148 H   0  0  0  0  0  0
  -26.8209  -30.8568   22.0095 H   0  0  0  0  0  0
  -28.1055  -29.0784   21.1460 H   0  0  0  0  0  0
  -25.9670  -25.9801   18.9928 H   0  0  0  0  0  0
  -23.9675  -27.3030   19.0426 H   0  0  0  0  0  0
  -23.7273  -30.6026   19.4095 H   0  0  0  0  0  0
  -22.7386  -29.2475   19.8709 H   0  0  0  0  0  0
  -25.1275  -36.1985   25.0839 H   0  0  0  0  0  0
  -20.9991  -28.3183   24.1441 H   0  0  0  0  0  0
  -20.5675  -26.2222   23.3601 H   0  0  0  0  0  0
  -21.6627  -26.7396   22.1203 H   0  0  0  0  0  0
  -19.6879  -25.6275   21.1236 H   0  0  0  0  0  0
  -19.6669  -27.3190   20.6778 H   0  0  0  0  0  0
  -17.4180  -26.6682   21.4032 H   0  0  0  0  0  0
  -18.0285  -26.0015   22.9016 H   0  0  0  0  0  0
  -19.7922  -30.7235   24.2309 H   0  0  0  0  0  0
  -17.4993  -31.6253   24.5130 H   0  0  0  0  0  0
  -15.5340  -30.2964   23.7621 H   0  0  0  0  0  0
  -15.8669  -28.0777   22.7107 H   0  0  0  0  0  0
  -24.5825  -30.7204   25.7830 H   0  0  0  0  0  0
  -24.9015  -32.2962   26.4998 H   0  0  0  0  0  0
  -25.8052  -30.8868   27.0221 H   0  0  0  0  0  0
  -26.2863  -29.6823   24.1193 H   0  0  0  0  0  0
  -27.3975  -29.7289   25.4672 H   0  0  0  0  0  0
  -27.8747  -30.4335   23.9414 H   0  0  0  0  0  0
  -27.2557  -33.3669   26.2107 H   0  0  0  0  0  0
  -28.3781  -32.7023   25.0321 H   0  0  0  0  0  0
  -28.0719  -31.8539   26.5401 H   0  0  0  0  0  0
  -28.2589  -38.0117   24.7544 H   0  0  0  0  0  0
  -28.1105  -36.2642   24.6241 H   0  0  0  0  0  0
  -27.2320  -37.1398   25.8868 H   0  0  0  0  0  0
  -20.9301  -29.8701   21.6953 H   0  0  0  0  0  0
  -26.0181  -38.2888   24.1431 H   0  0  0  0  0  0
  -28.6643  -17.7719   21.7542 H   0  0  0  0  0  0
  -30.4117  -20.6526   19.0482 H   0  0  0  0  0  0
  -31.4699  -16.5327   18.6932 H   0  0  0  0  0  0
  -28.6469  -20.2584   22.2674 H   0  0  0  0  0  0
  -27.6106  -20.3738   20.8730 H   0  0  0  0  0  0
  -30.1423  -24.2254   20.6047 H   0  0  0  0  0  0
  -28.8924  -24.7466   21.7024 H   0  0  0  0  0  0
  -27.6355  -24.9336   19.1741 H   0  0  0  0  0  0
  -29.2490  -25.3363   18.8177 H   0  0  0  0  0  0
  -29.0221  -15.3743   21.2228 H   0  0  0  0  0  0
  -30.1230  -21.9890   21.2245 H   0  0  0  0  0  0
  1 25  1  0  0  0
  1 30  2  0  0  0
  1 81  1  0  0  0
  2  3  1  0  0  0
  2 25  1  0  0  0
  2 85  1  0  0  0
  2 86  1  0  0  0
  3  4  1  0  0  0
  3 87  1  0  0  0
  3 88  1  0  0  0
  4  5  1  0  0  0
  4 89  1  0  0  0
  4 90  1  0  0  0
  5  6  1  0  0  0
  5 26  1  0  0  0
  5 91  1  0  0  0
  6 25  1  0  0  0
  6 92  1  0  0  0
  6 93  1  0  0  0
  7  8  2  0  0  0
  7 26  1  0  0  0
  7 29  1  0  0  0
  8  9  1  0  0  0
  8 22  1  0  0  0
  9 10  1  0  0  0
  9 27  2  0  0  0
 10 11  2  0  0  0
 10 15  1  0  0  0
 11 12  1  0  0  0
 11 94  1  0  0  0
 12 13  2  0  0  0
 12 95  1  0  0  0
 13 14  1  0  0  0
 13 31  1  0  0  0
 14 15  2  0  0  0
 14 96  1  0  0  0
 15 97  1  0  0  0
 16 17  2  0  0  0
 16 21  1  0  0  0
 16 31  1  0  0  0
 17 18  1  0  0  0
 17 98  1  0  0  0
 18 19  2  0  0  0
 18 99  1  0  0  0
 19 20  1  0  0  0
 19 24  1  0  0  0
 20 21  2  0  0  0
 20100  1  0  0  0
 21 23  1  0  0  0
 22 28  1  0  0  0
 22 32  2  0  0  0
 26 27  1  0  0  0
 28101  1  0  0  0
 28102  1  0  0  0
 29103  1  0  0  0
 29104  1  0  0  0
 33 34  1  0  0  0
 33 66  1  0  0  0
 33 70  2  0  0  0
 34 36  1  0  0  0
 34 59  1  0  0  0
 34105  1  0  0  0
 35 44  2  0  0  0
 35 45  1  0  0  0
 35 68  1  0  0  0
 36 56  1  0  0  0
 36106  1  0  0  0
 37 39  1  0  0  0
 37 47  1  0  0  0
 37 66  1  0  0  0
 37107  1  0  0  0
 38 43  2  0  0  0
 38 46  1  0  0  0
 38 47  1  0  0  0
 39 64  1  0  0  0
 39 67  2  0  0  0
 40 52  1  0  0  0
 40 53  2  0  0  0
 40 58  1  0  0  0
 41108  1  0  0  0
 41109  1  0  0  0
 41110  1  0  0  0
 41 48  1  0  0  0
 42 43  1  0  0  0
 42 66  1  0  0  0
 42111  1  0  0  0
 42112  1  0  0  0
 43 44  1  0  0  0
 44113  1  0  0  0
 45 46  2  0  0  0
 45114  1  0  0  0
 46115  1  0  0  0
 47116  1  0  0  0
 47117  1  0  0  0
 48 56  1  0  0  0
 48 65  1  0  0  0
 48118  1  0  0  0
 49 50  1  0  0  0
 49 53  1  0  0  0
 49 64  1  0  0  0
 49119  1  0  0  0
 50 51  1  0  0  0
 50120  1  0  0  0
 50121  1  0  0  0
 51 52  1  0  0  0
 51122  1  0  0  0
 51123  1  0  0  0
 52124  1  0  0  0
 52125  1  0  0  0
 53 54  1  0  0  0
 54 55  2  0  0  0
 54126  1  0  0  0
 55 57  1  0  0  0
 55127  1  0  0  0
 56 69  2  0  0  0
 57 58  2  0  0  0
 57128  1  0  0  0
 58129  1  0  0  0
 59 60  1  0  0  0
 59 61  1  0  0  0
 59 62  1  0  0  0
 60130  1  0  0  0
 60131  1  0  0  0
 60132  1  0  0  0
 61133  1  0  0  0
 61134  1  0  0  0
 61135  1  0  0  0
 62136  1  0  0  0
 62137  1  0  0  0
 62138  1  0  0  0
 63 65  1  0  0  0
 63139  1  0  0  0
 63140  1  0  0  0
 63141  1  0  0  0
 64142  1  0  0  0
 65143  1  0  0  0
 68 80  1  0  0  0
 71 74  2  0  0  0
 71 75  1  0  0  0
 71144  1  0  0  0
 72 74  1  0  0  0
 72 76  2  0  0  0
 72145  1  0  0  0
 73 75  2  0  0  0
 73 76  1  0  0  0
 73146  1  0  0  0
 74 78  1  0  0  0
 75 81  1  0  0  0
 76 84  1  0  0  0
 77 79  1  0  0  0
 77 82  1  0  0  0
 77 83  2  0  0  0
 78 82  1  0  0  0
 78147  1  0  0  0
 78148  1  0  0  0
 79 80  1  0  0  0
 79149  1  0  0  0
 79150  1  0  0  0
 80151  1  0  0  0
 80152  1  0  0  0
 81153  1  0  0  0
 82154  1  0  0  0
M  ISO  4   1 100  68 101  80 101  81 100
M  END
> <chiral flag>
0

> <version>
0

> <s_m_source_file>
/data/baiqing/PycharmProjects/Reinvent-master-3.2/result/LINK_invent/BTK/process_docking_weight1_custom_product_contain_oxygen_bond_distance_aromatic_linkinvent_7_9_3/rearranged_h_0057.sdf

> <i_m_source_file_index>
34

> <r_mmod_Potential_Energy-OPLS-2005>
-114.050033569336

> <r_mmod_Stretch_Energy-OPLS-2005>
45.2667083740234

> <r_mmod_Bend_Energy-OPLS-2005>
110.716697692871

> <r_mmod_Torsional_Energy-OPLS-2005>
216.310165405273

> <r_mmod_Improper_Torsional_Energy-OPLS-2005>
4.91485977172852

> <r_mmod_Van_der_Waal_Energy-OPLS-2005>
160.912841796875

> <r_mmod_Electrostatic_Energy-OPLS-2005>
-433.863586425781

> <r_mmod_Solvation_Energy-OPLS-2005>
-238.843658447266

> <b_mmod_Minimization_Converged-OPLS-2005>
0

> <r_mmod_RMS_Derivative-OPLS-2005>
4.14831447601318

$$$$
35
                    3D
 Structure written by MMmdl.
163172  0  0  1  0            999 V2000
  -30.7929  -14.3420   20.7119 C   0  0  0  0  0  0
  -30.4126  -12.2942   19.3866 C   0  0  0  0  0  0
  -29.4782  -12.5308   18.1870 C   0  0  0  0  0  0
  -28.0058  -12.3780   18.6086 C   0  0  0  0  0  0
  -27.6647  -13.2035   19.8758 C   0  0  2  0  0  0
  -28.7025  -12.9545   20.9918 C   0  0  0  0  0  0
  -25.2598  -13.8162   20.5667 C   0  0  0  0  0  0
  -24.1842  -13.0443   20.9158 C   0  0  0  0  0  0
  -24.6389  -11.6907   20.8720 C   0  0  0  0  0  0
  -23.9054  -10.4295   21.0397 C   0  0  0  0  0  0
  -24.3609   -9.4216   21.9180 C   0  0  0  0  0  0
  -23.6290   -8.2249   22.0755 C   0  0  0  0  0  0
  -22.4272   -8.0283   21.3543 C   0  0  0  0  0  0
  -21.9906   -9.0253   20.4641 C   0  0  0  0  0  0
  -22.7230  -10.2132   20.3045 C   0  0  0  0  0  0
  -21.6852   -6.0738   22.5279 C   0  0  0  0  0  0
  -21.4012   -6.5641   23.8211 C   0  0  0  0  0  0
  -21.3658   -5.6792   24.9173 C   0  0  0  0  0  0
  -21.6046   -4.3056   24.7223 C   0  0  0  0  0  0
  -21.8820   -3.8150   23.4344 C   0  0  0  0  0  0
  -21.9192   -4.6967   22.3402 C   0  0  0  0  0  0
  -22.7864  -13.5242   21.1836 C   0  0  0  0  0  0
  -22.1661   -4.2154   21.0980 F   0  0  0  0  0  0
  -21.5629   -3.4542   25.7736 F   0  0  0  0  0  0
  -30.0483  -13.2360   20.4550 N   0  0  0  0  0  0
  -26.3035  -12.9327   20.3361 N   0  0  0  0  0  0
  -25.9314  -11.6488   20.5748 N   0  0  0  0  0  0
  -22.0506  -12.8219   22.0383 N   0  0  0  0  0  0
  -25.4331  -15.1878   20.4090 N   0  0  0  0  0  0
  -31.7881  -14.6578   20.0525 O   0  0  0  0  0  0
  -21.6637   -6.8881   21.4242 O   0  0  0  0  0  0
  -22.3552  -14.5559   20.6705 O   0  0  0  0  0  0
  -24.6108  -31.8696   23.2125 C   0  0  0  0  0  0
  -25.9018  -32.4830   23.8408 C   0  0  1  0  0  0
  -27.2402  -27.4716   20.0911 C   0  0  0  0  0  0
  -25.5893  -33.8630   24.2341 N   0  0  0  0  0  0
  -23.3977  -30.4912   21.5518 C   0  0  2  0  0  0
  -24.8468  -28.9563   20.1193 C   0  0  0  0  0  0
  -22.7386  -29.4665   22.5020 C   0  0  0  0  0  0
  -18.0263  -28.1372   22.8490 C   0  0  0  0  0  0
  -24.1483  -36.7311   23.2640 C   0  0  0  0  0  0
  -25.9216  -30.8439   21.3621 C   0  0  0  0  0  0
  -26.0015  -29.4777   20.7172 C   0  0  0  0  0  0
  -27.2026  -28.7390   20.7078 C   0  0  0  0  0  0
  -26.0770  -26.9528   19.4906 C   0  0  0  0  0  0
  -24.8763  -27.6893   19.5074 C   0  0  0  0  0  0
  -23.6051  -29.8174   20.1677 C   0  0  0  0  0  0
  -25.4104  -36.3116   24.0342 C   0  0  1  0  0  0
  -20.5848  -28.3652   23.1332 C   0  0  2  0  0  0
  -20.6751  -26.9389   22.5429 C   0  0  0  0  0  0
  -19.5741  -26.6383   21.5211 C   0  0  0  0  0  0
  -18.1909  -26.7932   22.1595 C   0  0  0  0  0  0
  -19.1512  -28.8828   23.2910 C   0  0  0  0  0  0
  -18.9444  -30.1438   23.8915 C   0  0  0  0  0  0
  -17.6447  -30.6577   24.0569 C   0  0  0  0  0  0
  -25.9029  -34.9483   23.5138 C   0  0  0  0  0  0
  -16.5339  -29.9079   23.6332 C   0  0  0  0  0  0
  -16.7254  -28.6499   23.0350 C   0  0  0  0  0  0
  -26.4462  -31.6597   25.0721 C   0  0  0  0  0  0
  -25.3737  -31.3676   26.1472 C   0  0  0  0  0  0
  -27.0302  -30.3054   24.6069 C   0  0  0  0  0  0
  -27.6038  -32.4317   25.7482 C   0  0  0  0  0  0
  -27.5589  -37.1805   24.8459 C   0  0  0  0  0  0
  -21.4120  -29.3024   22.3749 N   0  0  0  0  0  0
  -26.4290  -37.3802   23.9418 N   0  0  0  0  0  0
  -24.6610  -31.0823   22.1009 N   0  0  0  0  0  0
  -23.4169  -28.8221   23.3064 O   0  0  0  0  0  0
  -28.4034  -26.7505   20.0361 O   0  0  0  0  0  0
  -26.5587  -34.8928   22.4697 O   0  0  0  0  0  0
  -23.5312  -32.1437   23.7543 O   0  0  0  0  0  0
  -29.9714  -18.2260   22.4804 C   0  0  0  0  0  0
  -29.8109  -19.5536   22.0450 C   0  0  0  0  0  0
  -31.8755  -17.9873   20.9980 C   0  0  0  0  0  0
  -31.7345  -19.3250   20.5528 C   0  0  0  0  0  0
  -31.0140  -17.4392   21.9655 C   0  0  0  0  0  0
  -30.6750  -20.1297   21.0732 C   0  0  0  0  0  0
  -32.7059  -19.8924   19.5889 C   0  0  0  0  0  0
  -33.8952  -19.3356   19.2904 C   0  0  0  0  0  0
  -29.5849  -23.6631   21.0712 C   0  0  0  0  0  0
  -28.5658  -24.5411   20.9910 C   0  0  0  0  0  0
  -29.3850  -22.2348   20.8365 C   0  0  0  0  0  0
  -32.2731  -21.1726   18.9184 C   0  0  0  0  0  0
  -31.6641  -22.1355   19.9389 C   0  0  0  0  0  0
  -31.2445  -16.0287   22.4842 C   0  0  0  0  0  0
  -28.7080  -26.0313   21.2253 C   0  0  0  0  0  0
  -30.5375  -21.5188   20.6726 N   0  0  0  0  0  0
  -30.4428  -15.0097   21.8164 N   0  0  0  0  0  0
  -28.2624  -21.7179   20.7838 O   0  0  0  0  0  0
  -31.4549  -12.3941   19.0784 H   0  0  0  0  0  0
  -30.3106  -11.2712   19.7514 H   0  0  0  0  0  0
  -29.7114  -11.8312   17.3832 H   0  0  0  0  0  0
  -29.6437  -13.5301   17.7816 H   0  0  0  0  0  0
  -27.8192  -11.3194   18.7943 H   0  0  0  0  0  0
  -27.3476  -12.6624   17.7868 H   0  0  0  0  0  0
  -27.7209  -14.2565   19.5985 H   0  0  0  0  0  0
  -28.6615  -11.9153   21.3214 H   0  0  0  0  0  0
  -28.4449  -13.5463   21.8700 H   0  0  0  0  0  0
  -25.2755   -9.5697   22.4753 H   0  0  0  0  0  0
  -24.0001   -7.4646   22.7479 H   0  0  0  0  0  0
  -21.0837   -8.8767   19.8948 H   0  0  0  0  0  0
  -22.3692  -10.9665   19.6150 H   0  0  0  0  0  0
  -21.2005   -7.6148   23.9717 H   0  0  0  0  0  0
  -21.1478   -6.0523   25.9075 H   0  0  0  0  0  0
  -22.0601   -2.7611   23.2845 H   0  0  0  0  0  0
  -22.4121  -11.9866   22.4740 H   0  0  0  0  0  0
  -21.1126  -13.1241   22.2600 H   0  0  0  0  0  0
  -24.6722  -15.8487   20.5244 H   0  0  0  0  0  0
  -26.2985  -15.6266   20.1189 H   0  0  0  0  0  0
  -26.7096  -32.5562   23.1183 H   0  0  0  0  0  0
  -25.0085  -33.9798   25.0516 H   0  0  0  0  0  0
  -22.6850  -31.3063   21.4112 H   0  0  0  0  0  0
  -23.3756  -35.9631   23.3281 H   0  0  0  0  0  0
  -24.3589  -36.8946   22.2059 H   0  0  0  0  0  0
  -23.7211  -37.6501   23.6666 H   0  0  0  0  0  0
  -26.0261  -31.6070   20.5895 H   0  0  0  0  0  0
  -26.8122  -30.9032   21.9758 H   0  0  0  0  0  0
  -28.0991  -29.1409   21.1595 H   0  0  0  0  0  0
  -26.1043  -25.9842   19.0116 H   0  0  0  0  0  0
  -23.9893  -27.2813   19.0428 H   0  0  0  0  0  0
  -23.7059  -30.5878   19.4025 H   0  0  0  0  0  0
  -22.7316  -29.2300   19.8780 H   0  0  0  0  0  0
  -25.1279  -36.1985   25.0835 H   0  0  0  0  0  0
  -20.9934  -28.3212   24.1453 H   0  0  0  0  0  0
  -20.5634  -26.2261   23.3614 H   0  0  0  0  0  0
  -21.6630  -26.7423   22.1240 H   0  0  0  0  0  0
  -19.6901  -25.6297   21.1231 H   0  0  0  0  0  0
  -19.6699  -27.3205   20.6753 H   0  0  0  0  0  0
  -17.4199  -26.6723   21.3968 H   0  0  0  0  0  0
  -18.0267  -26.0043   22.8952 H   0  0  0  0  0  0
  -19.7918  -30.7257   24.2283 H   0  0  0  0  0  0
  -17.4999  -31.6261   24.5164 H   0  0  0  0  0  0
  -15.5341  -30.2986   23.7652 H   0  0  0  0  0  0
  -15.8653  -28.0833   22.7049 H   0  0  0  0  0  0
  -24.5979  -30.6930   25.7831 H   0  0  0  0  0  0
  -24.8838  -32.2805   26.4866 H   0  0  0  0  0  0
  -25.8118  -30.8928   27.0259 H   0  0  0  0  0  0
  -26.2839  -29.6814   24.1136 H   0  0  0  0  0  0
  -27.4108  -29.7287   25.4508 H   0  0  0  0  0  0
  -27.8649  -30.4399   23.9185 H   0  0  0  0  0  0
  -27.2664  -33.3610   26.2082 H   0  0  0  0  0  0
  -28.3835  -32.6884   25.0300 H   0  0  0  0  0  0
  -28.0719  -31.8426   26.5380 H   0  0  0  0  0  0
  -28.2589  -38.0119   24.7538 H   0  0  0  0  0  0
  -28.1099  -36.2654   24.6234 H   0  0  0  0  0  0
  -27.2318  -37.1403   25.8863 H   0  0  0  0  0  0
  -20.9282  -29.8749   21.6975 H   0  0  0  0  0  0
  -26.0179  -38.2878   24.1433 H   0  0  0  0  0  0
  -29.3049  -17.8232   23.2310 H   0  0  0  0  0  0
  -29.0162  -20.1249   22.5023 H   0  0  0  0  0  0
  -32.6624  -17.3560   20.6134 H   0  0  0  0  0  0
  -34.2542  -18.4277   19.7500 H   0  0  0  0  0  0
  -34.5559  -19.7991   18.5717 H   0  0  0  0  0  0
  -30.5672  -24.0332   21.3270 H   0  0  0  0  0  0
  -27.5688  -24.2011   20.7451 H   0  0  0  0  0  0
  -31.5216  -20.9273   18.1664 H   0  0  0  0  0  0
  -33.1051  -21.6413   18.3900 H   0  0  0  0  0  0
  -31.3719  -23.0297   19.3853 H   0  0  0  0  0  0
  -32.4220  -22.4459   20.6599 H   0  0  0  0  0  0
  -31.0077  -16.0016   23.5488 H   0  0  0  0  0  0
  -32.3058  -15.7801   22.4168 H   0  0  0  0  0  0
  -29.7327  -26.2671   21.5154 H   0  0  0  0  0  0
  -28.0723  -26.3183   22.0653 H   0  0  0  0  0  0
  -29.6301  -14.6714   22.3086 H   0  0  0  0  0  0
  1 25  1  0  0  0
  1 30  2  0  0  0
  1 87  1  0  0  0
  2  3  1  0  0  0
  2 25  1  0  0  0
  2 89  1  0  0  0
  2 90  1  0  0  0
  3  4  1  0  0  0
  3 91  1  0  0  0
  3 92  1  0  0  0
  4  5  1  0  0  0
  4 93  1  0  0  0
  4 94  1  0  0  0
  5  6  1  0  0  0
  5 26  1  0  0  0
  5 95  1  0  0  0
  6 25  1  0  0  0
  6 96  1  0  0  0
  6 97  1  0  0  0
  7  8  2  0  0  0
  7 26  1  0  0  0
  7 29  1  0  0  0
  8  9  1  0  0  0
  8 22  1  0  0  0
  9 10  1  0  0  0
  9 27  2  0  0  0
 10 11  2  0  0  0
 10 15  1  0  0  0
 11 12  1  0  0  0
 11 98  1  0  0  0
 12 13  2  0  0  0
 12 99  1  0  0  0
 13 14  1  0  0  0
 13 31  1  0  0  0
 14 15  2  0  0  0
 14100  1  0  0  0
 15101  1  0  0  0
 16 17  2  0  0  0
 16 21  1  0  0  0
 16 31  1  0  0  0
 17 18  1  0  0  0
 17102  1  0  0  0
 18 19  2  0  0  0
 18103  1  0  0  0
 19 20  1  0  0  0
 19 24  1  0  0  0
 20 21  2  0  0  0
 20104  1  0  0  0
 21 23  1  0  0  0
 22 28  1  0  0  0
 22 32  2  0  0  0
 26 27  1  0  0  0
 28105  1  0  0  0
 28106  1  0  0  0
 29107  1  0  0  0
 29108  1  0  0  0
 33 34  1  0  0  0
 33 66  1  0  0  0
 33 70  2  0  0  0
 34 36  1  0  0  0
 34 59  1  0  0  0
 34109  1  0  0  0
 35 44  2  0  0  0
 35 45  1  0  0  0
 35 68  1  0  0  0
 36 56  1  0  0  0
 36110  1  0  0  0
 37 39  1  0  0  0
 37 47  1  0  0  0
 37 66  1  0  0  0
 37111  1  0  0  0
 38 43  2  0  0  0
 38 46  1  0  0  0
 38 47  1  0  0  0
 39 64  1  0  0  0
 39 67  2  0  0  0
 40 52  1  0  0  0
 40 53  2  0  0  0
 40 58  1  0  0  0
 41112  1  0  0  0
 41113  1  0  0  0
 41114  1  0  0  0
 41 48  1  0  0  0
 42 43  1  0  0  0
 42 66  1  0  0  0
 42115  1  0  0  0
 42116  1  0  0  0
 43 44  1  0  0  0
 44117  1  0  0  0
 45 46  2  0  0  0
 45118  1  0  0  0
 46119  1  0  0  0
 47120  1  0  0  0
 47121  1  0  0  0
 48 56  1  0  0  0
 48 65  1  0  0  0
 48122  1  0  0  0
 49 50  1  0  0  0
 49 53  1  0  0  0
 49 64  1  0  0  0
 49123  1  0  0  0
 50 51  1  0  0  0
 50124  1  0  0  0
 50125  1  0  0  0
 51 52  1  0  0  0
 51126  1  0  0  0
 51127  1  0  0  0
 52128  1  0  0  0
 52129  1  0  0  0
 53 54  1  0  0  0
 54 55  2  0  0  0
 54130  1  0  0  0
 55 57  1  0  0  0
 55131  1  0  0  0
 56 69  2  0  0  0
 57 58  2  0  0  0
 57132  1  0  0  0
 58133  1  0  0  0
 59 60  1  0  0  0
 59 61  1  0  0  0
 59 62  1  0  0  0
 60134  1  0  0  0
 60135  1  0  0  0
 60136  1  0  0  0
 61137  1  0  0  0
 61138  1  0  0  0
 61139  1  0  0  0
 62140  1  0  0  0
 62141  1  0  0  0
 62142  1  0  0  0
 63 65  1  0  0  0
 63143  1  0  0  0
 63144  1  0  0  0
 63145  1  0  0  0
 64146  1  0  0  0
 65147  1  0  0  0
 68 85  1  0  0  0
 71 72  2  0  0  0
 71 75  1  0  0  0
 71148  1  0  0  0
 72 76  1  0  0  0
 72149  1  0  0  0
 73 74  1  0  0  0
 73 75  2  0  0  0
 73150  1  0  0  0
 74 76  2  0  0  0
 74 77  1  0  0  0
 75 84  1  0  0  0
 76 86  1  0  0  0
 77 78  2  0  0  0
 77 82  1  0  0  0
 78151  1  0  0  0
 78152  1  0  0  0
 79 80  2  0  0  0
 79 81  1  0  0  0
 79153  1  0  0  0
 80 85  1  0  0  0
 80154  1  0  0  0
 81 86  1  0  0  0
 81 88  2  0  0  0
 82 83  1  0  0  0
 82155  1  0  0  0
 82156  1  0  0  0
 83 86  1  0  0  0
 83157  1  0  0  0
 83158  1  0  0  0
 84 87  1  0  0  0
 84159  1  0  0  0
 84160  1  0  0  0
 85161  1  0  0  0
 85162  1  0  0  0
 87163  1  0  0  0
M  ISO  4   1 100  68 101  85 101  87 100
M  END
> <chiral flag>
0

> <version>
0

> <s_m_source_file>
/data/baiqing/PycharmProjects/Reinvent-master-3.2/result/LINK_invent/BTK/process_docking_weight1_custom_product_contain_oxygen_bond_distance_aromatic_linkinvent_7_9_3/rearranged_h_0057.sdf

> <i_m_source_file_index>
35

> <r_mmod_Potential_Energy-OPLS-2005>
-33.8946418762207

> <r_mmod_Stretch_Energy-OPLS-2005>
40.2991752624512

> <r_mmod_Bend_Energy-OPLS-2005>
90.5121612548828

> <r_mmod_Torsional_Energy-OPLS-2005>
271.543548583984

> <r_mmod_Improper_Torsional_Energy-OPLS-2005>
3.00926661491394

> <r_mmod_Van_der_Waal_Energy-OPLS-2005>
183.79704284668

> <r_mmod_Electrostatic_Energy-OPLS-2005>
-409.722778320312

> <r_mmod_Solvation_Energy-OPLS-2005>
-219.714294433594

> <b_mmod_Minimization_Converged-OPLS-2005>
0

> <r_mmod_RMS_Derivative-OPLS-2005>
0.686471402645111

$$$$
36
                    3D
 Structure written by MMmdl.
158166  0  0  1  0            999 V2000
  -30.6871  -14.4837   20.5605 C   0  0  0  0  0  0
  -30.4285  -12.3209   19.4087 C   0  0  0  0  0  0
  -29.4897  -12.5080   18.1981 C   0  0  0  0  0  0
  -28.0090  -12.3728   18.6153 C   0  0  0  0  0  0
  -27.6631  -13.1977   19.8858 C   0  0  2  0  0  0
  -28.7148  -12.9299   20.9879 C   0  0  0  0  0  0
  -25.2596  -13.8145   20.5691 C   0  0  0  0  0  0
  -24.1832  -13.0433   20.9172 C   0  0  0  0  0  0
  -24.6377  -11.6894   20.8740 C   0  0  0  0  0  0
  -23.9041  -10.4287   21.0408 C   0  0  0  0  0  0
  -24.3602   -9.4202   21.9178 C   0  0  0  0  0  0
  -23.6283   -8.2239   22.0752 C   0  0  0  0  0  0
  -22.4261   -8.0279   21.3546 C   0  0  0  0  0  0
  -21.9890   -9.0253   20.4653 C   0  0  0  0  0  0
  -22.7216  -10.2134   20.3060 C   0  0  0  0  0  0
  -21.6852   -6.0732   22.5275 C   0  0  0  0  0  0
  -21.4016   -6.5638   23.8210 C   0  0  0  0  0  0
  -21.3661   -5.6794   24.9173 C   0  0  0  0  0  0
  -21.6047   -4.3058   24.7222 C   0  0  0  0  0  0
  -21.8822   -3.8147   23.4346 C   0  0  0  0  0  0
  -21.9192   -4.6959   22.3400 C   0  0  0  0  0  0
  -22.7860  -13.5246   21.1842 C   0  0  0  0  0  0
  -22.1657   -4.2141   21.0977 F   0  0  0  0  0  0
  -21.5627   -3.4541   25.7737 F   0  0  0  0  0  0
  -30.0209  -13.3004   20.4305 N   0  0  0  0  0  0
  -26.3032  -12.9296   20.3445 N   0  0  0  0  0  0
  -25.9305  -11.6463   20.5805 N   0  0  0  0  0  0
  -22.0513  -12.8252   22.0423 N   0  0  0  0  0  0
  -25.4320  -15.1854   20.4083 N   0  0  0  0  0  0
  -31.8436  -14.6263   20.1610 O   0  0  0  0  0  0
  -21.6635   -6.8872   21.4235 O   0  0  0  0  0  0
  -22.3543  -14.5548   20.6687 O   0  0  0  0  0  0
  -24.6132  -31.8684   23.2116 C   0  0  0  0  0  0
  -25.9027  -32.4826   23.8406 C   0  0  1  0  0  0
  -27.2385  -27.4374   20.0944 C   0  0  0  0  0  0
  -25.5887  -33.8627   24.2334 N   0  0  0  0  0  0
  -23.4007  -30.4917   21.5520 C   0  0  2  0  0  0
  -24.8472  -28.9523   20.1229 C   0  0  0  0  0  0
  -22.7402  -29.4657   22.5003 C   0  0  0  0  0  0
  -18.0268  -28.1374   22.8487 C   0  0  0  0  0  0
  -24.1485  -36.7317   23.2641 C   0  0  0  0  0  0
  -25.9293  -30.8318   21.3662 C   0  0  0  0  0  0
  -26.0052  -29.4624   20.7224 C   0  0  0  0  0  0
  -27.2005  -28.7093   20.7117 C   0  0  0  0  0  0
  -26.0600  -26.9409   19.4899 C   0  0  0  0  0  0
  -24.8673  -27.6878   19.5102 C   0  0  0  0  0  0
  -23.6105  -29.8213   20.1680 C   0  0  0  0  0  0
  -25.4107  -36.3121   24.0344 C   0  0  1  0  0  0
  -20.5857  -28.3654   23.1327 C   0  0  2  0  0  0
  -20.6759  -26.9393   22.5418 C   0  0  0  0  0  0
  -19.5742  -26.6382   21.5211 C   0  0  0  0  0  0
  -18.1919  -26.7919   22.1623 C   0  0  0  0  0  0
  -19.1517  -28.8833   23.2903 C   0  0  0  0  0  0
  -18.9445  -30.1440   23.8913 C   0  0  0  0  0  0
  -17.6448  -30.6583   24.0563 C   0  0  0  0  0  0
  -25.9031  -34.9481   23.5139 C   0  0  0  0  0  0
  -16.5339  -29.9084   23.6322 C   0  0  0  0  0  0
  -16.7257  -28.6501   23.0341 C   0  0  0  0  0  0
  -26.4462  -31.6608   25.0731 C   0  0  0  0  0  0
  -25.3734  -31.3707   26.1487 C   0  0  0  0  0  0
  -27.0299  -30.3058   24.6099 C   0  0  0  0  0  0
  -27.6050  -32.4322   25.7480 C   0  0  0  0  0  0
  -27.5584  -37.1820   24.8469 C   0  0  0  0  0  0
  -21.4132  -29.3023   22.3741 N   0  0  0  0  0  0
  -26.4297  -37.3801   23.9409 N   0  0  0  0  0  0
  -24.6660  -31.0783   22.1018 N   0  0  0  0  0  0
  -23.4184  -28.8193   23.3035 O   0  0  0  0  0  0
  -28.4344  -26.7497   20.0284 O   0  0  0  0  0  0
  -26.5593  -34.8928   22.4700 O   0  0  0  0  0  0
  -23.5327  -32.1434   23.7512 O   0  0  0  0  0  0
  -29.1678  -18.4895   20.9556 C   0  0  0  0  0  0
  -28.5851  -19.7766   20.8484 C   0  0  0  0  0  0
  -27.2487  -17.7341   22.2398 C   0  0  0  0  0  0
  -28.4914  -17.4494   21.6384 C   0  0  0  0  0  0
  -26.6547  -19.0072   22.1269 C   0  0  0  0  0  0
  -27.3185  -20.0389   21.4208 C   0  0  0  0  0  0
  -28.5453  -25.3886   20.1084 C   0  0  0  0  0  0
  -26.9288  -22.4383   21.7600 C   0  0  0  0  0  0
  -25.2920  -19.2404   22.7596 C   0  0  0  0  0  0
  -29.0215  -16.0144   21.7452 C   0  0  0  0  0  0
  -27.7252  -24.6934   21.2072 C   0  0  0  0  0  0
  -26.6224  -21.2608   21.2085 N   0  0  0  0  0  0
  -29.9601  -15.6120   20.6964 N   0  0  0  0  0  0
  -27.6591  -23.2428   20.9872 N   0  0  0  0  0  0
  -29.3537  -24.7458   19.4327 O   0  0  0  0  0  0
  -26.4269  -22.8162   22.8179 O   0  0  0  0  0  0
  -31.4680  -12.4394   19.0988 H   0  0  0  0  0  0
  -30.3551  -11.3052   19.7997 H   0  0  0  0  0  0
  -29.7280  -11.7806   17.4210 H   0  0  0  0  0  0
  -29.6555  -13.4917   17.7554 H   0  0  0  0  0  0
  -27.8146  -11.3156   18.7990 H   0  0  0  0  0  0
  -27.3556  -12.6601   17.7908 H   0  0  0  0  0  0
  -27.7150  -14.2497   19.6062 H   0  0  0  0  0  0
  -28.7140  -11.8679   21.2367 H   0  0  0  0  0  0
  -28.5028  -13.4098   21.9390 H   0  0  0  0  0  0
  -25.2753   -9.5673   22.4740 H   0  0  0  0  0  0
  -23.9998   -7.4627   22.7465 H   0  0  0  0  0  0
  -21.0822   -8.8774   19.8959 H   0  0  0  0  0  0
  -22.3675  -10.9675   19.6171 H   0  0  0  0  0  0
  -21.2010   -7.6148   23.9709 H   0  0  0  0  0  0
  -21.1480   -6.0525   25.9076 H   0  0  0  0  0  0
  -22.0602   -2.7606   23.2847 H   0  0  0  0  0  0
  -22.4130  -11.9910   22.4799 H   0  0  0  0  0  0
  -21.1140  -13.1284   22.2654 H   0  0  0  0  0  0
  -24.6681  -15.8426   20.5181 H   0  0  0  0  0  0
  -26.2906  -15.6273   20.1042 H   0  0  0  0  0  0
  -26.7100  -32.5540   23.1176 H   0  0  0  0  0  0
  -25.0052  -33.9793   25.0490 H   0  0  0  0  0  0
  -22.6896  -31.3084   21.4111 H   0  0  0  0  0  0
  -23.3744  -35.9653   23.3319 H   0  0  0  0  0  0
  -24.3582  -36.8911   22.2052 H   0  0  0  0  0  0
  -23.7238  -37.6533   23.6637 H   0  0  0  0  0  0
  -26.0405  -31.5928   20.5923 H   0  0  0  0  0  0
  -26.8191  -30.8899   21.9815 H   0  0  0  0  0  0
  -28.0994  -29.1081   21.1609 H   0  0  0  0  0  0
  -26.0604  -25.9856   18.9847 H   0  0  0  0  0  0
  -23.9779  -27.2914   19.0409 H   0  0  0  0  0  0
  -23.7212  -30.5935   19.4056 H   0  0  0  0  0  0
  -22.7343  -29.2416   19.8724 H   0  0  0  0  0  0
  -25.1284  -36.1998   25.0838 H   0  0  0  0  0  0
  -20.9946  -28.3208   24.1450 H   0  0  0  0  0  0
  -20.5657  -26.2259   23.3598 H   0  0  0  0  0  0
  -21.6631  -26.7431   22.1218 H   0  0  0  0  0  0
  -19.6897  -25.6296   21.1230 H   0  0  0  0  0  0
  -19.6687  -27.3200   20.6749 H   0  0  0  0  0  0
  -17.4188  -26.6660   21.4027 H   0  0  0  0  0  0
  -18.0325  -26.0059   22.9019 H   0  0  0  0  0  0
  -19.7921  -30.7245   24.2298 H   0  0  0  0  0  0
  -17.5003  -31.6267   24.5157 H   0  0  0  0  0  0
  -15.5342  -30.2993   23.7636 H   0  0  0  0  0  0
  -15.8655  -28.0829   22.7049 H   0  0  0  0  0  0
  -24.5894  -30.7070   25.7824 H   0  0  0  0  0  0
  -24.8936  -32.2858   26.4968 H   0  0  0  0  0  0
  -25.8088  -30.8851   27.0229 H   0  0  0  0  0  0
  -26.2845  -29.6821   24.1149 H   0  0  0  0  0  0
  -27.4082  -29.7297   25.4555 H   0  0  0  0  0  0
  -27.8672  -30.4399   23.9243 H   0  0  0  0  0  0
  -27.2682  -33.3607   26.2103 H   0  0  0  0  0  0
  -28.3825  -32.6910   25.0279 H   0  0  0  0  0  0
  -28.0755  -31.8418   26.5354 H   0  0  0  0  0  0
  -28.2624  -38.0098   24.7505 H   0  0  0  0  0  0
  -28.1062  -36.2634   24.6309 H   0  0  0  0  0  0
  -27.2302  -37.1488   25.8874 H   0  0  0  0  0  0
  -20.9294  -29.8759   21.6976 H   0  0  0  0  0  0
  -26.0195  -38.2889   24.1390 H   0  0  0  0  0  0
  -30.1261  -18.3089   20.4898 H   0  0  0  0  0  0
  -29.1007  -20.5456   20.2901 H   0  0  0  0  0  0
  -26.7256  -16.9504   22.7712 H   0  0  0  0  0  0
  -24.9711  -18.3788   23.3452 H   0  0  0  0  0  0
  -24.5380  -19.4238   21.9939 H   0  0  0  0  0  0
  -25.3209  -20.1000   23.4302 H   0  0  0  0  0  0
  -28.1280  -15.4003   21.6997 H   0  0  0  0  0  0
  -29.4730  -15.8646   22.7273 H   0  0  0  0  0  0
  -26.7137  -25.0959   21.2462 H   0  0  0  0  0  0
  -28.1877  -24.8959   22.1732 H   0  0  0  0  0  0
  -25.6419  -21.0997   21.3880 H   0  0  0  0  0  0
  -30.4711  -16.4030   20.3377 H   0  0  0  0  0  0
  -28.0323  -22.8912   20.1157 H   0  0  0  0  0  0
  1 25  1  0  0  0
  1 30  2  0  0  0
  1 83  1  0  0  0
  2  3  1  0  0  0
  2 25  1  0  0  0
  2 87  1  0  0  0
  2 88  1  0  0  0
  3  4  1  0  0  0
  3 89  1  0  0  0
  3 90  1  0  0  0
  4  5  1  0  0  0
  4 91  1  0  0  0
  4 92  1  0  0  0
  5  6  1  0  0  0
  5 26  1  0  0  0
  5 93  1  0  0  0
  6 25  1  0  0  0
  6 94  1  0  0  0
  6 95  1  0  0  0
  7  8  2  0  0  0
  7 26  1  0  0  0
  7 29  1  0  0  0
  8  9  1  0  0  0
  8 22  1  0  0  0
  9 10  1  0  0  0
  9 27  2  0  0  0
 10 11  2  0  0  0
 10 15  1  0  0  0
 11 12  1  0  0  0
 11 96  1  0  0  0
 12 13  2  0  0  0
 12 97  1  0  0  0
 13 14  1  0  0  0
 13 31  1  0  0  0
 14 15  2  0  0  0
 14 98  1  0  0  0
 15 99  1  0  0  0
 16 17  2  0  0  0
 16 21  1  0  0  0
 16 31  1  0  0  0
 17 18  1  0  0  0
 17100  1  0  0  0
 18 19  2  0  0  0
 18101  1  0  0  0
 19 20  1  0  0  0
 19 24  1  0  0  0
 20 21  2  0  0  0
 20102  1  0  0  0
 21 23  1  0  0  0
 22 28  1  0  0  0
 22 32  2  0  0  0
 26 27  1  0  0  0
 28103  1  0  0  0
 28104  1  0  0  0
 29105  1  0  0  0
 29106  1  0  0  0
 33 34  1  0  0  0
 33 66  1  0  0  0
 33 70  2  0  0  0
 34 36  1  0  0  0
 34 59  1  0  0  0
 34107  1  0  0  0
 35 44  2  0  0  0
 35 45  1  0  0  0
 35 68  1  0  0  0
 36 56  1  0  0  0
 36108  1  0  0  0
 37 39  1  0  0  0
 37 47  1  0  0  0
 37 66  1  0  0  0
 37109  1  0  0  0
 38 43  2  0  0  0
 38 46  1  0  0  0
 38 47  1  0  0  0
 39 64  1  0  0  0
 39 67  2  0  0  0
 40 52  1  0  0  0
 40 53  2  0  0  0
 40 58  1  0  0  0
 41110  1  0  0  0
 41111  1  0  0  0
 41112  1  0  0  0
 41 48  1  0  0  0
 42 43  1  0  0  0
 42 66  1  0  0  0
 42113  1  0  0  0
 42114  1  0  0  0
 43 44  1  0  0  0
 44115  1  0  0  0
 45 46  2  0  0  0
 45116  1  0  0  0
 46117  1  0  0  0
 47118  1  0  0  0
 47119  1  0  0  0
 48 56  1  0  0  0
 48 65  1  0  0  0
 48120  1  0  0  0
 49 50  1  0  0  0
 49 53  1  0  0  0
 49 64  1  0  0  0
 49121  1  0  0  0
 50 51  1  0  0  0
 50122  1  0  0  0
 50123  1  0  0  0
 51 52  1  0  0  0
 51124  1  0  0  0
 51125  1  0  0  0
 52126  1  0  0  0
 52127  1  0  0  0
 53 54  1  0  0  0
 54 55  2  0  0  0
 54128  1  0  0  0
 55 57  1  0  0  0
 55129  1  0  0  0
 56 69  2  0  0  0
 57 58  2  0  0  0
 57130  1  0  0  0
 58131  1  0  0  0
 59 60  1  0  0  0
 59 61  1  0  0  0
 59 62  1  0  0  0
 60132  1  0  0  0
 60133  1  0  0  0
 60134  1  0  0  0
 61135  1  0  0  0
 61136  1  0  0  0
 61137  1  0  0  0
 62138  1  0  0  0
 62139  1  0  0  0
 62140  1  0  0  0
 63 65  1  0  0  0
 63141  1  0  0  0
 63142  1  0  0  0
 63143  1  0  0  0
 64144  1  0  0  0
 65145  1  0  0  0
 68 77  1  0  0  0
 71 72  2  0  0  0
 71 74  1  0  0  0
 71146  1  0  0  0
 72 76  1  0  0  0
 72147  1  0  0  0
 73 74  2  0  0  0
 73 75  1  0  0  0
 73148  1  0  0  0
 74 80  1  0  0  0
 75 76  2  0  0  0
 75 79  1  0  0  0
 76 82  1  0  0  0
 77 81  1  0  0  0
 77 85  2  0  0  0
 78 82  1  0  0  0
 78 84  1  0  0  0
 78 86  2  0  0  0
 79149  1  0  0  0
 79150  1  0  0  0
 79151  1  0  0  0
 80 83  1  0  0  0
 80152  1  0  0  0
 80153  1  0  0  0
 81 84  1  0  0  0
 81154  1  0  0  0
 81155  1  0  0  0
 82156  1  0  0  0
 83157  1  0  0  0
 84158  1  0  0  0
M  ISO  4   1 100  68 101  77 101  83 100
M  END
> <chiral flag>
0

> <version>
0

> <s_m_source_file>
/data/baiqing/PycharmProjects/Reinvent-master-3.2/result/LINK_invent/BTK/process_docking_weight1_custom_product_contain_oxygen_bond_distance_aromatic_linkinvent_7_9_3/rearranged_h_0057.sdf

> <i_m_source_file_index>
36

> <r_mmod_Potential_Energy-OPLS-2005>
-189.056121826172

> <r_mmod_Stretch_Energy-OPLS-2005>
36.7873077392578

> <r_mmod_Bend_Energy-OPLS-2005>
133.081176757812

> <r_mmod_Torsional_Energy-OPLS-2005>
321.464904785156

> <r_mmod_Improper_Torsional_Energy-OPLS-2005>
25.722469329834

> <r_mmod_Van_der_Waal_Energy-OPLS-2005>
150.122482299805

> <r_mmod_Electrostatic_Energy-OPLS-2005>
-633.419738769531

> <r_mmod_Solvation_Energy-OPLS-2005>
-236.630783081055

> <b_mmod_Minimization_Converged-OPLS-2005>
0

> <r_mmod_RMS_Derivative-OPLS-2005>
0.999347388744354

$$$$
37
                    3D
 Structure written by MMmdl.
154162  0  0  1  0            999 V2000
  -30.6632  -14.5512   20.5418 C   0  0  0  0  0  0
  -30.4357  -12.3450   19.4350 C   0  0  0  0  0  0
  -29.5027  -12.4882   18.2134 C   0  0  0  0  0  0
  -28.0241  -12.3366   18.6282 C   0  0  0  0  0  0
  -27.6546  -13.2048   19.8600 C   0  0  2  0  0  0
  -28.6996  -13.0342   20.9866 C   0  0  0  0  0  0
  -25.2572  -13.8154   20.5672 C   0  0  0  0  0  0
  -24.1824  -13.0438   20.9189 C   0  0  0  0  0  0
  -24.6369  -11.6898   20.8723 C   0  0  0  0  0  0
  -23.9028  -10.4289   21.0388 C   0  0  0  0  0  0
  -24.3581   -9.4216   21.9176 C   0  0  0  0  0  0
  -23.6275   -8.2242   22.0743 C   0  0  0  0  0  0
  -22.4260   -8.0264   21.3533 C   0  0  0  0  0  0
  -21.9880   -9.0236   20.4642 C   0  0  0  0  0  0
  -22.7190  -10.2132   20.3051 C   0  0  0  0  0  0
  -21.6856   -6.0715   22.5275 C   0  0  0  0  0  0
  -21.4012   -6.5622   23.8205 C   0  0  0  0  0  0
  -21.3663   -5.6775   24.9170 C   0  0  0  0  0  0
  -21.6041   -4.3043   24.7223 C   0  0  0  0  0  0
  -21.8824   -3.8130   23.4340 C   0  0  0  0  0  0
  -21.9190   -4.6942   22.3395 C   0  0  0  0  0  0
  -22.7852  -13.5243   21.1838 C   0  0  0  0  0  0
  -22.1663   -4.2122   21.0977 F   0  0  0  0  0  0
  -21.5637   -3.4532   25.7741 F   0  0  0  0  0  0
  -30.0209  -13.3536   20.4234 N   0  0  0  0  0  0
  -26.2984  -12.9310   20.3290 N   0  0  0  0  0  0
  -25.9293  -11.6475   20.5735 N   0  0  0  0  0  0
  -22.0469  -12.8269   22.0399 N   0  0  0  0  0  0
  -25.4294  -15.1874   20.4094 N   0  0  0  0  0  0
  -31.8300  -14.7141   20.1746 O   0  0  0  0  0  0
  -21.6627   -6.8857   21.4238 O   0  0  0  0  0  0
  -22.3545  -14.5543   20.6660 O   0  0  0  0  0  0
  -24.6183  -31.8652   23.2067 C   0  0  0  0  0  0
  -25.9059  -32.4809   23.8383 C   0  0  1  0  0  0
  -27.2301  -27.3942   20.1104 C   0  0  0  0  0  0
  -25.5900  -33.8605   24.2309 N   0  0  0  0  0  0
  -23.4081  -30.4877   21.5479 C   0  0  2  0  0  0
  -24.8555  -28.9451   20.1182 C   0  0  0  0  0  0
  -22.7428  -29.4649   22.4977 C   0  0  0  0  0  0
  -18.0276  -28.1370   22.8495 C   0  0  0  0  0  0
  -24.1485  -36.7309   23.2636 C   0  0  0  0  0  0
  -25.9410  -30.8174   21.3672 C   0  0  0  0  0  0
  -26.0179  -29.4477   20.7181 C   0  0  0  0  0  0
  -27.2108  -28.6803   20.7095 C   0  0  0  0  0  0
  -26.0541  -26.9191   19.4964 C   0  0  0  0  0  0
  -24.8707  -27.6825   19.5013 C   0  0  0  0  0  0
  -23.6192  -29.8168   20.1651 C   0  0  0  0  0  0
  -25.4101  -36.3101   24.0343 C   0  0  1  0  0  0
  -20.5871  -28.3669   23.1301 C   0  0  2  0  0  0
  -20.6767  -26.9400   22.5409 C   0  0  0  0  0  0
  -19.5749  -26.6380   21.5203 C   0  0  0  0  0  0
  -18.1926  -26.7922   22.1613 C   0  0  0  0  0  0
  -19.1525  -28.8834   23.2897 C   0  0  0  0  0  0
  -18.9453  -30.1439   23.8910 C   0  0  0  0  0  0
  -17.6454  -30.6581   24.0556 C   0  0  0  0  0  0
  -25.9037  -34.9467   23.5124 C   0  0  0  0  0  0
  -16.5346  -29.9081   23.6319 C   0  0  0  0  0  0
  -16.7262  -28.6489   23.0357 C   0  0  0  0  0  0
  -26.4476  -31.6602   25.0726 C   0  0  0  0  0  0
  -25.3734  -31.3724   26.1470 C   0  0  0  0  0  0
  -27.0318  -30.3041   24.6127 C   0  0  0  0  0  0
  -27.6060  -32.4327   25.7464 C   0  0  0  0  0  0
  -27.5598  -37.1773   24.8442 C   0  0  0  0  0  0
  -21.4149  -29.3035   22.3706 N   0  0  0  0  0  0
  -26.4276  -37.3800   23.9441 N   0  0  0  0  0  0
  -24.6739  -31.0728   22.0982 N   0  0  0  0  0  0
  -23.4179  -28.8200   23.3036 O   0  0  0  0  0  0
  -28.3753  -26.6181   20.0640 O   0  0  0  0  0  0
  -26.5605  -34.8928   22.4687 O   0  0  0  0  0  0
  -23.5362  -32.1411   23.7446 O   0  0  0  0  0  0
  -31.4328  -18.6884   22.3437 C   0  0  0  0  0  0
  -30.7631  -19.7176   21.6494 C   0  0  0  0  0  0
  -31.1702  -17.3317   22.0561 C   0  0  0  0  0  0
  -29.5338  -18.0294   20.3932 C   0  0  0  0  0  0
  -29.8180  -19.4056   20.6500 C   0  0  0  0  0  0
  -30.2122  -16.9799   21.0798 C   0  0  0  0  0  0
  -28.9054  -23.0309   20.1310 C   0  0  0  0  0  0
  -29.2001  -20.5322   19.7908 C   0  0  0  0  0  0
  -27.9045  -24.1140   20.6241 C   0  0  0  0  0  0
  -28.4618  -25.5293   21.0183 C   0  0  0  0  0  0
  -29.8633  -15.6012   20.8598 N   0  0  0  0  0  0
  -28.6824  -21.7390   20.4812 N   0  0  0  0  0  0
  -29.8291  -23.3516   19.3810 O   0  0  0  0  0  0
  -31.4772  -12.4645   19.1313 H   0  0  0  0  0  0
  -30.3616  -11.3445   19.8643 H   0  0  0  0  0  0
  -29.7591  -11.7416   17.4605 H   0  0  0  0  0  0
  -29.6566  -13.4618   17.7438 H   0  0  0  0  0  0
  -27.8567  -11.2845   18.8599 H   0  0  0  0  0  0
  -27.3684  -12.5694   17.7881 H   0  0  0  0  0  0
  -27.6818  -14.2409   19.5249 H   0  0  0  0  0  0
  -28.6936  -12.0090   21.3612 H   0  0  0  0  0  0
  -28.4538  -13.6636   21.8433 H   0  0  0  0  0  0
  -25.2724   -9.5718   22.4748 H   0  0  0  0  0  0
  -23.9987   -7.4642   22.7475 H   0  0  0  0  0  0
  -21.0801   -8.8752   19.8963 H   0  0  0  0  0  0
  -22.3629  -10.9664   19.6161 H   0  0  0  0  0  0
  -21.2007   -7.6131   23.9705 H   0  0  0  0  0  0
  -21.1484   -6.0504   25.9073 H   0  0  0  0  0  0
  -22.0600   -2.7588   23.2846 H   0  0  0  0  0  0
  -22.4050  -11.9947   22.4846 H   0  0  0  0  0  0
  -21.1094  -13.1342   22.2567 H   0  0  0  0  0  0
  -24.6608  -15.8406   20.5200 H   0  0  0  0  0  0
  -26.2728  -15.6285   20.0666 H   0  0  0  0  0  0
  -26.7126  -32.5510   23.1139 H   0  0  0  0  0  0
  -25.0049  -33.9758   25.0455 H   0  0  0  0  0  0
  -22.6988  -31.3057   21.4059 H   0  0  0  0  0  0
  -23.3765  -35.9616   23.3238 H   0  0  0  0  0  0
  -24.3601  -36.8984   22.2063 H   0  0  0  0  0  0
  -23.7196  -37.6480   23.6687 H   0  0  0  0  0  0
  -26.0605  -31.5805   20.5971 H   0  0  0  0  0  0
  -26.8258  -30.8700   21.9897 H   0  0  0  0  0  0
  -28.1103  -29.0689   21.1661 H   0  0  0  0  0  0
  -26.0527  -25.9597   19.0013 H   0  0  0  0  0  0
  -23.9806  -27.2955   19.0234 H   0  0  0  0  0  0
  -23.7274  -30.5877   19.4019 H   0  0  0  0  0  0
  -22.7434  -29.2364   19.8718 H   0  0  0  0  0  0
  -25.1262  -36.1949   25.0832 H   0  0  0  0  0  0
  -20.9965  -28.3237   24.1421 H   0  0  0  0  0  0
  -20.5655  -26.2278   23.3602 H   0  0  0  0  0  0
  -21.6641  -26.7433   22.1209 H   0  0  0  0  0  0
  -19.6911  -25.6291   21.1235 H   0  0  0  0  0  0
  -19.6695  -27.3186   20.6735 H   0  0  0  0  0  0
  -17.4199  -26.6672   21.4010 H   0  0  0  0  0  0
  -18.0330  -26.0054   22.8998 H   0  0  0  0  0  0
  -19.7928  -30.7245   24.2294 H   0  0  0  0  0  0
  -17.5009  -31.6268   24.5150 H   0  0  0  0  0  0
  -15.5346  -30.2985   23.7636 H   0  0  0  0  0  0
  -15.8664  -28.0803   22.7082 H   0  0  0  0  0  0
  -24.5882  -30.7104   25.7797 H   0  0  0  0  0  0
  -24.8955  -32.2890   26.4939 H   0  0  0  0  0  0
  -25.8073  -30.8859   27.0215 H   0  0  0  0  0  0
  -26.2870  -29.6777   24.1200 H   0  0  0  0  0  0
  -27.4102  -29.7304   25.4599 H   0  0  0  0  0  0
  -27.8700  -30.4358   23.9279 H   0  0  0  0  0  0
  -27.2695  -33.3622   26.2061 H   0  0  0  0  0  0
  -28.3839  -32.6891   25.0264 H   0  0  0  0  0  0
  -28.0761  -31.8441   26.5348 H   0  0  0  0  0  0
  -28.2534  -38.0155   24.7628 H   0  0  0  0  0  0
  -28.1180  -36.2698   24.6077 H   0  0  0  0  0  0
  -27.2352  -37.1189   25.8847 H   0  0  0  0  0  0
  -20.9319  -29.8746   21.6915 H   0  0  0  0  0  0
  -26.0161  -38.2860   24.1515 H   0  0  0  0  0  0
  -32.1620  -18.9431   23.1011 H   0  0  0  0  0  0
  -31.0023  -20.7519   21.8651 H   0  0  0  0  0  0
  -31.6955  -16.5650   22.6092 H   0  0  0  0  0  0
  -28.8014  -17.7763   19.6402 H   0  0  0  0  0  0
  -28.3794  -20.1190   19.2031 H   0  0  0  0  0  0
  -29.9575  -20.8220   19.0607 H   0  0  0  0  0  0
  -27.4040  -23.7024   21.5009 H   0  0  0  0  0  0
  -27.1228  -24.2122   19.8735 H   0  0  0  0  0  0
  -29.5137  -25.4288   21.2889 H   0  0  0  0  0  0
  -27.9734  -25.8446   21.9419 H   0  0  0  0  0  0
  -28.8819  -15.3798   20.9223 H   0  0  0  0  0  0
  -27.9251  -21.5722   21.1302 H   0  0  0  0  0  0
  1 25  1  0  0  0
  1 30  2  0  0  0
  1 81  1  0  0  0
  2  3  1  0  0  0
  2 25  1  0  0  0
  2 84  1  0  0  0
  2 85  1  0  0  0
  3  4  1  0  0  0
  3 86  1  0  0  0
  3 87  1  0  0  0
  4  5  1  0  0  0
  4 88  1  0  0  0
  4 89  1  0  0  0
  5  6  1  0  0  0
  5 26  1  0  0  0
  5 90  1  0  0  0
  6 25  1  0  0  0
  6 91  1  0  0  0
  6 92  1  0  0  0
  7  8  2  0  0  0
  7 26  1  0  0  0
  7 29  1  0  0  0
  8  9  1  0  0  0
  8 22  1  0  0  0
  9 10  1  0  0  0
  9 27  2  0  0  0
 10 11  2  0  0  0
 10 15  1  0  0  0
 11 12  1  0  0  0
 11 93  1  0  0  0
 12 13  2  0  0  0
 12 94  1  0  0  0
 13 14  1  0  0  0
 13 31  1  0  0  0
 14 15  2  0  0  0
 14 95  1  0  0  0
 15 96  1  0  0  0
 16 17  2  0  0  0
 16 21  1  0  0  0
 16 31  1  0  0  0
 17 18  1  0  0  0
 17 97  1  0  0  0
 18 19  2  0  0  0
 18 98  1  0  0  0
 19 20  1  0  0  0
 19 24  1  0  0  0
 20 21  2  0  0  0
 20 99  1  0  0  0
 21 23  1  0  0  0
 22 28  1  0  0  0
 22 32  2  0  0  0
 26 27  1  0  0  0
 28100  1  0  0  0
 28101  1  0  0  0
 29102  1  0  0  0
 29103  1  0  0  0
 33 34  1  0  0  0
 33 66  1  0  0  0
 33 70  2  0  0  0
 34 36  1  0  0  0
 34 59  1  0  0  0
 34104  1  0  0  0
 35 44  2  0  0  0
 35 45  1  0  0  0
 35 68  1  0  0  0
 36 56  1  0  0  0
 36105  1  0  0  0
 37 39  1  0  0  0
 37 47  1  0  0  0
 37 66  1  0  0  0
 37106  1  0  0  0
 38 43  2  0  0  0
 38 46  1  0  0  0
 38 47  1  0  0  0
 39 64  1  0  0  0
 39 67  2  0  0  0
 40 52  1  0  0  0
 40 53  2  0  0  0
 40 58  1  0  0  0
 41107  1  0  0  0
 41108  1  0  0  0
 41109  1  0  0  0
 41 48  1  0  0  0
 42 43  1  0  0  0
 42 66  1  0  0  0
 42110  1  0  0  0
 42111  1  0  0  0
 43 44  1  0  0  0
 44112  1  0  0  0
 45 46  2  0  0  0
 45113  1  0  0  0
 46114  1  0  0  0
 47115  1  0  0  0
 47116  1  0  0  0
 48 56  1  0  0  0
 48 65  1  0  0  0
 48117  1  0  0  0
 49 50  1  0  0  0
 49 53  1  0  0  0
 49 64  1  0  0  0
 49118  1  0  0  0
 50 51  1  0  0  0
 50119  1  0  0  0
 50120  1  0  0  0
 51 52  1  0  0  0
 51121  1  0  0  0
 51122  1  0  0  0
 52123  1  0  0  0
 52124  1  0  0  0
 53 54  1  0  0  0
 54 55  2  0  0  0
 54125  1  0  0  0
 55 57  1  0  0  0
 55126  1  0  0  0
 56 69  2  0  0  0
 57 58  2  0  0  0
 57127  1  0  0  0
 58128  1  0  0  0
 59 60  1  0  0  0
 59 61  1  0  0  0
 59 62  1  0  0  0
 60129  1  0  0  0
 60130  1  0  0  0
 60131  1  0  0  0
 61132  1  0  0  0
 61133  1  0  0  0
 61134  1  0  0  0
 62135  1  0  0  0
 62136  1  0  0  0
 62137  1  0  0  0
 63 65  1  0  0  0
 63138  1  0  0  0
 63139  1  0  0  0
 63140  1  0  0  0
 64141  1  0  0  0
 65142  1  0  0  0
 68 80  1  0  0  0
 71 72  2  0  0  0
 71 73  1  0  0  0
 71143  1  0  0  0
 72 75  1  0  0  0
 72144  1  0  0  0
 73 76  2  0  0  0
 73145  1  0  0  0
 74 75  2  0  0  0
 74 76  1  0  0  0
 74146  1  0  0  0
 75 78  1  0  0  0
 76 81  1  0  0  0
 77 79  1  0  0  0
 77 82  1  0  0  0
 77 83  2  0  0  0
 78 82  1  0  0  0
 78147  1  0  0  0
 78148  1  0  0  0
 79 80  1  0  0  0
 79149  1  0  0  0
 79150  1  0  0  0
 80151  1  0  0  0
 80152  1  0  0  0
 81153  1  0  0  0
 82154  1  0  0  0
M  ISO  4   1 100  68 101  80 101  81 100
M  END
> <chiral flag>
0

> <version>
0

> <s_m_source_file>
/data/baiqing/PycharmProjects/Reinvent-master-3.2/result/LINK_invent/BTK/process_docking_weight1_custom_product_contain_oxygen_bond_distance_aromatic_linkinvent_7_9_3/rearranged_h_0057.sdf

> <i_m_source_file_index>
37

> <r_mmod_Potential_Energy-OPLS-2005>
-92.7453842163086

> <r_mmod_Stretch_Energy-OPLS-2005>
48.0562591552734

> <r_mmod_Bend_Energy-OPLS-2005>
107.80362701416

> <r_mmod_Torsional_Energy-OPLS-2005>
253.35368347168

> <r_mmod_Improper_Torsional_Energy-OPLS-2005>
6.87163639068604

> <r_mmod_Van_der_Waal_Energy-OPLS-2005>
140.314483642578

> <r_mmod_Electrostatic_Energy-OPLS-2005>
-425.889587402344

> <r_mmod_Solvation_Energy-OPLS-2005>
-247.014984130859

> <b_mmod_Minimization_Converged-OPLS-2005>
0

> <r_mmod_RMS_Derivative-OPLS-2005>
1.8361736536026

$$$$
38
                    3D
 Structure written by MMmdl.
157165  0  0  1  0            999 V2000
  -30.5870  -14.7422   20.4734 C   0  0  0  0  0  0
  -30.4274  -12.4521   19.4955 C   0  0  0  0  0  0
  -29.5135  -12.5255   18.2510 C   0  0  0  0  0  0
  -28.0366  -12.3464   18.6505 C   0  0  0  0  0  0
  -27.6418  -13.2338   19.8617 C   0  0  2  0  0  0
  -28.6774  -13.1467   21.0060 C   0  0  0  0  0  0
  -25.2486  -13.8227   20.5692 C   0  0  0  0  0  0
  -24.1783  -13.0464   20.9196 C   0  0  0  0  0  0
  -24.6383  -11.6948   20.8755 C   0  0  0  0  0  0
  -23.9077  -10.4315   21.0400 C   0  0  0  0  0  0
  -24.3634   -9.4225   21.9172 C   0  0  0  0  0  0
  -23.6309   -8.2255   22.0738 C   0  0  0  0  0  0
  -22.4295   -8.0281   21.3533 C   0  0  0  0  0  0
  -21.9927   -9.0254   20.4636 C   0  0  0  0  0  0
  -22.7250  -10.2146   20.3047 C   0  0  0  0  0  0
  -21.6862   -6.0737   22.5282 C   0  0  0  0  0  0
  -21.4014   -6.5636   23.8216 C   0  0  0  0  0  0
  -21.3662   -5.6786   24.9172 C   0  0  0  0  0  0
  -21.6053   -4.3045   24.7225 C   0  0  0  0  0  0
  -21.8812   -3.8140   23.4335 C   0  0  0  0  0  0
  -21.9191   -4.6963   22.3403 C   0  0  0  0  0  0
  -22.7801  -13.5237   21.1855 C   0  0  0  0  0  0
  -22.1652   -4.2152   21.0979 F   0  0  0  0  0  0
  -21.5643   -3.4525   25.7730 F   0  0  0  0  0  0
  -29.9875  -13.5031   20.4464 N   0  0  0  0  0  0
  -26.2907  -12.9429   20.3287 N   0  0  0  0  0  0
  -25.9314  -11.6576   20.5769 N   0  0  0  0  0  0
  -22.0435  -12.8242   22.0418 N   0  0  0  0  0  0
  -25.4204  -15.1950   20.4165 N   0  0  0  0  0  0
  -31.7472  -14.8658   20.0643 O   0  0  0  0  0  0
  -21.6643   -6.8877   21.4244 O   0  0  0  0  0  0
  -22.3486  -14.5521   20.6675 O   0  0  0  0  0  0
  -24.6291  -31.8556   23.2010 C   0  0  0  0  0  0
  -25.9121  -32.4750   23.8335 C   0  0  1  0  0  0
  -27.2204  -27.2702   20.1376 C   0  0  0  0  0  0
  -25.5921  -33.8557   24.2253 N   0  0  0  0  0  0
  -23.4268  -30.4805   21.5411 C   0  0  2  0  0  0
  -24.8764  -28.9352   20.1078 C   0  0  0  0  0  0
  -22.7506  -29.4592   22.4883 C   0  0  0  0  0  0
  -18.0292  -28.1404   22.8486 C   0  0  0  0  0  0
  -24.1493  -36.7305   23.2631 C   0  0  0  0  0  0
  -25.9724  -30.7725   21.3837 C   0  0  0  0  0  0
  -26.0452  -29.3953   20.7292 C   0  0  0  0  0  0
  -27.2157  -28.5715   20.7432 C   0  0  0  0  0  0
  -26.0358  -26.8938   19.4614 C   0  0  0  0  0  0
  -24.8783  -27.6922   19.4612 C   0  0  0  0  0  0
  -23.6477  -29.8208   20.1548 C   0  0  0  0  0  0
  -25.4118  -36.3063   24.0318 C   0  0  1  0  0  0
  -20.5906  -28.3703   23.1283 C   0  0  2  0  0  0
  -20.6784  -26.9414   22.5426 C   0  0  0  0  0  0
  -19.5750  -26.6390   21.5241 C   0  0  0  0  0  0
  -18.1929  -26.7939   22.1642 C   0  0  0  0  0  0
  -19.1553  -28.8874   23.2877 C   0  0  0  0  0  0
  -18.9469  -30.1490   23.8865 C   0  0  0  0  0  0
  -17.6461  -30.6593   24.0576 C   0  0  0  0  0  0
  -25.9054  -34.9436   23.5085 C   0  0  0  0  0  0
  -16.5354  -29.9098   23.6329 C   0  0  0  0  0  0
  -16.7277  -28.6541   23.0305 C   0  0  0  0  0  0
  -26.4481  -31.6571   25.0731 C   0  0  0  0  0  0
  -25.3706  -31.3756   26.1464 C   0  0  0  0  0  0
  -27.0316  -30.2961   24.6249 C   0  0  0  0  0  0
  -27.6018  -32.4316   25.7521 C   0  0  0  0  0  0
  -27.5583  -37.1812   24.8455 C   0  0  0  0  0  0
  -21.4211  -29.3049   22.3664 N   0  0  0  0  0  0
  -26.4277  -37.3779   23.9408 N   0  0  0  0  0  0
  -24.6944  -31.0555   22.0967 N   0  0  0  0  0  0
  -23.4222  -28.8103   23.2945 O   0  0  0  0  0  0
  -28.3064  -26.3654   20.2269 O   0  0  0  0  0  0
  -26.5635  -34.8907   22.4659 O   0  0  0  0  0  0
  -23.5453  -32.1344   23.7340 O   0  0  0  0  0  0
  -29.7037  -17.1045   18.7056 C   0  0  0  0  0  0
  -29.5404  -18.4907   20.6872 C   0  0  0  0  0  0
  -29.5780  -18.2517   17.8933 C   0  0  0  0  0  0
  -29.5289  -19.5527   18.4762 C   0  0  0  0  0  0
  -29.7357  -17.1644   20.1096 C   0  0  0  0  0  0
  -29.4236  -19.7130   19.8946 C   0  0  0  0  0  0
  -28.5954  -22.1949   20.1055 C   0  0  0  0  0  0
  -29.6596  -20.7696   17.5578 C   0  0  0  0  0  0
  -28.9615  -23.6918   20.5487 C   0  0  0  0  0  0
  -28.0650  -24.9047   19.9571 C   0  0  0  0  0  0
  -29.5115  -18.0403   16.3781 C   0  0  0  0  0  0
  -29.3393  -21.0829   20.4871 N   0  0  0  0  0  0
  -29.8410  -15.8636   20.8262 N   0  0  0  0  0  0
  -27.5824  -22.0475   19.4188 O   0  0  0  0  0  0
  -29.2160  -16.7753   16.0712 F   0  0  0  0  0  0
  -28.5613  -18.8004   15.8319 F   0  0  0  0  0  0
  -30.6863  -18.3311   15.8186 F   0  0  0  0  0  0
  -31.4706  -12.5747   19.2016 H   0  0  0  0  0  0
  -30.3642  -11.4683   19.9645 H   0  0  0  0  0  0
  -29.8046  -11.7672   17.5233 H   0  0  0  0  0  0
  -29.6413  -13.4896   17.7565 H   0  0  0  0  0  0
  -27.8828  -11.2959   18.8989 H   0  0  0  0  0  0
  -27.3879  -12.5539   17.7974 H   0  0  0  0  0  0
  -27.6445  -14.2607   19.4958 H   0  0  0  0  0  0
  -28.7037  -12.1402   21.4269 H   0  0  0  0  0  0
  -28.4038  -13.8129   21.8263 H   0  0  0  0  0  0
  -25.2764   -9.5718   22.4753 H   0  0  0  0  0  0
  -24.0020   -7.4649   22.7464 H   0  0  0  0  0  0
  -21.0840   -8.8764   19.8954 H   0  0  0  0  0  0
  -22.3666  -10.9683   19.6155 H   0  0  0  0  0  0
  -21.1995   -7.6142   23.9726 H   0  0  0  0  0  0
  -21.1498   -6.0509   25.9086 H   0  0  0  0  0  0
  -22.0593   -2.7606   23.2838 H   0  0  0  0  0  0
  -22.4033  -11.9927   22.4869 H   0  0  0  0  0  0
  -21.1046  -13.1264   22.2580 H   0  0  0  0  0  0
  -24.6593  -15.8529   20.5354 H   0  0  0  0  0  0
  -26.2831  -15.6340   20.1198 H   0  0  0  0  0  0
  -26.7196  -32.5413   23.1092 H   0  0  0  0  0  0
  -25.0019  -33.9683   25.0361 H   0  0  0  0  0  0
  -22.7209  -31.3020   21.3965 H   0  0  0  0  0  0
  -23.3739  -35.9656   23.3274 H   0  0  0  0  0  0
  -24.3570  -36.8949   22.2046 H   0  0  0  0  0  0
  -23.7274  -37.6507   23.6677 H   0  0  0  0  0  0
  -26.1130  -31.5349   20.6162 H   0  0  0  0  0  0
  -26.8482  -30.8191   22.0193 H   0  0  0  0  0  0
  -28.0996  -28.9071   21.2674 H   0  0  0  0  0  0
  -25.9723  -25.9570   18.9302 H   0  0  0  0  0  0
  -23.9928  -27.3392   18.9504 H   0  0  0  0  0  0
  -23.7760  -30.5981   19.4004 H   0  0  0  0  0  0
  -22.7663  -29.2580   19.8397 H   0  0  0  0  0  0
  -25.1310  -36.1879   25.0812 H   0  0  0  0  0  0
  -21.0021  -28.3288   24.1397 H   0  0  0  0  0  0
  -20.5711  -26.2301   23.3632 H   0  0  0  0  0  0
  -21.6643  -26.7442   22.1202 H   0  0  0  0  0  0
  -19.6896  -25.6310   21.1251 H   0  0  0  0  0  0
  -19.6683  -27.3219   20.6790 H   0  0  0  0  0  0
  -17.4205  -26.6701   21.4036 H   0  0  0  0  0  0
  -18.0299  -26.0091   22.9042 H   0  0  0  0  0  0
  -19.7947  -30.7345   24.2172 H   0  0  0  0  0  0
  -17.5007  -31.6247   24.5222 H   0  0  0  0  0  0
  -15.5355  -30.2981   23.7683 H   0  0  0  0  0  0
  -15.8680  -28.0896   22.6941 H   0  0  0  0  0  0
  -24.5890  -30.7073   25.7838 H   0  0  0  0  0  0
  -24.8901  -32.2944   26.4832 H   0  0  0  0  0  0
  -25.8047  -30.9001   27.0265 H   0  0  0  0  0  0
  -26.2910  -29.6724   24.1237 H   0  0  0  0  0  0
  -27.3891  -29.7216   25.4800 H   0  0  0  0  0  0
  -27.8834  -30.4170   23.9559 H   0  0  0  0  0  0
  -27.2581  -33.3602   26.2089 H   0  0  0  0  0  0
  -28.3855  -32.6890   25.0387 H   0  0  0  0  0  0
  -28.0642  -31.8440   26.5457 H   0  0  0  0  0  0
  -28.2585  -38.0120   24.7493 H   0  0  0  0  0  0
  -28.1086  -36.2648   24.6279 H   0  0  0  0  0  0
  -27.2297  -37.1470   25.8851 H   0  0  0  0  0  0
  -20.9372  -29.8792   21.6908 H   0  0  0  0  0  0
  -26.0143  -38.2841   24.1411 H   0  0  0  0  0  0
  -29.7689  -16.1411   18.2227 H   0  0  0  0  0  0
  -29.4950  -18.5794   21.7635 H   0  0  0  0  0  0
  -30.1675  -20.5446   16.6238 H   0  0  0  0  0  0
  -30.2623  -21.5511   18.0204 H   0  0  0  0  0  0
  -28.6834  -21.1789   17.3020 H   0  0  0  0  0  0
  -30.0044  -23.8634   20.2794 H   0  0  0  0  0  0
  -28.9233  -23.7320   21.6370 H   0  0  0  0  0  0
  -27.0527  -24.6620   20.2800 H   0  0  0  0  0  0
  -28.0641  -24.8043   18.8712 H   0  0  0  0  0  0
  -29.9727  -21.2526   21.2569 H   0  0  0  0  0  0
  -29.0802  -15.6743   21.4636 H   0  0  0  0  0  0
  1 25  1  0  0  0
  1 30  2  0  0  0
  1 83  1  0  0  0
  2  3  1  0  0  0
  2 25  1  0  0  0
  2 88  1  0  0  0
  2 89  1  0  0  0
  3  4  1  0  0  0
  3 90  1  0  0  0
  3 91  1  0  0  0
  4  5  1  0  0  0
  4 92  1  0  0  0
  4 93  1  0  0  0
  5  6  1  0  0  0
  5 26  1  0  0  0
  5 94  1  0  0  0
  6 25  1  0  0  0
  6 95  1  0  0  0
  6 96  1  0  0  0
  7  8  2  0  0  0
  7 26  1  0  0  0
  7 29  1  0  0  0
  8  9  1  0  0  0
  8 22  1  0  0  0
  9 10  1  0  0  0
  9 27  2  0  0  0
 10 11  2  0  0  0
 10 15  1  0  0  0
 11 12  1  0  0  0
 11 97  1  0  0  0
 12 13  2  0  0  0
 12 98  1  0  0  0
 13 14  1  0  0  0
 13 31  1  0  0  0
 14 15  2  0  0  0
 14 99  1  0  0  0
 15100  1  0  0  0
 16 17  2  0  0  0
 16 21  1  0  0  0
 16 31  1  0  0  0
 17 18  1  0  0  0
 17101  1  0  0  0
 18 19  2  0  0  0
 18102  1  0  0  0
 19 20  1  0  0  0
 19 24  1  0  0  0
 20 21  2  0  0  0
 20103  1  0  0  0
 21 23  1  0  0  0
 22 28  1  0  0  0
 22 32  2  0  0  0
 26 27  1  0  0  0
 28104  1  0  0  0
 28105  1  0  0  0
 29106  1  0  0  0
 29107  1  0  0  0
 33 34  1  0  0  0
 33 66  1  0  0  0
 33 70  2  0  0  0
 34 36  1  0  0  0
 34 59  1  0  0  0
 34108  1  0  0  0
 35 44  2  0  0  0
 35 45  1  0  0  0
 35 68  1  0  0  0
 36 56  1  0  0  0
 36109  1  0  0  0
 37 39  1  0  0  0
 37 47  1  0  0  0
 37 66  1  0  0  0
 37110  1  0  0  0
 38 43  2  0  0  0
 38 46  1  0  0  0
 38 47  1  0  0  0
 39 64  1  0  0  0
 39 67  2  0  0  0
 40 52  1  0  0  0
 40 53  2  0  0  0
 40 58  1  0  0  0
 41111  1  0  0  0
 41112  1  0  0  0
 41113  1  0  0  0
 41 48  1  0  0  0
 42 43  1  0  0  0
 42 66  1  0  0  0
 42114  1  0  0  0
 42115  1  0  0  0
 43 44  1  0  0  0
 44116  1  0  0  0
 45 46  2  0  0  0
 45117  1  0  0  0
 46118  1  0  0  0
 47119  1  0  0  0
 47120  1  0  0  0
 48 56  1  0  0  0
 48 65  1  0  0  0
 48121  1  0  0  0
 49 50  1  0  0  0
 49 53  1  0  0  0
 49 64  1  0  0  0
 49122  1  0  0  0
 50 51  1  0  0  0
 50123  1  0  0  0
 50124  1  0  0  0
 51 52  1  0  0  0
 51125  1  0  0  0
 51126  1  0  0  0
 52127  1  0  0  0
 52128  1  0  0  0
 53 54  1  0  0  0
 54 55  2  0  0  0
 54129  1  0  0  0
 55 57  1  0  0  0
 55130  1  0  0  0
 56 69  2  0  0  0
 57 58  2  0  0  0
 57131  1  0  0  0
 58132  1  0  0  0
 59 60  1  0  0  0
 59 61  1  0  0  0
 59 62  1  0  0  0
 60133  1  0  0  0
 60134  1  0  0  0
 60135  1  0  0  0
 61136  1  0  0  0
 61137  1  0  0  0
 61138  1  0  0  0
 62139  1  0  0  0
 62140  1  0  0  0
 62141  1  0  0  0
 63 65  1  0  0  0
 63142  1  0  0  0
 63143  1  0  0  0
 63144  1  0  0  0
 64145  1  0  0  0
 65146  1  0  0  0
 68 80  1  0  0  0
 71 73  2  0  0  0
 71 75  1  0  0  0
 71147  1  0  0  0
 72 75  2  0  0  0
 72 76  1  0  0  0
 72148  1  0  0  0
 73 74  1  0  0  0
 73 81  1  0  0  0
 74 76  2  0  0  0
 74 78  1  0  0  0
 75 83  1  0  0  0
 76 82  1  0  0  0
 77 79  1  0  0  0
 77 82  1  0  0  0
 77 84  2  0  0  0
 78149  1  0  0  0
 78150  1  0  0  0
 78151  1  0  0  0
 79 80  1  0  0  0
 79152  1  0  0  0
 79153  1  0  0  0
 80154  1  0  0  0
 80155  1  0  0  0
 81 85  1  0  0  0
 81 86  1  0  0  0
 81 87  1  0  0  0
 82156  1  0  0  0
 83157  1  0  0  0
M  ISO  4   1 100  68 101  80 101  83 100
M  END
> <chiral flag>
0

> <version>
0

> <s_m_source_file>
/data/baiqing/PycharmProjects/Reinvent-master-3.2/result/LINK_invent/BTK/process_docking_weight1_custom_product_contain_oxygen_bond_distance_aromatic_linkinvent_7_9_3/rearranged_h_0057.sdf

> <i_m_source_file_index>
38

> <r_mmod_Potential_Energy-OPLS-2005>
198.206893920898

> <r_mmod_Stretch_Energy-OPLS-2005>
128.771118164062

> <r_mmod_Bend_Energy-OPLS-2005>
157.978469848633

> <r_mmod_Torsional_Energy-OPLS-2005>
272.837707519531

> <r_mmod_Improper_Torsional_Energy-OPLS-2005>
5.27803516387939

> <r_mmod_Van_der_Waal_Energy-OPLS-2005>
158.309509277344

> <r_mmod_Electrostatic_Energy-OPLS-2005>
-378.026306152344

> <r_mmod_Solvation_Energy-OPLS-2005>
-231.862731933594

> <b_mmod_Minimization_Converged-OPLS-2005>
0

> <r_mmod_RMS_Derivative-OPLS-2005>
2.99827837944031

$$$$
39
                    3D
 Structure written by MMmdl.
165174  0  0  1  0            999 V2000
  -30.6516  -14.5715   20.6118 C   0  0  0  0  0  0
  -30.4476  -12.3798   19.4462 C   0  0  0  0  0  0
  -29.5192  -12.5392   18.2210 C   0  0  0  0  0  0
  -28.0393  -12.3765   18.6240 C   0  0  0  0  0  0
  -27.6653  -13.2136   19.8754 C   0  0  2  0  0  0
  -28.7027  -13.0058   21.0027 C   0  0  0  0  0  0
  -25.2547  -13.8077   20.5594 C   0  0  0  0  0  0
  -24.1828  -13.0386   20.9159 C   0  0  0  0  0  0
  -24.6407  -11.6865   20.8707 C   0  0  0  0  0  0
  -23.9059  -10.4280   21.0387 C   0  0  0  0  0  0
  -24.3597   -9.4204   21.9179 C   0  0  0  0  0  0
  -23.6268   -8.2250   22.0773 C   0  0  0  0  0  0
  -22.4249   -8.0281   21.3559 C   0  0  0  0  0  0
  -21.9879   -9.0256   20.4665 C   0  0  0  0  0  0
  -22.7224  -10.2124   20.3051 C   0  0  0  0  0  0
  -21.6853   -6.0718   22.5279 C   0  0  0  0  0  0
  -21.4019   -6.5612   23.8215 C   0  0  0  0  0  0
  -21.3668   -5.6774   24.9181 C   0  0  0  0  0  0
  -21.6037   -4.3040   24.7230 C   0  0  0  0  0  0
  -21.8818   -3.8131   23.4362 C   0  0  0  0  0  0
  -21.9201   -4.6950   22.3410 C   0  0  0  0  0  0
  -22.7860  -13.5232   21.1815 C   0  0  0  0  0  0
  -22.1670   -4.2126   21.0986 F   0  0  0  0  0  0
  -21.5634   -3.4529   25.7762 F   0  0  0  0  0  0
  -30.0365  -13.3554   20.4744 N   0  0  0  0  0  0
  -26.3035  -12.9306   20.3310 N   0  0  0  0  0  0
  -25.9336  -11.6456   20.5696 N   0  0  0  0  0  0
  -22.0462  -12.8271   22.0380 N   0  0  0  0  0  0
  -25.4149  -15.1748   20.3890 N   0  0  0  0  0  0
  -31.7192  -14.8350   20.0499 O   0  0  0  0  0  0
  -21.6637   -6.8854   21.4241 O   0  0  0  0  0  0
  -22.3568  -14.5546   20.6665 O   0  0  0  0  0  0
  -24.6209  -31.8647   23.2042 C   0  0  0  0  0  0
  -25.9071  -32.4821   23.8364 C   0  0  1  0  0  0
  -27.2415  -27.3748   20.1291 C   0  0  0  0  0  0
  -25.5904  -33.8616   24.2292 N   0  0  0  0  0  0
  -23.4126  -30.4840   21.5462 C   0  0  2  0  0  0
  -24.8640  -28.9409   20.1182 C   0  0  0  0  0  0
  -22.7449  -29.4635   22.4974 C   0  0  0  0  0  0
  -18.0268  -28.1411   22.8482 C   0  0  0  0  0  0
  -24.1474  -36.7284   23.2635 C   0  0  0  0  0  0
  -25.9465  -30.8149   21.3661 C   0  0  0  0  0  0
  -26.0275  -29.4420   20.7168 C   0  0  0  0  0  0
  -27.2196  -28.6709   20.7119 C   0  0  0  0  0  0
  -26.0613  -26.9066   19.5108 C   0  0  0  0  0  0
  -24.8797  -27.6747   19.5082 C   0  0  0  0  0  0
  -23.6268  -29.8120   20.1629 C   0  0  0  0  0  0
  -25.4110  -36.3113   24.0328 C   0  0  1  0  0  0
  -20.5864  -28.3688   23.1310 C   0  0  2  0  0  0
  -20.6753  -26.9421   22.5420 C   0  0  0  0  0  0
  -19.5728  -26.6411   21.5210 C   0  0  0  0  0  0
  -18.1906  -26.7954   22.1619 C   0  0  0  0  0  0
  -19.1527  -28.8865   23.2884 C   0  0  0  0  0  0
  -18.9462  -30.1458   23.8907 C   0  0  0  0  0  0
  -17.6472  -30.6604   24.0579 C   0  0  0  0  0  0
  -25.9046  -34.9478   23.5114 C   0  0  0  0  0  0
  -16.5359  -29.9108   23.6338 C   0  0  0  0  0  0
  -16.7260  -28.6529   23.0349 C   0  0  0  0  0  0
  -26.4471  -31.6634   25.0721 C   0  0  0  0  0  0
  -25.3719  -31.3784   26.1468 C   0  0  0  0  0  0
  -27.0324  -30.3078   24.6148 C   0  0  0  0  0  0
  -27.6051  -32.4359   25.7473 C   0  0  0  0  0  0
  -27.5576  -37.1798   24.8464 C   0  0  0  0  0  0
  -21.4169  -29.3047   22.3726 N   0  0  0  0  0  0
  -26.4290  -37.3806   23.9408 N   0  0  0  0  0  0
  -24.6782  -31.0705   22.0959 N   0  0  0  0  0  0
  -23.4196  -28.8178   23.3047 O   0  0  0  0  0  0
  -28.3874  -26.5857   20.1285 O   0  0  0  0  0  0
  -26.5610  -34.8941   22.4679 O   0  0  0  0  0  0
  -23.5382  -32.1413   23.7392 O   0  0  0  0  0  0
  -28.3463  -19.3804   20.9473 C   0  0  0  0  0  0
  -28.1508  -16.9818   21.3236 C   0  0  0  0  0  0
  -30.3452  -17.9668   20.9563 C   0  0  0  0  0  0
  -27.5471  -18.2492   21.1751 C   0  0  0  0  0  0
  -29.7458  -19.2736   20.8551 C   0  0  0  0  0  0
  -29.5453  -16.7992   21.1792 C   0  0  0  0  0  0
  -29.6372  -22.9503   21.0691 C   0  0  0  0  0  0
  -25.2800  -18.4708   20.2831 C   0  0  0  0  0  0
  -26.1041  -18.4404   21.3439 C   0  0  0  0  0  0
  -29.0432  -23.5404   18.8468 C   0  0  0  0  0  0
  -29.7104  -22.1486   18.9040 C   0  0  0  0  0  0
  -29.3479  -24.2020   20.1971 C   0  0  1  0  0  0
  -25.6102  -18.6463   22.7614 C   0  0  0  0  0  0
  -30.5791  -20.5766   20.7320 C   0  0  0  0  0  0
  -28.2736  -25.2415   20.6940 C   0  0  0  0  0  0
  -29.8955  -21.8480   20.3196 N   0  0  0  0  0  0
  -30.0222  -15.4527   21.4328 N   0  0  0  0  0  0
  -29.6970  -22.9992   22.3006 O   0  0  0  0  0  0
  -31.4917  -12.5047   19.1544 H   0  0  0  0  0  0
  -30.3693  -11.3696   19.8471 H   0  0  0  0  0  0
  -29.7822  -11.8097   17.4525 H   0  0  0  0  0  0
  -29.6739  -13.5196   17.7686 H   0  0  0  0  0  0
  -27.8600  -11.3199   18.8182 H   0  0  0  0  0  0
  -27.3955  -12.6489   17.7870 H   0  0  0  0  0  0
  -27.7027  -14.2617   19.5773 H   0  0  0  0  0  0
  -28.7011  -11.9655   21.3304 H   0  0  0  0  0  0
  -28.4246  -13.5823   21.8855 H   0  0  0  0  0  0
  -25.2740   -9.5696   22.4762 H   0  0  0  0  0  0
  -23.9989   -7.4640   22.7487 H   0  0  0  0  0  0
  -21.0817   -8.8763   19.8970 H   0  0  0  0  0  0
  -22.3671  -10.9657   19.6163 H   0  0  0  0  0  0
  -21.1999   -7.6121   23.9709 H   0  0  0  0  0  0
  -21.1490   -6.0507   25.9077 H   0  0  0  0  0  0
  -22.0584   -2.7597   23.2875 H   0  0  0  0  0  0
  -22.4035  -11.9957   22.4840 H   0  0  0  0  0  0
  -21.1095  -13.1360   22.2537 H   0  0  0  0  0  0
  -24.6476  -15.8253   20.5137 H   0  0  0  0  0  0
  -26.2510  -15.6239   20.0427 H   0  0  0  0  0  0
  -26.7151  -32.5510   23.1133 H   0  0  0  0  0  0
  -25.0081  -33.9764   25.0457 H   0  0  0  0  0  0
  -22.7025  -31.3004   21.4005 H   0  0  0  0  0  0
  -23.3758  -35.9594   23.3323 H   0  0  0  0  0  0
  -24.3567  -36.8887   22.2049 H   0  0  0  0  0  0
  -23.7216  -37.6481   23.6647 H   0  0  0  0  0  0
  -26.0651  -31.5758   20.5937 H   0  0  0  0  0  0
  -26.8310  -30.8726   21.9887 H   0  0  0  0  0  0
  -28.1146  -29.0566   21.1792 H   0  0  0  0  0  0
  -26.0503  -25.9401   19.0291 H   0  0  0  0  0  0
  -23.9896  -27.2814   19.0364 H   0  0  0  0  0  0
  -23.7413  -30.5824   19.4003 H   0  0  0  0  0  0
  -22.7508  -29.2342   19.8639 H   0  0  0  0  0  0
  -25.1298  -36.1975   25.0823 H   0  0  0  0  0  0
  -20.9932  -28.3260   24.1439 H   0  0  0  0  0  0
  -20.5660  -26.2290   23.3605 H   0  0  0  0  0  0
  -21.6624  -26.7459   22.1226 H   0  0  0  0  0  0
  -19.6881  -25.6329   21.1213 H   0  0  0  0  0  0
  -19.6673  -27.3240   20.6755 H   0  0  0  0  0  0
  -17.4177  -26.6700   21.4022 H   0  0  0  0  0  0
  -18.0299  -26.0112   22.9026 H   0  0  0  0  0  0
  -19.7950  -30.7254   24.2294 H   0  0  0  0  0  0
  -17.5042  -31.6284   24.5187 H   0  0  0  0  0  0
  -15.5364  -30.3022   23.7671 H   0  0  0  0  0  0
  -15.8647  -28.0854   22.7077 H   0  0  0  0  0  0
  -24.5841  -30.7189   25.7806 H   0  0  0  0  0  0
  -24.8952  -32.2964   26.4920 H   0  0  0  0  0  0
  -25.8043  -30.8933   27.0228 H   0  0  0  0  0  0
  -26.2897  -29.6827   24.1181 H   0  0  0  0  0  0
  -27.4073  -29.7352   25.4643 H   0  0  0  0  0  0
  -27.8732  -30.4404   23.9332 H   0  0  0  0  0  0
  -27.2686  -33.3656   26.2070 H   0  0  0  0  0  0
  -28.3834  -32.6939   25.0277 H   0  0  0  0  0  0
  -28.0745  -31.8473   26.5367 H   0  0  0  0  0  0
  -28.2621  -38.0067   24.7533 H   0  0  0  0  0  0
  -28.1047  -36.2618   24.6282 H   0  0  0  0  0  0
  -27.2287  -37.1453   25.8860 H   0  0  0  0  0  0
  -20.9344  -29.8793   21.6964 H   0  0  0  0  0  0
  -26.0177  -38.2874   24.1444 H   0  0  0  0  0  0
  -27.8642  -20.3463   20.8923 H   0  0  0  0  0  0
  -27.5238  -16.1403   21.5754 H   0  0  0  0  0  0
  -31.4213  -17.8708   20.9181 H   0  0  0  0  0  0
  -25.6560  -18.3343   19.2786 H   0  0  0  0  0  0
  -24.2182  -18.6351   20.3956 H   0  0  0  0  0  0
  -27.9650  -23.4282   18.7222 H   0  0  0  0  0  0
  -29.4070  -24.1354   18.0097 H   0  0  0  0  0  0
  -30.6846  -22.1710   18.4133 H   0  0  0  0  0  0
  -29.1036  -21.3875   18.4112 H   0  0  0  0  0  0
  -30.3061  -24.7200   20.1315 H   0  0  0  0  0  0
  -25.8957  -17.8038   23.3926 H   0  0  0  0  0  0
  -24.5257  -18.7457   22.7978 H   0  0  0  0  0  0
  -26.0433  -19.5560   23.1802 H   0  0  0  0  0  0
  -31.3938  -20.3853   20.0335 H   0  0  0  0  0  0
  -31.0628  -20.7417   21.6960 H   0  0  0  0  0  0
  -28.3654  -25.3581   21.7755 H   0  0  0  0  0  0
  -27.2821  -24.8152   20.5395 H   0  0  0  0  0  0
  -29.3725  -14.9318   22.0015 H   0  0  0  0  0  0
  1 25  1  0  0  0
  1 30  2  0  0  0
  1 87  1  0  0  0
  2  3  1  0  0  0
  2 25  1  0  0  0
  2 89  1  0  0  0
  2 90  1  0  0  0
  3  4  1  0  0  0
  3 91  1  0  0  0
  3 92  1  0  0  0
  4  5  1  0  0  0
  4 93  1  0  0  0
  4 94  1  0  0  0
  5  6  1  0  0  0
  5 26  1  0  0  0
  5 95  1  0  0  0
  6 25  1  0  0  0
  6 96  1  0  0  0
  6 97  1  0  0  0
  7  8  2  0  0  0
  7 26  1  0  0  0
  7 29  1  0  0  0
  8  9  1  0  0  0
  8 22  1  0  0  0
  9 10  1  0  0  0
  9 27  2  0  0  0
 10 11  2  0  0  0
 10 15  1  0  0  0
 11 12  1  0  0  0
 11 98  1  0  0  0
 12 13  2  0  0  0
 12 99  1  0  0  0
 13 14  1  0  0  0
 13 31  1  0  0  0
 14 15  2  0  0  0
 14100  1  0  0  0
 15101  1  0  0  0
 16 17  2  0  0  0
 16 21  1  0  0  0
 16 31  1  0  0  0
 17 18  1  0  0  0
 17102  1  0  0  0
 18 19  2  0  0  0
 18103  1  0  0  0
 19 20  1  0  0  0
 19 24  1  0  0  0
 20 21  2  0  0  0
 20104  1  0  0  0
 21 23  1  0  0  0
 22 28  1  0  0  0
 22 32  2  0  0  0
 26 27  1  0  0  0
 28105  1  0  0  0
 28106  1  0  0  0
 29107  1  0  0  0
 29108  1  0  0  0
 33 34  1  0  0  0
 33 66  1  0  0  0
 33 70  2  0  0  0
 34 36  1  0  0  0
 34 59  1  0  0  0
 34109  1  0  0  0
 35 44  2  0  0  0
 35 45  1  0  0  0
 35 68  1  0  0  0
 36 56  1  0  0  0
 36110  1  0  0  0
 37 39  1  0  0  0
 37 47  1  0  0  0
 37 66  1  0  0  0
 37111  1  0  0  0
 38 43  2  0  0  0
 38 46  1  0  0  0
 38 47  1  0  0  0
 39 64  1  0  0  0
 39 67  2  0  0  0
 40 52  1  0  0  0
 40 53  2  0  0  0
 40 58  1  0  0  0
 41112  1  0  0  0
 41113  1  0  0  0
 41114  1  0  0  0
 41 48  1  0  0  0
 42 43  1  0  0  0
 42 66  1  0  0  0
 42115  1  0  0  0
 42116  1  0  0  0
 43 44  1  0  0  0
 44117  1  0  0  0
 45 46  2  0  0  0
 45118  1  0  0  0
 46119  1  0  0  0
 47120  1  0  0  0
 47121  1  0  0  0
 48 56  1  0  0  0
 48 65  1  0  0  0
 48122  1  0  0  0
 49 50  1  0  0  0
 49 53  1  0  0  0
 49 64  1  0  0  0
 49123  1  0  0  0
 50 51  1  0  0  0
 50124  1  0  0  0
 50125  1  0  0  0
 51 52  1  0  0  0
 51126  1  0  0  0
 51127  1  0  0  0
 52128  1  0  0  0
 52129  1  0  0  0
 53 54  1  0  0  0
 54 55  2  0  0  0
 54130  1  0  0  0
 55 57  1  0  0  0
 55131  1  0  0  0
 56 69  2  0  0  0
 57 58  2  0  0  0
 57132  1  0  0  0
 58133  1  0  0  0
 59 60  1  0  0  0
 59 61  1  0  0  0
 59 62  1  0  0  0
 60134  1  0  0  0
 60135  1  0  0  0
 60136  1  0  0  0
 61137  1  0  0  0
 61138  1  0  0  0
 61139  1  0  0  0
 62140  1  0  0  0
 62141  1  0  0  0
 62142  1  0  0  0
 63 65  1  0  0  0
 63143  1  0  0  0
 63144  1  0  0  0
 63145  1  0  0  0
 64146  1  0  0  0
 65147  1  0  0  0
 68 85  1  0  0  0
 71 74  2  0  0  0
 71 75  1  0  0  0
 71148  1  0  0  0
 72 74  1  0  0  0
 72 76  2  0  0  0
 72149  1  0  0  0
 73 75  2  0  0  0
 73 76  1  0  0  0
 73150  1  0  0  0
 74 79  1  0  0  0
 75 84  1  0  0  0
 76 87  1  0  0  0
 77 82  1  0  0  0
 77 86  1  0  0  0
 77 88  2  0  0  0
 78 79  2  0  0  0
 78151  1  0  0  0
 78152  1  0  0  0
 79 83  1  0  0  0
 80 81  1  0  0  0
 80 82  1  0  0  0
 80153  1  0  0  0
 80154  1  0  0  0
 81 86  1  0  0  0
 81155  1  0  0  0
 81156  1  0  0  0
 82 85  1  0  0  0
 82157  1  0  0  0
 83158  1  0  0  0
 83159  1  0  0  0
 83160  1  0  0  0
 84 86  1  0  0  0
 84161  1  0  0  0
 84162  1  0  0  0
 85163  1  0  0  0
 85164  1  0  0  0
 87165  1  0  0  0
M  ISO  4   1 100  68 101  85 101  87 100
M  END
> <chiral flag>
0

> <version>
0

> <s_m_source_file>
/data/baiqing/PycharmProjects/Reinvent-master-3.2/result/LINK_invent/BTK/process_docking_weight1_custom_product_contain_oxygen_bond_distance_aromatic_linkinvent_7_9_3/rearranged_h_0057.sdf

> <i_m_source_file_index>
39

> <r_mmod_Potential_Energy-OPLS-2005>
67.3695678710938

> <r_mmod_Stretch_Energy-OPLS-2005>
59.7316741943359

> <r_mmod_Bend_Energy-OPLS-2005>
152.812637329102

> <r_mmod_Torsional_Energy-OPLS-2005>
299.759704589844

> <r_mmod_Improper_Torsional_Energy-OPLS-2005>
7.60175132751465

> <r_mmod_Van_der_Waal_Energy-OPLS-2005>
126.038200378418

> <r_mmod_Electrostatic_Energy-OPLS-2005>
-389.641967773438

> <r_mmod_Solvation_Energy-OPLS-2005>
-217.071060180664

> <b_mmod_Minimization_Converged-OPLS-2005>
0

> <r_mmod_RMS_Derivative-OPLS-2005>
2.77044630050659

$$$$
40
                    3D
 Structure written by MMmdl.
161169  0  0  1  0            999 V2000
  -30.7393  -14.4691   20.5887 C   0  0  0  0  0  0
  -30.4011  -12.3079   19.4309 C   0  0  0  0  0  0
  -29.4912  -12.5017   18.2058 C   0  0  0  0  0  0
  -28.0112  -12.3746   18.6123 C   0  0  0  0  0  0
  -27.6578  -13.2146   19.8704 C   0  0  2  0  0  0
  -28.6968  -13.0290   20.9971 C   0  0  0  0  0  0
  -25.2568  -13.8154   20.5696 C   0  0  0  0  0  0
  -24.1823  -13.0411   20.9180 C   0  0  0  0  0  0
  -24.6410  -11.6903   20.8755 C   0  0  0  0  0  0
  -23.9079  -10.4299   21.0381 C   0  0  0  0  0  0
  -24.3611   -9.4247   21.9195 C   0  0  0  0  0  0
  -23.6310   -8.2249   22.0763 C   0  0  0  0  0  0
  -22.4285   -8.0289   21.3553 C   0  0  0  0  0  0
  -21.9921   -9.0254   20.4646 C   0  0  0  0  0  0
  -22.7212  -10.2156   20.3081 C   0  0  0  0  0  0
  -21.6884   -6.0751   22.5273 C   0  0  0  0  0  0
  -21.4011   -6.5648   23.8206 C   0  0  0  0  0  0
  -21.3678   -5.6798   24.9170 C   0  0  0  0  0  0
  -21.6055   -4.3060   24.7208 C   0  0  0  0  0  0
  -21.8821   -3.8156   23.4335 C   0  0  0  0  0  0
  -21.9188   -4.6979   22.3389 C   0  0  0  0  0  0
  -22.7883  -13.5261   21.1822 C   0  0  0  0  0  0
  -22.1670   -4.2164   21.0976 F   0  0  0  0  0  0
  -21.5629   -3.4550   25.7736 F   0  0  0  0  0  0
  -30.0232  -13.3197   20.4321 N   0  0  0  0  0  0
  -26.3021  -12.9324   20.3362 N   0  0  0  0  0  0
  -25.9351  -11.6482   20.5737 N   0  0  0  0  0  0
  -22.0478  -12.8293   22.0383 N   0  0  0  0  0  0
  -25.4233  -15.1865   20.4072 N   0  0  0  0  0  0
  -31.8540  -14.6218   20.0858 O   0  0  0  0  0  0
  -21.6656   -6.8881   21.4241 O   0  0  0  0  0  0
  -22.3579  -14.5551   20.6663 O   0  0  0  0  0  0
  -24.6180  -31.8675   23.2065 C   0  0  0  0  0  0
  -25.9074  -32.4807   23.8352 C   0  0  1  0  0  0
  -27.2140  -27.4166   20.0617 C   0  0  0  0  0  0
  -25.5952  -33.8597   24.2296 N   0  0  0  0  0  0
  -23.4010  -30.5013   21.5509 C   0  0  2  0  0  0
  -24.8341  -28.9639   20.1130 C   0  0  0  0  0  0
  -22.7396  -29.4728   22.4952 C   0  0  0  0  0  0
  -18.0293  -28.1400   22.8496 C   0  0  0  0  0  0
  -24.1526  -36.7327   23.2636 C   0  0  0  0  0  0
  -25.9332  -30.8244   21.3610 C   0  0  0  0  0  0
  -26.0032  -29.4603   20.7020 C   0  0  0  0  0  0
  -27.1955  -28.6936   20.6745 C   0  0  0  0  0  0
  -26.0096  -26.9255   19.5059 C   0  0  0  0  0  0
  -24.8346  -27.6909   19.5223 C   0  0  0  0  0  0
  -23.6016  -29.8392   20.1636 C   0  0  0  0  0  0
  -25.4133  -36.3092   24.0328 C   0  0  1  0  0  0
  -20.5877  -28.3693   23.1289 C   0  0  2  0  0  0
  -20.6774  -26.9429   22.5394 C   0  0  0  0  0  0
  -19.5762  -26.6408   21.5191 C   0  0  0  0  0  0
  -18.1949  -26.7951   22.1613 C   0  0  0  0  0  0
  -19.1542  -28.8845   23.2915 C   0  0  0  0  0  0
  -18.9474  -30.1431   23.8946 C   0  0  0  0  0  0
  -17.6473  -30.6578   24.0549 C   0  0  0  0  0  0
  -25.9055  -34.9467   23.5115 C   0  0  0  0  0  0
  -16.5364  -29.9084   23.6316 C   0  0  0  0  0  0
  -16.7288  -28.6509   23.0344 C   0  0  0  0  0  0
  -26.4455  -31.6591   25.0715 C   0  0  0  0  0  0
  -25.3685  -31.3725   26.1450 C   0  0  0  0  0  0
  -27.0270  -30.3018   24.6095 C   0  0  0  0  0  0
  -27.6064  -32.4299   25.7475 C   0  0  0  0  0  0
  -27.5593  -37.1826   24.8448 C   0  0  0  0  0  0
  -21.4124  -29.3066   22.3675 N   0  0  0  0  0  0
  -26.4294  -37.3785   23.9412 N   0  0  0  0  0  0
  -24.6691  -31.0811   22.0960 N   0  0  0  0  0  0
  -23.4156  -28.8212   23.2954 O   0  0  0  0  0  0
  -28.3986  -26.6997   20.0265 O   0  0  0  0  0  0
  -26.5614  -34.8922   22.4672 O   0  0  0  0  0  0
  -23.5397  -32.1457   23.7475 O   0  0  0  0  0  0
  -32.4589  -18.1829   23.6007 C   0  0  0  0  0  0
  -32.5023  -16.7961   23.8107 C   0  0  0  0  0  0
  -31.6144  -18.7100   22.6121 C   0  0  0  0  0  0
  -31.7076  -15.9459   23.0294 C   0  0  0  0  0  0
  -30.7989  -17.8697   21.8049 C   0  0  0  0  0  0
  -30.8733  -16.4541   21.9985 C   0  0  0  0  0  0
  -29.0118  -23.0259   20.0998 C   0  0  0  0  0  0
  -29.4804  -19.7207   20.8316 C   0  0  0  0  0  0
  -30.6767  -20.7737   18.8289 C   0  0  0  0  0  0
  -28.0280  -24.2132   20.1529 C   0  0  0  0  0  0
  -28.4620  -25.4471   19.3091 C   0  0  0  0  0  0
  -29.3239  -20.5527   19.5390 C   0  0  2  0  0  0
  -30.0494  -18.4943   20.7541 N   0  0  0  0  0  0
  -30.1409  -15.5031   21.2228 N   0  0  0  0  0  0
  -28.5581  -21.8112   19.7270 N   0  0  0  0  0  0
  -30.1888  -23.2162   20.4080 O   0  0  0  0  0  0
  -29.0774  -20.1908   21.9005 O   0  0  0  0  0  0
  -31.4489  -12.3735   19.1388 H   0  0  0  0  0  0
  -30.2733  -11.3053   19.8436 H   0  0  0  0  0  0
  -29.7296  -11.7624   17.4411 H   0  0  0  0  0  0
  -29.6705  -13.4755   17.7487 H   0  0  0  0  0  0
  -27.8094  -11.3194   18.8005 H   0  0  0  0  0  0
  -27.3686  -12.6597   17.7794 H   0  0  0  0  0  0
  -27.6954  -14.2588   19.5636 H   0  0  0  0  0  0
  -28.6714  -12.0098   21.3904 H   0  0  0  0  0  0
  -28.4568  -13.6756   21.8432 H   0  0  0  0  0  0
  -25.2747   -9.5746   22.4761 H   0  0  0  0  0  0
  -24.0051   -7.4650   22.7496 H   0  0  0  0  0  0
  -21.0850   -8.8772   19.8932 H   0  0  0  0  0  0
  -22.3662  -10.9716   19.6207 H   0  0  0  0  0  0
  -21.2014   -7.6153   23.9726 H   0  0  0  0  0  0
  -21.1499   -6.0519   25.9080 H   0  0  0  0  0  0
  -22.0578   -2.7625   23.2818 H   0  0  0  0  0  0
  -22.4128  -12.0024   22.4862 H   0  0  0  0  0  0
  -21.1098  -13.1328   22.2454 H   0  0  0  0  0  0
  -24.6424  -15.8251   20.5140 H   0  0  0  0  0  0
  -26.2633  -15.6449   20.0733 H   0  0  0  0  0  0
  -26.7133  -32.5453   23.1097 H   0  0  0  0  0  0
  -25.0020  -33.9735   25.0382 H   0  0  0  0  0  0
  -22.6943  -31.3201   21.4187 H   0  0  0  0  0  0
  -23.3742  -35.9701   23.3271 H   0  0  0  0  0  0
  -24.3620  -36.8989   22.2051 H   0  0  0  0  0  0
  -23.7323  -37.6559   23.6641 H   0  0  0  0  0  0
  -26.0670  -31.5919   20.5955 H   0  0  0  0  0  0
  -26.8154  -30.8592   21.9896 H   0  0  0  0  0  0
  -28.0985  -29.0894   21.1162 H   0  0  0  0  0  0
  -25.9357  -25.9467   19.0560 H   0  0  0  0  0  0
  -23.9323  -27.2862   19.0860 H   0  0  0  0  0  0
  -23.7044  -30.6177   19.4054 H   0  0  0  0  0  0
  -22.7154  -29.2705   19.8703 H   0  0  0  0  0  0
  -25.1302  -36.1947   25.0811 H   0  0  0  0  0  0
  -21.0046  -28.3296   24.1383 H   0  0  0  0  0  0
  -20.5695  -26.2313   23.3602 H   0  0  0  0  0  0
  -21.6640  -26.7470   22.1169 H   0  0  0  0  0  0
  -19.6906  -25.6324   21.1222 H   0  0  0  0  0  0
  -19.6686  -27.3194   20.6710 H   0  0  0  0  0  0
  -17.4209  -26.6712   21.4019 H   0  0  0  0  0  0
  -18.0330  -26.0089   22.9015 H   0  0  0  0  0  0
  -19.7938  -30.7217   24.2393 H   0  0  0  0  0  0
  -17.5023  -31.6281   24.5132 H   0  0  0  0  0  0
  -15.5363  -30.2974   23.7641 H   0  0  0  0  0  0
  -15.8704  -28.0812   22.7057 H   0  0  0  0  0  0
  -24.5817  -30.7144   25.7726 H   0  0  0  0  0  0
  -24.8895  -32.2905   26.4868 H   0  0  0  0  0  0
  -25.7987  -30.8858   27.0210 H   0  0  0  0  0  0
  -26.2806  -29.6843   24.1069 H   0  0  0  0  0  0
  -27.3943  -29.7219   25.4569 H   0  0  0  0  0  0
  -27.8695  -30.4327   23.9304 H   0  0  0  0  0  0
  -27.2664  -33.3546   26.2131 H   0  0  0  0  0  0
  -28.3791  -32.6961   25.0260 H   0  0  0  0  0  0
  -28.0778  -31.8363   26.5315 H   0  0  0  0  0  0
  -28.2595  -38.0134   24.7483 H   0  0  0  0  0  0
  -28.1130  -36.2676   24.6263 H   0  0  0  0  0  0
  -27.2322  -37.1430   25.8855 H   0  0  0  0  0  0
  -20.9272  -29.8863   21.6971 H   0  0  0  0  0  0
  -26.0195  -38.2903   24.1316 H   0  0  0  0  0  0
  -33.0818  -18.8543   24.1791 H   0  0  0  0  0  0
  -33.1534  -16.3823   24.5681 H   0  0  0  0  0  0
  -31.6218  -19.7798   22.4629 H   0  0  0  0  0  0
  -31.7642  -14.8776   23.2122 H   0  0  0  0  0  0
  -30.9556  -19.9027   18.2399 H   0  0  0  0  0  0
  -31.4652  -20.9248   19.5681 H   0  0  0  0  0  0
  -30.6766  -21.6405   18.1671 H   0  0  0  0  0  0
  -27.9789  -24.5170   21.1973 H   0  0  0  0  0  0
  -27.0218  -23.8930   19.8815 H   0  0  0  0  0  0
  -27.8928  -25.4868   18.3808 H   0  0  0  0  0  0
  -29.4914  -25.3384   18.9626 H   0  0  0  0  0  0
  -28.7131  -19.9500   18.8683 H   0  0  0  0  0  0
  -30.1693  -18.1019   19.8304 H   0  0  0  0  0  0
  -29.1604  -15.4044   21.4362 H   0  0  0  0  0  0
  -27.5616  -21.7247   19.5832 H   0  0  0  0  0  0
  1 25  1  0  0  0
  1 30  2  0  0  0
  1 84  1  0  0  0
  2  3  1  0  0  0
  2 25  1  0  0  0
  2 88  1  0  0  0
  2 89  1  0  0  0
  3  4  1  0  0  0
  3 90  1  0  0  0
  3 91  1  0  0  0
  4  5  1  0  0  0
  4 92  1  0  0  0
  4 93  1  0  0  0
  5  6  1  0  0  0
  5 26  1  0  0  0
  5 94  1  0  0  0
  6 25  1  0  0  0
  6 95  1  0  0  0
  6 96  1  0  0  0
  7  8  2  0  0  0
  7 26  1  0  0  0
  7 29  1  0  0  0
  8  9  1  0  0  0
  8 22  1  0  0  0
  9 10  1  0  0  0
  9 27  2  0  0  0
 10 11  2  0  0  0
 10 15  1  0  0  0
 11 12  1  0  0  0
 11 97  1  0  0  0
 12 13  2  0  0  0
 12 98  1  0  0  0
 13 14  1  0  0  0
 13 31  1  0  0  0
 14 15  2  0  0  0
 14 99  1  0  0  0
 15100  1  0  0  0
 16 17  2  0  0  0
 16 21  1  0  0  0
 16 31  1  0  0  0
 17 18  1  0  0  0
 17101  1  0  0  0
 18 19  2  0  0  0
 18102  1  0  0  0
 19 20  1  0  0  0
 19 24  1  0  0  0
 20 21  2  0  0  0
 20103  1  0  0  0
 21 23  1  0  0  0
 22 28  1  0  0  0
 22 32  2  0  0  0
 26 27  1  0  0  0
 28104  1  0  0  0
 28105  1  0  0  0
 29106  1  0  0  0
 29107  1  0  0  0
 33 34  1  0  0  0
 33 66  1  0  0  0
 33 70  2  0  0  0
 34 36  1  0  0  0
 34 59  1  0  0  0
 34108  1  0  0  0
 35 44  2  0  0  0
 35 45  1  0  0  0
 35 68  1  0  0  0
 36 56  1  0  0  0
 36109  1  0  0  0
 37 39  1  0  0  0
 37 47  1  0  0  0
 37 66  1  0  0  0
 37110  1  0  0  0
 38 43  2  0  0  0
 38 46  1  0  0  0
 38 47  1  0  0  0
 39 64  1  0  0  0
 39 67  2  0  0  0
 40 52  1  0  0  0
 40 53  2  0  0  0
 40 58  1  0  0  0
 41111  1  0  0  0
 41112  1  0  0  0
 41113  1  0  0  0
 41 48  1  0  0  0
 42 43  1  0  0  0
 42 66  1  0  0  0
 42114  1  0  0  0
 42115  1  0  0  0
 43 44  1  0  0  0
 44116  1  0  0  0
 45 46  2  0  0  0
 45117  1  0  0  0
 46118  1  0  0  0
 47119  1  0  0  0
 47120  1  0  0  0
 48 56  1  0  0  0
 48 65  1  0  0  0
 48121  1  0  0  0
 49 50  1  0  0  0
 49 53  1  0  0  0
 49 64  1  0  0  0
 49122  1  0  0  0
 50 51  1  0  0  0
 50123  1  0  0  0
 50124  1  0  0  0
 51 52  1  0  0  0
 51125  1  0  0  0
 51126  1  0  0  0
 52127  1  0  0  0
 52128  1  0  0  0
 53 54  1  0  0  0
 54 55  2  0  0  0
 54129  1  0  0  0
 55 57  1  0  0  0
 55130  1  0  0  0
 56 69  2  0  0  0
 57 58  2  0  0  0
 57131  1  0  0  0
 58132  1  0  0  0
 59 60  1  0  0  0
 59 61  1  0  0  0
 59 62  1  0  0  0
 60133  1  0  0  0
 60134  1  0  0  0
 60135  1  0  0  0
 61136  1  0  0  0
 61137  1  0  0  0
 61138  1  0  0  0
 62139  1  0  0  0
 62140  1  0  0  0
 62141  1  0  0  0
 63 65  1  0  0  0
 63142  1  0  0  0
 63143  1  0  0  0
 63144  1  0  0  0
 64145  1  0  0  0
 65146  1  0  0  0
 68 81  1  0  0  0
 71 72  2  0  0  0
 71 73  1  0  0  0
 71147  1  0  0  0
 72 74  1  0  0  0
 72148  1  0  0  0
 73 75  2  0  0  0
 73149  1  0  0  0
 74 76  2  0  0  0
 74150  1  0  0  0
 75 76  1  0  0  0
 75 83  1  0  0  0
 76 84  1  0  0  0
 77 80  1  0  0  0
 77 85  1  0  0  0
 77 86  2  0  0  0
 78 82  1  0  0  0
 78 83  1  0  0  0
 78 87  2  0  0  0
 79151  1  0  0  0
 79152  1  0  0  0
 79153  1  0  0  0
 79 82  1  0  0  0
 80 81  1  0  0  0
 80154  1  0  0  0
 80155  1  0  0  0
 81156  1  0  0  0
 81157  1  0  0  0
 82 85  1  0  0  0
 82158  1  0  0  0
 83159  1  0  0  0
 84160  1  0  0  0
 85161  1  0  0  0
M  ISO  4   1 100  68 101  81 101  84 100
M  END
> <chiral flag>
0

> <version>
0

> <s_m_source_file>
/data/baiqing/PycharmProjects/Reinvent-master-3.2/result/LINK_invent/BTK/process_docking_weight1_custom_product_contain_oxygen_bond_distance_aromatic_linkinvent_7_9_3/rearranged_h_0057.sdf

> <i_m_source_file_index>
40

> <r_mmod_Potential_Energy-OPLS-2005>
-198.836471557617

> <r_mmod_Stretch_Energy-OPLS-2005>
43.5263977050781

> <r_mmod_Bend_Energy-OPLS-2005>
112.559257507324

> <r_mmod_Torsional_Energy-OPLS-2005>
270.640106201172

> <r_mmod_Improper_Torsional_Energy-OPLS-2005>
5.03303194046021

> <r_mmod_Van_der_Waal_Energy-OPLS-2005>
169.461135864258

> <r_mmod_Electrostatic_Energy-OPLS-2005>
-545.194458007812

> <r_mmod_Solvation_Energy-OPLS-2005>
-269.905548095703

> <b_mmod_Minimization_Converged-OPLS-2005>
0

> <r_mmod_RMS_Derivative-OPLS-2005>
7.9057149887085

$$$$
41
                    3D
 Structure written by MMmdl.
157165  0  0  1  0            999 V2000
  -30.6789  -14.5059   20.5938 C   0  0  0  0  0  0
  -30.4411  -12.3328   19.4320 C   0  0  0  0  0  0
  -29.5064  -12.5011   18.2155 C   0  0  0  0  0  0
  -28.0310  -12.3360   18.6290 C   0  0  0  0  0  0
  -27.6632  -13.1950   19.8668 C   0  0  2  0  0  0
  -28.7012  -12.9922   20.9938 C   0  0  0  0  0  0
  -25.2658  -13.8113   20.5769 C   0  0  0  0  0  0
  -24.1859  -13.0413   20.9148 C   0  0  0  0  0  0
  -24.6385  -11.6873   20.8704 C   0  0  0  0  0  0
  -23.9034  -10.4285   21.0395 C   0  0  0  0  0  0
  -24.3578   -9.4201   21.9177 C   0  0  0  0  0  0
  -23.6267   -8.2240   22.0744 C   0  0  0  0  0  0
  -22.4252   -8.0283   21.3533 C   0  0  0  0  0  0
  -21.9882   -9.0263   20.4636 C   0  0  0  0  0  0
  -22.7198  -10.2143   20.3055 C   0  0  0  0  0  0
  -21.6856   -6.0722   22.5284 C   0  0  0  0  0  0
  -21.3998   -6.5626   23.8214 C   0  0  0  0  0  0
  -21.3661   -5.6775   24.9179 C   0  0  0  0  0  0
  -21.6047   -4.3042   24.7226 C   0  0  0  0  0  0
  -21.8821   -3.8125   23.4359 C   0  0  0  0  0  0
  -21.9185   -4.6946   22.3404 C   0  0  0  0  0  0
  -22.7899  -13.5270   21.1822 C   0  0  0  0  0  0
  -22.1666   -4.2133   21.0993 F   0  0  0  0  0  0
  -21.5625   -3.4528   25.7741 F   0  0  0  0  0  0
  -30.0326  -13.3140   20.4499 N   0  0  0  0  0  0
  -26.3044  -12.9256   20.3321 N   0  0  0  0  0  0
  -25.9308  -11.6430   20.5713 N   0  0  0  0  0  0
  -22.0509  -12.8297   22.0383 N   0  0  0  0  0  0
  -25.4508  -15.1841   20.4468 N   0  0  0  0  0  0
  -31.8030  -14.7178   20.1331 O   0  0  0  0  0  0
  -21.6635   -6.8874   21.4251 O   0  0  0  0  0  0
  -22.3651  -14.5607   20.6685 O   0  0  0  0  0  0
  -24.6191  -31.8650   23.2068 C   0  0  0  0  0  0
  -25.9066  -32.4803   23.8369 C   0  0  1  0  0  0
  -27.2395  -27.4004   20.1049 C   0  0  0  0  0  0
  -25.5926  -33.8599   24.2333 N   0  0  0  0  0  0
  -23.4080  -30.4870   21.5491 C   0  0  2  0  0  0
  -24.8526  -28.9441   20.1191 C   0  0  0  0  0  0
  -22.7445  -29.4628   22.5003 C   0  0  0  0  0  0
  -18.0277  -28.1393   22.8484 C   0  0  0  0  0  0
  -24.1479  -36.7312   23.2631 C   0  0  0  0  0  0
  -25.9360  -30.8251   21.3573 C   0  0  0  0  0  0
  -26.0137  -29.4519   20.7139 C   0  0  0  0  0  0
  -27.2034  -28.6845   20.7046 C   0  0  0  0  0  0
  -26.0505  -26.9083   19.5154 C   0  0  0  0  0  0
  -24.8676  -27.6730   19.5210 C   0  0  0  0  0  0
  -23.6188  -29.8190   20.1637 C   0  0  0  0  0  0
  -25.4090  -36.3114   24.0360 C   0  0  1  0  0  0
  -20.5866  -28.3678   23.1334 C   0  0  2  0  0  0
  -20.6772  -26.9414   22.5430 C   0  0  0  0  0  0
  -19.5739  -26.6403   21.5232 C   0  0  0  0  0  0
  -18.1915  -26.7940   22.1631 C   0  0  0  0  0  0
  -19.1525  -28.8849   23.2899 C   0  0  0  0  0  0
  -18.9459  -30.1452   23.8912 C   0  0  0  0  0  0
  -17.6458  -30.6583   24.0570 C   0  0  0  0  0  0
  -25.9034  -34.9475   23.5145 C   0  0  0  0  0  0
  -16.5347  -29.9094   23.6313 C   0  0  0  0  0  0
  -16.7268  -28.6517   23.0327 C   0  0  0  0  0  0
  -26.4495  -31.6579   25.0686 C   0  0  0  0  0  0
  -25.3777  -31.3707   26.1463 C   0  0  0  0  0  0
  -27.0299  -30.3011   24.6028 C   0  0  0  0  0  0
  -27.6086  -32.4274   25.7448 C   0  0  0  0  0  0
  -27.5592  -37.1804   24.8464 C   0  0  0  0  0  0
  -21.4165  -29.3039   22.3746 N   0  0  0  0  0  0
  -26.4285  -37.3795   23.9446 N   0  0  0  0  0  0
  -24.6730  -31.0738   22.0982 N   0  0  0  0  0  0
  -23.4194  -28.8182   23.3066 O   0  0  0  0  0  0
  -28.4308  -26.6889   20.1362 O   0  0  0  0  0  0
  -26.5580  -34.8929   22.4691 O   0  0  0  0  0  0
  -23.5367  -32.1426   23.7446 O   0  0  0  0  0  0
  -30.9397  -18.6121   22.9001 C   0  0  0  0  0  0
  -30.4817  -19.6084   22.0156 C   0  0  0  0  0  0
  -30.8049  -17.2502   22.5743 C   0  0  0  0  0  0
  -29.8768  -19.2625   20.7866 C   0  0  0  0  0  0
  -29.7701  -17.8752   20.4433 C   0  0  0  0  0  0
  -30.2235  -16.8659   21.3484 C   0  0  0  0  0  0
  -28.8862  -22.8226   19.6568 C   0  0  0  0  0  0
  -29.1469  -17.4668   19.1105 C   0  0  0  0  0  0
  -29.3637  -20.3714   19.8359 C   0  0  0  0  0  0
  -28.5043  -24.1524   20.3607 C   0  0  0  0  0  0
  -28.5979  -25.4237   19.4559 C   0  0  0  0  0  0
  -29.9298  -15.4782   21.1567 N   0  0  0  0  0  0
  -29.0919  -21.7131   20.4034 N   0  0  0  0  0  0
  -28.9837  -22.7912   18.4269 O   0  0  0  0  0  0
  -31.4843  -12.4583   19.1377 H   0  0  0  0  0  0
  -30.3642  -11.3233   19.8383 H   0  0  0  0  0  0
  -29.7587  -11.7767   17.4402 H   0  0  0  0  0  0
  -29.6509  -13.4864   17.7722 H   0  0  0  0  0  0
  -27.8627  -11.2811   18.8507 H   0  0  0  0  0  0
  -27.3809  -12.5750   17.7855 H   0  0  0  0  0  0
  -27.7028  -14.2367   19.5494 H   0  0  0  0  0  0
  -28.6862  -11.9577   21.3370 H   0  0  0  0  0  0
  -28.4437  -13.5868   21.8694 H   0  0  0  0  0  0
  -25.2730   -9.5689   22.4732 H   0  0  0  0  0  0
  -23.9948   -7.4638   22.7474 H   0  0  0  0  0  0
  -21.0791   -8.8811   19.8972 H   0  0  0  0  0  0
  -22.3656  -10.9690   19.6168 H   0  0  0  0  0  0
  -21.2000   -7.6136   23.9722 H   0  0  0  0  0  0
  -21.1482   -6.0507   25.9078 H   0  0  0  0  0  0
  -22.0599   -2.7592   23.2876 H   0  0  0  0  0  0
  -22.4064  -11.9919   22.4733 H   0  0  0  0  0  0
  -21.1166  -13.1428   22.2646 H   0  0  0  0  0  0
  -24.7154  -15.8541   20.6420 H   0  0  0  0  0  0
  -26.3367  -15.6217   20.2298 H   0  0  0  0  0  0
  -26.7135  -32.5523   23.1133 H   0  0  0  0  0  0
  -25.0112  -33.9749   25.0506 H   0  0  0  0  0  0
  -22.6977  -31.3034   21.4095 H   0  0  0  0  0  0
  -23.3760  -35.9625   23.3252 H   0  0  0  0  0  0
  -24.3570  -36.8948   22.2051 H   0  0  0  0  0  0
  -23.7209  -37.6501   23.6641 H   0  0  0  0  0  0
  -26.0306  -31.5842   20.5782 H   0  0  0  0  0  0
  -26.8291  -30.8961   21.9654 H   0  0  0  0  0  0
  -28.1003  -29.0742   21.1654 H   0  0  0  0  0  0
  -26.0040  -25.9309   19.0616 H   0  0  0  0  0  0
  -23.9709  -27.2727   19.0673 H   0  0  0  0  0  0
  -23.7401  -30.5943   19.4071 H   0  0  0  0  0  0
  -22.7397  -29.2503   19.8567 H   0  0  0  0  0  0
  -25.1244  -36.1975   25.0855 H   0  0  0  0  0  0
  -20.9927  -28.3251   24.1469 H   0  0  0  0  0  0
  -20.5699  -26.2282   23.3615 H   0  0  0  0  0  0
  -21.6645  -26.7471   22.1209 H   0  0  0  0  0  0
  -19.6899  -25.6329   21.1220 H   0  0  0  0  0  0
  -19.6662  -27.3256   20.6794 H   0  0  0  0  0  0
  -17.4188  -26.6698   21.4025 H   0  0  0  0  0  0
  -18.0289  -26.0083   22.9017 H   0  0  0  0  0  0
  -19.7933  -30.7268   24.2291 H   0  0  0  0  0  0
  -17.5012  -31.6257   24.5194 H   0  0  0  0  0  0
  -15.5348  -30.3007   23.7634 H   0  0  0  0  0  0
  -15.8669  -28.0860   22.7015 H   0  0  0  0  0  0
  -24.5971  -30.6994   25.7863 H   0  0  0  0  0  0
  -24.8932  -32.2866   26.4856 H   0  0  0  0  0  0
  -25.8168  -30.8953   27.0242 H   0  0  0  0  0  0
  -26.2815  -29.6782   24.1105 H   0  0  0  0  0  0
  -27.4124  -29.7221   25.4450 H   0  0  0  0  0  0
  -27.8621  -30.4326   23.9104 H   0  0  0  0  0  0
  -27.2730  -33.3584   26.2023 H   0  0  0  0  0  0
  -28.3901  -32.6818   25.0278 H   0  0  0  0  0  0
  -28.0736  -31.8371   26.5356 H   0  0  0  0  0  0
  -28.2599  -38.0116   24.7556 H   0  0  0  0  0  0
  -28.1093  -36.2662   24.6205 H   0  0  0  0  0  0
  -27.2310  -37.1358   25.8860 H   0  0  0  0  0  0
  -20.9352  -29.8769   21.6957 H   0  0  0  0  0  0
  -26.0174  -38.2856   24.1490 H   0  0  0  0  0  0
  -31.3780  -18.8967   23.8483 H   0  0  0  0  0  0
  -30.6000  -20.6444   22.3024 H   0  0  0  0  0  0
  -31.1274  -16.5024   23.2867 H   0  0  0  0  0  0
  -29.4570  -18.1376   18.3071 H   0  0  0  0  0  0
  -28.0586  -17.4846   19.1736 H   0  0  0  0  0  0
  -29.4552  -16.4678   18.8020 H   0  0  0  0  0  0
  -28.4360  -20.0342   19.3766 H   0  0  0  0  0  0
  -30.0885  -20.4678   19.0247 H   0  0  0  0  0  0
  -29.1640  -24.2739   21.2186 H   0  0  0  0  0  0
  -27.4918  -24.0572   20.7529 H   0  0  0  0  0  0
  -27.9582  -25.3334   18.5791 H   0  0  0  0  0  0
  -29.6080  -25.4593   19.0465 H   0  0  0  0  0  0
  -29.0195  -15.1798   21.4677 H   0  0  0  0  0  0
  -28.9684  -21.7792   21.4040 H   0  0  0  0  0  0
  1 25  1  0  0  0
  1 30  2  0  0  0
  1 82  1  0  0  0
  2  3  1  0  0  0
  2 25  1  0  0  0
  2 85  1  0  0  0
  2 86  1  0  0  0
  3  4  1  0  0  0
  3 87  1  0  0  0
  3 88  1  0  0  0
  4  5  1  0  0  0
  4 89  1  0  0  0
  4 90  1  0  0  0
  5  6  1  0  0  0
  5 26  1  0  0  0
  5 91  1  0  0  0
  6 25  1  0  0  0
  6 92  1  0  0  0
  6 93  1  0  0  0
  7  8  2  0  0  0
  7 26  1  0  0  0
  7 29  1  0  0  0
  8  9  1  0  0  0
  8 22  1  0  0  0
  9 10  1  0  0  0
  9 27  2  0  0  0
 10 11  2  0  0  0
 10 15  1  0  0  0
 11 12  1  0  0  0
 11 94  1  0  0  0
 12 13  2  0  0  0
 12 95  1  0  0  0
 13 14  1  0  0  0
 13 31  1  0  0  0
 14 15  2  0  0  0
 14 96  1  0  0  0
 15 97  1  0  0  0
 16 17  2  0  0  0
 16 21  1  0  0  0
 16 31  1  0  0  0
 17 18  1  0  0  0
 17 98  1  0  0  0
 18 19  2  0  0  0
 18 99  1  0  0  0
 19 20  1  0  0  0
 19 24  1  0  0  0
 20 21  2  0  0  0
 20100  1  0  0  0
 21 23  1  0  0  0
 22 28  1  0  0  0
 22 32  2  0  0  0
 26 27  1  0  0  0
 28101  1  0  0  0
 28102  1  0  0  0
 29103  1  0  0  0
 29104  1  0  0  0
 33 34  1  0  0  0
 33 66  1  0  0  0
 33 70  2  0  0  0
 34 36  1  0  0  0
 34 59  1  0  0  0
 34105  1  0  0  0
 35 44  2  0  0  0
 35 45  1  0  0  0
 35 68  1  0  0  0
 36 56  1  0  0  0
 36106  1  0  0  0
 37 39  1  0  0  0
 37 47  1  0  0  0
 37 66  1  0  0  0
 37107  1  0  0  0
 38 43  2  0  0  0
 38 46  1  0  0  0
 38 47  1  0  0  0
 39 64  1  0  0  0
 39 67  2  0  0  0
 40 52  1  0  0  0
 40 53  2  0  0  0
 40 58  1  0  0  0
 41108  1  0  0  0
 41109  1  0  0  0
 41110  1  0  0  0
 41 48  1  0  0  0
 42 43  1  0  0  0
 42 66  1  0  0  0
 42111  1  0  0  0
 42112  1  0  0  0
 43 44  1  0  0  0
 44113  1  0  0  0
 45 46  2  0  0  0
 45114  1  0  0  0
 46115  1  0  0  0
 47116  1  0  0  0
 47117  1  0  0  0
 48 56  1  0  0  0
 48 65  1  0  0  0
 48118  1  0  0  0
 49 50  1  0  0  0
 49 53  1  0  0  0
 49 64  1  0  0  0
 49119  1  0  0  0
 50 51  1  0  0  0
 50120  1  0  0  0
 50121  1  0  0  0
 51 52  1  0  0  0
 51122  1  0  0  0
 51123  1  0  0  0
 52124  1  0  0  0
 52125  1  0  0  0
 53 54  1  0  0  0
 54 55  2  0  0  0
 54126  1  0  0  0
 55 57  1  0  0  0
 55127  1  0  0  0
 56 69  2  0  0  0
 57 58  2  0  0  0
 57128  1  0  0  0
 58129  1  0  0  0
 59 60  1  0  0  0
 59 61  1  0  0  0
 59 62  1  0  0  0
 60130  1  0  0  0
 60131  1  0  0  0
 60132  1  0  0  0
 61133  1  0  0  0
 61134  1  0  0  0
 61135  1  0  0  0
 62136  1  0  0  0
 62137  1  0  0  0
 62138  1  0  0  0
 63 65  1  0  0  0
 63139  1  0  0  0
 63140  1  0  0  0
 63141  1  0  0  0
 64142  1  0  0  0
 65143  1  0  0  0
 68 81  1  0  0  0
 71 72  2  0  0  0
 71 73  1  0  0  0
 71144  1  0  0  0
 72 74  1  0  0  0
 72145  1  0  0  0
 73 76  2  0  0  0
 73146  1  0  0  0
 74 75  2  0  0  0
 74 79  1  0  0  0
 75 76  1  0  0  0
 75 78  1  0  0  0
 76 82  1  0  0  0
 77 80  1  0  0  0
 77 83  1  0  0  0
 77 84  2  0  0  0
 78147  1  0  0  0
 78148  1  0  0  0
 78149  1  0  0  0
 79 83  1  0  0  0
 79150  1  0  0  0
 79151  1  0  0  0
 80 81  1  0  0  0
 80152  1  0  0  0
 80153  1  0  0  0
 81154  1  0  0  0
 81155  1  0  0  0
 82156  1  0  0  0
 83157  1  0  0  0
M  ISO  4   1 100  68 101  81 101  82 100
M  END
> <chiral flag>
0

> <version>
0

> <s_m_source_file>
/data/baiqing/PycharmProjects/Reinvent-master-3.2/result/LINK_invent/BTK/process_docking_weight1_custom_product_contain_oxygen_bond_distance_aromatic_linkinvent_7_9_3/rearranged_h_0057.sdf

> <i_m_source_file_index>
41

> <r_mmod_Potential_Energy-OPLS-2005>
-137.917358398438

> <r_mmod_Stretch_Energy-OPLS-2005>
46.4062652587891

> <r_mmod_Bend_Energy-OPLS-2005>
111.336715698242

> <r_mmod_Torsional_Energy-OPLS-2005>
225.202850341797

> <r_mmod_Improper_Torsional_Energy-OPLS-2005>
4.04504585266113

> <r_mmod_Van_der_Waal_Energy-OPLS-2005>
152.224868774414

> <r_mmod_Electrostatic_Energy-OPLS-2005>
-457.894134521484

> <r_mmod_Solvation_Energy-OPLS-2005>
-237.312469482422

> <b_mmod_Minimization_Converged-OPLS-2005>
0

> <r_mmod_RMS_Derivative-OPLS-2005>
3.94387888908386

$$$$
42
                    3D
 Structure written by MMmdl.
155163  0  0  1  0            999 V2000
  -30.6874  -14.4487   20.6213 C   0  0  0  0  0  0
  -30.4346  -12.3081   19.4091 C   0  0  0  0  0  0
  -29.4963  -12.5232   18.2024 C   0  0  0  0  0  0
  -28.0170  -12.3790   18.6139 C   0  0  0  0  0  0
  -27.6692  -13.1996   19.8840 C   0  0  2  0  0  0
  -28.7078  -12.9299   20.9954 C   0  0  0  0  0  0
  -25.2617  -13.8147   20.5660 C   0  0  0  0  0  0
  -24.1856  -13.0437   20.9160 C   0  0  0  0  0  0
  -24.6399  -11.6901   20.8726 C   0  0  0  0  0  0
  -23.9058  -10.4293   21.0402 C   0  0  0  0  0  0
  -24.3611   -9.4209   21.9181 C   0  0  0  0  0  0
  -23.6287   -8.2245   22.0753 C   0  0  0  0  0  0
  -22.4269   -8.0282   21.3544 C   0  0  0  0  0  0
  -21.9903   -9.0257   20.4647 C   0  0  0  0  0  0
  -22.7230  -10.2136   20.3055 C   0  0  0  0  0  0
  -21.6852   -6.0735   22.5279 C   0  0  0  0  0  0
  -21.4014   -6.5639   23.8212 C   0  0  0  0  0  0
  -21.3659   -5.6792   24.9174 C   0  0  0  0  0  0
  -21.6044   -4.3055   24.7225 C   0  0  0  0  0  0
  -21.8820   -3.8146   23.4347 C   0  0  0  0  0  0
  -21.9192   -4.6962   22.3403 C   0  0  0  0  0  0
  -22.7880  -13.5244   21.1831 C   0  0  0  0  0  0
  -22.1659   -4.2147   21.0980 F   0  0  0  0  0  0
  -21.5630   -3.4539   25.7737 F   0  0  0  0  0  0
  -30.0468  -13.2571   20.4641 N   0  0  0  0  0  0
  -26.3061  -12.9305   20.3392 N   0  0  0  0  0  0
  -25.9325  -11.6471   20.5766 N   0  0  0  0  0  0
  -22.0520  -12.8241   22.0392 N   0  0  0  0  0  0
  -25.4345  -15.1859   20.4044 N   0  0  0  0  0  0
  -31.7595  -14.7150   20.0677 O   0  0  0  0  0  0
  -21.6637   -6.8877   21.4240 O   0  0  0  0  0  0
  -22.3565  -14.5553   20.6684 O   0  0  0  0  0  0
  -24.6137  -31.8683   23.2102 C   0  0  0  0  0  0
  -25.9031  -32.4826   23.8399 C   0  0  1  0  0  0
  -27.2394  -27.4460   20.0966 C   0  0  0  0  0  0
  -25.5890  -33.8624   24.2332 N   0  0  0  0  0  0
  -23.4027  -30.4901   21.5501 C   0  0  2  0  0  0
  -24.8524  -28.9542   20.1176 C   0  0  0  0  0  0
  -22.7409  -29.4658   22.4994 C   0  0  0  0  0  0
  -18.0273  -28.1376   22.8494 C   0  0  0  0  0  0
  -24.1486  -36.7320   23.2638 C   0  0  0  0  0  0
  -25.9300  -30.8364   21.3627 C   0  0  0  0  0  0
  -26.0109  -29.4696   20.7142 C   0  0  0  0  0  0
  -27.2104  -28.7216   20.7035 C   0  0  0  0  0  0
  -26.0689  -26.9397   19.4976 C   0  0  0  0  0  0
  -24.8748  -27.6865   19.5082 C   0  0  0  0  0  0
  -23.6125  -29.8192   20.1659 C   0  0  0  0  0  0
  -25.4106  -36.3115   24.0339 C   0  0  1  0  0  0
  -20.5862  -28.3663   23.1321 C   0  0  2  0  0  0
  -20.6763  -26.9400   22.5419 C   0  0  0  0  0  0
  -19.5743  -26.6387   21.5213 C   0  0  0  0  0  0
  -18.1922  -26.7924   22.1625 C   0  0  0  0  0  0
  -19.1521  -28.8836   23.2906 C   0  0  0  0  0  0
  -18.9449  -30.1442   23.8916 C   0  0  0  0  0  0
  -17.6452  -30.6583   24.0567 C   0  0  0  0  0  0
  -25.9031  -34.9478   23.5133 C   0  0  0  0  0  0
  -16.5343  -29.9087   23.6323 C   0  0  0  0  0  0
  -16.7262  -28.6503   23.0346 C   0  0  0  0  0  0
  -26.4467  -31.6599   25.0720 C   0  0  0  0  0  0
  -25.3740  -31.3702   26.1474 C   0  0  0  0  0  0
  -27.0292  -30.3044   24.6080 C   0  0  0  0  0  0
  -27.6050  -32.4313   25.7475 C   0  0  0  0  0  0
  -27.5583  -37.1811   24.8464 C   0  0  0  0  0  0
  -21.4137  -29.3031   22.3729 N   0  0  0  0  0  0
  -26.4295  -37.3796   23.9408 N   0  0  0  0  0  0
  -24.6668  -31.0789   22.0999 N   0  0  0  0  0  0
  -23.4181  -28.8204   23.3040 O   0  0  0  0  0  0
  -28.3857  -26.6875   20.0667 O   0  0  0  0  0  0
  -26.5594  -34.8927   22.4695 O   0  0  0  0  0  0
  -23.5330  -32.1429   23.7499 O   0  0  0  0  0  0
  -30.3729  -18.9695   20.4634 C   0  0  0  0  0  0
  -30.6386  -17.5796   20.5189 C   0  0  0  0  0  0
  -28.5793  -18.6817   22.0705 C   0  0  0  0  0  0
  -28.8386  -17.2958   22.1332 C   0  0  0  0  0  0
  -29.3324  -19.5373   21.2404 C   0  0  0  0  0  0
  -29.8709  -16.7241   21.3491 C   0  0  0  0  0  0
  -28.7684  -23.2140   21.0411 C   0  0  0  0  0  0
  -29.1990  -24.4581   20.7315 C   0  0  0  0  0  0
  -29.5108  -22.0086   20.6805 C   0  0  0  0  0  0
  -27.9803  -16.4328   23.0461 C   0  0  0  0  0  0
  -28.4771  -25.7402   21.1353 C   0  0  0  0  0  0
  -28.9604  -20.9199   21.2527 N   0  0  0  0  0  0
  -30.0469  -15.3069   21.4363 N   0  0  0  0  0  0
  -30.5120  -21.9842   19.9608 O   0  0  0  0  0  0
  -31.4762  -12.4291   19.1058 H   0  0  0  0  0  0
  -30.3524  -11.2853   19.7799 H   0  0  0  0  0  0
  -29.7336  -11.8122   17.4099 H   0  0  0  0  0  0
  -29.6627  -13.5159   17.7812 H   0  0  0  0  0  0
  -27.8234  -11.3207   18.7934 H   0  0  0  0  0  0
  -27.3665  -12.6700   17.7884 H   0  0  0  0  0  0
  -27.7287  -14.2549   19.6162 H   0  0  0  0  0  0
  -28.6829  -11.8772   21.2813 H   0  0  0  0  0  0
  -28.4507  -13.4696   21.9068 H   0  0  0  0  0  0
  -25.2759   -9.5685   22.4749 H   0  0  0  0  0  0
  -23.9999   -7.4636   22.7472 H   0  0  0  0  0  0
  -21.0835   -8.8775   19.8952 H   0  0  0  0  0  0
  -22.3691  -10.9674   19.6162 H   0  0  0  0  0  0
  -21.2007   -7.6147   23.9715 H   0  0  0  0  0  0
  -21.1480   -6.0522   25.9077 H   0  0  0  0  0  0
  -22.0599   -2.7608   23.2848 H   0  0  0  0  0  0
  -22.4128  -11.9897   22.4775 H   0  0  0  0  0  0
  -21.1141  -13.1275   22.2602 H   0  0  0  0  0  0
  -24.6695  -15.8431   20.5089 H   0  0  0  0  0  0
  -26.2921  -15.6233   20.0914 H   0  0  0  0  0  0
  -26.7106  -32.5549   23.1171 H   0  0  0  0  0  0
  -25.0043  -33.9789   25.0477 H   0  0  0  0  0  0
  -22.6910  -31.3063   21.4091 H   0  0  0  0  0  0
  -23.3741  -35.9661   23.3312 H   0  0  0  0  0  0
  -24.3580  -36.8920   22.2049 H   0  0  0  0  0  0
  -23.7246  -37.6534   23.6641 H   0  0  0  0  0  0
  -26.0384  -31.6005   20.5916 H   0  0  0  0  0  0
  -26.8191  -30.8941   21.9787 H   0  0  0  0  0  0
  -28.1073  -29.1161   21.1606 H   0  0  0  0  0  0
  -26.0844  -25.9669   19.0263 H   0  0  0  0  0  0
  -23.9843  -27.2827   19.0462 H   0  0  0  0  0  0
  -23.7195  -30.5927   19.4044 H   0  0  0  0  0  0
  -22.7377  -29.2367   19.8712 H   0  0  0  0  0  0
  -25.1282  -36.1985   25.0832 H   0  0  0  0  0  0
  -20.9955  -28.3227   24.1441 H   0  0  0  0  0  0
  -20.5666  -26.2271   23.3605 H   0  0  0  0  0  0
  -21.6634  -26.7445   22.1211 H   0  0  0  0  0  0
  -19.6906  -25.6303   21.1230 H   0  0  0  0  0  0
  -19.6685  -27.3209   20.6753 H   0  0  0  0  0  0
  -17.4193  -26.6673   21.4026 H   0  0  0  0  0  0
  -18.0325  -26.0061   22.9017 H   0  0  0  0  0  0
  -19.7925  -30.7251   24.2296 H   0  0  0  0  0  0
  -17.5007  -31.6265   24.5166 H   0  0  0  0  0  0
  -15.5345  -30.2996   23.7635 H   0  0  0  0  0  0
  -15.8663  -28.0830   22.7048 H   0  0  0  0  0  0
  -24.5906  -30.7057   25.7811 H   0  0  0  0  0  0
  -24.8940  -32.2857   26.4941 H   0  0  0  0  0  0
  -25.8099  -30.8856   27.0220 H   0  0  0  0  0  0
  -26.2828  -29.6811   24.1140 H   0  0  0  0  0  0
  -27.4077  -29.7272   25.4526 H   0  0  0  0  0  0
  -27.8657  -30.4369   23.9214 H   0  0  0  0  0  0
  -27.2675  -33.3599   26.2092 H   0  0  0  0  0  0
  -28.3835  -32.6897   25.0285 H   0  0  0  0  0  0
  -28.0747  -31.8413   26.5356 H   0  0  0  0  0  0
  -28.2606  -38.0102   24.7506 H   0  0  0  0  0  0
  -28.1071  -36.2634   24.6293 H   0  0  0  0  0  0
  -27.2302  -37.1467   25.8868 H   0  0  0  0  0  0
  -20.9298  -29.8751   21.6949 H   0  0  0  0  0  0
  -26.0188  -38.2877   24.1402 H   0  0  0  0  0  0
  -30.9777  -19.5785   19.8084 H   0  0  0  0  0  0
  -31.4366  -17.1888   19.9047 H   0  0  0  0  0  0
  -27.7804  -19.0930   22.6722 H   0  0  0  0  0  0
  -27.8410  -23.1174   21.5885 H   0  0  0  0  0  0
  -30.1228  -24.5903   20.1853 H   0  0  0  0  0  0
  -27.2631  -17.0325   23.6072 H   0  0  0  0  0  0
  -28.5995  -15.9004   23.7688 H   0  0  0  0  0  0
  -27.4147  -15.7027   22.4671 H   0  0  0  0  0  0
  -29.0349  -26.2039   21.9496 H   0  0  0  0  0  0
  -27.4940  -25.4851   21.5377 H   0  0  0  0  0  0
  -28.1518  -21.1323   21.8192 H   0  0  0  0  0  0
  -29.3354  -14.8460   21.9808 H   0  0  0  0  0  0
  1 25  1  0  0  0
  1 30  2  0  0  0
  1 83  1  0  0  0
  2  3  1  0  0  0
  2 25  1  0  0  0
  2 85  1  0  0  0
  2 86  1  0  0  0
  3  4  1  0  0  0
  3 87  1  0  0  0
  3 88  1  0  0  0
  4  5  1  0  0  0
  4 89  1  0  0  0
  4 90  1  0  0  0
  5  6  1  0  0  0
  5 26  1  0  0  0
  5 91  1  0  0  0
  6 25  1  0  0  0
  6 92  1  0  0  0
  6 93  1  0  0  0
  7  8  2  0  0  0
  7 26  1  0  0  0
  7 29  1  0  0  0
  8  9  1  0  0  0
  8 22  1  0  0  0
  9 10  1  0  0  0
  9 27  2  0  0  0
 10 11  2  0  0  0
 10 15  1  0  0  0
 11 12  1  0  0  0
 11 94  1  0  0  0
 12 13  2  0  0  0
 12 95  1  0  0  0
 13 14  1  0  0  0
 13 31  1  0  0  0
 14 15  2  0  0  0
 14 96  1  0  0  0
 15 97  1  0  0  0
 16 17  2  0  0  0
 16 21  1  0  0  0
 16 31  1  0  0  0
 17 18  1  0  0  0
 17 98  1  0  0  0
 18 19  2  0  0  0
 18 99  1  0  0  0
 19 20  1  0  0  0
 19 24  1  0  0  0
 20 21  2  0  0  0
 20100  1  0  0  0
 21 23  1  0  0  0
 22 28  1  0  0  0
 22 32  2  0  0  0
 26 27  1  0  0  0
 28101  1  0  0  0
 28102  1  0  0  0
 29103  1  0  0  0
 29104  1  0  0  0
 33 34  1  0  0  0
 33 66  1  0  0  0
 33 70  2  0  0  0
 34 36  1  0  0  0
 34 59  1  0  0  0
 34105  1  0  0  0
 35 44  2  0  0  0
 35 45  1  0  0  0
 35 68  1  0  0  0
 36 56  1  0  0  0
 36106  1  0  0  0
 37 39  1  0  0  0
 37 47  1  0  0  0
 37 66  1  0  0  0
 37107  1  0  0  0
 38 43  2  0  0  0
 38 46  1  0  0  0
 38 47  1  0  0  0
 39 64  1  0  0  0
 39 67  2  0  0  0
 40 52  1  0  0  0
 40 53  2  0  0  0
 40 58  1  0  0  0
 41108  1  0  0  0
 41109  1  0  0  0
 41110  1  0  0  0
 41 48  1  0  0  0
 42 43  1  0  0  0
 42 66  1  0  0  0
 42111  1  0  0  0
 42112  1  0  0  0
 43 44  1  0  0  0
 44113  1  0  0  0
 45 46  2  0  0  0
 45114  1  0  0  0
 46115  1  0  0  0
 47116  1  0  0  0
 47117  1  0  0  0
 48 56  1  0  0  0
 48 65  1  0  0  0
 48118  1  0  0  0
 49 50  1  0  0  0
 49 53  1  0  0  0
 49 64  1  0  0  0
 49119  1  0  0  0
 50 51  1  0  0  0
 50120  1  0  0  0
 50121  1  0  0  0
 51 52  1  0  0  0
 51122  1  0  0  0
 51123  1  0  0  0
 52124  1  0  0  0
 52125  1  0  0  0
 53 54  1  0  0  0
 54 55  2  0  0  0
 54126  1  0  0  0
 55 57  1  0  0  0
 55127  1  0  0  0
 56 69  2  0  0  0
 57 58  2  0  0  0
 57128  1  0  0  0
 58129  1  0  0  0
 59 60  1  0  0  0
 59 61  1  0  0  0
 59 62  1  0  0  0
 60130  1  0  0  0
 60131  1  0  0  0
 60132  1  0  0  0
 61133  1  0  0  0
 61134  1  0  0  0
 61135  1  0  0  0
 62136  1  0  0  0
 62137  1  0  0  0
 62138  1  0  0  0
 63 65  1  0  0  0
 63139  1  0  0  0
 63140  1  0  0  0
 63141  1  0  0  0
 64142  1  0  0  0
 65143  1  0  0  0
 68 81  1  0  0  0
 71 72  2  0  0  0
 71 75  1  0  0  0
 71144  1  0  0  0
 72 76  1  0  0  0
 72145  1  0  0  0
 73 74  1  0  0  0
 73 75  2  0  0  0
 73146  1  0  0  0
 74 76  2  0  0  0
 74 80  1  0  0  0
 75 82  1  0  0  0
 76 83  1  0  0  0
 77 78  2  0  0  0
 77 79  1  0  0  0
 77147  1  0  0  0
 78 81  1  0  0  0
 78148  1  0  0  0
 79 82  1  0  0  0
 79 84  2  0  0  0
 80149  1  0  0  0
 80150  1  0  0  0
 80151  1  0  0  0
 81152  1  0  0  0
 81153  1  0  0  0
 82154  1  0  0  0
 83155  1  0  0  0
M  ISO  4   1 100  68 101  81 101  83 100
M  END
> <chiral flag>
0

> <version>
0

> <s_m_source_file>
/data/baiqing/PycharmProjects/Reinvent-master-3.2/result/LINK_invent/BTK/process_docking_weight1_custom_product_contain_oxygen_bond_distance_aromatic_linkinvent_7_9_3/rearranged_h_0057.sdf

> <i_m_source_file_index>
42

> <r_mmod_Potential_Energy-OPLS-2005>
-129.542419433594

> <r_mmod_Stretch_Energy-OPLS-2005>
37.1959609985352

> <r_mmod_Bend_Energy-OPLS-2005>
109.891799926758

> <r_mmod_Torsional_Energy-OPLS-2005>
241.205184936523

> <r_mmod_Improper_Torsional_Energy-OPLS-2005>
3.59012889862061

> <r_mmod_Van_der_Waal_Energy-OPLS-2005>
152.154113769531

> <r_mmod_Electrostatic_Energy-OPLS-2005>
-453.057952880859

> <r_mmod_Solvation_Energy-OPLS-2005>
-230.194976806641

> <b_mmod_Minimization_Converged-OPLS-2005>
0

> <r_mmod_RMS_Derivative-OPLS-2005>
0.21676567196846

$$$$
43
                    3D
 Structure written by MMmdl.
169178  0  0  1  0            999 V2000
  -30.7145  -14.4567   20.5753 C   0  0  0  0  0  0
  -30.4160  -12.3017   19.4214 C   0  0  0  0  0  0
  -29.4910  -12.5091   18.2056 C   0  0  0  0  0  0
  -28.0129  -12.3699   18.6181 C   0  0  0  0  0  0
  -27.6598  -13.2098   19.8754 C   0  0  2  0  0  0
  -28.7008  -12.9948   20.9975 C   0  0  0  0  0  0
  -25.2573  -13.8174   20.5685 C   0  0  0  0  0  0
  -24.1826  -13.0444   20.9171 C   0  0  0  0  0  0
  -24.6383  -11.6910   20.8731 C   0  0  0  0  0  0
  -23.9052  -10.4295   21.0400 C   0  0  0  0  0  0
  -24.3608   -9.4210   21.9177 C   0  0  0  0  0  0
  -23.6283   -8.2246   22.0748 C   0  0  0  0  0  0
  -22.4264   -8.0284   21.3538 C   0  0  0  0  0  0
  -21.9894   -9.0259   20.4644 C   0  0  0  0  0  0
  -22.7224  -10.2136   20.3051 C   0  0  0  0  0  0
  -21.6848   -6.0730   22.5275 C   0  0  0  0  0  0
  -21.4020   -6.5632   23.8213 C   0  0  0  0  0  0
  -21.3656   -5.6783   24.9172 C   0  0  0  0  0  0
  -21.6041   -4.3046   24.7223 C   0  0  0  0  0  0
  -21.8818   -3.8139   23.4344 C   0  0  0  0  0  0
  -21.9190   -4.6959   22.3399 C   0  0  0  0  0  0
  -22.7853  -13.5248   21.1840 C   0  0  0  0  0  0
  -22.1663   -4.2141   21.0975 F   0  0  0  0  0  0
  -21.5622   -3.4530   25.7738 F   0  0  0  0  0  0
  -30.0332  -13.2878   20.4443 N   0  0  0  0  0  0
  -26.3009  -12.9347   20.3367 N   0  0  0  0  0  0
  -25.9312  -11.6502   20.5765 N   0  0  0  0  0  0
  -22.0481  -12.8251   22.0396 N   0  0  0  0  0  0
  -25.4299  -15.1897   20.4125 N   0  0  0  0  0  0
  -31.8389  -14.6321   20.0973 O   0  0  0  0  0  0
  -21.6635   -6.8879   21.4237 O   0  0  0  0  0  0
  -22.3547  -14.5557   20.6693 O   0  0  0  0  0  0
  -24.6143  -31.8681   23.2099 C   0  0  0  0  0  0
  -25.9036  -32.4823   23.8398 C   0  0  1  0  0  0
  -27.2338  -27.4395   20.1013 C   0  0  0  0  0  0
  -25.5894  -33.8621   24.2333 N   0  0  0  0  0  0
  -23.4030  -30.4911   21.5494 C   0  0  2  0  0  0
  -24.8510  -28.9574   20.1144 C   0  0  0  0  0  0
  -22.7412  -29.4659   22.4982 C   0  0  0  0  0  0
  -18.0277  -28.1380   22.8493 C   0  0  0  0  0  0
  -24.1487  -36.7315   23.2636 C   0  0  0  0  0  0
  -25.9312  -30.8360   21.3622 C   0  0  0  0  0  0
  -26.0107  -29.4710   20.7096 C   0  0  0  0  0  0
  -27.2090  -28.7197   20.6989 C   0  0  0  0  0  0
  -26.0613  -26.9401   19.4970 C   0  0  0  0  0  0
  -24.8706  -27.6904   19.5045 C   0  0  0  0  0  0
  -23.6118  -29.8221   20.1642 C   0  0  0  0  0  0
  -25.4105  -36.3111   24.0338 C   0  0  1  0  0  0
  -20.5865  -28.3669   23.1314 C   0  0  2  0  0  0
  -20.6765  -26.9405   22.5417 C   0  0  0  0  0  0
  -19.5743  -26.6388   21.5211 C   0  0  0  0  0  0
  -18.1921  -26.7931   22.1622 C   0  0  0  0  0  0
  -19.1526  -28.8841   23.2903 C   0  0  0  0  0  0
  -18.9452  -30.1447   23.8918 C   0  0  0  0  0  0
  -17.6453  -30.6584   24.0570 C   0  0  0  0  0  0
  -25.9029  -34.9475   23.5132 C   0  0  0  0  0  0
  -16.5346  -29.9088   23.6323 C   0  0  0  0  0  0
  -16.7265  -28.6504   23.0346 C   0  0  0  0  0  0
  -26.4466  -31.6599   25.0723 C   0  0  0  0  0  0
  -25.3746  -31.3726   26.1488 C   0  0  0  0  0  0
  -27.0275  -30.3034   24.6095 C   0  0  0  0  0  0
  -27.6066  -32.4307   25.7463 C   0  0  0  0  0  0
  -27.5584  -37.1807   24.8458 C   0  0  0  0  0  0
  -21.4140  -29.3038   22.3718 N   0  0  0  0  0  0
  -26.4294  -37.3792   23.9405 N   0  0  0  0  0  0
  -24.6675  -31.0787   22.0993 N   0  0  0  0  0  0
  -23.4185  -28.8203   23.3022 O   0  0  0  0  0  0
  -28.3771  -26.6736   20.1030 O   0  0  0  0  0  0
  -26.5590  -34.8922   22.4692 O   0  0  0  0  0  0
  -23.5335  -32.1427   23.7496 O   0  0  0  0  0  0
  -27.8459  -18.6273   23.2187 C   0  0  0  0  0  0
  -28.6540  -17.6186   22.6615 C   0  0  0  0  0  0
  -27.9521  -19.9566   22.7663 C   0  0  0  0  0  0
  -29.6655  -19.2776   21.1867 C   0  0  0  0  0  0
  -29.5738  -17.9356   21.6397 C   0  0  0  0  0  0
  -28.8579  -20.3061   21.7372 C   0  0  0  0  0  0
  -29.1435  -23.4571   19.7016 C   0  0  0  0  0  0
  -28.9480  -22.1512   19.9963 C   0  0  0  0  0  0
  -27.4810  -20.9253   18.7316 C   0  0  0  0  0  0
  -29.8952  -23.8375   22.0608 C   0  0  0  0  0  0
  -29.0184  -22.6222   22.4188 C   0  0  0  0  0  0
  -29.4564  -24.5247   20.7464 C   0  0  2  0  0  0
  -26.6808  -20.6067   16.3522 C   0  0  0  0  0  0
  -30.5099  -16.8735   21.0604 C   0  0  0  0  0  0
  -27.0915  -19.9260   17.6648 C   0  0  0  0  0  0
  -28.2818  -25.5161   20.9468 C   0  0  0  0  0  0
  -28.6887  -21.2361   18.9820 N   0  0  0  0  0  0
  -28.9666  -21.6579   21.3113 N   0  0  0  0  0  0
  -30.0352  -15.4830   21.1157 N   0  0  0  0  0  0
  -31.4618  -12.3890   19.1206 H   0  0  0  0  0  0
  -30.3065  -11.2916   19.8188 H   0  0  0  0  0  0
  -29.7295  -11.7893   17.4214 H   0  0  0  0  0  0
  -29.6612  -13.4974   17.7747 H   0  0  0  0  0  0
  -27.8242  -11.3138   18.8139 H   0  0  0  0  0  0
  -27.3622  -12.6449   17.7878 H   0  0  0  0  0  0
  -27.7021  -14.2578   19.5770 H   0  0  0  0  0  0
  -28.6715  -11.9626   21.3496 H   0  0  0  0  0  0
  -28.4661  -13.6069   21.8693 H   0  0  0  0  0  0
  -25.2756   -9.5684   22.4749 H   0  0  0  0  0  0
  -23.9985   -7.4638   22.7467 H   0  0  0  0  0  0
  -21.0818   -8.8790   19.8957 H   0  0  0  0  0  0
  -22.3685  -10.9681   19.6166 H   0  0  0  0  0  0
  -21.2020   -7.6143   23.9722 H   0  0  0  0  0  0
  -21.1476   -6.0510   25.9077 H   0  0  0  0  0  0
  -22.0597   -2.7601   23.2849 H   0  0  0  0  0  0
  -22.4084  -11.9914   22.4797 H   0  0  0  0  0  0
  -21.1111  -13.1310   22.2604 H   0  0  0  0  0  0
  -24.6656  -15.8465   20.5292 H   0  0  0  0  0  0
  -26.2882  -15.6328   20.1105 H   0  0  0  0  0  0
  -26.7110  -32.5542   23.1168 H   0  0  0  0  0  0
  -25.0052  -33.9786   25.0484 H   0  0  0  0  0  0
  -22.6914  -31.3073   21.4097 H   0  0  0  0  0  0
  -23.3741  -35.9657   23.3306 H   0  0  0  0  0  0
  -24.3588  -36.8918   22.2050 H   0  0  0  0  0  0
  -23.7244  -37.6525   23.6646 H   0  0  0  0  0  0
  -26.0422  -31.6030   20.5946 H   0  0  0  0  0  0
  -26.8192  -30.8901   21.9802 H   0  0  0  0  0  0
  -28.1045  -29.1093   21.1630 H   0  0  0  0  0  0
  -26.0694  -25.9678   19.0246 H   0  0  0  0  0  0
  -23.9793  -27.2896   19.0419 H   0  0  0  0  0  0
  -23.7180  -30.5962   19.4033 H   0  0  0  0  0  0
  -22.7364  -29.2400   19.8702 H   0  0  0  0  0  0
  -25.1279  -36.1980   25.0830 H   0  0  0  0  0  0
  -20.9967  -28.3243   24.1431 H   0  0  0  0  0  0
  -20.5659  -26.2280   23.3605 H   0  0  0  0  0  0
  -21.6638  -26.7440   22.1216 H   0  0  0  0  0  0
  -19.6902  -25.6302   21.1230 H   0  0  0  0  0  0
  -19.6681  -27.3207   20.6750 H   0  0  0  0  0  0
  -17.4192  -26.6685   21.4023 H   0  0  0  0  0  0
  -18.0317  -26.0067   22.9010 H   0  0  0  0  0  0
  -19.7927  -30.7259   24.2294 H   0  0  0  0  0  0
  -17.5004  -31.6264   24.5170 H   0  0  0  0  0  0
  -15.5347  -30.2995   23.7627 H   0  0  0  0  0  0
  -15.8668  -28.0826   22.7051 H   0  0  0  0  0  0
  -24.5887  -30.7103   25.7835 H   0  0  0  0  0  0
  -24.8977  -32.2896   26.4964 H   0  0  0  0  0  0
  -25.8100  -30.8869   27.0229 H   0  0  0  0  0  0
  -26.2802  -29.6808   24.1157 H   0  0  0  0  0  0
  -27.4041  -29.7262   25.4549 H   0  0  0  0  0  0
  -27.8646  -30.4340   23.9235 H   0  0  0  0  0  0
  -27.2711  -33.3606   26.2067 H   0  0  0  0  0  0
  -28.3850  -32.6862   25.0262 H   0  0  0  0  0  0
  -28.0755  -31.8408   26.5349 H   0  0  0  0  0  0
  -28.2612  -38.0095   24.7499 H   0  0  0  0  0  0
  -28.1071  -36.2630   24.6288 H   0  0  0  0  0  0
  -27.2308  -37.1461   25.8863 H   0  0  0  0  0  0
  -20.9297  -29.8763   21.6947 H   0  0  0  0  0  0
  -26.0186  -38.2873   24.1407 H   0  0  0  0  0  0
  -27.1451  -18.3837   24.0049 H   0  0  0  0  0  0
  -28.5727  -16.6101   23.0422 H   0  0  0  0  0  0
  -27.3159  -20.7058   23.2149 H   0  0  0  0  0  0
  -30.3794  -19.5277   20.4140 H   0  0  0  0  0  0
  -29.0998  -23.7972   18.6754 H   0  0  0  0  0  0
  -26.6380  -21.3563   19.2805 H   0  0  0  0  0  0
  -30.9231  -23.4903   21.9448 H   0  0  0  0  0  0
  -29.9203  -24.5492   22.8869 H   0  0  0  0  0  0
  -28.0056  -22.9543   22.6515 H   0  0  0  0  0  0
  -29.4160  -22.1563   23.3224 H   0  0  0  0  0  0
  -30.3142  -25.0955   20.3887 H   0  0  0  0  0  0
  -26.4046  -19.8646   15.6030 H   0  0  0  0  0  0
  -27.4962  -21.2043   15.9426 H   0  0  0  0  0  0
  -25.8228  -21.2642   16.4975 H   0  0  0  0  0  0
  -31.4604  -16.9404   21.5926 H   0  0  0  0  0  0
  -30.7206  -17.1300   20.0201 H   0  0  0  0  0  0
  -26.2686  -19.3191   18.0433 H   0  0  0  0  0  0
  -27.9233  -19.2429   17.4887 H   0  0  0  0  0  0
  -28.2811  -25.8823   21.9744 H   0  0  0  0  0  0
  -27.3344  -24.9882   20.8216 H   0  0  0  0  0  0
  -29.1016  -15.3084   21.4519 H   0  0  0  0  0  0
  1 25  1  0  0  0
  1 30  2  0  0  0
  1 89  1  0  0  0
  2  3  1  0  0  0
  2 25  1  0  0  0
  2 90  1  0  0  0
  2 91  1  0  0  0
  3  4  1  0  0  0
  3 92  1  0  0  0
  3 93  1  0  0  0
  4  5  1  0  0  0
  4 94  1  0  0  0
  4 95  1  0  0  0
  5  6  1  0  0  0
  5 26  1  0  0  0
  5 96  1  0  0  0
  6 25  1  0  0  0
  6 97  1  0  0  0
  6 98  1  0  0  0
  7  8  2  0  0  0
  7 26  1  0  0  0
  7 29  1  0  0  0
  8  9  1  0  0  0
  8 22  1  0  0  0
  9 10  1  0  0  0
  9 27  2  0  0  0
 10 11  2  0  0  0
 10 15  1  0  0  0
 11 12  1  0  0  0
 11 99  1  0  0  0
 12 13  2  0  0  0
 12100  1  0  0  0
 13 14  1  0  0  0
 13 31  1  0  0  0
 14 15  2  0  0  0
 14101  1  0  0  0
 15102  1  0  0  0
 16 17  2  0  0  0
 16 21  1  0  0  0
 16 31  1  0  0  0
 17 18  1  0  0  0
 17103  1  0  0  0
 18 19  2  0  0  0
 18104  1  0  0  0
 19 20  1  0  0  0
 19 24  1  0  0  0
 20 21  2  0  0  0
 20105  1  0  0  0
 21 23  1  0  0  0
 22 28  1  0  0  0
 22 32  2  0  0  0
 26 27  1  0  0  0
 28106  1  0  0  0
 28107  1  0  0  0
 29108  1  0  0  0
 29109  1  0  0  0
 33 34  1  0  0  0
 33 66  1  0  0  0
 33 70  2  0  0  0
 34 36  1  0  0  0
 34 59  1  0  0  0
 34110  1  0  0  0
 35 44  2  0  0  0
 35 45  1  0  0  0
 35 68  1  0  0  0
 36 56  1  0  0  0
 36111  1  0  0  0
 37 39  1  0  0  0
 37 47  1  0  0  0
 37 66  1  0  0  0
 37112  1  0  0  0
 38 43  2  0  0  0
 38 46  1  0  0  0
 38 47  1  0  0  0
 39 64  1  0  0  0
 39 67  2  0  0  0
 40 52  1  0  0  0
 40 53  2  0  0  0
 40 58  1  0  0  0
 41113  1  0  0  0
 41114  1  0  0  0
 41115  1  0  0  0
 41 48  1  0  0  0
 42 43  1  0  0  0
 42 66  1  0  0  0
 42116  1  0  0  0
 42117  1  0  0  0
 43 44  1  0  0  0
 44118  1  0  0  0
 45 46  2  0  0  0
 45119  1  0  0  0
 46120  1  0  0  0
 47121  1  0  0  0
 47122  1  0  0  0
 48 56  1  0  0  0
 48 65  1  0  0  0
 48123  1  0  0  0
 49 50  1  0  0  0
 49 53  1  0  0  0
 49 64  1  0  0  0
 49124  1  0  0  0
 50 51  1  0  0  0
 50125  1  0  0  0
 50126  1  0  0  0
 51 52  1  0  0  0
 51127  1  0  0  0
 51128  1  0  0  0
 52129  1  0  0  0
 52130  1  0  0  0
 53 54  1  0  0  0
 54 55  2  0  0  0
 54131  1  0  0  0
 55 57  1  0  0  0
 55132  1  0  0  0
 56 69  2  0  0  0
 57 58  2  0  0  0
 57133  1  0  0  0
 58134  1  0  0  0
 59 60  1  0  0  0
 59 61  1  0  0  0
 59 62  1  0  0  0
 60135  1  0  0  0
 60136  1  0  0  0
 60137  1  0  0  0
 61138  1  0  0  0
 61139  1  0  0  0
 61140  1  0  0  0
 62141  1  0  0  0
 62142  1  0  0  0
 62143  1  0  0  0
 63 65  1  0  0  0
 63144  1  0  0  0
 63145  1  0  0  0
 63146  1  0  0  0
 64147  1  0  0  0
 65148  1  0  0  0
 68 86  1  0  0  0
 71 72  2  0  0  0
 71 73  1  0  0  0
 71149  1  0  0  0
 72 75  1  0  0  0
 72150  1  0  0  0
 73 76  2  0  0  0
 73151  1  0  0  0
 74 75  2  0  0  0
 74 76  1  0  0  0
 74152  1  0  0  0
 75 84  1  0  0  0
 76 88  1  0  0  0
 77 78  2  0  0  0
 77 82  1  0  0  0
 77153  1  0  0  0
 78 87  1  0  0  0
 78 88  1  0  0  0
 79 85  1  0  0  0
 79 87  2  0  0  0
 79154  1  0  0  0
 80 81  1  0  0  0
 80 82  1  0  0  0
 80155  1  0  0  0
 80156  1  0  0  0
 81 88  1  0  0  0
 81157  1  0  0  0
 81158  1  0  0  0
 82 86  1  0  0  0
 82159  1  0  0  0
 83 85  1  0  0  0
 83160  1  0  0  0
 83161  1  0  0  0
 83162  1  0  0  0
 84 89  1  0  0  0
 84163  1  0  0  0
 84164  1  0  0  0
 85165  1  0  0  0
 85166  1  0  0  0
 86167  1  0  0  0
 86168  1  0  0  0
 89169  1  0  0  0
M  ISO  4   1 100  68 101  86 101  89 100
M  END
> <chiral flag>
0

> <version>
0

> <s_m_source_file>
/data/baiqing/PycharmProjects/Reinvent-master-3.2/result/LINK_invent/BTK/process_docking_weight1_custom_product_contain_oxygen_bond_distance_aromatic_linkinvent_7_9_3/rearranged_h_0057.sdf

> <i_m_source_file_index>
43

> <r_mmod_Potential_Energy-OPLS-2005>
-113.85791015625

> <r_mmod_Stretch_Energy-OPLS-2005>
39.5705375671387

> <r_mmod_Bend_Energy-OPLS-2005>
94.2339172363281

> <r_mmod_Torsional_Energy-OPLS-2005>
269.007110595703

> <r_mmod_Improper_Torsional_Energy-OPLS-2005>
3.77715229988098

> <r_mmod_Van_der_Waal_Energy-OPLS-2005>
165.029159545898

> <r_mmod_Electrostatic_Energy-OPLS-2005>
-483.733856201172

> <r_mmod_Solvation_Energy-OPLS-2005>
-213.766876220703

> <b_mmod_Minimization_Converged-OPLS-2005>
0

> <r_mmod_RMS_Derivative-OPLS-2005>
1.03390264511108

$$$$
44
                    3D
 Structure written by MMmdl.
157165  0  0  1  0            999 V2000
  -30.6780  -14.5237   20.6161 C   0  0  0  0  0  0
  -30.4336  -12.3498   19.4366 C   0  0  0  0  0  0
  -29.5034  -12.5359   18.2186 C   0  0  0  0  0  0
  -28.0258  -12.3746   18.6222 C   0  0  0  0  0  0
  -27.6607  -13.2010   19.8831 C   0  0  2  0  0  0
  -28.7041  -12.9933   21.0062 C   0  0  0  0  0  0
  -25.2521  -13.8035   20.5554 C   0  0  0  0  0  0
  -24.1830  -13.0341   20.9199 C   0  0  0  0  0  0
  -24.6416  -11.6832   20.8790 C   0  0  0  0  0  0
  -23.9072  -10.4235   21.0444 C   0  0  0  0  0  0
  -24.3627   -9.4155   21.9207 C   0  0  0  0  0  0
  -23.6283   -8.2209   22.0785 C   0  0  0  0  0  0
  -22.4277   -8.0259   21.3556 C   0  0  0  0  0  0
  -21.9922   -9.0233   20.4667 C   0  0  0  0  0  0
  -22.7262  -10.2102   20.3076 C   0  0  0  0  0  0
  -21.6845   -6.0725   22.5269 C   0  0  0  0  0  0
  -21.4011   -6.5621   23.8205 C   0  0  0  0  0  0
  -21.3680   -5.6783   24.9168 C   0  0  0  0  0  0
  -21.6064   -4.3050   24.7214 C   0  0  0  0  0  0
  -21.8828   -3.8140   23.4333 C   0  0  0  0  0  0
  -21.9192   -4.6955   22.3387 C   0  0  0  0  0  0
  -22.7863  -13.5175   21.1823 C   0  0  0  0  0  0
  -22.1661   -4.2132   21.0964 F   0  0  0  0  0  0
  -21.5633   -3.4543   25.7727 F   0  0  0  0  0  0
  -30.0315  -13.3292   20.4624 N   0  0  0  0  0  0
  -26.3023  -12.9244   20.3396 N   0  0  0  0  0  0
  -25.9357  -11.6416   20.5843 N   0  0  0  0  0  0
  -22.0486  -12.8205   22.0394 N   0  0  0  0  0  0
  -25.4021  -15.1667   20.3566 N   0  0  0  0  0  0
  -31.8023  -14.7309   20.1472 O   0  0  0  0  0  0
  -21.6636   -6.8869   21.4233 O   0  0  0  0  0  0
  -22.3577  -14.5480   20.6666 O   0  0  0  0  0  0
  -24.6207  -31.8613   23.2055 C   0  0  0  0  0  0
  -25.9084  -32.4790   23.8381 C   0  0  1  0  0  0
  -27.2645  -27.4225   20.1076 C   0  0  0  0  0  0
  -25.5901  -33.8577   24.2316 N   0  0  0  0  0  0
  -23.4110  -30.4838   21.5413 C   0  0  2  0  0  0
  -24.8630  -28.9410   20.1212 C   0  0  0  0  0  0
  -22.7432  -29.4629   22.4922 C   0  0  0  0  0  0
  -18.0278  -28.1358   22.8495 C   0  0  0  0  0  0
  -24.1477  -36.7351   23.2636 C   0  0  0  0  0  0
  -25.9378  -30.8311   21.3532 C   0  0  0  0  0  0
  -26.0197  -29.4595   20.7116 C   0  0  0  0  0  0
  -27.2192  -28.7097   20.6985 C   0  0  0  0  0  0
  -26.0772  -26.9092   19.5350 C   0  0  0  0  0  0
  -24.8862  -27.6625   19.5339 C   0  0  0  0  0  0
  -23.6262  -29.8096   20.1589 C   0  0  0  0  0  0
  -25.4084  -36.3100   24.0351 C   0  0  1  0  0  0
  -20.5866  -28.3672   23.1283 C   0  0  2  0  0  0
  -20.6758  -26.9389   22.5423 C   0  0  0  0  0  0
  -19.5741  -26.6371   21.5210 C   0  0  0  0  0  0
  -18.1915  -26.7914   22.1603 C   0  0  0  0  0  0
  -19.1530  -28.8828   23.2896 C   0  0  0  0  0  0
  -18.9464  -30.1424   23.8921 C   0  0  0  0  0  0
  -17.6472  -30.6567   24.0570 C   0  0  0  0  0  0
  -25.9020  -34.9456   23.5141 C   0  0  0  0  0  0
  -16.5356  -29.9087   23.6314 C   0  0  0  0  0  0
  -16.7273  -28.6493   23.0354 C   0  0  0  0  0  0
  -26.4515  -31.6553   25.0708 C   0  0  0  0  0  0
  -25.3811  -31.3681   26.1488 C   0  0  0  0  0  0
  -27.0380  -30.3001   24.6089 C   0  0  0  0  0  0
  -27.6075  -32.4259   25.7501 C   0  0  0  0  0  0
  -27.5583  -37.1812   24.8446 C   0  0  0  0  0  0
  -21.4149  -29.3041   22.3686 N   0  0  0  0  0  0
  -26.4268  -37.3798   23.9419 N   0  0  0  0  0  0
  -24.6751  -31.0734   22.0934 N   0  0  0  0  0  0
  -23.4180  -28.8168   23.2993 O   0  0  0  0  0  0
  -28.4690  -26.7351   20.1287 O   0  0  0  0  0  0
  -26.5588  -34.8921   22.4703 O   0  0  0  0  0  0
  -23.5394  -32.1333   23.7441 O   0  0  0  0  0  0
  -31.4852  -18.9087   21.8274 C   0  0  0  0  0  0
  -31.3389  -17.4996   21.7510 C   0  0  0  0  0  0
  -29.2808  -19.2044   20.8775 C   0  0  0  0  0  0
  -30.4634  -19.7821   21.3797 C   0  0  0  0  0  0
  -29.1185  -17.8022   20.8182 C   0  0  0  0  0  0
  -30.1567  -16.9214   21.2290 C   0  0  0  0  0  0
  -29.4479  -23.4881   21.1112 C   0  0  0  0  0  0
  -27.7931  -17.2800   20.3110 C   0  0  0  0  0  0
  -30.6571  -21.3124   21.4524 C   0  0  0  0  0  0
  -28.2405  -24.2315   20.4878 C   0  0  0  0  0  0
  -28.6027  -25.4217   19.5479 C   0  0  0  0  0  0
  -29.9424  -15.4965   21.2090 N   0  0  0  0  0  0
  -29.5532  -22.1516   20.9449 N   0  0  0  0  0  0
  -30.2827  -24.1248   21.7560 O   0  0  0  0  0  0
  -31.4767  -12.4693   19.1359 H   0  0  0  0  0  0
  -30.3538  -11.3364   19.8333 H   0  0  0  0  0  0
  -29.7560  -11.8270   17.4294 H   0  0  0  0  0  0
  -29.6589  -13.5318   17.7990 H   0  0  0  0  0  0
  -27.8399  -11.3139   18.7978 H   0  0  0  0  0  0
  -27.3835  -12.6599   17.7869 H   0  0  0  0  0  0
  -27.6948  -14.2460   19.5833 H   0  0  0  0  0  0
  -28.7006  -11.9565   21.3413 H   0  0  0  0  0  0
  -28.4481  -13.5795   21.8913 H   0  0  0  0  0  0
  -25.2765   -9.5626   22.4780 H   0  0  0  0  0  0
  -23.9972   -7.4616   22.7536 H   0  0  0  0  0  0
  -21.0843   -8.8772   19.8957 H   0  0  0  0  0  0
  -22.3738  -10.9660   19.6184 H   0  0  0  0  0  0
  -21.1989   -7.6127   23.9685 H   0  0  0  0  0  0
  -21.1510   -6.0522   25.9066 H   0  0  0  0  0  0
  -22.0590   -2.7601   23.2833 H   0  0  0  0  0  0
  -22.4063  -11.9829   22.4762 H   0  0  0  0  0  0
  -21.1131  -13.1304   22.2609 H   0  0  0  0  0  0
  -24.5815  -15.7622   20.3218 H   0  0  0  0  0  0
  -26.1636  -15.5195   19.7949 H   0  0  0  0  0  0
  -26.7178  -32.5521   23.1167 H   0  0  0  0  0  0
  -25.0075  -33.9710   25.0479 H   0  0  0  0  0  0
  -22.7044  -31.3028   21.3924 H   0  0  0  0  0  0
  -23.3718  -35.9707   23.3261 H   0  0  0  0  0  0
  -24.3600  -36.9004   22.2065 H   0  0  0  0  0  0
  -23.7247  -37.6555   23.6678 H   0  0  0  0  0  0
  -26.0342  -31.5864   20.5706 H   0  0  0  0  0  0
  -26.8301  -30.9024   21.9622 H   0  0  0  0  0  0
  -28.1166  -29.1123   21.1484 H   0  0  0  0  0  0
  -26.0447  -25.9208   19.1015 H   0  0  0  0  0  0
  -23.9937  -27.2453   19.0873 H   0  0  0  0  0  0
  -23.7479  -30.5794   19.3956 H   0  0  0  0  0  0
  -22.7517  -29.2327   19.8531 H   0  0  0  0  0  0
  -25.1246  -36.1987   25.0851 H   0  0  0  0  0  0
  -20.9989  -28.3279   24.1385 H   0  0  0  0  0  0
  -20.5641  -26.2294   23.3640 H   0  0  0  0  0  0
  -21.6640  -26.7401   22.1238 H   0  0  0  0  0  0
  -19.6916  -25.6296   21.1226 H   0  0  0  0  0  0
  -19.6688  -27.3193   20.6750 H   0  0  0  0  0  0
  -17.4208  -26.6704   21.3977 H   0  0  0  0  0  0
  -18.0273  -26.0010   22.8942 H   0  0  0  0  0  0
  -19.7944  -30.7216   24.2310 H   0  0  0  0  0  0
  -17.5033  -31.6247   24.5169 H   0  0  0  0  0  0
  -15.5361  -30.3013   23.7599 H   0  0  0  0  0  0
  -15.8661  -28.0820   22.7056 H   0  0  0  0  0  0
  -24.5895  -30.7127   25.7864 H   0  0  0  0  0  0
  -24.9129  -32.2863   26.5048 H   0  0  0  0  0  0
  -25.8198  -30.8771   27.0187 H   0  0  0  0  0  0
  -26.2946  -29.6690   24.1217 H   0  0  0  0  0  0
  -27.4241  -29.7312   25.4557 H   0  0  0  0  0  0
  -27.8719  -30.4318   23.9184 H   0  0  0  0  0  0
  -27.2665  -33.3497   26.2189 H   0  0  0  0  0  0
  -28.3874  -32.6911   25.0351 H   0  0  0  0  0  0
  -28.0767  -31.8313   26.5345 H   0  0  0  0  0  0
  -28.2560  -38.0149   24.7540 H   0  0  0  0  0  0
  -28.1117  -36.2686   24.6187 H   0  0  0  0  0  0
  -27.2329  -37.1371   25.8853 H   0  0  0  0  0  0
  -20.9313  -29.8826   21.6951 H   0  0  0  0  0  0
  -26.0163  -38.2883   24.1438 H   0  0  0  0  0  0
  -32.3975  -19.3232   22.2363 H   0  0  0  0  0  0
  -32.1353  -16.8683   22.1243 H   0  0  0  0  0  0
  -28.4699  -19.8361   20.5475 H   0  0  0  0  0  0
  -27.2179  -18.0657   19.8162 H   0  0  0  0  0  0
  -27.2043  -16.9194   21.1531 H   0  0  0  0  0  0
  -27.9423  -16.4831   19.5860 H   0  0  0  0  0  0
  -31.5531  -21.5647   20.8833 H   0  0  0  0  0  0
  -30.8677  -21.5847   22.4881 H   0  0  0  0  0  0
  -27.5976  -24.5890   21.2928 H   0  0  0  0  0  0
  -27.6370  -23.5191   19.9269 H   0  0  0  0  0  0
  -28.0607  -25.3501   18.6050 H   0  0  0  0  0  0
  -29.6487  -25.3278   19.2485 H   0  0  0  0  0  0
  -29.0144  -15.1943   21.4607 H   0  0  0  0  0  0
  -28.8448  -21.6845   20.3969 H   0  0  0  0  0  0
  1 25  1  0  0  0
  1 30  2  0  0  0
  1 82  1  0  0  0
  2  3  1  0  0  0
  2 25  1  0  0  0
  2 85  1  0  0  0
  2 86  1  0  0  0
  3  4  1  0  0  0
  3 87  1  0  0  0
  3 88  1  0  0  0
  4  5  1  0  0  0
  4 89  1  0  0  0
  4 90  1  0  0  0
  5  6  1  0  0  0
  5 26  1  0  0  0
  5 91  1  0  0  0
  6 25  1  0  0  0
  6 92  1  0  0  0
  6 93  1  0  0  0
  7  8  2  0  0  0
  7 26  1  0  0  0
  7 29  1  0  0  0
  8  9  1  0  0  0
  8 22  1  0  0  0
  9 10  1  0  0  0
  9 27  2  0  0  0
 10 11  2  0  0  0
 10 15  1  0  0  0
 11 12  1  0  0  0
 11 94  1  0  0  0
 12 13  2  0  0  0
 12 95  1  0  0  0
 13 14  1  0  0  0
 13 31  1  0  0  0
 14 15  2  0  0  0
 14 96  1  0  0  0
 15 97  1  0  0  0
 16 17  2  0  0  0
 16 21  1  0  0  0
 16 31  1  0  0  0
 17 18  1  0  0  0
 17 98  1  0  0  0
 18 19  2  0  0  0
 18 99  1  0  0  0
 19 20  1  0  0  0
 19 24  1  0  0  0
 20 21  2  0  0  0
 20100  1  0  0  0
 21 23  1  0  0  0
 22 28  1  0  0  0
 22 32  2  0  0  0
 26 27  1  0  0  0
 28101  1  0  0  0
 28102  1  0  0  0
 29103  1  0  0  0
 29104  1  0  0  0
 33 34  1  0  0  0
 33 66  1  0  0  0
 33 70  2  0  0  0
 34 36  1  0  0  0
 34 59  1  0  0  0
 34105  1  0  0  0
 35 44  2  0  0  0
 35 45  1  0  0  0
 35 68  1  0  0  0
 36 56  1  0  0  0
 36106  1  0  0  0
 37 39  1  0  0  0
 37 47  1  0  0  0
 37 66  1  0  0  0
 37107  1  0  0  0
 38 43  2  0  0  0
 38 46  1  0  0  0
 38 47  1  0  0  0
 39 64  1  0  0  0
 39 67  2  0  0  0
 40 52  1  0  0  0
 40 53  2  0  0  0
 40 58  1  0  0  0
 41108  1  0  0  0
 41109  1  0  0  0
 41110  1  0  0  0
 41 48  1  0  0  0
 42 43  1  0  0  0
 42 66  1  0  0  0
 42111  1  0  0  0
 42112  1  0  0  0
 43 44  1  0  0  0
 44113  1  0  0  0
 45 46  2  0  0  0
 45114  1  0  0  0
 46115  1  0  0  0
 47116  1  0  0  0
 47117  1  0  0  0
 48 56  1  0  0  0
 48 65  1  0  0  0
 48118  1  0  0  0
 49 50  1  0  0  0
 49 53  1  0  0  0
 49 64  1  0  0  0
 49119  1  0  0  0
 50 51  1  0  0  0
 50120  1  0  0  0
 50121  1  0  0  0
 51 52  1  0  0  0
 51122  1  0  0  0
 51123  1  0  0  0
 52124  1  0  0  0
 52125  1  0  0  0
 53 54  1  0  0  0
 54 55  2  0  0  0
 54126  1  0  0  0
 55 57  1  0  0  0
 55127  1  0  0  0
 56 69  2  0  0  0
 57 58  2  0  0  0
 57128  1  0  0  0
 58129  1  0  0  0
 59 60  1  0  0  0
 59 61  1  0  0  0
 59 62  1  0  0  0
 60130  1  0  0  0
 60131  1  0  0  0
 60132  1  0  0  0
 61133  1  0  0  0
 61134  1  0  0  0
 61135  1  0  0  0
 62136  1  0  0  0
 62137  1  0  0  0
 62138  1  0  0  0
 63 65  1  0  0  0
 63139  1  0  0  0
 63140  1  0  0  0
 63141  1  0  0  0
 64142  1  0  0  0
 65143  1  0  0  0
 68 81  1  0  0  0
 71 72  2  0  0  0
 71 74  1  0  0  0
 71144  1  0  0  0
 72 76  1  0  0  0
 72145  1  0  0  0
 73 74  2  0  0  0
 73 75  1  0  0  0
 73146  1  0  0  0
 74 79  1  0  0  0
 75 76  2  0  0  0
 75 78  1  0  0  0
 76 82  1  0  0  0
 77 80  1  0  0  0
 77 83  1  0  0  0
 77 84  2  0  0  0
 78147  1  0  0  0
 78148  1  0  0  0
 78149  1  0  0  0
 79 83  1  0  0  0
 79150  1  0  0  0
 79151  1  0  0  0
 80 81  1  0  0  0
 80152  1  0  0  0
 80153  1  0  0  0
 81154  1  0  0  0
 81155  1  0  0  0
 82156  1  0  0  0
 83157  1  0  0  0
M  ISO  4   1 100  68 101  81 101  82 100
M  END
> <chiral flag>
0

> <version>
0

> <s_m_source_file>
/data/baiqing/PycharmProjects/Reinvent-master-3.2/result/LINK_invent/BTK/process_docking_weight1_custom_product_contain_oxygen_bond_distance_aromatic_linkinvent_7_9_3/rearranged_h_0057.sdf

> <i_m_source_file_index>
44

> <r_mmod_Potential_Energy-OPLS-2005>
-148.916381835938

> <r_mmod_Stretch_Energy-OPLS-2005>
44.6869049072266

> <r_mmod_Bend_Energy-OPLS-2005>
108.322135925293

> <r_mmod_Torsional_Energy-OPLS-2005>
211.877944946289

> <r_mmod_Improper_Torsional_Energy-OPLS-2005>
6.24425840377808

> <r_mmod_Van_der_Waal_Energy-OPLS-2005>
150.233795166016

> <r_mmod_Electrostatic_Energy-OPLS-2005>
-447.275177001953

> <r_mmod_Solvation_Energy-OPLS-2005>
-241.001663208008

> <b_mmod_Minimization_Converged-OPLS-2005>
0

> <r_mmod_RMS_Derivative-OPLS-2005>
3.95160603523254

$$$$
45
                    3D
 Structure written by MMmdl.
158166  0  0  1  0            999 V2000
  -31.5910  -14.5336   19.9163 C   0  0  0  0  0  0
  -31.3621  -11.9925   19.4931 C   0  0  0  0  0  0
  -29.7521  -11.2630   18.4460 C   0  0  0  0  0  0
  -28.0319  -12.2086   18.5672 C   0  0  0  0  0  0
  -27.9107  -13.8614   19.5796 C   0  0  2  0  0  0
  -29.4254  -14.4431   20.6961 C   0  0  0  0  0  0
  -24.7260  -15.3350   19.7228 C   0  0  0  0  0  0
  -23.4683  -14.3438   21.0053 C   0  0  0  0  0  0
  -24.2706  -12.6957   21.7779 C   0  0  0  0  0  0
  -23.7515  -11.0877   21.5576 C   0  0  0  0  0  0
  -24.2923   -9.8947   22.1978 C   0  0  0  0  0  0
  -23.7249   -8.5583   22.1497 C   0  0  0  0  0  0
  -22.5504   -8.2595   21.4145 C   0  0  0  0  0  0
  -22.1260   -9.3246   20.5848 C   0  0  0  0  0  0
  -22.7201  -10.6422   20.6330 C   0  0  0  0  0  0
  -21.7817   -6.1660   22.4953 C   0  0  0  0  0  0
  -21.4660   -6.6217   23.7956 C   0  0  0  0  0  0
  -21.3847   -5.7216   24.8843 C   0  0  0  0  0  0
  -21.6037   -4.3439   24.6909 C   0  0  0  0  0  0
  -21.8738   -3.8685   23.3956 C   0  0  0  0  0  0
  -21.9508   -4.7676   22.3089 C   0  0  0  0  0  0
  -22.0809  -14.1507   21.0390 C   0  0  0  0  0  0
  -22.1894   -4.2699   21.0727 F   0  0  0  0  0  0
  -21.5478   -3.4803   25.7375 F   0  0  0  0  0  0
  -31.0489  -13.5733   20.5241 N   0  0  0  0  0  0
  -26.6888  -14.0611   20.0259 N   0  0  0  0  0  0
  -25.9668  -12.5979   21.4000 N   0  0  0  0  0  0
  -21.6100  -13.2422   21.9019 N   0  0  0  0  0  0
  -24.8528  -16.5185   19.2028 N   0  0  0  0  0  0
  -32.4647  -15.2380   20.3238 O   0  0  0  0  0  0
  -21.8607   -7.0332   21.4054 O   0  0  0  0  0  0
  -21.4551  -14.8491   20.3053 O   0  0  0  0  0  0
  -24.7648  -31.6532   23.0851 C   0  0  0  0  0  0
  -25.9839  -32.3687   23.7608 C   0  0  1  0  0  0
  -26.4602  -25.3128   20.6101 C   0  0  0  0  0  0
  -25.6044  -33.7640   24.1313 N   0  0  0  0  0  0
  -23.5952  -30.2517   21.4655 C   0  0  2  0  0  0
  -24.9165  -28.3084   20.1637 C   0  0  0  0  0  0
  -22.7865  -29.3630   22.4452 C   0  0  0  0  0  0
  -18.0369  -28.1465   22.8422 C   0  0  0  0  0  0
  -24.1526  -36.6817   23.2684 C   0  0  0  0  0  0
  -26.1443  -29.8836   21.5778 C   0  0  0  0  0  0
  -26.0354  -28.3162   20.9897 C   0  0  0  0  0  0
  -26.7754  -26.8863   21.1502 C   0  0  0  0  0  0
  -25.5695  -25.8606   19.5783 C   0  0  0  0  0  0
  -24.8305  -27.1224   19.3994 C   0  0  0  0  0  0
  -23.8722  -29.4834   20.1211 C   0  0  0  0  0  0
  -25.4204  -36.2437   24.0195 C   0  0  1  0  0  0
  -20.5986  -28.3825   23.1014 C   0  0  2  0  0  0
  -20.6754  -26.9413   22.5439 C   0  0  0  0  0  0
  -19.5764  -26.6345   21.5211 C   0  0  0  0  0  0
  -18.1953  -26.7995   22.1593 C   0  0  0  0  0  0
  -19.1646  -28.8967   23.2695 C   0  0  0  0  0  0
  -18.9568  -30.1537   23.8758 C   0  0  0  0  0  0
  -17.6552  -30.6629   24.0546 C   0  0  0  0  0  0
  -25.9242  -34.8866   23.4677 C   0  0  0  0  0  0
  -16.5431  -29.9109   23.6359 C   0  0  0  0  0  0
  -16.7352  -28.6543   23.0355 C   0  0  0  0  0  0
  -26.4798  -31.6344   25.0707 C   0  0  0  0  0  0
  -25.3644  -31.3960   26.1149 C   0  0  0  0  0  0
  -27.0957  -30.2621   24.7479 C   0  0  0  0  0  0
  -27.5999  -32.4573   25.7508 C   0  0  0  0  0  0
  -27.5533  -37.1545   24.8459 C   0  0  0  0  0  0
  -21.4486  -29.2889   22.3167 N   0  0  0  0  0  0
  -26.4216  -37.3341   23.9411 N   0  0  0  0  0  0
  -24.8847  -30.6709   22.0872 N   0  0  0  0  0  0
  -23.3845  -28.7365   23.3224 O   0  0  0  0  0  0
  -26.7889  -23.4424   20.8356 O   0  0  0  0  0  0
  -26.6035  -34.8673   22.4411 O   0  0  0  0  0  0
  -23.6548  -32.0315   23.5141 O   0  0  0  0  0  0
  -30.0634  -11.3235   21.6912 C   0  0  0  0  0  0
  -29.9167  -11.4862   23.1564 C   0  0  0  0  0  0
  -28.2795  -12.1960   21.5350 C   0  0  0  0  0  0
  -29.2932  -12.0866   20.6188 C   0  0  0  0  0  0
  -28.9578  -12.4640   23.6371 C   0  0  0  0  0  0
  -28.1456  -13.0954   22.6619 C   0  0  0  0  0  0
  -28.6641  -12.6212   25.1132 C   0  0  0  0  0  0
  -29.9772  -13.5683   18.5854 C   0  0  0  0  0  0
  -26.1618  -21.0858   21.0183 C   0  0  0  0  0  0
  -26.2843  -18.3489   21.3016 C   0  0  0  0  0  0
  -27.2698  -14.3313   22.7072 N   0  0  0  0  0  0
  -31.0473  -14.5608   18.7314 N   0  0  0  0  0  0
  -24.8315  -15.1041   23.0352 O   0  0  0  0  0  0
  -24.8467  -13.3448   19.8741 O   0  0  0  0  0  0
  -25.6063  -14.9982   21.7731 S   0  0  0  0  0  0
  -32.1403  -12.2110   18.7561 H   0  0  0  0  0  0
  -31.9468  -11.2319   20.0040 H   0  0  0  0  0  0
  -29.5689  -10.2526   18.8036 H   0  0  0  0  0  0
  -30.0010  -11.1071   17.3948 H   0  0  0  0  0  0
  -27.3136  -11.5228   19.0187 H   0  0  0  0  0  0
  -27.6231  -12.3719   17.5721 H   0  0  0  0  0  0
  -27.8155  -14.6907   18.8795 H   0  0  0  0  0  0
  -29.3404  -14.7942   21.7078 H   0  0  0  0  0  0
  -29.4703  -15.4874   20.3724 H   0  0  0  0  0  0
  -25.1431  -10.0428   22.8445 H   0  0  0  0  0  0
  -24.1994   -7.7759   22.7212 H   0  0  0  0  0  0
  -21.2955   -9.1666   19.9129 H   0  0  0  0  0  0
  -22.2843  -11.4043   20.0019 H   0  0  0  0  0  0
  -21.2964   -7.6747   23.9661 H   0  0  0  0  0  0
  -21.1537   -6.0905   25.8746 H   0  0  0  0  0  0
  -22.0146   -2.8087   23.2339 H   0  0  0  0  0  0
  -22.2178  -12.6935   22.4868 H   0  0  0  0  0  0
  -20.6141  -13.0977   21.9719 H   0  0  0  0  0  0
  -25.6053  -16.7231   18.5569 H   0  0  0  0  0  0
  -24.0081  -17.0189   18.9324 H   0  0  0  0  0  0
  -26.7963  -32.3892   23.0304 H   0  0  0  0  0  0
  -24.9896  -33.8509   24.9268 H   0  0  0  0  0  0
  -22.9961  -31.1334   21.2258 H   0  0  0  0  0  0
  -23.3828  -35.9098   23.3141 H   0  0  0  0  0  0
  -24.3586  -36.8750   22.2147 H   0  0  0  0  0  0
  -23.7259  -37.5885   23.6990 H   0  0  0  0  0  0
  -26.5335  -30.4716   20.7455 H   0  0  0  0  0  0
  -26.9579  -29.8881   22.2811 H   0  0  0  0  0  0
  -27.5598  -26.9184   21.8942 H   0  0  0  0  0  0
  -25.2300  -25.1003   18.8944 H   0  0  0  0  0  0
  -24.0810  -27.1226   18.6192 H   0  0  0  0  0  0
  -24.2111  -30.1986   19.3707 H   0  0  0  0  0  0
  -22.9275  -29.1019   19.7300 H   0  0  0  0  0  0
  -25.1470  -36.1013   25.0676 H   0  0  0  0  0  0
  -21.0095  -28.3584   24.1125 H   0  0  0  0  0  0
  -20.5531  -26.2471   23.3768 H   0  0  0  0  0  0
  -21.6612  -26.7189   22.1307 H   0  0  0  0  0  0
  -19.6886  -25.6217   21.1313 H   0  0  0  0  0  0
  -19.6769  -27.3098   20.6702 H   0  0  0  0  0  0
  -17.4230  -26.6776   21.3988 H   0  0  0  0  0  0
  -18.0295  -26.0164   22.9007 H   0  0  0  0  0  0
  -19.8062  -30.7396   24.2042 H   0  0  0  0  0  0
  -17.5125  -31.6305   24.5214 H   0  0  0  0  0  0
  -15.5439  -30.2970   23.7778 H   0  0  0  0  0  0
  -15.8757  -28.0825   22.7103 H   0  0  0  0  0  0
  -24.5939  -30.7160   25.7477 H   0  0  0  0  0  0
  -24.8718  -32.3266   26.3988 H   0  0  0  0  0  0
  -25.7628  -30.9547   27.0294 H   0  0  0  0  0  0
  -26.3719  -29.5663   24.3214 H   0  0  0  0  0  0
  -27.4541  -29.7796   25.6581 H   0  0  0  0  0  0
  -27.9672  -30.3480   24.0970 H   0  0  0  0  0  0
  -27.2351  -33.4080   26.1395 H   0  0  0  0  0  0
  -28.4110  -32.6802   25.0570 H   0  0  0  0  0  0
  -28.0336  -31.9257   26.5974 H   0  0  0  0  0  0
  -28.2379  -37.9990   24.7555 H   0  0  0  0  0  0
  -28.1188  -36.2489   24.6204 H   0  0  0  0  0  0
  -27.2251  -37.1049   25.8859 H   0  0  0  0  0  0
  -20.9941  -29.8339   21.5962 H   0  0  0  0  0  0
  -25.9905  -38.2320   24.1473 H   0  0  0  0  0  0
  -30.8424  -10.6204   21.4653 H   0  0  0  0  0  0
  -30.4475  -10.8735   23.8763 H   0  0  0  0  0  0
  -27.8865  -11.2176   21.8260 H   0  0  0  0  0  0
  -29.3841  -12.0543   25.6969 H   0  0  0  0  0  0
  -27.6820  -12.1780   25.2954 H   0  0  0  0  0  0
  -28.6565  -13.6548   25.4583 H   0  0  0  0  0  0
  -29.3220  -14.0642   17.8642 H   0  0  0  0  0  0
  -30.5002  -13.1817   17.6936 H   0  0  0  0  0  0
  -25.4041  -21.2355   21.7871 H   0  0  0  0  0  0
  -25.5884  -21.0910   20.0907 H   0  0  0  0  0  0
  -27.0279  -18.1870   20.5266 H   0  0  0  0  0  0
  -26.8721  -18.4114   22.2223 H   0  0  0  0  0  0
  -27.6866  -15.0772   23.2396 H   0  0  0  0  0  0
  -31.2806  -15.2295   18.0149 H   0  0  0  0  0  0
  1 25  1  0  0  0
  1 30  2  0  0  0
  1 82  1  0  0  0
  2  3  1  0  0  0
  2 25  1  0  0  0
  2 86  1  0  0  0
  2 87  1  0  0  0
  3  4  1  0  0  0
  3 88  1  0  0  0
  3 89  1  0  0  0
  4  5  1  0  0  0
  4 90  1  0  0  0
  4 91  1  0  0  0
  5  6  1  0  0  0
  5 26  1  0  0  0
  5 92  1  0  0  0
  6 25  1  0  0  0
  6 93  1  0  0  0
  6 94  1  0  0  0
  7  8  2  0  0  0
  7 26  1  0  0  0
  7 29  1  0  0  0
  8  9  1  0  0  0
  8 22  1  0  0  0
  9 10  1  0  0  0
  9 27  2  0  0  0
 10 11  2  0  0  0
 10 15  1  0  0  0
 11 12  1  0  0  0
 11 95  1  0  0  0
 12 13  2  0  0  0
 12 96  1  0  0  0
 13 14  1  0  0  0
 13 31  1  0  0  0
 14 15  2  0  0  0
 14 97  1  0  0  0
 15 98  1  0  0  0
 16 17  2  0  0  0
 16 21  1  0  0  0
 16 31  1  0  0  0
 17 18  1  0  0  0
 17 99  1  0  0  0
 18 19  2  0  0  0
 18100  1  0  0  0
 19 20  1  0  0  0
 19 24  1  0  0  0
 20 21  2  0  0  0
 20101  1  0  0  0
 21 23  1  0  0  0
 22 28  1  0  0  0
 22 32  2  0  0  0
 26 27  1  0  0  0
 28102  1  0  0  0
 28103  1  0  0  0
 29104  1  0  0  0
 29105  1  0  0  0
 33 34  1  0  0  0
 33 66  1  0  0  0
 33 70  2  0  0  0
 34 36  1  0  0  0
 34 59  1  0  0  0
 34106  1  0  0  0
 35 44  2  0  0  0
 35 45  1  0  0  0
 35 68  1  0  0  0
 36 56  1  0  0  0
 36107  1  0  0  0
 37 39  1  0  0  0
 37 47  1  0  0  0
 37 66  1  0  0  0
 37108  1  0  0  0
 38 43  2  0  0  0
 38 46  1  0  0  0
 38 47  1  0  0  0
 39 64  1  0  0  0
 39 67  2  0  0  0
 40 52  1  0  0  0
 40 53  2  0  0  0
 40 58  1  0  0  0
 41109  1  0  0  0
 41110  1  0  0  0
 41111  1  0  0  0
 41 48  1  0  0  0
 42 43  1  0  0  0
 42 66  1  0  0  0
 42112  1  0  0  0
 42113  1  0  0  0
 43 44  1  0  0  0
 44114  1  0  0  0
 45 46  2  0  0  0
 45115  1  0  0  0
 46116  1  0  0  0
 47117  1  0  0  0
 47118  1  0  0  0
 48 56  1  0  0  0
 48 65  1  0  0  0
 48119  1  0  0  0
 49 50  1  0  0  0
 49 53  1  0  0  0
 49 64  1  0  0  0
 49120  1  0  0  0
 50 51  1  0  0  0
 50121  1  0  0  0
 50122  1  0  0  0
 51 52  1  0  0  0
 51123  1  0  0  0
 51124  1  0  0  0
 52125  1  0  0  0
 52126  1  0  0  0
 53 54  1  0  0  0
 54 55  2  0  0  0
 54127  1  0  0  0
 55 57  1  0  0  0
 55128  1  0  0  0
 56 69  2  0  0  0
 57 58  2  0  0  0
 57129  1  0  0  0
 58130  1  0  0  0
 59 60  1  0  0  0
 59 61  1  0  0  0
 59 62  1  0  0  0
 60131  1  0  0  0
 60132  1  0  0  0
 60133  1  0  0  0
 61134  1  0  0  0
 61135  1  0  0  0
 61136  1  0  0  0
 62137  1  0  0  0
 62138  1  0  0  0
 62139  1  0  0  0
 63 65  1  0  0  0
 63140  1  0  0  0
 63141  1  0  0  0
 63142  1  0  0  0
 64143  1  0  0  0
 65144  1  0  0  0
 68 79  1  0  0  0
 71 72  2  0  0  0
 71 74  1  0  0  0
 71145  1  0  0  0
 72 75  1  0  0  0
 72146  1  0  0  0
 73 74  2  0  0  0
 73 76  1  0  0  0
 73147  1  0  0  0
 74 78  1  0  0  0
 75 76  2  0  0  0
 75 77  1  0  0  0
 76 81  1  0  0  0
 77148  1  0  0  0
 77149  1  0  0  0
 77150  1  0  0  0
 78 82  1  0  0  0
 78151  1  0  0  0
 78152  1  0  0  0
 79 80  1  0  0  0
 79153  1  0  0  0
 79154  1  0  0  0
 80155  1  0  0  0
 80156  1  0  0  0
 80 85  1  0  0  0
 81 85  1  0  0  0
 81157  1  0  0  0
 82158  1  0  0  0
 83 85  2  0  0  0
 84 85  2  0  0  0
M  ISO  4   1 100  68 101  79 101  82 100
M  END
> <chiral flag>
0

> <version>
0

> <s_m_source_file>
/data/baiqing/PycharmProjects/Reinvent-master-3.2/result/LINK_invent/BTK/process_docking_weight1_custom_product_contain_oxygen_bond_distance_aromatic_linkinvent_7_9_3/rearranged_h_0057.sdf

> <i_m_source_file_index>
45

> <r_mmod_Potential_Energy-OPLS-2005>
32025.478515625

> <r_mmod_Stretch_Energy-OPLS-2005>
18579.8515625

> <r_mmod_Bend_Energy-OPLS-2005>
1796.57421875

> <r_mmod_Torsional_Energy-OPLS-2005>
762.820190429688

> <r_mmod_Improper_Torsional_Energy-OPLS-2005>
59.9529190063477

> <r_mmod_Van_der_Waal_Energy-OPLS-2005>
5945.755859375

> <r_mmod_Electrostatic_Energy-OPLS-2005>
-539.987609863281

> <r_mmod_Solvation_Energy-OPLS-2005>
-297.839111328125

> <b_mmod_Minimization_Converged-OPLS-2005>
0

> <r_mmod_RMS_Derivative-OPLS-2005>
22.0738201141357

$$$$
46
                    3D
 Structure written by MMmdl.
158166  0  0  1  0            999 V2000
  -30.6731  -14.5576   20.5588 C   0  0  0  0  0  0
  -30.4416  -12.3608   19.4260 C   0  0  0  0  0  0
  -29.5074  -12.5211   18.2091 C   0  0  0  0  0  0
  -28.0271  -12.3746   18.6222 C   0  0  0  0  0  0
  -27.6644  -13.2166   19.8732 C   0  0  2  0  0  0
  -28.7105  -13.0317   20.9957 C   0  0  0  0  0  0
  -25.2607  -13.8167   20.5690 C   0  0  0  0  0  0
  -24.1875  -13.0441   20.9187 C   0  0  0  0  0  0
  -24.6431  -11.6898   20.8730 C   0  0  0  0  0  0
  -23.9077  -10.4277   21.0383 C   0  0  0  0  0  0
  -24.3613   -9.4198   21.9166 C   0  0  0  0  0  0
  -23.6286   -8.2248   22.0745 C   0  0  0  0  0  0
  -22.4261   -8.0285   21.3551 C   0  0  0  0  0  0
  -21.9901   -9.0249   20.4641 C   0  0  0  0  0  0
  -22.7237  -10.2126   20.3038 C   0  0  0  0  0  0
  -21.6845   -6.0727   22.5270 C   0  0  0  0  0  0
  -21.4023   -6.5632   23.8207 C   0  0  0  0  0  0
  -21.3659   -5.6785   24.9170 C   0  0  0  0  0  0
  -21.6043   -4.3044   24.7212 C   0  0  0  0  0  0
  -21.8819   -3.8138   23.4329 C   0  0  0  0  0  0
  -21.9191   -4.6956   22.3395 C   0  0  0  0  0  0
  -22.7876  -13.5215   21.1826 C   0  0  0  0  0  0
  -22.1666   -4.2146   21.0977 F   0  0  0  0  0  0
  -21.5620   -3.4540   25.7730 F   0  0  0  0  0  0
  -30.0314  -13.3578   20.4336 N   0  0  0  0  0  0
  -26.3071  -12.9376   20.3360 N   0  0  0  0  0  0
  -25.9371  -11.6511   20.5758 N   0  0  0  0  0  0
  -22.0504  -12.8250   22.0385 N   0  0  0  0  0  0
  -25.4252  -15.1902   20.4121 N   0  0  0  0  0  0
  -31.8198  -14.7353   20.1375 O   0  0  0  0  0  0
  -21.6627   -6.8877   21.4235 O   0  0  0  0  0  0
  -22.3562  -14.5490   20.6598 O   0  0  0  0  0  0
  -24.6162  -31.8658   23.2104 C   0  0  0  0  0  0
  -25.9064  -32.4807   23.8381 C   0  0  1  0  0  0
  -27.2402  -27.3955   20.0901 C   0  0  0  0  0  0
  -25.5925  -33.8608   24.2313 N   0  0  0  0  0  0
  -23.4041  -30.4905   21.5499 C   0  0  2  0  0  0
  -24.8505  -28.9452   20.1165 C   0  0  0  0  0  0
  -22.7398  -29.4680   22.5006 C   0  0  0  0  0  0
  -18.0259  -28.1386   22.8477 C   0  0  0  0  0  0
  -24.1489  -36.7286   23.2636 C   0  0  0  0  0  0
  -25.9392  -30.8133   21.3729 C   0  0  0  0  0  0
  -26.0125  -29.4437   20.7171 C   0  0  0  0  0  0
  -27.2029  -28.6749   20.7076 C   0  0  0  0  0  0
  -26.0515  -26.9183   19.4893 C   0  0  0  0  0  0
  -24.8669  -27.6804   19.5039 C   0  0  0  0  0  0
  -23.6166  -29.8219   20.1642 C   0  0  0  0  0  0
  -25.4117  -36.3096   24.0338 C   0  0  1  0  0  0
  -20.5847  -28.3660   23.1300 C   0  0  2  0  0  0
  -20.6792  -26.9403   22.5404 C   0  0  0  0  0  0
  -19.5760  -26.6377   21.5211 C   0  0  0  0  0  0
  -18.1923  -26.7915   22.1614 C   0  0  0  0  0  0
  -19.1512  -28.8825   23.2889 C   0  0  0  0  0  0
  -18.9456  -30.1412   23.8930 C   0  0  0  0  0  0
  -17.6478  -30.6576   24.0592 C   0  0  0  0  0  0
  -25.9045  -34.9466   23.5123 C   0  0  0  0  0  0
  -16.5360  -29.9107   23.6346 C   0  0  0  0  0  0
  -16.7258  -28.6533   23.0344 C   0  0  0  0  0  0
  -26.4491  -31.6590   25.0713 C   0  0  0  0  0  0
  -25.3765  -31.3675   26.1453 C   0  0  0  0  0  0
  -27.0328  -30.3027   24.6113 C   0  0  0  0  0  0
  -27.6072  -32.4296   25.7466 C   0  0  0  0  0  0
  -27.5588  -37.1805   24.8467 C   0  0  0  0  0  0
  -21.4121  -29.3026   22.3710 N   0  0  0  0  0  0
  -26.4291  -37.3792   23.9408 N   0  0  0  0  0  0
  -24.6710  -31.0730   22.1016 N   0  0  0  0  0  0
  -23.4164  -28.8254   23.3081 O   0  0  0  0  0  0
  -28.4236  -26.6646   20.1189 O   0  0  0  0  0  0
  -26.5594  -34.8933   22.4679 O   0  0  0  0  0  0
  -23.5353  -32.1426   23.7483 O   0  0  0  0  0  0
  -31.1963  -18.5993   22.8306 C   0  0  0  0  0  0
  -30.9612  -17.2590   22.4659 C   0  0  0  0  0  0
  -29.8233  -18.0434   20.4618 C   0  0  0  0  0  0
  -30.7655  -19.6738   22.0170 C   0  0  0  0  0  0
  -30.0601  -19.4142   20.8089 C   0  0  0  0  0  0
  -30.2723  -16.9554   21.2729 C   0  0  0  0  0  0
  -28.7902  -21.7825   20.2946 C   0  0  0  0  0  0
  -28.3267  -24.1336   20.2941 C   0  0  0  0  0  0
  -31.0957  -21.0882   22.4722 C   0  0  0  0  0  0
  -27.6003  -21.3645   21.1543 C   0  0  0  0  0  0
  -29.6556  -20.5641   19.8283 C   0  0  0  0  0  0
  -28.5778  -25.3983   19.4141 C   0  0  0  0  0  0
  -29.0588  -22.9933   19.8943 N   0  0  0  0  0  0
  -29.9069  -15.5890   20.9964 N   0  0  0  0  0  0
  -27.5266  -24.2256   21.2274 O   0  0  0  0  0  0
  -31.4797  -12.4887   19.1155 H   0  0  0  0  0  0
  -30.3756  -11.3502   19.8347 H   0  0  0  0  0  0
  -29.7607  -11.7937   17.4383 H   0  0  0  0  0  0
  -29.6669  -13.5015   17.7566 H   0  0  0  0  0  0
  -27.8361  -11.3201   18.8158 H   0  0  0  0  0  0
  -27.3813  -12.6567   17.7893 H   0  0  0  0  0  0
  -27.6973  -14.2608   19.5616 H   0  0  0  0  0  0
  -28.7092  -12.0030   21.3631 H   0  0  0  0  0  0
  -28.4633  -13.6532   21.8575 H   0  0  0  0  0  0
  -25.2752   -9.5676   22.4735 H   0  0  0  0  0  0
  -23.9973   -7.4645   22.7482 H   0  0  0  0  0  0
  -21.0824   -8.8779   19.8960 H   0  0  0  0  0  0
  -22.3695  -10.9666   19.6141 H   0  0  0  0  0  0
  -21.2037   -7.6150   23.9715 H   0  0  0  0  0  0
  -21.1476   -6.0520   25.9084 H   0  0  0  0  0  0
  -22.0596   -2.7603   23.2831 H   0  0  0  0  0  0
  -22.4079  -11.9937   22.4848 H   0  0  0  0  0  0
  -21.1103  -13.1296   22.2484 H   0  0  0  0  0  0
  -24.6480  -15.8337   20.5189 H   0  0  0  0  0  0
  -26.2704  -15.6424   20.0881 H   0  0  0  0  0  0
  -26.7151  -32.5481   23.1136 H   0  0  0  0  0  0
  -25.0131  -33.9789   25.0501 H   0  0  0  0  0  0
  -22.6929  -31.3085   21.4094 H   0  0  0  0  0  0
  -23.3772  -35.9598   23.3294 H   0  0  0  0  0  0
  -24.3577  -36.8906   22.2053 H   0  0  0  0  0  0
  -23.7244  -37.6493   23.6646 H   0  0  0  0  0  0
  -26.0665  -31.5834   20.6104 H   0  0  0  0  0  0
  -26.8231  -30.8566   21.9985 H   0  0  0  0  0  0
  -28.0945  -29.0569   21.1843 H   0  0  0  0  0  0
  -26.0103  -25.9509   19.0153 H   0  0  0  0  0  0
  -23.9690  -27.2879   19.0482 H   0  0  0  0  0  0
  -23.7453  -30.5993   19.4099 H   0  0  0  0  0  0
  -22.7342  -29.2565   19.8563 H   0  0  0  0  0  0
  -25.1314  -36.1940   25.0836 H   0  0  0  0  0  0
  -20.9912  -28.3233   24.1436 H   0  0  0  0  0  0
  -20.5715  -26.2270   23.3602 H   0  0  0  0  0  0
  -21.6677  -26.7528   22.1179 H   0  0  0  0  0  0
  -19.6940  -25.6299   21.1193 H   0  0  0  0  0  0
  -19.6705  -27.3234   20.6788 H   0  0  0  0  0  0
  -17.4229  -26.6641   21.3985 H   0  0  0  0  0  0
  -18.0341  -26.0040   22.9004 H   0  0  0  0  0  0
  -19.7949  -30.7167   24.2332 H   0  0  0  0  0  0
  -17.5071  -31.6238   24.5224 H   0  0  0  0  0  0
  -15.5376  -30.3064   23.7656 H   0  0  0  0  0  0
  -15.8631  -28.0874   22.7074 H   0  0  0  0  0  0
  -24.5979  -30.6971   25.7792 H   0  0  0  0  0  0
  -24.8908  -32.2815   26.4863 H   0  0  0  0  0  0
  -25.8147  -30.8886   27.0215 H   0  0  0  0  0  0
  -26.2878  -29.6751   24.1195 H   0  0  0  0  0  0
  -27.4135  -29.7285   25.4570 H   0  0  0  0  0  0
  -27.8697  -30.4339   23.9246 H   0  0  0  0  0  0
  -27.2725  -33.3614   26.2020 H   0  0  0  0  0  0
  -28.3901  -32.6806   25.0300 H   0  0  0  0  0  0
  -28.0702  -31.8415   26.5395 H   0  0  0  0  0  0
  -28.2623  -38.0093   24.7546 H   0  0  0  0  0  0
  -28.1087  -36.2637   24.6275 H   0  0  0  0  0  0
  -27.2295  -37.1450   25.8869 H   0  0  0  0  0  0
  -20.9267  -29.8731   21.6940 H   0  0  0  0  0  0
  -26.0165  -38.2860   24.1426 H   0  0  0  0  0  0
  -31.7228  -18.8053   23.7520 H   0  0  0  0  0  0
  -31.2940  -16.4674   23.1236 H   0  0  0  0  0  0
  -29.2883  -17.8158   19.5496 H   0  0  0  0  0  0
  -31.7806  -21.0837   23.3224 H   0  0  0  0  0  0
  -30.1961  -21.6188   22.7860 H   0  0  0  0  0  0
  -31.5725  -21.6535   21.6710 H   0  0  0  0  0  0
  -27.7540  -21.6766   22.1881 H   0  0  0  0  0  0
  -27.4655  -20.2838   21.1313 H   0  0  0  0  0  0
  -26.6724  -21.8032   20.7850 H   0  0  0  0  0  0
  -29.1326  -20.1136   18.9858 H   0  0  0  0  0  0
  -30.5837  -20.9481   19.4036 H   0  0  0  0  0  0
  -27.9833  -25.3515   18.5030 H   0  0  0  0  0  0
  -29.6125  -25.3622   19.0678 H   0  0  0  0  0  0
  -28.9560  -15.3370   21.2229 H   0  0  0  0  0  0
  1 25  1  0  0  0
  1 30  2  0  0  0
  1 84  1  0  0  0
  2  3  1  0  0  0
  2 25  1  0  0  0
  2 86  1  0  0  0
  2 87  1  0  0  0
  3  4  1  0  0  0
  3 88  1  0  0  0
  3 89  1  0  0  0
  4  5  1  0  0  0
  4 90  1  0  0  0
  4 91  1  0  0  0
  5  6  1  0  0  0
  5 26  1  0  0  0
  5 92  1  0  0  0
  6 25  1  0  0  0
  6 93  1  0  0  0
  6 94  1  0  0  0
  7  8  2  0  0  0
  7 26  1  0  0  0
  7 29  1  0  0  0
  8  9  1  0  0  0
  8 22  1  0  0  0
  9 10  1  0  0  0
  9 27  2  0  0  0
 10 11  2  0  0  0
 10 15  1  0  0  0
 11 12  1  0  0  0
 11 95  1  0  0  0
 12 13  2  0  0  0
 12 96  1  0  0  0
 13 14  1  0  0  0
 13 31  1  0  0  0
 14 15  2  0  0  0
 14 97  1  0  0  0
 15 98  1  0  0  0
 16 17  2  0  0  0
 16 21  1  0  0  0
 16 31  1  0  0  0
 17 18  1  0  0  0
 17 99  1  0  0  0
 18 19  2  0  0  0
 18100  1  0  0  0
 19 20  1  0  0  0
 19 24  1  0  0  0
 20 21  2  0  0  0
 20101  1  0  0  0
 21 23  1  0  0  0
 22 28  1  0  0  0
 22 32  2  0  0  0
 26 27  1  0  0  0
 28102  1  0  0  0
 28103  1  0  0  0
 29104  1  0  0  0
 29105  1  0  0  0
 33 34  1  0  0  0
 33 66  1  0  0  0
 33 70  2  0  0  0
 34 36  1  0  0  0
 34 59  1  0  0  0
 34106  1  0  0  0
 35 44  2  0  0  0
 35 45  1  0  0  0
 35 68  1  0  0  0
 36 56  1  0  0  0
 36107  1  0  0  0
 37 39  1  0  0  0
 37 47  1  0  0  0
 37 66  1  0  0  0
 37108  1  0  0  0
 38 43  2  0  0  0
 38 46  1  0  0  0
 38 47  1  0  0  0
 39 64  1  0  0  0
 39 67  2  0  0  0
 40 52  1  0  0  0
 40 53  2  0  0  0
 40 58  1  0  0  0
 41109  1  0  0  0
 41110  1  0  0  0
 41111  1  0  0  0
 41 48  1  0  0  0
 42 43  1  0  0  0
 42 66  1  0  0  0
 42112  1  0  0  0
 42113  1  0  0  0
 43 44  1  0  0  0
 44114  1  0  0  0
 45 46  2  0  0  0
 45115  1  0  0  0
 46116  1  0  0  0
 47117  1  0  0  0
 47118  1  0  0  0
 48 56  1  0  0  0
 48 65  1  0  0  0
 48119  1  0  0  0
 49 50  1  0  0  0
 49 53  1  0  0  0
 49 64  1  0  0  0
 49120  1  0  0  0
 50 51  1  0  0  0
 50121  1  0  0  0
 50122  1  0  0  0
 51 52  1  0  0  0
 51123  1  0  0  0
 51124  1  0  0  0
 52125  1  0  0  0
 52126  1  0  0  0
 53 54  1  0  0  0
 54 55  2  0  0  0
 54127  1  0  0  0
 55 57  1  0  0  0
 55128  1  0  0  0
 56 69  2  0  0  0
 57 58  2  0  0  0
 57129  1  0  0  0
 58130  1  0  0  0
 59 60  1  0  0  0
 59 61  1  0  0  0
 59 62  1  0  0  0
 60131  1  0  0  0
 60132  1  0  0  0
 60133  1  0  0  0
 61134  1  0  0  0
 61135  1  0  0  0
 61136  1  0  0  0
 62137  1  0  0  0
 62138  1  0  0  0
 62139  1  0  0  0
 63 65  1  0  0  0
 63140  1  0  0  0
 63141  1  0  0  0
 63142  1  0  0  0
 64143  1  0  0  0
 65144  1  0  0  0
 68 82  1  0  0  0
 71 72  2  0  0  0
 71 74  1  0  0  0
 71145  1  0  0  0
 72 76  1  0  0  0
 72146  1  0  0  0
 73 75  1  0  0  0
 73 76  2  0  0  0
 73147  1  0  0  0
 74 75  2  0  0  0
 74 79  1  0  0  0
 75 81  1  0  0  0
 76 84  1  0  0  0
 77 80  1  0  0  0
 77 81  1  0  0  0
 77 83  2  0  0  0
 78 82  1  0  0  0
 78 83  1  0  0  0
 78 85  2  0  0  0
 79148  1  0  0  0
 79149  1  0  0  0
 79150  1  0  0  0
 80151  1  0  0  0
 80152  1  0  0  0
 80153  1  0  0  0
 81154  1  0  0  0
 81155  1  0  0  0
 82156  1  0  0  0
 82157  1  0  0  0
 84158  1  0  0  0
M  ISO  4   1 100  68 101  82 101  84 100
M  END
> <chiral flag>
0

> <version>
0

> <s_m_source_file>
/data/baiqing/PycharmProjects/Reinvent-master-3.2/result/LINK_invent/BTK/process_docking_weight1_custom_product_contain_oxygen_bond_distance_aromatic_linkinvent_7_9_3/rearranged_h_0057.sdf

> <i_m_source_file_index>
46

> <r_mmod_Potential_Energy-OPLS-2005>
34.3392753601074

> <r_mmod_Stretch_Energy-OPLS-2005>
62.4985885620117

> <r_mmod_Bend_Energy-OPLS-2005>
137.155944824219

> <r_mmod_Torsional_Energy-OPLS-2005>
229.453826904297

> <r_mmod_Improper_Torsional_Energy-OPLS-2005>
5.40675783157349

> <r_mmod_Van_der_Waal_Energy-OPLS-2005>
154.186157226562

> <r_mmod_Electrostatic_Energy-OPLS-2005>
-363.785736083984

> <r_mmod_Solvation_Energy-OPLS-2005>
-213.202819824219

> <b_mmod_Minimization_Converged-OPLS-2005>
0

> <r_mmod_RMS_Derivative-OPLS-2005>
4.4914608001709

$$$$
47
                    3D
 Structure written by MMmdl.
163171  0  0  1  0            999 V2000
  -30.7080  -14.4290   20.5947 C   0  0  0  0  0  0
  -30.4219  -12.2598   19.4427 C   0  0  0  0  0  0
  -29.4969  -12.4505   18.2192 C   0  0  0  0  0  0
  -28.0278  -12.2795   18.6475 C   0  0  0  0  0  0
  -27.6616  -13.1693   19.8621 C   0  0  2  0  0  0
  -28.6899  -12.9720   20.9993 C   0  0  0  0  0  0
  -25.2633  -13.8055   20.5671 C   0  0  0  0  0  0
  -24.1843  -13.0428   20.9146 C   0  0  0  0  0  0
  -24.6329  -11.6863   20.8701 C   0  0  0  0  0  0
  -23.9015  -10.4282   21.0384 C   0  0  0  0  0  0
  -24.3573   -9.4209   21.9179 C   0  0  0  0  0  0
  -23.6267   -8.2235   22.0763 C   0  0  0  0  0  0
  -22.4262   -8.0243   21.3535 C   0  0  0  0  0  0
  -21.9879   -9.0215   20.4651 C   0  0  0  0  0  0
  -22.7191  -10.2101   20.3051 C   0  0  0  0  0  0
  -21.6826   -6.0722   22.5279 C   0  0  0  0  0  0
  -21.4009   -6.5628   23.8221 C   0  0  0  0  0  0
  -21.3680   -5.6776   24.9182 C   0  0  0  0  0  0
  -21.6037   -4.3037   24.7214 C   0  0  0  0  0  0
  -21.8819   -3.8135   23.4334 C   0  0  0  0  0  0
  -21.9195   -4.6956   22.3396 C   0  0  0  0  0  0
  -22.7863  -13.5239   21.1831 C   0  0  0  0  0  0
  -22.1651   -4.2134   21.0972 F   0  0  0  0  0  0
  -21.5646   -3.4542   25.7739 F   0  0  0  0  0  0
  -30.0378  -13.2485   20.4634 N   0  0  0  0  0  0
  -26.3013  -12.9168   20.3272 N   0  0  0  0  0  0
  -25.9234  -11.6369   20.5729 N   0  0  0  0  0  0
  -22.0495  -12.8234   22.0367 N   0  0  0  0  0  0
  -25.4449  -15.1776   20.4130 N   0  0  0  0  0  0
  -31.7840  -14.6671   20.0357 O   0  0  0  0  0  0
  -21.6621   -6.8850   21.4235 O   0  0  0  0  0  0
  -22.3579  -14.5590   20.6712 O   0  0  0  0  0  0
  -24.6126  -31.8724   23.2165 C   0  0  0  0  0  0
  -25.9038  -32.4841   23.8477 C   0  0  1  0  0  0
  -27.2086  -27.4190   20.0713 C   0  0  0  0  0  0
  -25.5910  -33.8650   24.2334 N   0  0  0  0  0  0
  -23.4000  -30.4978   21.5521 C   0  0  2  0  0  0
  -24.8493  -28.9943   20.0888 C   0  0  0  0  0  0
  -22.7424  -29.4620   22.4944 C   0  0  0  0  0  0
  -18.0238  -28.1501   22.8245 C   0  0  0  0  0  0
  -24.1478  -36.7241   23.2622 C   0  0  0  0  0  0
  -25.9383  -30.8251   21.3983 C   0  0  0  0  0  0
  -26.0084  -29.4730   20.7119 C   0  0  0  0  0  0
  -27.1857  -28.6840   20.7166 C   0  0  0  0  0  0
  -26.0521  -27.0293   19.3570 C   0  0  0  0  0  0
  -24.8688  -27.7756   19.4030 C   0  0  0  0  0  0
  -23.6094  -29.8515   20.1654 C   0  0  0  0  0  0
  -25.4111  -36.3073   24.0300 C   0  0  1  0  0  0
  -20.5845  -28.3647   23.1124 C   0  0  2  0  0  0
  -20.6607  -26.9224   22.5423 C   0  0  0  0  0  0
  -19.5694  -26.6017   21.5269 C   0  0  0  0  0  0
  -18.1766  -26.8093   22.1214 C   0  0  0  0  0  0
  -19.1497  -28.8894   23.2706 C   0  0  0  0  0  0
  -18.9367  -30.1468   23.8767 C   0  0  0  0  0  0
  -17.6362  -30.6513   24.0638 C   0  0  0  0  0  0
  -25.9063  -34.9465   23.5092 C   0  0  0  0  0  0
  -16.5254  -29.8946   23.6492 C   0  0  0  0  0  0
  -16.7239  -28.6530   23.0186 C   0  0  0  0  0  0
  -26.4509  -31.6661   25.0815 C   0  0  0  0  0  0
  -25.3707  -31.3768   26.1496 C   0  0  0  0  0  0
  -27.0366  -30.3048   24.6331 C   0  0  0  0  0  0
  -27.6090  -32.4441   25.7532 C   0  0  0  0  0  0
  -27.5586  -37.1772   24.8480 C   0  0  0  0  0  0
  -21.4201  -29.2840   22.3444 N   0  0  0  0  0  0
  -26.4308  -37.3751   23.9398 N   0  0  0  0  0  0
  -24.6662  -31.0793   22.1104 N   0  0  0  0  0  0
  -23.4161  -28.8302   23.3157 O   0  0  0  0  0  0
  -28.3075  -26.5794   20.1818 O   0  0  0  0  0  0
  -26.5647  -34.8903   22.4658 O   0  0  0  0  0  0
  -23.5319  -32.1565   23.7508 O   0  0  0  0  0  0
  -29.6959  -19.0510   21.5774 C   0  0  0  0  0  0
  -30.1865  -17.7483   21.8215 C   0  0  0  0  0  0
  -29.0167  -16.9546   19.8453 C   0  0  0  0  0  0
  -28.7918  -19.3099   20.5200 C   0  0  0  0  0  0
  -28.4863  -18.2477   19.6187 C   0  0  0  0  0  0
  -29.8169  -16.6820   20.9766 C   0  0  0  0  0  0
  -28.0269  -20.6201   20.5127 C   0  0  0  0  0  0
  -27.5469  -18.4260   18.4347 C   0  0  0  0  0  0
  -26.3528  -24.6791   21.3926 C   0  0  0  0  0  0
  -26.5504  -23.3566   19.2527 C   0  0  0  0  0  0
  -28.2065  -23.0370   21.2017 C   0  0  0  0  0  0
  -28.2401  -25.2139   19.6609 C   0  0  0  0  0  0
  -27.3569  -24.0791   20.3611 C   0  0  0  0  0  0
  -30.0977  -15.3400   21.3627 N   0  0  0  0  0  0
  -28.7135  -21.7800   20.5846 N   0  0  0  0  0  0
  -26.7950  -20.5828   20.5341 O   0  0  0  0  0  0
  -31.4728  -12.3336   19.1562 H   0  0  0  0  0  0
  -30.2961  -11.2539   19.8470 H   0  0  0  0  0  0
  -29.7487  -11.7143   17.4539 H   0  0  0  0  0  0
  -29.6480  -13.4328   17.7741 H   0  0  0  0  0  0
  -27.8981  -11.2327   18.9276 H   0  0  0  0  0  0
  -27.3528  -12.4512   17.8098 H   0  0  0  0  0  0
  -27.7114  -14.2020   19.5228 H   0  0  0  0  0  0
  -28.6478  -11.9449   21.3666 H   0  0  0  0  0  0
  -28.4214  -13.5821   21.8604 H   0  0  0  0  0  0
  -25.2712   -9.5678   22.4771 H   0  0  0  0  0  0
  -23.9973   -7.4617   22.7472 H   0  0  0  0  0  0
  -21.0829   -8.8709   19.8939 H   0  0  0  0  0  0
  -22.3643  -10.9630   19.6156 H   0  0  0  0  0  0
  -21.1986   -7.6139   23.9702 H   0  0  0  0  0  0
  -21.1516   -6.0522   25.9073 H   0  0  0  0  0  0
  -22.0584   -2.7606   23.2838 H   0  0  0  0  0  0
  -22.4071  -11.9857   22.4725 H   0  0  0  0  0  0
  -21.1108  -13.1254   22.2573 H   0  0  0  0  0  0
  -24.6886  -15.8401   20.5457 H   0  0  0  0  0  0
  -26.3251  -15.6180   20.1727 H   0  0  0  0  0  0
  -26.7079  -32.5566   23.1230 H   0  0  0  0  0  0
  -25.0004  -33.9832   25.0447 H   0  0  0  0  0  0
  -22.6842  -31.3055   21.4199 H   0  0  0  0  0  0
  -23.3762  -35.9575   23.3323 H   0  0  0  0  0  0
  -24.3554  -36.8823   22.2042 H   0  0  0  0  0  0
  -23.7283  -37.6440   23.6656 H   0  0  0  0  0  0
  -26.1061  -31.6158   20.6650 H   0  0  0  0  0  0
  -26.7981  -30.8297   22.0531 H   0  0  0  0  0  0
  -28.0630  -29.0373   21.2403 H   0  0  0  0  0  0
  -26.0054  -26.1207   18.7930 H   0  0  0  0  0  0
  -23.9929  -27.4064   18.8899 H   0  0  0  0  0  0
  -23.7060  -30.6322   19.4147 H   0  0  0  0  0  0
  -22.7357  -29.2609   19.8793 H   0  0  0  0  0  0
  -25.1339  -36.1886   25.0811 H   0  0  0  0  0  0
  -21.0121  -28.3449   24.1227 H   0  0  0  0  0  0
  -20.5259  -26.2207   23.3655 H   0  0  0  0  0  0
  -21.6538  -26.7038   22.1346 H   0  0  0  0  0  0
  -19.6610  -25.5718   21.1774 H   0  0  0  0  0  0
  -19.7036  -27.2388   20.6524 H   0  0  0  0  0  0
  -17.4316  -26.7259   21.3298 H   0  0  0  0  0  0
  -17.9522  -26.0210   22.8431 H   0  0  0  0  0  0
  -19.7791  -30.7386   24.1986 H   0  0  0  0  0  0
  -17.4909  -31.6138   24.5403 H   0  0  0  0  0  0
  -15.5207  -30.2702   23.8049 H   0  0  0  0  0  0
  -15.8693  -28.0856   22.6714 H   0  0  0  0  0  0
  -24.5857  -30.7197   25.7686 H   0  0  0  0  0  0
  -24.8974  -32.2957   26.4973 H   0  0  0  0  0  0
  -25.7992  -30.8816   27.0219 H   0  0  0  0  0  0
  -26.2949  -29.6720   24.1405 H   0  0  0  0  0  0
  -27.4008  -29.7422   25.4948 H   0  0  0  0  0  0
  -27.8883  -30.4227   23.9615 H   0  0  0  0  0  0
  -27.2665  -33.3668   26.2217 H   0  0  0  0  0  0
  -28.3814  -32.7129   25.0307 H   0  0  0  0  0  0
  -28.0891  -31.8562   26.5358 H   0  0  0  0  0  0
  -28.2629  -38.0031   24.7520 H   0  0  0  0  0  0
  -28.1056  -36.2587   24.6344 H   0  0  0  0  0  0
  -27.2303  -37.1453   25.8874 H   0  0  0  0  0  0
  -20.9469  -29.8342   21.6394 H   0  0  0  0  0  0
  -26.0158  -38.2810   24.1385 H   0  0  0  0  0  0
  -29.9461  -19.8355   22.2805 H   0  0  0  0  0  0
  -30.7997  -17.5631   22.6923 H   0  0  0  0  0  0
  -28.7461  -16.1575   19.1655 H   0  0  0  0  0  0
  -27.6603  -17.6034   17.7227 H   0  0  0  0  0  0
  -27.7626  -19.3485   17.8997 H   0  0  0  0  0  0
  -26.5013  -18.4358   18.7471 H   0  0  0  0  0  0
  -25.8335  -23.9209   21.9706 H   0  0  0  0  0  0
  -25.5551  -25.2618   20.9477 H   0  0  0  0  0  0
  -26.8655  -25.3194   22.1054 H   0  0  0  0  0  0
  -25.7819  -22.7034   19.6573 H   0  0  0  0  0  0
  -27.1948  -22.7433   18.6201 H   0  0  0  0  0  0
  -26.0346  -24.0351   18.5809 H   0  0  0  0  0  0
  -27.6208  -22.7028   22.0594 H   0  0  0  0  0  0
  -29.0386  -23.5618   21.6593 H   0  0  0  0  0  0
  -27.9613  -25.2938   18.6092 H   0  0  0  0  0  0
  -29.2740  -24.8620   19.5917 H   0  0  0  0  0  0
  -29.3819  -14.9357   21.9490 H   0  0  0  0  0  0
  -29.7170  -21.7019   20.5076 H   0  0  0  0  0  0
  1 25  1  0  0  0
  1 30  2  0  0  0
  1 84  1  0  0  0
  2  3  1  0  0  0
  2 25  1  0  0  0
  2 87  1  0  0  0
  2 88  1  0  0  0
  3  4  1  0  0  0
  3 89  1  0  0  0
  3 90  1  0  0  0
  4  5  1  0  0  0
  4 91  1  0  0  0
  4 92  1  0  0  0
  5  6  1  0  0  0
  5 26  1  0  0  0
  5 93  1  0  0  0
  6 25  1  0  0  0
  6 94  1  0  0  0
  6 95  1  0  0  0
  7  8  2  0  0  0
  7 26  1  0  0  0
  7 29  1  0  0  0
  8  9  1  0  0  0
  8 22  1  0  0  0
  9 10  1  0  0  0
  9 27  2  0  0  0
 10 11  2  0  0  0
 10 15  1  0  0  0
 11 12  1  0  0  0
 11 96  1  0  0  0
 12 13  2  0  0  0
 12 97  1  0  0  0
 13 14  1  0  0  0
 13 31  1  0  0  0
 14 15  2  0  0  0
 14 98  1  0  0  0
 15 99  1  0  0  0
 16 17  2  0  0  0
 16 21  1  0  0  0
 16 31  1  0  0  0
 17 18  1  0  0  0
 17100  1  0  0  0
 18 19  2  0  0  0
 18101  1  0  0  0
 19 20  1  0  0  0
 19 24  1  0  0  0
 20 21  2  0  0  0
 20102  1  0  0  0
 21 23  1  0  0  0
 22 28  1  0  0  0
 22 32  2  0  0  0
 26 27  1  0  0  0
 28103  1  0  0  0
 28104  1  0  0  0
 29105  1  0  0  0
 29106  1  0  0  0
 33 34  1  0  0  0
 33 66  1  0  0  0
 33 70  2  0  0  0
 34 36  1  0  0  0
 34 59  1  0  0  0
 34107  1  0  0  0
 35 44  2  0  0  0
 35 45  1  0  0  0
 35 68  1  0  0  0
 36 56  1  0  0  0
 36108  1  0  0  0
 37 39  1  0  0  0
 37 47  1  0  0  0
 37 66  1  0  0  0
 37109  1  0  0  0
 38 43  2  0  0  0
 38 46  1  0  0  0
 38 47  1  0  0  0
 39 64  1  0  0  0
 39 67  2  0  0  0
 40 52  1  0  0  0
 40 53  2  0  0  0
 40 58  1  0  0  0
 41110  1  0  0  0
 41111  1  0  0  0
 41112  1  0  0  0
 41 48  1  0  0  0
 42 43  1  0  0  0
 42 66  1  0  0  0
 42113  1  0  0  0
 42114  1  0  0  0
 43 44  1  0  0  0
 44115  1  0  0  0
 45 46  2  0  0  0
 45116  1  0  0  0
 46117  1  0  0  0
 47118  1  0  0  0
 47119  1  0  0  0
 48 56  1  0  0  0
 48 65  1  0  0  0
 48120  1  0  0  0
 49 50  1  0  0  0
 49 53  1  0  0  0
 49 64  1  0  0  0
 49121  1  0  0  0
 50 51  1  0  0  0
 50122  1  0  0  0
 50123  1  0  0  0
 51 52  1  0  0  0
 51124  1  0  0  0
 51125  1  0  0  0
 52126  1  0  0  0
 52127  1  0  0  0
 53 54  1  0  0  0
 54 55  2  0  0  0
 54128  1  0  0  0
 55 57  1  0  0  0
 55129  1  0  0  0
 56 69  2  0  0  0
 57 58  2  0  0  0
 57130  1  0  0  0
 58131  1  0  0  0
 59 60  1  0  0  0
 59 61  1  0  0  0
 59 62  1  0  0  0
 60132  1  0  0  0
 60133  1  0  0  0
 60134  1  0  0  0
 61135  1  0  0  0
 61136  1  0  0  0
 61137  1  0  0  0
 62138  1  0  0  0
 62139  1  0  0  0
 62140  1  0  0  0
 63 65  1  0  0  0
 63141  1  0  0  0
 63142  1  0  0  0
 63143  1  0  0  0
 64144  1  0  0  0
 65145  1  0  0  0
 68 82  1  0  0  0
 71 72  2  0  0  0
 71 74  1  0  0  0
 71146  1  0  0  0
 72 76  1  0  0  0
 72147  1  0  0  0
 73 75  1  0  0  0
 73 76  2  0  0  0
 73148  1  0  0  0
 74 75  2  0  0  0
 74 77  1  0  0  0
 75 78  1  0  0  0
 76 84  1  0  0  0
 77 85  1  0  0  0
 77 86  2  0  0  0
 78149  1  0  0  0
 78150  1  0  0  0
 78151  1  0  0  0
 79152  1  0  0  0
 79153  1  0  0  0
 79154  1  0  0  0
 79 83  1  0  0  0
 80 83  1  0  0  0
 80155  1  0  0  0
 80156  1  0  0  0
 80157  1  0  0  0
 81 83  1  0  0  0
 81 85  1  0  0  0
 81158  1  0  0  0
 81159  1  0  0  0
 82 83  1  0  0  0
 82160  1  0  0  0
 82161  1  0  0  0
 84162  1  0  0  0
 85163  1  0  0  0
M  ISO  4   1 100  68 101  82 101  84 100
M  END
> <chiral flag>
0

> <version>
0

> <s_m_source_file>
/data/baiqing/PycharmProjects/Reinvent-master-3.2/result/LINK_invent/BTK/process_docking_weight1_custom_product_contain_oxygen_bond_distance_aromatic_linkinvent_7_9_3/rearranged_h_0057.sdf

> <i_m_source_file_index>
47

> <r_mmod_Potential_Energy-OPLS-2005>
62.6583137512207

> <r_mmod_Stretch_Energy-OPLS-2005>
54.474723815918

> <r_mmod_Bend_Energy-OPLS-2005>
134.857818603516

> <r_mmod_Torsional_Energy-OPLS-2005>
304.745758056641

> <r_mmod_Improper_Torsional_Energy-OPLS-2005>
8.63655090332031

> <r_mmod_Van_der_Waal_Energy-OPLS-2005>
169.286712646484

> <r_mmod_Electrostatic_Energy-OPLS-2005>
-412.283508300781

> <r_mmod_Solvation_Energy-OPLS-2005>
-222.621276855469

> <b_mmod_Minimization_Converged-OPLS-2005>
0

> <r_mmod_RMS_Derivative-OPLS-2005>
10.4536085128784

$$$$
48
                    3D
 Structure written by MMmdl.
157165  0  0  1  0            999 V2000
  -30.6789  -14.5059   20.5938 C   0  0  0  0  0  0
  -30.4411  -12.3328   19.4320 C   0  0  0  0  0  0
  -29.5064  -12.5011   18.2155 C   0  0  0  0  0  0
  -28.0310  -12.3360   18.6290 C   0  0  0  0  0  0
  -27.6632  -13.1950   19.8668 C   0  0  2  0  0  0
  -28.7012  -12.9922   20.9938 C   0  0  0  0  0  0
  -25.2658  -13.8113   20.5769 C   0  0  0  0  0  0
  -24.1859  -13.0413   20.9148 C   0  0  0  0  0  0
  -24.6385  -11.6873   20.8704 C   0  0  0  0  0  0
  -23.9034  -10.4285   21.0395 C   0  0  0  0  0  0
  -24.3578   -9.4201   21.9177 C   0  0  0  0  0  0
  -23.6267   -8.2240   22.0744 C   0  0  0  0  0  0
  -22.4252   -8.0283   21.3533 C   0  0  0  0  0  0
  -21.9882   -9.0263   20.4636 C   0  0  0  0  0  0
  -22.7198  -10.2143   20.3055 C   0  0  0  0  0  0
  -21.6856   -6.0722   22.5284 C   0  0  0  0  0  0
  -21.3998   -6.5626   23.8214 C   0  0  0  0  0  0
  -21.3661   -5.6775   24.9179 C   0  0  0  0  0  0
  -21.6047   -4.3042   24.7226 C   0  0  0  0  0  0
  -21.8821   -3.8125   23.4359 C   0  0  0  0  0  0
  -21.9185   -4.6946   22.3404 C   0  0  0  0  0  0
  -22.7899  -13.5270   21.1822 C   0  0  0  0  0  0
  -22.1666   -4.2133   21.0993 F   0  0  0  0  0  0
  -21.5625   -3.4528   25.7741 F   0  0  0  0  0  0
  -30.0326  -13.3140   20.4499 N   0  0  0  0  0  0
  -26.3044  -12.9256   20.3321 N   0  0  0  0  0  0
  -25.9308  -11.6430   20.5713 N   0  0  0  0  0  0
  -22.0509  -12.8297   22.0383 N   0  0  0  0  0  0
  -25.4508  -15.1841   20.4468 N   0  0  0  0  0  0
  -31.8030  -14.7178   20.1331 O   0  0  0  0  0  0
  -21.6635   -6.8874   21.4251 O   0  0  0  0  0  0
  -22.3651  -14.5607   20.6685 O   0  0  0  0  0  0
  -24.6191  -31.8650   23.2068 C   0  0  0  0  0  0
  -25.9066  -32.4803   23.8369 C   0  0  1  0  0  0
  -27.2395  -27.4004   20.1049 C   0  0  0  0  0  0
  -25.5926  -33.8599   24.2333 N   0  0  0  0  0  0
  -23.4080  -30.4870   21.5491 C   0  0  2  0  0  0
  -24.8526  -28.9441   20.1191 C   0  0  0  0  0  0
  -22.7445  -29.4628   22.5003 C   0  0  0  0  0  0
  -18.0277  -28.1393   22.8484 C   0  0  0  0  0  0
  -24.1479  -36.7312   23.2631 C   0  0  0  0  0  0
  -25.9360  -30.8251   21.3573 C   0  0  0  0  0  0
  -26.0137  -29.4519   20.7139 C   0  0  0  0  0  0
  -27.2034  -28.6845   20.7046 C   0  0  0  0  0  0
  -26.0505  -26.9083   19.5154 C   0  0  0  0  0  0
  -24.8676  -27.6730   19.5210 C   0  0  0  0  0  0
  -23.6188  -29.8190   20.1637 C   0  0  0  0  0  0
  -25.4090  -36.3114   24.0360 C   0  0  1  0  0  0
  -20.5866  -28.3678   23.1334 C   0  0  2  0  0  0
  -20.6772  -26.9414   22.5430 C   0  0  0  0  0  0
  -19.5739  -26.6403   21.5232 C   0  0  0  0  0  0
  -18.1915  -26.7940   22.1631 C   0  0  0  0  0  0
  -19.1525  -28.8849   23.2899 C   0  0  0  0  0  0
  -18.9459  -30.1452   23.8912 C   0  0  0  0  0  0
  -17.6458  -30.6583   24.0570 C   0  0  0  0  0  0
  -25.9034  -34.9475   23.5145 C   0  0  0  0  0  0
  -16.5347  -29.9094   23.6313 C   0  0  0  0  0  0
  -16.7268  -28.6517   23.0327 C   0  0  0  0  0  0
  -26.4495  -31.6579   25.0686 C   0  0  0  0  0  0
  -25.3777  -31.3707   26.1463 C   0  0  0  0  0  0
  -27.0299  -30.3011   24.6028 C   0  0  0  0  0  0
  -27.6086  -32.4274   25.7448 C   0  0  0  0  0  0
  -27.5592  -37.1804   24.8464 C   0  0  0  0  0  0
  -21.4165  -29.3039   22.3746 N   0  0  0  0  0  0
  -26.4285  -37.3795   23.9446 N   0  0  0  0  0  0
  -24.6730  -31.0738   22.0982 N   0  0  0  0  0  0
  -23.4194  -28.8182   23.3066 O   0  0  0  0  0  0
  -28.4308  -26.6889   20.1362 O   0  0  0  0  0  0
  -26.5580  -34.8929   22.4691 O   0  0  0  0  0  0
  -23.5367  -32.1426   23.7446 O   0  0  0  0  0  0
  -30.9397  -18.6121   22.9001 C   0  0  0  0  0  0
  -30.4817  -19.6084   22.0156 C   0  0  0  0  0  0
  -30.8049  -17.2502   22.5743 C   0  0  0  0  0  0
  -29.8768  -19.2625   20.7866 C   0  0  0  0  0  0
  -29.7701  -17.8752   20.4433 C   0  0  0  0  0  0
  -30.2235  -16.8659   21.3484 C   0  0  0  0  0  0
  -28.8862  -22.8226   19.6568 C   0  0  0  0  0  0
  -29.1469  -17.4668   19.1105 C   0  0  0  0  0  0
  -29.3637  -20.3714   19.8359 C   0  0  0  0  0  0
  -28.5043  -24.1524   20.3607 C   0  0  0  0  0  0
  -28.5979  -25.4237   19.4559 C   0  0  0  0  0  0
  -29.9298  -15.4782   21.1567 N   0  0  0  0  0  0
  -29.0919  -21.7131   20.4034 N   0  0  0  0  0  0
  -28.9837  -22.7912   18.4269 O   0  0  0  0  0  0
  -31.4843  -12.4583   19.1377 H   0  0  0  0  0  0
  -30.3642  -11.3233   19.8383 H   0  0  0  0  0  0
  -29.7587  -11.7767   17.4402 H   0  0  0  0  0  0
  -29.6509  -13.4864   17.7722 H   0  0  0  0  0  0
  -27.8627  -11.2811   18.8507 H   0  0  0  0  0  0
  -27.3809  -12.5750   17.7855 H   0  0  0  0  0  0
  -27.7028  -14.2367   19.5494 H   0  0  0  0  0  0
  -28.6862  -11.9577   21.3370 H   0  0  0  0  0  0
  -28.4437  -13.5868   21.8694 H   0  0  0  0  0  0
  -25.2730   -9.5689   22.4732 H   0  0  0  0  0  0
  -23.9948   -7.4638   22.7474 H   0  0  0  0  0  0
  -21.0791   -8.8811   19.8972 H   0  0  0  0  0  0
  -22.3656  -10.9690   19.6168 H   0  0  0  0  0  0
  -21.2000   -7.6136   23.9722 H   0  0  0  0  0  0
  -21.1482   -6.0507   25.9078 H   0  0  0  0  0  0
  -22.0599   -2.7592   23.2876 H   0  0  0  0  0  0
  -22.4064  -11.9919   22.4733 H   0  0  0  0  0  0
  -21.1166  -13.1428   22.2646 H   0  0  0  0  0  0
  -24.7154  -15.8541   20.6420 H   0  0  0  0  0  0
  -26.3367  -15.6217   20.2298 H   0  0  0  0  0  0
  -26.7135  -32.5523   23.1133 H   0  0  0  0  0  0
  -25.0112  -33.9749   25.0506 H   0  0  0  0  0  0
  -22.6977  -31.3034   21.4095 H   0  0  0  0  0  0
  -23.3760  -35.9625   23.3252 H   0  0  0  0  0  0
  -24.3570  -36.8948   22.2051 H   0  0  0  0  0  0
  -23.7209  -37.6501   23.6641 H   0  0  0  0  0  0
  -26.0306  -31.5842   20.5782 H   0  0  0  0  0  0
  -26.8291  -30.8961   21.9654 H   0  0  0  0  0  0
  -28.1003  -29.0742   21.1654 H   0  0  0  0  0  0
  -26.0040  -25.9309   19.0616 H   0  0  0  0  0  0
  -23.9709  -27.2727   19.0673 H   0  0  0  0  0  0
  -23.7401  -30.5943   19.4071 H   0  0  0  0  0  0
  -22.7397  -29.2503   19.8567 H   0  0  0  0  0  0
  -25.1244  -36.1975   25.0855 H   0  0  0  0  0  0
  -20.9927  -28.3251   24.1469 H   0  0  0  0  0  0
  -20.5699  -26.2282   23.3615 H   0  0  0  0  0  0
  -21.6645  -26.7471   22.1209 H   0  0  0  0  0  0
  -19.6899  -25.6329   21.1220 H   0  0  0  0  0  0
  -19.6662  -27.3256   20.6794 H   0  0  0  0  0  0
  -17.4188  -26.6698   21.4025 H   0  0  0  0  0  0
  -18.0289  -26.0083   22.9017 H   0  0  0  0  0  0
  -19.7933  -30.7268   24.2291 H   0  0  0  0  0  0
  -17.5012  -31.6257   24.5194 H   0  0  0  0  0  0
  -15.5348  -30.3007   23.7634 H   0  0  0  0  0  0
  -15.8669  -28.0860   22.7015 H   0  0  0  0  0  0
  -24.5971  -30.6994   25.7863 H   0  0  0  0  0  0
  -24.8932  -32.2866   26.4856 H   0  0  0  0  0  0
  -25.8168  -30.8953   27.0242 H   0  0  0  0  0  0
  -26.2815  -29.6782   24.1105 H   0  0  0  0  0  0
  -27.4124  -29.7221   25.4450 H   0  0  0  0  0  0
  -27.8621  -30.4326   23.9104 H   0  0  0  0  0  0
  -27.2730  -33.3584   26.2023 H   0  0  0  0  0  0
  -28.3901  -32.6818   25.0278 H   0  0  0  0  0  0
  -28.0736  -31.8371   26.5356 H   0  0  0  0  0  0
  -28.2599  -38.0116   24.7556 H   0  0  0  0  0  0
  -28.1093  -36.2662   24.6205 H   0  0  0  0  0  0
  -27.2310  -37.1358   25.8860 H   0  0  0  0  0  0
  -20.9352  -29.8769   21.6957 H   0  0  0  0  0  0
  -26.0174  -38.2856   24.1490 H   0  0  0  0  0  0
  -31.3780  -18.8967   23.8483 H   0  0  0  0  0  0
  -30.6000  -20.6444   22.3024 H   0  0  0  0  0  0
  -31.1274  -16.5024   23.2867 H   0  0  0  0  0  0
  -29.4570  -18.1376   18.3071 H   0  0  0  0  0  0
  -28.0586  -17.4846   19.1736 H   0  0  0  0  0  0
  -29.4552  -16.4678   18.8020 H   0  0  0  0  0  0
  -28.4360  -20.0342   19.3766 H   0  0  0  0  0  0
  -30.0885  -20.4678   19.0247 H   0  0  0  0  0  0
  -29.1640  -24.2739   21.2186 H   0  0  0  0  0  0
  -27.4918  -24.0572   20.7529 H   0  0  0  0  0  0
  -27.9582  -25.3334   18.5791 H   0  0  0  0  0  0
  -29.6080  -25.4593   19.0465 H   0  0  0  0  0  0
  -29.0195  -15.1798   21.4677 H   0  0  0  0  0  0
  -28.9684  -21.7792   21.4040 H   0  0  0  0  0  0
  1 25  1  0  0  0
  1 30  2  0  0  0
  1 82  1  0  0  0
  2  3  1  0  0  0
  2 25  1  0  0  0
  2 85  1  0  0  0
  2 86  1  0  0  0
  3  4  1  0  0  0
  3 87  1  0  0  0
  3 88  1  0  0  0
  4  5  1  0  0  0
  4 89  1  0  0  0
  4 90  1  0  0  0
  5  6  1  0  0  0
  5 26  1  0  0  0
  5 91  1  0  0  0
  6 25  1  0  0  0
  6 92  1  0  0  0
  6 93  1  0  0  0
  7  8  2  0  0  0
  7 26  1  0  0  0
  7 29  1  0  0  0
  8  9  1  0  0  0
  8 22  1  0  0  0
  9 10  1  0  0  0
  9 27  2  0  0  0
 10 11  2  0  0  0
 10 15  1  0  0  0
 11 12  1  0  0  0
 11 94  1  0  0  0
 12 13  2  0  0  0
 12 95  1  0  0  0
 13 14  1  0  0  0
 13 31  1  0  0  0
 14 15  2  0  0  0
 14 96  1  0  0  0
 15 97  1  0  0  0
 16 17  2  0  0  0
 16 21  1  0  0  0
 16 31  1  0  0  0
 17 18  1  0  0  0
 17 98  1  0  0  0
 18 19  2  0  0  0
 18 99  1  0  0  0
 19 20  1  0  0  0
 19 24  1  0  0  0
 20 21  2  0  0  0
 20100  1  0  0  0
 21 23  1  0  0  0
 22 28  1  0  0  0
 22 32  2  0  0  0
 26 27  1  0  0  0
 28101  1  0  0  0
 28102  1  0  0  0
 29103  1  0  0  0
 29104  1  0  0  0
 33 34  1  0  0  0
 33 66  1  0  0  0
 33 70  2  0  0  0
 34 36  1  0  0  0
 34 59  1  0  0  0
 34105  1  0  0  0
 35 44  2  0  0  0
 35 45  1  0  0  0
 35 68  1  0  0  0
 36 56  1  0  0  0
 36106  1  0  0  0
 37 39  1  0  0  0
 37 47  1  0  0  0
 37 66  1  0  0  0
 37107  1  0  0  0
 38 43  2  0  0  0
 38 46  1  0  0  0
 38 47  1  0  0  0
 39 64  1  0  0  0
 39 67  2  0  0  0
 40 52  1  0  0  0
 40 53  2  0  0  0
 40 58  1  0  0  0
 41108  1  0  0  0
 41109  1  0  0  0
 41110  1  0  0  0
 41 48  1  0  0  0
 42 43  1  0  0  0
 42 66  1  0  0  0
 42111  1  0  0  0
 42112  1  0  0  0
 43 44  1  0  0  0
 44113  1  0  0  0
 45 46  2  0  0  0
 45114  1  0  0  0
 46115  1  0  0  0
 47116  1  0  0  0
 47117  1  0  0  0
 48 56  1  0  0  0
 48 65  1  0  0  0
 48118  1  0  0  0
 49 50  1  0  0  0
 49 53  1  0  0  0
 49 64  1  0  0  0
 49119  1  0  0  0
 50 51  1  0  0  0
 50120  1  0  0  0
 50121  1  0  0  0
 51 52  1  0  0  0
 51122  1  0  0  0
 51123  1  0  0  0
 52124  1  0  0  0
 52125  1  0  0  0
 53 54  1  0  0  0
 54 55  2  0  0  0
 54126  1  0  0  0
 55 57  1  0  0  0
 55127  1  0  0  0
 56 69  2  0  0  0
 57 58  2  0  0  0
 57128  1  0  0  0
 58129  1  0  0  0
 59 60  1  0  0  0
 59 61  1  0  0  0
 59 62  1  0  0  0
 60130  1  0  0  0
 60131  1  0  0  0
 60132  1  0  0  0
 61133  1  0  0  0
 61134  1  0  0  0
 61135  1  0  0  0
 62136  1  0  0  0
 62137  1  0  0  0
 62138  1  0  0  0
 63 65  1  0  0  0
 63139  1  0  0  0
 63140  1  0  0  0
 63141  1  0  0  0
 64142  1  0  0  0
 65143  1  0  0  0
 68 81  1  0  0  0
 71 72  2  0  0  0
 71 73  1  0  0  0
 71144  1  0  0  0
 72 74  1  0  0  0
 72145  1  0  0  0
 73 76  2  0  0  0
 73146  1  0  0  0
 74 75  2  0  0  0
 74 79  1  0  0  0
 75 76  1  0  0  0
 75 78  1  0  0  0
 76 82  1  0  0  0
 77 80  1  0  0  0
 77 83  1  0  0  0
 77 84  2  0  0  0
 78147  1  0  0  0
 78148  1  0  0  0
 78149  1  0  0  0
 79 83  1  0  0  0
 79150  1  0  0  0
 79151  1  0  0  0
 80 81  1  0  0  0
 80152  1  0  0  0
 80153  1  0  0  0
 81154  1  0  0  0
 81155  1  0  0  0
 82156  1  0  0  0
 83157  1  0  0  0
M  ISO  4   1 100  68 101  81 101  82 100
M  END
> <chiral flag>
0

> <version>
0

> <s_m_source_file>
/data/baiqing/PycharmProjects/Reinvent-master-3.2/result/LINK_invent/BTK/process_docking_weight1_custom_product_contain_oxygen_bond_distance_aromatic_linkinvent_7_9_3/rearranged_h_0057.sdf

> <i_m_source_file_index>
48

> <r_mmod_Potential_Energy-OPLS-2005>
-137.917358398438

> <r_mmod_Stretch_Energy-OPLS-2005>
46.4062652587891

> <r_mmod_Bend_Energy-OPLS-2005>
111.336715698242

> <r_mmod_Torsional_Energy-OPLS-2005>
225.202850341797

> <r_mmod_Improper_Torsional_Energy-OPLS-2005>
4.04504585266113

> <r_mmod_Van_der_Waal_Energy-OPLS-2005>
152.224868774414

> <r_mmod_Electrostatic_Energy-OPLS-2005>
-457.894134521484

> <r_mmod_Solvation_Energy-OPLS-2005>
-237.312469482422

> <b_mmod_Minimization_Converged-OPLS-2005>
0

> <r_mmod_RMS_Derivative-OPLS-2005>
3.94387888908386

$$$$
49
                    3D
 Structure written by MMmdl.
160168  0  0  1  0            999 V2000
  -30.6648  -14.5000   20.5345 C   0  0  0  0  0  0
  -30.4341  -12.3172   19.4133 C   0  0  0  0  0  0
  -29.4897  -12.5042   18.2068 C   0  0  0  0  0  0
  -28.0158  -12.3414   18.6329 C   0  0  0  0  0  0
  -27.6644  -13.1851   19.8897 C   0  0  2  0  0  0
  -28.7157  -12.9648   21.0022 C   0  0  0  0  0  0
  -25.2571  -13.8129   20.5671 C   0  0  0  0  0  0
  -24.1790  -13.0412   20.9106 C   0  0  0  0  0  0
  -24.6352  -11.6873   20.8763 C   0  0  0  0  0  0
  -23.9022  -10.4249   21.0441 C   0  0  0  0  0  0
  -24.3584   -9.4143   21.9215 C   0  0  0  0  0  0
  -23.6244   -8.2178   22.0791 C   0  0  0  0  0  0
  -22.4247   -8.0220   21.3549 C   0  0  0  0  0  0
  -21.9884   -9.0212   20.4667 C   0  0  0  0  0  0
  -22.7211  -10.2079   20.3064 C   0  0  0  0  0  0
  -21.6849   -6.0672   22.5265 C   0  0  0  0  0  0
  -21.4012   -6.5585   23.8196 C   0  0  0  0  0  0
  -21.3655   -5.6756   24.9168 C   0  0  0  0  0  0
  -21.6025   -4.3023   24.7237 C   0  0  0  0  0  0
  -21.8824   -3.8090   23.4371 C   0  0  0  0  0  0
  -21.9175   -4.6892   22.3405 C   0  0  0  0  0  0
  -22.7782  -13.5216   21.1742 C   0  0  0  0  0  0
  -22.1625   -4.2071   21.0995 F   0  0  0  0  0  0
  -21.5640   -3.4518   25.7767 F   0  0  0  0  0  0
  -30.0418  -13.2913   20.4465 N   0  0  0  0  0  0
  -26.3021  -12.9254   20.3463 N   0  0  0  0  0  0
  -25.9291  -11.6427   20.5864 N   0  0  0  0  0  0
  -22.0453  -12.8236   22.0354 N   0  0  0  0  0  0
  -25.4228  -15.1863   20.4084 N   0  0  0  0  0  0
  -31.7840  -14.7138   20.0625 O   0  0  0  0  0  0
  -21.6603   -6.8811   21.4229 O   0  0  0  0  0  0
  -22.3414  -14.5500   20.6564 O   0  0  0  0  0  0
  -24.6160  -31.8641   23.2048 C   0  0  0  0  0  0
  -25.9058  -32.4798   23.8322 C   0  0  1  0  0  0
  -27.2268  -27.3956   20.1211 C   0  0  0  0  0  0
  -25.5903  -33.8600   24.2261 N   0  0  0  0  0  0
  -23.4005  -30.4879   21.5440 C   0  0  2  0  0  0
  -24.8439  -28.9425   20.1123 C   0  0  0  0  0  0
  -22.7385  -29.4634   22.4924 C   0  0  0  0  0  0
  -18.0296  -28.1420   22.8387 C   0  0  0  0  0  0
  -24.1505  -36.7327   23.2646 C   0  0  0  0  0  0
  -25.9283  -30.8181   21.3607 C   0  0  0  0  0  0
  -26.0032  -29.4475   20.7145 C   0  0  0  0  0  0
  -27.1920  -28.6833   20.7143 C   0  0  0  0  0  0
  -26.0533  -26.9080   19.5051 C   0  0  0  0  0  0
  -24.8678  -27.6751   19.5036 C   0  0  0  0  0  0
  -23.6082  -29.8137   20.1603 C   0  0  0  0  0  0
  -25.4128  -36.3117   24.0332 C   0  0  1  0  0  0
  -20.5870  -28.3634   23.1247 C   0  0  2  0  0  0
  -20.6757  -26.9446   22.5173 C   0  0  0  0  0  0
  -19.5739  -26.6574   21.4929 C   0  0  0  0  0  0
  -18.1921  -26.8000   22.1424 C   0  0  0  0  0  0
  -19.1556  -28.8824   23.2876 C   0  0  0  0  0  0
  -18.9519  -30.1387   23.8998 C   0  0  0  0  0  0
  -17.6526  -30.6548   24.0681 C   0  0  0  0  0  0
  -25.9041  -34.9473   23.5081 C   0  0  0  0  0  0
  -16.5399  -29.9099   23.6378 C   0  0  0  0  0  0
  -16.7298  -28.6568   23.0290 C   0  0  0  0  0  0
  -26.4469  -31.6578   25.0653 C   0  0  0  0  0  0
  -25.3703  -31.3711   26.1370 C   0  0  0  0  0  0
  -27.0315  -30.3017   24.6065 C   0  0  0  0  0  0
  -27.6022  -32.4292   25.7443 C   0  0  0  0  0  0
  -27.5584  -37.1817   24.8458 C   0  0  0  0  0  0
  -21.4102  -29.3049   22.3691 N   0  0  0  0  0  0
  -26.4314  -37.3791   23.9384 N   0  0  0  0  0  0
  -24.6670  -31.0700   22.0981 N   0  0  0  0  0  0
  -23.4161  -28.8145   23.2941 O   0  0  0  0  0  0
  -28.4105  -26.6812   20.1883 O   0  0  0  0  0  0
  -26.5615  -34.8924   22.4652 O   0  0  0  0  0  0
  -23.5347  -32.1418   23.7429 O   0  0  0  0  0  0
  -28.4519  -17.8164   18.5319 C   0  0  0  0  0  0
  -28.9804  -16.6575   19.1251 C   0  0  0  0  0  0
  -29.6122  -17.9654   21.0685 C   0  0  0  0  0  0
  -28.5067  -19.0681   19.1826 C   0  0  0  0  0  0
  -29.1168  -19.1642   20.4679 C   0  0  0  0  0  0
  -29.5485  -16.7060   20.4150 C   0  0  0  0  0  0
  -28.8791  -22.8248   20.4256 C   0  0  0  0  0  0
  -27.9245  -20.2600   18.4393 C   0  0  0  0  0  0
  -27.2101  -21.5918   21.7927 C   0  0  0  0  0  0
  -29.3564  -20.4924   21.2375 C   0  0  0  0  0  0
  -28.0802  -24.1590   20.5894 C   0  0  0  0  0  0
  -28.5391  -25.3413   19.6665 C   0  0  0  0  0  0
  -29.9267  -15.4919   21.0797 N   0  0  0  0  0  0
  -28.4727  -21.6777   21.0516 N   0  0  0  0  0  0
  -29.9098  -22.8385   19.7460 O   0  0  0  0  0  0
  -31.4735  -12.4372   19.0956 H   0  0  0  0  0  0
  -30.3533  -11.3004   19.8040 H   0  0  0  0  0  0
  -29.7399  -11.7857   17.4248 H   0  0  0  0  0  0
  -29.6241  -13.4954   17.7731 H   0  0  0  0  0  0
  -27.8345  -11.2843   18.8298 H   0  0  0  0  0  0
  -27.3528  -12.6068   17.8104 H   0  0  0  0  0  0
  -27.7055  -14.2283   19.5950 H   0  0  0  0  0  0
  -28.7076  -11.9226   21.3247 H   0  0  0  0  0  0
  -28.4781  -13.5427   21.8963 H   0  0  0  0  0  0
  -25.2782   -9.5555   22.4749 H   0  0  0  0  0  0
  -23.9925   -7.4565   22.7554 H   0  0  0  0  0  0
  -21.0767   -8.8697   19.9012 H   0  0  0  0  0  0
  -22.3702  -10.9558   19.6106 H   0  0  0  0  0  0
  -21.2020   -7.6109   23.9655 H   0  0  0  0  0  0
  -21.1484   -6.0520   25.9059 H   0  0  0  0  0  0
  -22.0641   -2.7553   23.2907 H   0  0  0  0  0  0
  -22.4121  -11.9912   22.4699 H   0  0  0  0  0  0
  -21.1057  -13.1191   22.2619 H   0  0  0  0  0  0
  -24.6504  -15.8354   20.5266 H   0  0  0  0  0  0
  -26.2806  -15.6459   20.1332 H   0  0  0  0  0  0
  -26.7089  -32.5468   23.1040 H   0  0  0  0  0  0
  -25.0035  -33.9757   25.0390 H   0  0  0  0  0  0
  -22.6947  -31.3086   21.4072 H   0  0  0  0  0  0
  -23.3755  -35.9665   23.3321 H   0  0  0  0  0  0
  -24.3591  -36.8927   22.2056 H   0  0  0  0  0  0
  -23.7278  -37.6543   23.6645 H   0  0  0  0  0  0
  -26.0375  -31.5747   20.5844 H   0  0  0  0  0  0
  -26.8198  -30.8728   21.9742 H   0  0  0  0  0  0
  -28.0823  -29.0713   21.1873 H   0  0  0  0  0  0
  -26.0256  -25.9354   19.0340 H   0  0  0  0  0  0
  -23.9764  -27.2777   19.0398 H   0  0  0  0  0  0
  -23.7099  -30.5901   19.4039 H   0  0  0  0  0  0
  -22.7280  -29.2349   19.8710 H   0  0  0  0  0  0
  -25.1315  -36.1966   25.0828 H   0  0  0  0  0  0
  -20.9929  -28.3174   24.1375 H   0  0  0  0  0  0
  -20.5712  -26.2117   23.3175 H   0  0  0  0  0  0
  -21.6624  -26.7567   22.0922 H   0  0  0  0  0  0
  -19.6956  -25.6618   21.0700 H   0  0  0  0  0  0
  -19.6719  -27.3558   20.6627 H   0  0  0  0  0  0
  -17.4143  -26.6836   21.3830 H   0  0  0  0  0  0
  -18.0313  -26.0099   22.8769 H   0  0  0  0  0  0
  -19.8021  -30.7091   24.2486 H   0  0  0  0  0  0
  -17.5156  -31.6189   24.5356 H   0  0  0  0  0  0
  -15.5421  -30.3061   23.7722 H   0  0  0  0  0  0
  -15.8707  -28.0987   22.6851 H   0  0  0  0  0  0
  -24.5867  -30.7096   25.7670 H   0  0  0  0  0  0
  -24.8922  -32.2888   26.4792 H   0  0  0  0  0  0
  -25.8025  -30.8859   27.0123 H   0  0  0  0  0  0
  -26.2891  -29.6748   24.1120 H   0  0  0  0  0  0
  -27.4084  -29.7291   25.4540 H   0  0  0  0  0  0
  -27.8701  -30.4329   23.9231 H   0  0  0  0  0  0
  -27.2624  -33.3561   26.2066 H   0  0  0  0  0  0
  -28.3826  -32.6882   25.0284 H   0  0  0  0  0  0
  -28.0670  -31.8360   26.5316 H   0  0  0  0  0  0
  -28.2607  -38.0113   24.7485 H   0  0  0  0  0  0
  -28.1080  -36.2632   24.6310 H   0  0  0  0  0  0
  -27.2278  -37.1492   25.8859 H   0  0  0  0  0  0
  -20.9163  -29.8844   21.7043 H   0  0  0  0  0  0
  -26.0205  -38.2868   24.1372 H   0  0  0  0  0  0
  -27.9953  -17.7365   17.5545 H   0  0  0  0  0  0
  -28.9265  -15.7253   18.5833 H   0  0  0  0  0  0
  -30.0562  -18.0243   22.0524 H   0  0  0  0  0  0
  -28.7059  -20.9821   18.2080 H   0  0  0  0  0  0
  -27.1293  -20.7375   19.0067 H   0  0  0  0  0  0
  -27.4764  -19.9577   17.4921 H   0  0  0  0  0  0
  -26.9670  -20.5561   22.0320 H   0  0  0  0  0  0
  -26.3705  -21.9890   21.2231 H   0  0  0  0  0  0
  -27.2802  -22.1402   22.7339 H   0  0  0  0  0  0
  -29.3271  -20.2601   22.3055 H   0  0  0  0  0  0
  -30.3994  -20.7683   21.0616 H   0  0  0  0  0  0
  -28.1725  -24.4585   21.6332 H   0  0  0  0  0  0
  -27.0198  -23.9789   20.4236 H   0  0  0  0  0  0
  -28.0822  -25.2668   18.6797 H   0  0  0  0  0  0
  -29.6110  -25.2550   19.4873 H   0  0  0  0  0  0
  -29.2002  -15.1255   21.6757 H   0  0  0  0  0  0
  1 25  1  0  0  0
  1 30  2  0  0  0
  1 83  1  0  0  0
  2  3  1  0  0  0
  2 25  1  0  0  0
  2 86  1  0  0  0
  2 87  1  0  0  0
  3  4  1  0  0  0
  3 88  1  0  0  0
  3 89  1  0  0  0
  4  5  1  0  0  0
  4 90  1  0  0  0
  4 91  1  0  0  0
  5  6  1  0  0  0
  5 26  1  0  0  0
  5 92  1  0  0  0
  6 25  1  0  0  0
  6 93  1  0  0  0
  6 94  1  0  0  0
  7  8  2  0  0  0
  7 26  1  0  0  0
  7 29  1  0  0  0
  8  9  1  0  0  0
  8 22  1  0  0  0
  9 10  1  0  0  0
  9 27  2  0  0  0
 10 11  2  0  0  0
 10 15  1  0  0  0
 11 12  1  0  0  0
 11 95  1  0  0  0
 12 13  2  0  0  0
 12 96  1  0  0  0
 13 14  1  0  0  0
 13 31  1  0  0  0
 14 15  2  0  0  0
 14 97  1  0  0  0
 15 98  1  0  0  0
 16 17  2  0  0  0
 16 21  1  0  0  0
 16 31  1  0  0  0
 17 18  1  0  0  0
 17 99  1  0  0  0
 18 19  2  0  0  0
 18100  1  0  0  0
 19 20  1  0  0  0
 19 24  1  0  0  0
 20 21  2  0  0  0
 20101  1  0  0  0
 21 23  1  0  0  0
 22 28  1  0  0  0
 22 32  2  0  0  0
 26 27  1  0  0  0
 28102  1  0  0  0
 28103  1  0  0  0
 29104  1  0  0  0
 29105  1  0  0  0
 33 34  1  0  0  0
 33 66  1  0  0  0
 33 70  2  0  0  0
 34 36  1  0  0  0
 34 59  1  0  0  0
 34106  1  0  0  0
 35 44  2  0  0  0
 35 45  1  0  0  0
 35 68  1  0  0  0
 36 56  1  0  0  0
 36107  1  0  0  0
 37 39  1  0  0  0
 37 47  1  0  0  0
 37 66  1  0  0  0
 37108  1  0  0  0
 38 43  2  0  0  0
 38 46  1  0  0  0
 38 47  1  0  0  0
 39 64  1  0  0  0
 39 67  2  0  0  0
 40 52  1  0  0  0
 40 53  2  0  0  0
 40 58  1  0  0  0
 41109  1  0  0  0
 41110  1  0  0  0
 41111  1  0  0  0
 41 48  1  0  0  0
 42 43  1  0  0  0
 42 66  1  0  0  0
 42112  1  0  0  0
 42113  1  0  0  0
 43 44  1  0  0  0
 44114  1  0  0  0
 45 46  2  0  0  0
 45115  1  0  0  0
 46116  1  0  0  0
 47117  1  0  0  0
 47118  1  0  0  0
 48 56  1  0  0  0
 48 65  1  0  0  0
 48119  1  0  0  0
 49 50  1  0  0  0
 49 53  1  0  0  0
 49 64  1  0  0  0
 49120  1  0  0  0
 50 51  1  0  0  0
 50121  1  0  0  0
 50122  1  0  0  0
 51 52  1  0  0  0
 51123  1  0  0  0
 51124  1  0  0  0
 52125  1  0  0  0
 52126  1  0  0  0
 53 54  1  0  0  0
 54 55  2  0  0  0
 54127  1  0  0  0
 55 57  1  0  0  0
 55128  1  0  0  0
 56 69  2  0  0  0
 57 58  2  0  0  0
 57129  1  0  0  0
 58130  1  0  0  0
 59 60  1  0  0  0
 59 61  1  0  0  0
 59 62  1  0  0  0
 60131  1  0  0  0
 60132  1  0  0  0
 60133  1  0  0  0
 61134  1  0  0  0
 61135  1  0  0  0
 61136  1  0  0  0
 62137  1  0  0  0
 62138  1  0  0  0
 62139  1  0  0  0
 63 65  1  0  0  0
 63140  1  0  0  0
 63141  1  0  0  0
 63142  1  0  0  0
 64143  1  0  0  0
 65144  1  0  0  0
 68 82  1  0  0  0
 71 72  2  0  0  0
 71 74  1  0  0  0
 71145  1  0  0  0
 72 76  1  0  0  0
 72146  1  0  0  0
 73 75  1  0  0  0
 73 76  2  0  0  0
 73147  1  0  0  0
 74 75  2  0  0  0
 74 78  1  0  0  0
 75 80  1  0  0  0
 76 83  1  0  0  0
 77 81  1  0  0  0
 77 84  1  0  0  0
 77 85  2  0  0  0
 78148  1  0  0  0
 78149  1  0  0  0
 78150  1  0  0  0
 79 84  1  0  0  0
 79151  1  0  0  0
 79152  1  0  0  0
 79153  1  0  0  0
 80 84  1  0  0  0
 80154  1  0  0  0
 80155  1  0  0  0
 81 82  1  0  0  0
 81156  1  0  0  0
 81157  1  0  0  0
 82158  1  0  0  0
 82159  1  0  0  0
 83160  1  0  0  0
M  ISO  4   1 100  68 101  82 101  83 100
M  END
> <chiral flag>
0

> <version>
0

> <s_m_source_file>
/data/baiqing/PycharmProjects/Reinvent-master-3.2/result/LINK_invent/BTK/process_docking_weight1_custom_product_contain_oxygen_bond_distance_aromatic_linkinvent_7_9_3/rearranged_h_0057.sdf

> <i_m_source_file_index>
49

> <r_mmod_Potential_Energy-OPLS-2005>
-11.4344930648804

> <r_mmod_Stretch_Energy-OPLS-2005>
51.2876815795898

> <r_mmod_Bend_Energy-OPLS-2005>
128.897567749023

> <r_mmod_Torsional_Energy-OPLS-2005>
252.852676391602

> <r_mmod_Improper_Torsional_Energy-OPLS-2005>
6.83909273147583

> <r_mmod_Van_der_Waal_Energy-OPLS-2005>
155.361434936523

> <r_mmod_Electrostatic_Energy-OPLS-2005>
-397.323150634766

> <r_mmod_Solvation_Energy-OPLS-2005>
-228.84309387207

> <b_mmod_Minimization_Converged-OPLS-2005>
0

> <r_mmod_RMS_Derivative-OPLS-2005>
6.24043226242065

$$$$
50
                    3D
 Structure written by MMmdl.
157165  0  0  1  0            999 V2000
  -30.7312  -14.4780   20.5612 C   0  0  0  0  0  0
  -30.4115  -12.3080   19.4307 C   0  0  0  0  0  0
  -29.4961  -12.5054   18.2063 C   0  0  0  0  0  0
  -28.0169  -12.3660   18.6164 C   0  0  0  0  0  0
  -27.6588  -13.2141   19.8671 C   0  0  2  0  0  0
  -28.7011  -13.0282   20.9941 C   0  0  0  0  0  0
  -25.2575  -13.8179   20.5665 C   0  0  0  0  0  0
  -24.1832  -13.0448   20.9164 C   0  0  0  0  0  0
  -24.6392  -11.6915   20.8719 C   0  0  0  0  0  0
  -23.9056  -10.4300   21.0400 C   0  0  0  0  0  0
  -24.3611   -9.4216   21.9178 C   0  0  0  0  0  0
  -23.6298   -8.2249   22.0745 C   0  0  0  0  0  0
  -22.4279   -8.0282   21.3541 C   0  0  0  0  0  0
  -21.9906   -9.0253   20.4648 C   0  0  0  0  0  0
  -22.7229  -10.2131   20.3056 C   0  0  0  0  0  0
  -21.6850   -6.0741   22.5279 C   0  0  0  0  0  0
  -21.4021   -6.5640   23.8213 C   0  0  0  0  0  0
  -21.3655   -5.6786   24.9174 C   0  0  0  0  0  0
  -21.6035   -4.3047   24.7225 C   0  0  0  0  0  0
  -21.8820   -3.8148   23.4346 C   0  0  0  0  0  0
  -21.9187   -4.6970   22.3402 C   0  0  0  0  0  0
  -22.7855  -13.5242   21.1830 C   0  0  0  0  0  0
  -22.1660   -4.2149   21.0983 F   0  0  0  0  0  0
  -21.5621   -3.4528   25.7743 F   0  0  0  0  0  0
  -30.0298  -13.3165   20.4331 N   0  0  0  0  0  0
  -26.3006  -12.9364   20.3324 N   0  0  0  0  0  0
  -25.9324  -11.6515   20.5749 N   0  0  0  0  0  0
  -22.0484  -12.8252   22.0400 N   0  0  0  0  0  0
  -25.4299  -15.1904   20.4069 N   0  0  0  0  0  0
  -31.8675  -14.6052   20.0998 O   0  0  0  0  0  0
  -21.6640   -6.8883   21.4243 O   0  0  0  0  0  0
  -22.3550  -14.5544   20.6671 O   0  0  0  0  0  0
  -24.6201  -31.8679   23.2100 C   0  0  0  0  0  0
  -25.9088  -32.4825   23.8400 C   0  0  1  0  0  0
  -27.2221  -27.3976   20.0964 C   0  0  0  0  0  0
  -25.5934  -33.8619   24.2335 N   0  0  0  0  0  0
  -23.4079  -30.4943   21.5525 C   0  0  2  0  0  0
  -24.8501  -28.9651   20.1122 C   0  0  0  0  0  0
  -22.7459  -29.4649   22.4978 C   0  0  0  0  0  0
  -18.0294  -28.1370   22.8498 C   0  0  0  0  0  0
  -24.1482  -36.7287   23.2639 C   0  0  0  0  0  0
  -25.9434  -30.8221   21.3711 C   0  0  0  0  0  0
  -26.0165  -29.4572   20.7109 C   0  0  0  0  0  0
  -27.2055  -28.6832   20.6984 C   0  0  0  0  0  0
  -26.0297  -26.9447   19.4780 C   0  0  0  0  0  0
  -24.8536  -27.7091   19.4922 C   0  0  0  0  0  0
  -23.6154  -29.8354   20.1646 C   0  0  0  0  0  0
  -25.4105  -36.3108   24.0346 C   0  0  1  0  0  0
  -20.5896  -28.3666   23.1307 C   0  0  2  0  0  0
  -20.6776  -26.9400   22.5417 C   0  0  0  0  0  0
  -19.5735  -26.6384   21.5235 C   0  0  0  0  0  0
  -18.1921  -26.7919   22.1639 C   0  0  0  0  0  0
  -19.1547  -28.8834   23.2887 C   0  0  0  0  0  0
  -18.9470  -30.1441   23.8897 C   0  0  0  0  0  0
  -17.6467  -30.6575   24.0560 C   0  0  0  0  0  0
  -25.9040  -34.9478   23.5132 C   0  0  0  0  0  0
  -16.5357  -29.9080   23.6322 C   0  0  0  0  0  0
  -16.7284  -28.6490   23.0365 C   0  0  0  0  0  0
  -26.4506  -31.6601   25.0729 C   0  0  0  0  0  0
  -25.3764  -31.3730   26.1476 C   0  0  0  0  0  0
  -27.0353  -30.3044   24.6119 C   0  0  0  0  0  0
  -27.6065  -32.4344   25.7488 C   0  0  0  0  0  0
  -27.5581  -37.1796   24.8470 C   0  0  0  0  0  0
  -21.4191  -29.3023   22.3715 N   0  0  0  0  0  0
  -26.4289  -37.3798   23.9421 N   0  0  0  0  0  0
  -24.6761  -31.0757   22.1021 N   0  0  0  0  0  0
  -23.4225  -28.8198   23.3030 O   0  0  0  0  0  0
  -28.3657  -26.6047   20.1434 O   0  0  0  0  0  0
  -26.5593  -34.8938   22.4691 O   0  0  0  0  0  0
  -23.5382  -32.1447   23.7475 O   0  0  0  0  0  0
  -32.3976  -18.3944   21.8060 C   0  0  0  0  0  0
  -31.8464  -17.1029   21.7712 C   0  0  0  0  0  0
  -29.8734  -17.9919   20.6660 C   0  0  0  0  0  0
  -30.4202  -19.3100   20.6742 C   0  0  0  0  0  0
  -31.7184  -19.4960   21.2398 C   0  0  0  0  0  0
  -30.5914  -16.8758   21.1703 C   0  0  0  0  0  0
  -29.6617  -20.4145   19.9511 C   0  0  0  0  0  0
  -29.2809  -24.2171   20.2724 C   0  0  0  0  0  0
  -32.4568  -20.8298   21.2271 C   0  0  0  0  0  0
  -29.0964  -22.8093   19.6789 C   0  0  0  0  0  0
  -28.1537  -25.1897   19.8940 C   0  0  0  0  0  0
  -30.2715  -24.5392   20.9945 N   0  0  0  0  0  0
  -30.0675  -15.5434   21.0674 N   0  0  0  0  0  0
  -29.7115  -21.6813   20.4094 N   0  0  0  0  0  0
  -28.9903  -20.1240   18.9571 O   0  0  0  0  0  0
  -31.4610  -12.3787   19.1365 H   0  0  0  0  0  0
  -30.2891  -11.3037   19.8403 H   0  0  0  0  0  0
  -29.7420  -11.7777   17.4315 H   0  0  0  0  0  0
  -29.6695  -13.4907   17.7685 H   0  0  0  0  0  0
  -27.8299  -11.3112   18.8198 H   0  0  0  0  0  0
  -27.3655  -12.6295   17.7811 H   0  0  0  0  0  0
  -27.6952  -14.2576   19.5541 H   0  0  0  0  0  0
  -28.6761  -12.0060   21.3728 H   0  0  0  0  0  0
  -28.4664  -13.6633   21.8492 H   0  0  0  0  0  0
  -25.2757   -9.5694   22.4746 H   0  0  0  0  0  0
  -23.9996   -7.4644   22.7461 H   0  0  0  0  0  0
  -21.0827   -8.8782   19.8974 H   0  0  0  0  0  0
  -22.3685  -10.9670   19.6160 H   0  0  0  0  0  0
  -21.2039   -7.6151   23.9723 H   0  0  0  0  0  0
  -21.1465   -6.0517   25.9068 H   0  0  0  0  0  0
  -22.0608   -2.7616   23.2846 H   0  0  0  0  0  0
  -22.4088  -11.9924   22.4820 H   0  0  0  0  0  0
  -21.1108  -13.1312   22.2588 H   0  0  0  0  0  0
  -24.6634  -15.8468   20.5099 H   0  0  0  0  0  0
  -26.2827  -15.6254   20.0784 H   0  0  0  0  0  0
  -26.7159  -32.5522   23.1158 H   0  0  0  0  0  0
  -25.0137  -33.9774   25.0517 H   0  0  0  0  0  0
  -22.6955  -31.3107   21.4183 H   0  0  0  0  0  0
  -23.3755  -35.9611   23.3316 H   0  0  0  0  0  0
  -24.3564  -36.8888   22.2048 H   0  0  0  0  0  0
  -23.7229  -37.6497   23.6633 H   0  0  0  0  0  0
  -26.0678  -31.5909   20.6059 H   0  0  0  0  0  0
  -26.8293  -30.8664   21.9938 H   0  0  0  0  0  0
  -28.1008  -29.0571   21.1742 H   0  0  0  0  0  0
  -25.9632  -25.9901   18.9779 H   0  0  0  0  0  0
  -23.9579  -27.3222   19.0239 H   0  0  0  0  0  0
  -23.7277  -30.6139   19.4097 H   0  0  0  0  0  0
  -22.7387  -29.2587   19.8643 H   0  0  0  0  0  0
  -25.1285  -36.1978   25.0844 H   0  0  0  0  0  0
  -20.9980  -28.3240   24.1425 H   0  0  0  0  0  0
  -20.5705  -26.2282   23.3617 H   0  0  0  0  0  0
  -21.6640  -26.7443   22.1193 H   0  0  0  0  0  0
  -19.6886  -25.6305   21.1235 H   0  0  0  0  0  0
  -19.6661  -27.3215   20.6779 H   0  0  0  0  0  0
  -17.4204  -26.6709   21.4022 H   0  0  0  0  0  0
  -18.0270  -26.0060   22.9023 H   0  0  0  0  0  0
  -19.7950  -30.7265   24.2266 H   0  0  0  0  0  0
  -17.5023  -31.6259   24.5166 H   0  0  0  0  0  0
  -15.5350  -30.2983   23.7630 H   0  0  0  0  0  0
  -15.8687  -28.0799   22.7083 H   0  0  0  0  0  0
  -24.5903  -30.7125   25.7804 H   0  0  0  0  0  0
  -24.8994  -32.2904   26.4933 H   0  0  0  0  0  0
  -25.8098  -30.8879   27.0229 H   0  0  0  0  0  0
  -26.2910  -29.6786   24.1178 H   0  0  0  0  0  0
  -27.4149  -29.7301   25.4576 H   0  0  0  0  0  0
  -27.8733  -30.4364   23.9269 H   0  0  0  0  0  0
  -27.2659  -33.3631   26.2077 H   0  0  0  0  0  0
  -28.3849  -32.6942   25.0298 H   0  0  0  0  0  0
  -28.0767  -31.8483   26.5393 H   0  0  0  0  0  0
  -28.2614  -38.0078   24.7530 H   0  0  0  0  0  0
  -28.1076  -36.2622   24.6297 H   0  0  0  0  0  0
  -27.2305  -37.1450   25.8876 H   0  0  0  0  0  0
  -20.9377  -29.8756   21.6927 H   0  0  0  0  0  0
  -26.0186  -38.2883   24.1430 H   0  0  0  0  0  0
  -33.3810  -18.5224   22.2394 H   0  0  0  0  0  0
  -32.4161  -16.2793   22.1808 H   0  0  0  0  0  0
  -28.9079  -17.8301   20.2061 H   0  0  0  0  0  0
  -33.5019  -20.7095   21.5145 H   0  0  0  0  0  0
  -32.0063  -21.5271   21.9326 H   0  0  0  0  0  0
  -32.4512  -21.2749   20.2318 H   0  0  0  0  0  0
  -29.4931  -22.8309   18.6624 H   0  0  0  0  0  0
  -28.0280  -22.6086   19.5863 H   0  0  0  0  0  0
  -27.2725  -24.8469   20.4399 H   0  0  0  0  0  0
  -27.9571  -25.0537   18.8293 H   0  0  0  0  0  0
  -30.9179  -23.7695   21.1125 H   0  0  0  0  0  0
  -29.0890  -15.4096   21.2715 H   0  0  0  0  0  0
  -30.2060  -21.8691   21.2688 H   0  0  0  0  0  0
  1 25  1  0  0  0
  1 30  2  0  0  0
  1 83  1  0  0  0
  2  3  1  0  0  0
  2 25  1  0  0  0
  2 86  1  0  0  0
  2 87  1  0  0  0
  3  4  1  0  0  0
  3 88  1  0  0  0
  3 89  1  0  0  0
  4  5  1  0  0  0
  4 90  1  0  0  0
  4 91  1  0  0  0
  5  6  1  0  0  0
  5 26  1  0  0  0
  5 92  1  0  0  0
  6 25  1  0  0  0
  6 93  1  0  0  0
  6 94  1  0  0  0
  7  8  2  0  0  0
  7 26  1  0  0  0
  7 29  1  0  0  0
  8  9  1  0  0  0
  8 22  1  0  0  0
  9 10  1  0  0  0
  9 27  2  0  0  0
 10 11  2  0  0  0
 10 15  1  0  0  0
 11 12  1  0  0  0
 11 95  1  0  0  0
 12 13  2  0  0  0
 12 96  1  0  0  0
 13 14  1  0  0  0
 13 31  1  0  0  0
 14 15  2  0  0  0
 14 97  1  0  0  0
 15 98  1  0  0  0
 16 17  2  0  0  0
 16 21  1  0  0  0
 16 31  1  0  0  0
 17 18  1  0  0  0
 17 99  1  0  0  0
 18 19  2  0  0  0
 18100  1  0  0  0
 19 20  1  0  0  0
 19 24  1  0  0  0
 20 21  2  0  0  0
 20101  1  0  0  0
 21 23  1  0  0  0
 22 28  1  0  0  0
 22 32  2  0  0  0
 26 27  1  0  0  0
 28102  1  0  0  0
 28103  1  0  0  0
 29104  1  0  0  0
 29105  1  0  0  0
 33 34  1  0  0  0
 33 66  1  0  0  0
 33 70  2  0  0  0
 34 36  1  0  0  0
 34 59  1  0  0  0
 34106  1  0  0  0
 35 44  2  0  0  0
 35 45  1  0  0  0
 35 68  1  0  0  0
 36 56  1  0  0  0
 36107  1  0  0  0
 37 39  1  0  0  0
 37 47  1  0  0  0
 37 66  1  0  0  0
 37108  1  0  0  0
 38 43  2  0  0  0
 38 46  1  0  0  0
 38 47  1  0  0  0
 39 64  1  0  0  0
 39 67  2  0  0  0
 40 52  1  0  0  0
 40 53  2  0  0  0
 40 58  1  0  0  0
 41109  1  0  0  0
 41110  1  0  0  0
 41111  1  0  0  0
 41 48  1  0  0  0
 42 43  1  0  0  0
 42 66  1  0  0  0
 42112  1  0  0  0
 42113  1  0  0  0
 43 44  1  0  0  0
 44114  1  0  0  0
 45 46  2  0  0  0
 45115  1  0  0  0
 46116  1  0  0  0
 47117  1  0  0  0
 47118  1  0  0  0
 48 56  1  0  0  0
 48 65  1  0  0  0
 48119  1  0  0  0
 49 50  1  0  0  0
 49 53  1  0  0  0
 49 64  1  0  0  0
 49120  1  0  0  0
 50 51  1  0  0  0
 50121  1  0  0  0
 50122  1  0  0  0
 51 52  1  0  0  0
 51123  1  0  0  0
 51124  1  0  0  0
 52125  1  0  0  0
 52126  1  0  0  0
 53 54  1  0  0  0
 54 55  2  0  0  0
 54127  1  0  0  0
 55 57  1  0  0  0
 55128  1  0  0  0
 56 69  2  0  0  0
 57 58  2  0  0  0
 57129  1  0  0  0
 58130  1  0  0  0
 59 60  1  0  0  0
 59 61  1  0  0  0
 59 62  1  0  0  0
 60131  1  0  0  0
 60132  1  0  0  0
 60133  1  0  0  0
 61134  1  0  0  0
 61135  1  0  0  0
 61136  1  0  0  0
 62137  1  0  0  0
 62138  1  0  0  0
 62139  1  0  0  0
 63 65  1  0  0  0
 63140  1  0  0  0
 63141  1  0  0  0
 63142  1  0  0  0
 64143  1  0  0  0
 65144  1  0  0  0
 68 81  1  0  0  0
 71 72  2  0  0  0
 71 75  1  0  0  0
 71145  1  0  0  0
 72 76  1  0  0  0
 72146  1  0  0  0
 73 74  1  0  0  0
 73 76  2  0  0  0
 73147  1  0  0  0
 74 75  2  0  0  0
 74 77  1  0  0  0
 75 79  1  0  0  0
 76 83  1  0  0  0
 77 84  1  0  0  0
 77 85  2  0  0  0
 78 80  1  0  0  0
 78 81  1  0  0  0
 78 82  2  0  0  0
 79148  1  0  0  0
 79149  1  0  0  0
 79150  1  0  0  0
 80 84  1  0  0  0
 80151  1  0  0  0
 80152  1  0  0  0
 81153  1  0  0  0
 81154  1  0  0  0
 82155  1  0  0  0
 83156  1  0  0  0
 84157  1  0  0  0
M  ISO  4   1 100  68 101  81 101  83 100
M  END
> <chiral flag>
0

> <version>
0

> <s_m_source_file>
/data/baiqing/PycharmProjects/Reinvent-master-3.2/result/LINK_invent/BTK/process_docking_weight1_custom_product_contain_oxygen_bond_distance_aromatic_linkinvent_7_9_3/rearranged_h_0057.sdf

> <i_m_source_file_index>
50

> <r_mmod_Potential_Energy-OPLS-2005>
-133.031219482422

> <r_mmod_Stretch_Energy-OPLS-2005>
46.5231399536133

> <r_mmod_Bend_Energy-OPLS-2005>
104.945426940918

> <r_mmod_Torsional_Energy-OPLS-2005>
228.697830200195

> <r_mmod_Improper_Torsional_Energy-OPLS-2005>
4.27584934234619

> <r_mmod_Van_der_Waal_Energy-OPLS-2005>
169.383422851562

> <r_mmod_Electrostatic_Energy-OPLS-2005>
-454.828826904297

> <r_mmod_Solvation_Energy-OPLS-2005>
-251.437057495117

> <b_mmod_Minimization_Converged-OPLS-2005>
0

> <r_mmod_RMS_Derivative-OPLS-2005>
2.49842977523804

$$$$
51
                    3D
 Structure written by MMmdl.
173182  0  0  1  0            999 V2000
  -30.7661  -14.4169   20.6445 C   0  0  0  0  0  0
  -30.4110  -12.3047   19.4144 C   0  0  0  0  0  0
  -29.4854  -12.5225   18.2029 C   0  0  0  0  0  0
  -28.0103  -12.3776   18.6184 C   0  0  0  0  0  0
  -27.6623  -13.2125   19.8790 C   0  0  2  0  0  0
  -28.7033  -12.9928   21.0009 C   0  0  0  0  0  0
  -25.2580  -13.8181   20.5693 C   0  0  0  0  0  0
  -24.1834  -13.0440   20.9178 C   0  0  0  0  0  0
  -24.6398  -11.6912   20.8730 C   0  0  0  0  0  0
  -23.9066  -10.4294   21.0398 C   0  0  0  0  0  0
  -24.3618   -9.4209   21.9177 C   0  0  0  0  0  0
  -23.6294   -8.2243   22.0751 C   0  0  0  0  0  0
  -22.4275   -8.0281   21.3539 C   0  0  0  0  0  0
  -21.9915   -9.0250   20.4636 C   0  0  0  0  0  0
  -22.7244  -10.2133   20.3043 C   0  0  0  0  0  0
  -21.6853   -6.0731   22.5272 C   0  0  0  0  0  0
  -21.4016   -6.5637   23.8206 C   0  0  0  0  0  0
  -21.3664   -5.6789   24.9173 C   0  0  0  0  0  0
  -21.6044   -4.3050   24.7225 C   0  0  0  0  0  0
  -21.8822   -3.8142   23.4344 C   0  0  0  0  0  0
  -21.9194   -4.6958   22.3398 C   0  0  0  0  0  0
  -22.7857  -13.5228   21.1841 C   0  0  0  0  0  0
  -22.1662   -4.2142   21.0975 F   0  0  0  0  0  0
  -21.5635   -3.4534   25.7740 F   0  0  0  0  0  0
  -30.0400  -13.2820   20.4520 N   0  0  0  0  0  0
  -26.3025  -12.9362   20.3394 N   0  0  0  0  0  0
  -25.9324  -11.6510   20.5770 N   0  0  0  0  0  0
  -22.0505  -12.8198   22.0397 N   0  0  0  0  0  0
  -25.4292  -15.1902   20.4110 N   0  0  0  0  0  0
  -31.8286  -14.6239   20.0510 O   0  0  0  0  0  0
  -21.6639   -6.8874   21.4234 O   0  0  0  0  0  0
  -22.3536  -14.5535   20.6705 O   0  0  0  0  0  0
  -24.6148  -31.8693   23.2116 C   0  0  0  0  0  0
  -25.9057  -32.4826   23.8405 C   0  0  1  0  0  0
  -27.2314  -27.4319   20.0849 C   0  0  0  0  0  0
  -25.5931  -33.8622   24.2333 N   0  0  0  0  0  0
  -23.3996  -30.4928   21.5542 C   0  0  2  0  0  0
  -24.8426  -28.9578   20.1161 C   0  0  0  0  0  0
  -22.7404  -29.4663   22.5026 C   0  0  0  0  0  0
  -18.0263  -28.1366   22.8489 C   0  0  0  0  0  0
  -24.1491  -36.7298   23.2640 C   0  0  0  0  0  0
  -25.9305  -30.8290   21.3699 C   0  0  0  0  0  0
  -26.0029  -29.4654   20.7110 C   0  0  0  0  0  0
  -27.1964  -28.7091   20.6916 C   0  0  0  0  0  0
  -26.0457  -26.9358   19.4916 C   0  0  0  0  0  0
  -24.8587  -27.6920   19.5062 C   0  0  0  0  0  0
  -23.6048  -29.8245   20.1689 C   0  0  0  0  0  0
  -25.4113  -36.3102   24.0335 C   0  0  1  0  0  0
  -20.5855  -28.3641   23.1329 C   0  0  2  0  0  0
  -20.6757  -26.9387   22.5411 C   0  0  0  0  0  0
  -19.5736  -26.6374   21.5203 C   0  0  0  0  0  0
  -18.1909  -26.7916   22.1614 C   0  0  0  0  0  0
  -19.1515  -28.8824   23.2895 C   0  0  0  0  0  0
  -18.9453  -30.1434   23.8892 C   0  0  0  0  0  0
  -17.6455  -30.6575   24.0558 C   0  0  0  0  0  0
  -25.9044  -34.9475   23.5122 C   0  0  0  0  0  0
  -16.5344  -29.9072   23.6339 C   0  0  0  0  0  0
  -16.7257  -28.6491   23.0355 C   0  0  0  0  0  0
  -26.4479  -31.6632   25.0758 C   0  0  0  0  0  0
  -25.3742  -31.3726   26.1506 C   0  0  0  0  0  0
  -27.0375  -30.3092   24.6180 C   0  0  0  0  0  0
  -27.6022  -32.4396   25.7537 C   0  0  0  0  0  0
  -27.5575  -37.1808   24.8463 C   0  0  0  0  0  0
  -21.4135  -29.3022   22.3757 N   0  0  0  0  0  0
  -26.4294  -37.3788   23.9398 N   0  0  0  0  0  0
  -24.6657  -31.0791   22.1017 N   0  0  0  0  0  0
  -23.4187  -28.8201   23.3048 O   0  0  0  0  0  0
  -28.4312  -26.7456   20.0913 O   0  0  0  0  0  0
  -26.5584  -34.8920   22.4666 O   0  0  0  0  0  0
  -23.5348  -32.1460   23.7513 O   0  0  0  0  0  0
  -32.8425  -17.7080   22.7607 C   0  0  0  0  0  0
  -32.0755  -18.8579   22.9968 C   0  0  0  0  0  0
  -32.2279  -16.5555   22.2525 C   0  0  0  0  0  0
  -30.6910  -18.8783   22.7242 C   0  0  0  0  0  0
  -30.0592  -17.7037   22.2048 C   0  0  0  0  0  0
  -30.8432  -16.5375   21.9556 C   0  0  0  0  0  0
  -28.9386  -23.0482   20.9780 C   0  0  0  0  0  0
  -29.9584  -20.1435   23.0859 C   0  0  0  0  0  0
  -26.9177  -24.3953   21.6537 C   0  0  0  0  0  0
  -27.3754  -22.1632   22.7798 C   0  0  0  0  0  0
  -28.3622  -24.4779   21.1059 C   0  0  2  0  0  0
  -28.8225  -22.1881   22.2501 C   0  0  1  0  0  0
  -26.8352  -23.5965   22.9684 C   0  0  2  0  0  0
  -28.5573  -17.6602   21.9218 C   0  0  0  0  0  0
  -23.7872  -23.4263   25.0498 C   0  0  0  0  0  0
  -28.4928  -25.3345   19.8180 C   0  0  0  0  0  0
  -25.2891  -23.4744   24.7756 C   0  0  0  0  0  0
  -30.2306  -15.3359   21.4728 N   0  0  0  0  0  0
  -29.3820  -20.8357   22.0934 N   0  0  0  0  0  0
  -29.4343  -22.6331   19.9261 O   0  0  0  0  0  0
  -29.9767  -20.5454   24.2515 O   0  0  0  0  0  0
  -25.4735  -23.5588   23.3693 O   0  0  0  0  0  0
  -31.4558  -12.3875   19.1093 H   0  0  0  0  0  0
  -30.2992  -11.2920   19.8052 H   0  0  0  0  0  0
  -29.7236  -11.8104   17.4114 H   0  0  0  0  0  0
  -29.6535  -13.5156   17.7831 H   0  0  0  0  0  0
  -27.8207  -11.3204   18.8092 H   0  0  0  0  0  0
  -27.3580  -12.6591   17.7910 H   0  0  0  0  0  0
  -27.7081  -14.2616   19.5851 H   0  0  0  0  0  0
  -28.6738  -11.9590   21.3485 H   0  0  0  0  0  0
  -28.4577  -13.5978   21.8735 H   0  0  0  0  0  0
  -25.2761   -9.5686   22.4747 H   0  0  0  0  0  0
  -24.0001   -7.4641   22.7475 H   0  0  0  0  0  0
  -21.0850   -8.8771   19.8938 H   0  0  0  0  0  0
  -22.3706  -10.9668   19.6148 H   0  0  0  0  0  0
  -21.2006   -7.6145   23.9710 H   0  0  0  0  0  0
  -21.1486   -6.0519   25.9077 H   0  0  0  0  0  0
  -22.0598   -2.7600   23.2847 H   0  0  0  0  0  0
  -22.4142  -11.9852   22.4746 H   0  0  0  0  0  0
  -21.1122  -13.1203   22.2616 H   0  0  0  0  0  0
  -24.6600  -15.8438   20.5103 H   0  0  0  0  0  0
  -26.2827  -15.6283   20.0873 H   0  0  0  0  0  0
  -26.7128  -32.5525   23.1166 H   0  0  0  0  0  0
  -25.0162  -33.9792   25.0532 H   0  0  0  0  0  0
  -22.6874  -31.3091   21.4169 H   0  0  0  0  0  0
  -23.3771  -35.9617   23.3312 H   0  0  0  0  0  0
  -24.3555  -36.8898   22.2046 H   0  0  0  0  0  0
  -23.7241  -37.6497   23.6657 H   0  0  0  0  0  0
  -26.0575  -31.6018   20.6102 H   0  0  0  0  0  0
  -26.8112  -30.8678   21.9990 H   0  0  0  0  0  0
  -28.0940  -29.0998   21.1507 H   0  0  0  0  0  0
  -26.0036  -25.9754   19.0037 H   0  0  0  0  0  0
  -23.9652  -27.2954   19.0438 H   0  0  0  0  0  0
  -23.7050  -30.5990   19.4080 H   0  0  0  0  0  0
  -22.7291  -29.2419   19.8785 H   0  0  0  0  0  0
  -25.1292  -36.1965   25.0833 H   0  0  0  0  0  0
  -20.9926  -28.3205   24.1454 H   0  0  0  0  0  0
  -20.5669  -26.2243   23.3584 H   0  0  0  0  0  0
  -21.6625  -26.7434   22.1196 H   0  0  0  0  0  0
  -19.6892  -25.6283   21.1230 H   0  0  0  0  0  0
  -19.6679  -27.3179   20.6729 H   0  0  0  0  0  0
  -17.4177  -26.6667   21.4018 H   0  0  0  0  0  0
  -18.0296  -26.0046   22.9000 H   0  0  0  0  0  0
  -19.7934  -30.7238   24.2273 H   0  0  0  0  0  0
  -17.5020  -31.6262   24.5150 H   0  0  0  0  0  0
  -15.5345  -30.2968   23.7682 H   0  0  0  0  0  0
  -15.8654  -28.0811   22.7083 H   0  0  0  0  0  0
  -24.5863  -30.7154   25.7813 H   0  0  0  0  0  0
  -24.9011  -32.2892   26.5047 H   0  0  0  0  0  0
  -25.8078  -30.8798   27.0222 H   0  0  0  0  0  0
  -26.2970  -29.6808   24.1229 H   0  0  0  0  0  0
  -27.4141  -29.7371   25.4669 H   0  0  0  0  0  0
  -27.8789  -30.4427   23.9376 H   0  0  0  0  0  0
  -27.2592  -33.3657   26.2169 H   0  0  0  0  0  0
  -28.3809  -32.7041   25.0372 H   0  0  0  0  0  0
  -28.0750  -31.8531   26.5425 H   0  0  0  0  0  0
  -28.2595  -38.0109   24.7530 H   0  0  0  0  0  0
  -28.1074  -36.2633   24.6292 H   0  0  0  0  0  0
  -27.2272  -37.1459   25.8863 H   0  0  0  0  0  0
  -20.9299  -29.8769   21.6999 H   0  0  0  0  0  0
  -26.0190  -38.2870   24.1392 H   0  0  0  0  0  0
  -33.9009  -17.7072   22.9831 H   0  0  0  0  0  0
  -32.5574  -19.7383   23.4017 H   0  0  0  0  0  0
  -32.8425  -15.6788   22.1068 H   0  0  0  0  0  0
  -26.2598  -23.9494   20.9043 H   0  0  0  0  0  0
  -26.5350  -25.3986   21.8384 H   0  0  0  0  0  0
  -27.3340  -21.6196   23.7231 H   0  0  0  0  0  0
  -26.7370  -21.6208   22.0816 H   0  0  0  0  0  0
  -28.9778  -24.9613   21.8641 H   0  0  0  0  0  0
  -29.4249  -22.7029   23.0019 H   0  0  0  0  0  0
  -27.4345  -24.1230   23.7152 H   0  0  0  0  0  0
  -27.9950  -18.4327   22.4444 H   0  0  0  0  0  0
  -28.1235  -16.7122   22.2392 H   0  0  0  0  0  0
  -28.3753  -17.7701   20.8524 H   0  0  0  0  0  0
  -23.5884  -23.4194   26.1217 H   0  0  0  0  0  0
  -23.3368  -22.5327   24.6184 H   0  0  0  0  0  0
  -23.2860  -24.2951   24.6222 H   0  0  0  0  0  0
  -27.8161  -24.9957   19.0364 H   0  0  0  0  0  0
  -29.4851  -25.1794   19.3941 H   0  0  0  0  0  0
  -25.7765  -22.5882   25.1853 H   0  0  0  0  0  0
  -25.7264  -24.3457   25.2661 H   0  0  0  0  0  0
  -29.2868  -15.1527   21.7756 H   0  0  0  0  0  0
  -29.4605  -20.4770   21.1507 H   0  0  0  0  0  0
  1 25  1  0  0  0
  1 30  2  0  0  0
  1 88  1  0  0  0
  2  3  1  0  0  0
  2 25  1  0  0  0
  2 93  1  0  0  0
  2 94  1  0  0  0
  3  4  1  0  0  0
  3 95  1  0  0  0
  3 96  1  0  0  0
  4  5  1  0  0  0
  4 97  1  0  0  0
  4 98  1  0  0  0
  5  6  1  0  0  0
  5 26  1  0  0  0
  5 99  1  0  0  0
  6 25  1  0  0  0
  6100  1  0  0  0
  6101  1  0  0  0
  7  8  2  0  0  0
  7 26  1  0  0  0
  7 29  1  0  0  0
  8  9  1  0  0  0
  8 22  1  0  0  0
  9 10  1  0  0  0
  9 27  2  0  0  0
 10 11  2  0  0  0
 10 15  1  0  0  0
 11 12  1  0  0  0
 11102  1  0  0  0
 12 13  2  0  0  0
 12103  1  0  0  0
 13 14  1  0  0  0
 13 31  1  0  0  0
 14 15  2  0  0  0
 14104  1  0  0  0
 15105  1  0  0  0
 16 17  2  0  0  0
 16 21  1  0  0  0
 16 31  1  0  0  0
 17 18  1  0  0  0
 17106  1  0  0  0
 18 19  2  0  0  0
 18107  1  0  0  0
 19 20  1  0  0  0
 19 24  1  0  0  0
 20 21  2  0  0  0
 20108  1  0  0  0
 21 23  1  0  0  0
 22 28  1  0  0  0
 22 32  2  0  0  0
 26 27  1  0  0  0
 28109  1  0  0  0
 28110  1  0  0  0
 29111  1  0  0  0
 29112  1  0  0  0
 33 34  1  0  0  0
 33 66  1  0  0  0
 33 70  2  0  0  0
 34 36  1  0  0  0
 34 59  1  0  0  0
 34113  1  0  0  0
 35 44  2  0  0  0
 35 45  1  0  0  0
 35 68  1  0  0  0
 36 56  1  0  0  0
 36114  1  0  0  0
 37 39  1  0  0  0
 37 47  1  0  0  0
 37 66  1  0  0  0
 37115  1  0  0  0
 38 43  2  0  0  0
 38 46  1  0  0  0
 38 47  1  0  0  0
 39 64  1  0  0  0
 39 67  2  0  0  0
 40 52  1  0  0  0
 40 53  2  0  0  0
 40 58  1  0  0  0
 41116  1  0  0  0
 41117  1  0  0  0
 41118  1  0  0  0
 41 48  1  0  0  0
 42 43  1  0  0  0
 42 66  1  0  0  0
 42119  1  0  0  0
 42120  1  0  0  0
 43 44  1  0  0  0
 44121  1  0  0  0
 45 46  2  0  0  0
 45122  1  0  0  0
 46123  1  0  0  0
 47124  1  0  0  0
 47125  1  0  0  0
 48 56  1  0  0  0
 48 65  1  0  0  0
 48126  1  0  0  0
 49 50  1  0  0  0
 49 53  1  0  0  0
 49 64  1  0  0  0
 49127  1  0  0  0
 50 51  1  0  0  0
 50128  1  0  0  0
 50129  1  0  0  0
 51 52  1  0  0  0
 51130  1  0  0  0
 51131  1  0  0  0
 52132  1  0  0  0
 52133  1  0  0  0
 53 54  1  0  0  0
 54 55  2  0  0  0
 54134  1  0  0  0
 55 57  1  0  0  0
 55135  1  0  0  0
 56 69  2  0  0  0
 57 58  2  0  0  0
 57136  1  0  0  0
 58137  1  0  0  0
 59 60  1  0  0  0
 59 61  1  0  0  0
 59 62  1  0  0  0
 60138  1  0  0  0
 60139  1  0  0  0
 60140  1  0  0  0
 61141  1  0  0  0
 61142  1  0  0  0
 61143  1  0  0  0
 62144  1  0  0  0
 62145  1  0  0  0
 62146  1  0  0  0
 63 65  1  0  0  0
 63147  1  0  0  0
 63148  1  0  0  0
 63149  1  0  0  0
 64150  1  0  0  0
 65151  1  0  0  0
 68 86  1  0  0  0
 71 72  2  0  0  0
 71 73  1  0  0  0
 71152  1  0  0  0
 72 74  1  0  0  0
 72153  1  0  0  0
 73 76  2  0  0  0
 73154  1  0  0  0
 74 75  2  0  0  0
 74 78  1  0  0  0
 75 76  1  0  0  0
 75 84  1  0  0  0
 76 88  1  0  0  0
 77 81  1  0  0  0
 77 82  1  0  0  0
 77 90  2  0  0  0
 78 89  1  0  0  0
 78 91  2  0  0  0
 79 81  1  0  0  0
 79 83  1  0  0  0
 79155  1  0  0  0
 79156  1  0  0  0
 80 82  1  0  0  0
 80 83  1  0  0  0
 80157  1  0  0  0
 80158  1  0  0  0
 81 86  1  0  0  0
 81159  1  0  0  0
 82 89  1  0  0  0
 82160  1  0  0  0
 83 92  1  0  0  0
 83161  1  0  0  0
 84162  1  0  0  0
 84163  1  0  0  0
 84164  1  0  0  0
 85 87  1  0  0  0
 85165  1  0  0  0
 85166  1  0  0  0
 85167  1  0  0  0
 86168  1  0  0  0
 86169  1  0  0  0
 87 92  1  0  0  0
 87170  1  0  0  0
 87171  1  0  0  0
 88172  1  0  0  0
 89173  1  0  0  0
M  ISO  4   1 100  68 101  86 101  88 100
M  END
> <chiral flag>
0

> <version>
0

> <s_m_source_file>
/data/baiqing/PycharmProjects/Reinvent-master-3.2/result/LINK_invent/BTK/process_docking_weight1_custom_product_contain_oxygen_bond_distance_aromatic_linkinvent_7_9_3/rearranged_h_0057.sdf

> <i_m_source_file_index>
51

> <r_mmod_Potential_Energy-OPLS-2005>
-181.815277099609

> <r_mmod_Stretch_Energy-OPLS-2005>
41.6410827636719

> <r_mmod_Bend_Energy-OPLS-2005>
116.11890411377

> <r_mmod_Torsional_Energy-OPLS-2005>
235.925216674805

> <r_mmod_Improper_Torsional_Energy-OPLS-2005>
2.9370448589325

> <r_mmod_Van_der_Waal_Energy-OPLS-2005>
164.655166625977

> <r_mmod_Electrostatic_Energy-OPLS-2005>
-517.375549316406

> <r_mmod_Solvation_Energy-OPLS-2005>
-235.928070068359

> <b_mmod_Minimization_Converged-OPLS-2005>
0

> <r_mmod_RMS_Derivative-OPLS-2005>
1.62484896183014

$$$$
52
                    3D
 Structure written by MMmdl.
160168  0  0  1  0            999 V2000
  -30.6958  -14.4536   20.5094 C   0  0  0  0  0  0
  -30.4162  -12.2772   19.4151 C   0  0  0  0  0  0
  -29.4888  -12.4925   18.1984 C   0  0  0  0  0  0
  -28.0057  -12.3820   18.6067 C   0  0  0  0  0  0
  -27.6607  -13.2116   19.8737 C   0  0  2  0  0  0
  -28.7060  -12.9817   20.9910 C   0  0  0  0  0  0
  -25.2572  -13.8197   20.5673 C   0  0  0  0  0  0
  -24.1822  -13.0458   20.9162 C   0  0  0  0  0  0
  -24.6392  -11.6933   20.8730 C   0  0  0  0  0  0
  -23.9069  -10.4305   21.0395 C   0  0  0  0  0  0
  -24.3623   -9.4218   21.9166 C   0  0  0  0  0  0
  -23.6294   -8.2256   22.0749 C   0  0  0  0  0  0
  -22.4272   -8.0298   21.3546 C   0  0  0  0  0  0
  -21.9906   -9.0277   20.4654 C   0  0  0  0  0  0
  -22.7236  -10.2150   20.3052 C   0  0  0  0  0  0
  -21.6864   -6.0740   22.5268 C   0  0  0  0  0  0
  -21.4015   -6.5636   23.8206 C   0  0  0  0  0  0
  -21.3654   -5.6784   24.9163 C   0  0  0  0  0  0
  -21.6051   -4.3051   24.7216 C   0  0  0  0  0  0
  -21.8820   -3.8146   23.4335 C   0  0  0  0  0  0
  -21.9191   -4.6968   22.3395 C   0  0  0  0  0  0
  -22.7834  -13.5252   21.1822 C   0  0  0  0  0  0
  -22.1659   -4.2143   21.0976 F   0  0  0  0  0  0
  -21.5630   -3.4532   25.7727 F   0  0  0  0  0  0
  -30.0392  -13.2662   20.4356 N   0  0  0  0  0  0
  -26.3013  -12.9368   20.3364 N   0  0  0  0  0  0
  -25.9323  -11.6527   20.5780 N   0  0  0  0  0  0
  -22.0485  -12.8257   22.0407 N   0  0  0  0  0  0
  -25.4298  -15.1915   20.4062 N   0  0  0  0  0  0
  -31.8594  -14.6035   20.1272 O   0  0  0  0  0  0
  -21.6653   -6.8882   21.4232 O   0  0  0  0  0  0
  -22.3506  -14.5545   20.6652 O   0  0  0  0  0  0
  -24.6144  -31.8700   23.2117 C   0  0  0  0  0  0
  -25.9051  -32.4820   23.8404 C   0  0  1  0  0  0
  -27.2342  -27.4454   20.0787 C   0  0  0  0  0  0
  -25.5913  -33.8618   24.2338 N   0  0  0  0  0  0
  -23.4000  -30.4987   21.5517 C   0  0  2  0  0  0
  -24.8401  -28.9633   20.1206 C   0  0  0  0  0  0
  -22.7404  -29.4698   22.4978 C   0  0  0  0  0  0
  -18.0285  -28.1372   22.8501 C   0  0  0  0  0  0
  -24.1491  -36.7308   23.2639 C   0  0  0  0  0  0
  -25.9304  -30.8358   21.3668 C   0  0  0  0  0  0
  -26.0022  -29.4728   20.7097 C   0  0  0  0  0  0
  -27.1975  -28.7221   20.6839 C   0  0  0  0  0  0
  -26.0363  -26.9336   19.5209 C   0  0  0  0  0  0
  -24.8505  -27.6900   19.5300 C   0  0  0  0  0  0
  -23.6057  -29.8351   20.1658 C   0  0  0  0  0  0
  -25.4110  -36.3114   24.0348 C   0  0  1  0  0  0
  -20.5879  -28.3674   23.1301 C   0  0  2  0  0  0
  -20.6780  -26.9404   22.5405 C   0  0  0  0  0  0
  -19.5752  -26.6387   21.5211 C   0  0  0  0  0  0
  -18.1936  -26.7920   22.1629 C   0  0  0  0  0  0
  -19.1534  -28.8835   23.2907 C   0  0  0  0  0  0
  -18.9459  -30.1440   23.8916 C   0  0  0  0  0  0
  -17.6458  -30.6576   24.0573 C   0  0  0  0  0  0
  -25.9040  -34.9477   23.5144 C   0  0  0  0  0  0
  -16.5357  -29.9079   23.6321 C   0  0  0  0  0  0
  -16.7277  -28.6500   23.0347 C   0  0  0  0  0  0
  -26.4481  -31.6589   25.0725 C   0  0  0  0  0  0
  -25.3759  -31.3690   26.1483 C   0  0  0  0  0  0
  -27.0310  -30.3032   24.6094 C   0  0  0  0  0  0
  -27.6057  -32.4308   25.7480 C   0  0  0  0  0  0
  -27.5589  -37.1810   24.8468 C   0  0  0  0  0  0
  -21.4136  -29.3055   22.3704 N   0  0  0  0  0  0
  -26.4298  -37.3798   23.9416 N   0  0  0  0  0  0
  -24.6659  -31.0835   22.1002 N   0  0  0  0  0  0
  -23.4185  -28.8233   23.3015 O   0  0  0  0  0  0
  -28.4492  -26.7859   20.0562 O   0  0  0  0  0  0
  -26.5598  -34.8929   22.4702 O   0  0  0  0  0  0
  -23.5341  -32.1437   23.7532 O   0  0  0  0  0  0
  -30.3597  -18.2362   18.2733 C   0  0  0  0  0  0
  -30.5310  -17.0178   18.9509 C   0  0  0  0  0  0
  -29.0851  -17.8074   20.7381 C   0  0  0  0  0  0
  -29.5363  -19.2490   18.8041 C   0  0  0  0  0  0
  -29.8811  -16.7761   20.1874 C   0  0  0  0  0  0
  -28.9168  -19.0456   20.0673 C   0  0  0  0  0  0
  -29.3415  -20.5008   17.9677 C   0  0  0  0  0  0
  -28.7018  -24.4137   20.5895 C   0  0  0  0  0  0
  -28.2418  -23.0193   20.1254 C   0  0  0  0  0  0
  -28.5766  -25.4800   19.4866 C   0  0  0  0  0  0
  -28.8017  -21.8608   20.9803 C   0  0  0  0  0  0
  -27.5511  -19.9030   22.3196 N   0  0  0  0  0  0
  -29.9283  -15.5056   20.8506 N   0  0  0  0  0  0
  -26.6856  -20.5255   19.9345 O   0  0  0  0  0  0
  -27.8325  -20.2915   20.8291 S   0  0  2  0  0  0
  -31.4617  -12.3625   19.1144 H   0  0  0  0  0  0
  -30.3055  -11.2665   19.8092 H   0  0  0  0  0  0
  -29.7132  -11.7650   17.4168 H   0  0  0  0  0  0
  -29.6758  -13.4743   17.7591 H   0  0  0  0  0  0
  -27.7845  -11.3277   18.7766 H   0  0  0  0  0  0
  -27.3684  -12.6920   17.7777 H   0  0  0  0  0  0
  -27.7052  -14.2614   19.5829 H   0  0  0  0  0  0
  -28.6686  -11.9457   21.3312 H   0  0  0  0  0  0
  -28.4896  -13.5896   21.8703 H   0  0  0  0  0  0
  -25.2785   -9.5692   22.4719 H   0  0  0  0  0  0
  -24.0014   -7.4652   22.7468 H   0  0  0  0  0  0
  -21.0836   -8.8807   19.8968 H   0  0  0  0  0  0
  -22.3709  -10.9690   19.6154 H   0  0  0  0  0  0
  -21.2011   -7.6142   23.9701 H   0  0  0  0  0  0
  -21.1469   -6.0514   25.9064 H   0  0  0  0  0  0
  -22.0601   -2.7608   23.2834 H   0  0  0  0  0  0
  -22.4112  -11.9954   22.4851 H   0  0  0  0  0  0
  -21.1084  -13.1251   22.2595 H   0  0  0  0  0  0
  -24.6657  -15.8479   20.5226 H   0  0  0  0  0  0
  -26.2809  -15.6319   20.0794 H   0  0  0  0  0  0
  -26.7123  -32.5528   23.1168 H   0  0  0  0  0  0
  -25.0093  -33.9766   25.0509 H   0  0  0  0  0  0
  -22.6900  -31.3180   21.4176 H   0  0  0  0  0  0
  -23.3750  -35.9641   23.3305 H   0  0  0  0  0  0
  -24.3612  -36.8911   22.2055 H   0  0  0  0  0  0
  -23.7236  -37.6518   23.6637 H   0  0  0  0  0  0
  -26.0595  -31.6058   20.6053 H   0  0  0  0  0  0
  -26.8126  -30.8732   21.9938 H   0  0  0  0  0  0
  -28.1004  -29.1224   21.1236 H   0  0  0  0  0  0
  -25.9690  -25.9564   19.0735 H   0  0  0  0  0  0
  -23.9498  -27.2819   19.0919 H   0  0  0  0  0  0
  -23.7223  -30.6123   19.4095 H   0  0  0  0  0  0
  -22.7262  -29.2632   19.8634 H   0  0  0  0  0  0
  -25.1280  -36.1994   25.0839 H   0  0  0  0  0  0
  -20.9998  -28.3250   24.1413 H   0  0  0  0  0  0
  -20.5690  -26.2290   23.3605 H   0  0  0  0  0  0
  -21.6649  -26.7449   22.1196 H   0  0  0  0  0  0
  -19.6911  -25.6307   21.1220 H   0  0  0  0  0  0
  -19.6673  -27.3215   20.6751 H   0  0  0  0  0  0
  -17.4206  -26.6687   21.4024 H   0  0  0  0  0  0
  -18.0325  -26.0043   22.9005 H   0  0  0  0  0  0
  -19.7937  -30.7249   24.2290 H   0  0  0  0  0  0
  -17.5020  -31.6252   24.5173 H   0  0  0  0  0  0
  -15.5355  -30.2990   23.7619 H   0  0  0  0  0  0
  -15.8689  -28.0820   22.7037 H   0  0  0  0  0  0
  -24.5913  -30.7057   25.7832 H   0  0  0  0  0  0
  -24.8968  -32.2839   26.4970 H   0  0  0  0  0  0
  -25.8123  -30.8834   27.0221 H   0  0  0  0  0  0
  -26.2837  -29.6793   24.1169 H   0  0  0  0  0  0
  -27.4112  -29.7272   25.4542 H   0  0  0  0  0  0
  -27.8671  -30.4359   23.9225 H   0  0  0  0  0  0
  -27.2661  -33.3582   26.2106 H   0  0  0  0  0  0
  -28.3827  -32.6914   25.0280 H   0  0  0  0  0  0
  -28.0765  -31.8407   26.5352 H   0  0  0  0  0  0
  -28.2608  -38.0106   24.7532 H   0  0  0  0  0  0
  -28.1085  -36.2645   24.6271 H   0  0  0  0  0  0
  -27.2320  -37.1438   25.8874 H   0  0  0  0  0  0
  -20.9280  -29.8813   21.6961 H   0  0  0  0  0  0
  -26.0194  -38.2883   24.1405 H   0  0  0  0  0  0
  -30.8478  -18.3804   17.3185 H   0  0  0  0  0  0
  -31.1418  -16.2682   18.4698 H   0  0  0  0  0  0
  -28.5702  -17.6367   21.6714 H   0  0  0  0  0  0
  -29.4916  -20.2889   16.9082 H   0  0  0  0  0  0
  -30.0583  -21.2693   18.2535 H   0  0  0  0  0  0
  -28.3325  -20.8948   18.0595 H   0  0  0  0  0  0
  -28.1111  -24.6983   21.4598 H   0  0  0  0  0  0
  -29.7400  -24.3843   20.9237 H   0  0  0  0  0  0
  -27.1504  -23.0088   20.1492 H   0  0  0  0  0  0
  -28.5220  -22.8746   19.0838 H   0  0  0  0  0  0
  -27.8123  -25.2190   18.7610 H   0  0  0  0  0  0
  -29.4966  -25.4716   18.9020 H   0  0  0  0  0  0
  -29.8379  -21.6505   20.7156 H   0  0  0  0  0  0
  -28.7981  -22.1394   22.0334 H   0  0  0  0  0  0
  -28.4243  -19.6973   22.8229 H   0  0  0  0  0  0
  -29.1032  -15.2648   21.3774 H   0  0  0  0  0  0
  1 25  1  0  0  0
  1 30  2  0  0  0
  1 83  1  0  0  0
  2  3  1  0  0  0
  2 25  1  0  0  0
  2 86  1  0  0  0
  2 87  1  0  0  0
  3  4  1  0  0  0
  3 88  1  0  0  0
  3 89  1  0  0  0
  4  5  1  0  0  0
  4 90  1  0  0  0
  4 91  1  0  0  0
  5  6  1  0  0  0
  5 26  1  0  0  0
  5 92  1  0  0  0
  6 25  1  0  0  0
  6 93  1  0  0  0
  6 94  1  0  0  0
  7  8  2  0  0  0
  7 26  1  0  0  0
  7 29  1  0  0  0
  8  9  1  0  0  0
  8 22  1  0  0  0
  9 10  1  0  0  0
  9 27  2  0  0  0
 10 11  2  0  0  0
 10 15  1  0  0  0
 11 12  1  0  0  0
 11 95  1  0  0  0
 12 13  2  0  0  0
 12 96  1  0  0  0
 13 14  1  0  0  0
 13 31  1  0  0  0
 14 15  2  0  0  0
 14 97  1  0  0  0
 15 98  1  0  0  0
 16 17  2  0  0  0
 16 21  1  0  0  0
 16 31  1  0  0  0
 17 18  1  0  0  0
 17 99  1  0  0  0
 18 19  2  0  0  0
 18100  1  0  0  0
 19 20  1  0  0  0
 19 24  1  0  0  0
 20 21  2  0  0  0
 20101  1  0  0  0
 21 23  1  0  0  0
 22 28  1  0  0  0
 22 32  2  0  0  0
 26 27  1  0  0  0
 28102  1  0  0  0
 28103  1  0  0  0
 29104  1  0  0  0
 29105  1  0  0  0
 33 34  1  0  0  0
 33 66  1  0  0  0
 33 70  2  0  0  0
 34 36  1  0  0  0
 34 59  1  0  0  0
 34106  1  0  0  0
 35 44  2  0  0  0
 35 45  1  0  0  0
 35 68  1  0  0  0
 36 56  1  0  0  0
 36107  1  0  0  0
 37 39  1  0  0  0
 37 47  1  0  0  0
 37 66  1  0  0  0
 37108  1  0  0  0
 38 43  2  0  0  0
 38 46  1  0  0  0
 38 47  1  0  0  0
 39 64  1  0  0  0
 39 67  2  0  0  0
 40 52  1  0  0  0
 40 53  2  0  0  0
 40 58  1  0  0  0
 41109  1  0  0  0
 41110  1  0  0  0
 41111  1  0  0  0
 41 48  1  0  0  0
 42 43  1  0  0  0
 42 66  1  0  0  0
 42112  1  0  0  0
 42113  1  0  0  0
 43 44  1  0  0  0
 44114  1  0  0  0
 45 46  2  0  0  0
 45115  1  0  0  0
 46116  1  0  0  0
 47117  1  0  0  0
 47118  1  0  0  0
 48 56  1  0  0  0
 48 65  1  0  0  0
 48119  1  0  0  0
 49 50  1  0  0  0
 49 53  1  0  0  0
 49 64  1  0  0  0
 49120  1  0  0  0
 50 51  1  0  0  0
 50121  1  0  0  0
 50122  1  0  0  0
 51 52  1  0  0  0
 51123  1  0  0  0
 51124  1  0  0  0
 52125  1  0  0  0
 52126  1  0  0  0
 53 54  1  0  0  0
 54 55  2  0  0  0
 54127  1  0  0  0
 55 57  1  0  0  0
 55128  1  0  0  0
 56 69  2  0  0  0
 57 58  2  0  0  0
 57129  1  0  0  0
 58130  1  0  0  0
 59 60  1  0  0  0
 59 61  1  0  0  0
 59 62  1  0  0  0
 60131  1  0  0  0
 60132  1  0  0  0
 60133  1  0  0  0
 61134  1  0  0  0
 61135  1  0  0  0
 61136  1  0  0  0
 62137  1  0  0  0
 62138  1  0  0  0
 62139  1  0  0  0
 63 65  1  0  0  0
 63140  1  0  0  0
 63141  1  0  0  0
 63142  1  0  0  0
 64143  1  0  0  0
 65144  1  0  0  0
 68 80  1  0  0  0
 71 72  2  0  0  0
 71 74  1  0  0  0
 71145  1  0  0  0
 72 75  1  0  0  0
 72146  1  0  0  0
 73 75  2  0  0  0
 73 76  1  0  0  0
 73147  1  0  0  0
 74 76  2  0  0  0
 74 77  1  0  0  0
 75 83  1  0  0  0
 76 85  1  0  0  0
 77148  1  0  0  0
 77149  1  0  0  0
 77150  1  0  0  0
 78 79  1  0  0  0
 78 80  1  0  0  0
 78151  1  0  0  0
 78152  1  0  0  0
 79 81  1  0  0  0
 79153  1  0  0  0
 79154  1  0  0  0
 80155  1  0  0  0
 80156  1  0  0  0
 81157  1  0  0  0
 81158  1  0  0  0
 81 85  1  0  0  0
 82 85  2  0  0  0
 82159  1  0  0  0
 83160  1  0  0  0
 84 85  2  0  0  0
M  ISO  4   1 100  68 101  80 101  83 100
M  END
> <chiral flag>
0

> <version>
0

> <s_m_source_file>
/data/baiqing/PycharmProjects/Reinvent-master-3.2/result/LINK_invent/BTK/process_docking_weight1_custom_product_contain_oxygen_bond_distance_aromatic_linkinvent_7_9_3/rearranged_h_0057.sdf

> <i_m_source_file_index>
52

> <r_mmod_Potential_Energy-OPLS-2005>
-148.436614990234

> <r_mmod_Stretch_Energy-OPLS-2005>
36.8694610595703

> <r_mmod_Bend_Energy-OPLS-2005>
108.946502685547

> <r_mmod_Torsional_Energy-OPLS-2005>
234.888336181641

> <r_mmod_Improper_Torsional_Energy-OPLS-2005>
6.01111793518066

> <r_mmod_Van_der_Waal_Energy-OPLS-2005>
157.083633422852

> <r_mmod_Electrostatic_Energy-OPLS-2005>
-450.817993164062

> <r_mmod_Solvation_Energy-OPLS-2005>
-255.54866027832

> <b_mmod_Minimization_Converged-OPLS-2005>
0

> <r_mmod_RMS_Derivative-OPLS-2005>
2.29349040985107

$$$$
53
                    3D
 Structure written by MMmdl.
171180  0  0  1  0            999 V2000
  -30.7401  -14.4489   20.5671 C   0  0  0  0  0  0
  -30.4100  -12.2871   19.4375 C   0  0  0  0  0  0
  -29.4958  -12.5044   18.2156 C   0  0  0  0  0  0
  -28.0168  -12.3712   18.6239 C   0  0  0  0  0  0
  -27.6604  -13.2136   19.8785 C   0  0  2  0  0  0
  -28.7020  -13.0102   21.0043 C   0  0  0  0  0  0
  -25.2488  -13.8087   20.5594 C   0  0  0  0  0  0
  -24.1797  -13.0367   20.9186 C   0  0  0  0  0  0
  -24.6405  -11.6863   20.8769 C   0  0  0  0  0  0
  -23.9082  -10.4255   21.0419 C   0  0  0  0  0  0
  -24.3628   -9.4173   21.9193 C   0  0  0  0  0  0
  -23.6287   -8.2224   22.0761 C   0  0  0  0  0  0
  -22.4269   -8.0273   21.3548 C   0  0  0  0  0  0
  -21.9913   -9.0252   20.4649 C   0  0  0  0  0  0
  -22.7256  -10.2116   20.3060 C   0  0  0  0  0  0
  -21.6851   -6.0734   22.5282 C   0  0  0  0  0  0
  -21.4018   -6.5641   23.8217 C   0  0  0  0  0  0
  -21.3646   -5.6790   24.9173 C   0  0  0  0  0  0
  -21.6038   -4.3052   24.7224 C   0  0  0  0  0  0
  -21.8823   -3.8145   23.4349 C   0  0  0  0  0  0
  -21.9190   -4.6961   22.3403 C   0  0  0  0  0  0
  -22.7827  -13.5176   21.1840 C   0  0  0  0  0  0
  -22.1662   -4.2151   21.0980 F   0  0  0  0  0  0
  -21.5610   -3.4534   25.7734 F   0  0  0  0  0  0
  -30.0398  -13.2866   20.4535 N   0  0  0  0  0  0
  -26.3008  -12.9334   20.3374 N   0  0  0  0  0  0
  -25.9347  -11.6487   20.5822 N   0  0  0  0  0  0
  -22.0471  -12.8194   22.0412 N   0  0  0  0  0  0
  -25.3981  -15.1761   20.3789 N   0  0  0  0  0  0
  -31.8623  -14.5834   20.0747 O   0  0  0  0  0  0
  -21.6626   -6.8878   21.4248 O   0  0  0  0  0  0
  -22.3520  -14.5480   20.6673 O   0  0  0  0  0  0
  -24.6122  -31.8684   23.2117 C   0  0  0  0  0  0
  -25.9021  -32.4820   23.8403 C   0  0  1  0  0  0
  -27.2442  -27.4559   20.0750 C   0  0  0  0  0  0
  -25.5885  -33.8622   24.2340 N   0  0  0  0  0  0
  -23.3994  -30.4924   21.5506 C   0  0  2  0  0  0
  -24.8465  -28.9610   20.1124 C   0  0  0  0  0  0
  -22.7392  -29.4664   22.4986 C   0  0  0  0  0  0
  -18.0266  -28.1369   22.8493 C   0  0  0  0  0  0
  -24.1478  -36.7302   23.2634 C   0  0  0  0  0  0
  -25.9265  -30.8382   21.3640 C   0  0  0  0  0  0
  -26.0028  -29.4741   20.7105 C   0  0  0  0  0  0
  -27.1974  -28.7233   20.6983 C   0  0  0  0  0  0
  -26.0628  -26.9461   19.4863 C   0  0  0  0  0  0
  -24.8698  -27.6942   19.5039 C   0  0  0  0  0  0
  -23.6071  -29.8249   20.1641 C   0  0  0  0  0  0
  -25.4093  -36.3109   24.0346 C   0  0  1  0  0  0
  -20.5856  -28.3655   23.1316 C   0  0  2  0  0  0
  -20.6755  -26.9392   22.5412 C   0  0  0  0  0  0
  -19.5738  -26.6382   21.5204 C   0  0  0  0  0  0
  -18.1919  -26.7916   22.1619 C   0  0  0  0  0  0
  -19.1515  -28.8826   23.2908 C   0  0  0  0  0  0
  -18.9449  -30.1426   23.8929 C   0  0  0  0  0  0
  -17.6455  -30.6578   24.0567 C   0  0  0  0  0  0
  -25.9025  -34.9472   23.5142 C   0  0  0  0  0  0
  -16.5343  -29.9084   23.6323 C   0  0  0  0  0  0
  -16.7258  -28.6493   23.0359 C   0  0  0  0  0  0
  -26.4463  -31.6592   25.0719 C   0  0  0  0  0  0
  -25.3742  -31.3698   26.1480 C   0  0  0  0  0  0
  -27.0295  -30.3041   24.6081 C   0  0  0  0  0  0
  -27.6054  -32.4301   25.7459 C   0  0  0  0  0  0
  -27.5587  -37.1784   24.8453 C   0  0  0  0  0  0
  -21.4123  -29.3026   22.3725 N   0  0  0  0  0  0
  -26.4274  -37.3799   23.9435 N   0  0  0  0  0  0
  -24.6639  -31.0803   22.1010 N   0  0  0  0  0  0
  -23.4170  -28.8207   23.3029 O   0  0  0  0  0  0
  -28.4402  -26.7723   20.1235 O   0  0  0  0  0  0
  -26.5592  -34.8922   22.4706 O   0  0  0  0  0  0
  -23.5320  -32.1429   23.7523 O   0  0  0  0  0  0
  -31.6581  -18.7745   20.1358 C   0  0  0  0  0  0
  -31.5378  -17.4393   20.5719 C   0  0  0  0  0  0
  -29.2611  -19.0587   20.3653 C   0  0  0  0  0  0
  -30.5124  -19.5860   19.9933 C   0  0  0  0  0  0
  -29.1353  -17.7232   20.8029 C   0  0  0  0  0  0
  -30.2682  -16.8709   20.8516 C   0  0  0  0  0  0
  -29.7013  -22.4877   21.2068 C   0  0  0  0  0  0
  -29.9560  -20.5616   24.3583 C   0  0  0  0  0  0
  -29.4585  -22.0010   22.4403 C   0  0  0  0  0  0
  -30.2605  -21.0060   23.1293 C   0  0  0  0  0  0
  -28.8462  -23.5470   20.5022 C   0  0  0  0  0  0
  -30.7691  -24.1476   19.0013 C   0  0  0  0  0  0
  -31.6596  -23.1875   19.8125 C   0  0  0  0  0  0
  -29.6603  -24.7120   19.8996 C   0  0  1  0  0  0
  -27.7438  -17.2361   21.1446 C   0  0  0  0  0  0
  -30.6128  -20.9860   19.3879 C   0  0  0  0  0  0
  -28.7631  -25.7488   19.1807 C   0  0  0  0  0  0
  -30.0930  -15.4776   21.1508 N   0  0  0  0  0  0
  -30.8838  -22.0557   20.3839 N   0  3  2  0  0  0
  -31.4600  -12.3490   19.1446 H   0  0  0  0  0  0
  -30.2763  -11.2816   19.8402 H   0  0  0  0  0  0
  -29.7351  -11.7850   17.4315 H   0  0  0  0  0  0
  -29.6748  -13.4933   17.7902 H   0  0  0  0  0  0
  -27.8243  -11.3150   18.8196 H   0  0  0  0  0  0
  -27.3704  -12.6466   17.7903 H   0  0  0  0  0  0
  -27.6999  -14.2607   19.5777 H   0  0  0  0  0  0
  -28.6670  -11.9835   21.3721 H   0  0  0  0  0  0
  -28.4681  -13.6357   21.8670 H   0  0  0  0  0  0
  -25.2784   -9.5626   22.4762 H   0  0  0  0  0  0
  -23.9980   -7.4608   22.7483 H   0  0  0  0  0  0
  -21.0844   -8.8789   19.8952 H   0  0  0  0  0  0
  -22.3747  -10.9660   19.6162 H   0  0  0  0  0  0
  -21.2037   -7.6151   23.9724 H   0  0  0  0  0  0
  -21.1447   -6.0513   25.9069 H   0  0  0  0  0  0
  -22.0616   -2.7606   23.2851 H   0  0  0  0  0  0
  -22.4087  -11.9871   22.4819 H   0  0  0  0  0  0
  -21.1089  -13.1234   22.2602 H   0  0  0  0  0  0
  -24.6059  -15.8070   20.4357 H   0  0  0  0  0  0
  -26.2162  -15.6003   19.9649 H   0  0  0  0  0  0
  -26.7094  -32.5544   23.1172 H   0  0  0  0  0  0
  -25.0042  -33.9785   25.0491 H   0  0  0  0  0  0
  -22.6879  -31.3090   21.4115 H   0  0  0  0  0  0
  -23.3749  -35.9625   23.3280 H   0  0  0  0  0  0
  -24.3587  -36.8924   22.2053 H   0  0  0  0  0  0
  -23.7203  -37.6492   23.6652 H   0  0  0  0  0  0
  -26.0385  -31.6063   20.5970 H   0  0  0  0  0  0
  -26.8147  -30.8906   21.9823 H   0  0  0  0  0  0
  -28.0906  -29.1165   21.1645 H   0  0  0  0  0  0
  -26.0226  -25.9708   19.0283 H   0  0  0  0  0  0
  -23.9763  -27.2889   19.0490 H   0  0  0  0  0  0
  -23.7120  -30.5994   19.4033 H   0  0  0  0  0  0
  -22.7324  -29.2419   19.8707 H   0  0  0  0  0  0
  -25.1256  -36.1973   25.0834 H   0  0  0  0  0  0
  -20.9956  -28.3220   24.1435 H   0  0  0  0  0  0
  -20.5642  -26.2265   23.3596 H   0  0  0  0  0  0
  -21.6630  -26.7428   22.1216 H   0  0  0  0  0  0
  -19.6904  -25.6301   21.1216 H   0  0  0  0  0  0
  -19.6676  -27.3206   20.6747 H   0  0  0  0  0  0
  -17.4183  -26.6660   21.4027 H   0  0  0  0  0  0
  -18.0330  -26.0049   22.9005 H   0  0  0  0  0  0
  -19.7926  -30.7226   24.2329 H   0  0  0  0  0  0
  -17.5011  -31.6266   24.5151 H   0  0  0  0  0  0
  -15.5347  -30.3004   23.7621 H   0  0  0  0  0  0
  -15.8651  -28.0813   22.7083 H   0  0  0  0  0  0
  -24.5902  -30.7055   25.7829 H   0  0  0  0  0  0
  -24.8950  -32.2857   26.4950 H   0  0  0  0  0  0
  -25.8103  -30.8852   27.0223 H   0  0  0  0  0  0
  -26.2839  -29.6788   24.1157 H   0  0  0  0  0  0
  -27.4107  -29.7283   25.4523 H   0  0  0  0  0  0
  -27.8650  -30.4372   23.9204 H   0  0  0  0  0  0
  -27.2693  -33.3594   26.2067 H   0  0  0  0  0  0
  -28.3832  -32.6861   25.0254 H   0  0  0  0  0  0
  -28.0750  -31.8401   26.5338 H   0  0  0  0  0  0
  -28.2556  -38.0134   24.7589 H   0  0  0  0  0  0
  -28.1127  -36.2671   24.6149 H   0  0  0  0  0  0
  -27.2325  -37.1276   25.8857 H   0  0  0  0  0  0
  -20.9279  -29.8745   21.6945 H   0  0  0  0  0  0
  -26.0159  -38.2859   24.1510 H   0  0  0  0  0  0
  -32.6365  -19.1531   19.8738 H   0  0  0  0  0  0
  -32.4415  -16.8516   20.6464 H   0  0  0  0  0  0
  -28.3764  -19.6748   20.2814 H   0  0  0  0  0  0
  -30.5681  -19.8174   24.8479 H   0  0  0  0  0  0
  -29.0940  -20.9295   24.8980 H   0  0  0  0  0  0
  -28.5869  -22.3819   22.9551 H   0  0  0  0  0  0
  -31.1379  -20.5877   22.6564 H   0  0  0  0  0  0
  -28.1233  -23.9497   21.2129 H   0  0  0  0  0  0
  -28.2592  -23.0532   19.7260 H   0  0  0  0  0  0
  -30.3410  -23.6406   18.1352 H   0  0  0  0  0  0
  -31.3833  -24.9596   18.6095 H   0  0  0  0  0  0
  -32.1190  -23.7321   20.6385 H   0  0  0  0  0  0
  -32.4895  -22.8255   19.2047 H   0  0  0  0  0  0
  -30.1622  -25.2329   20.7179 H   0  0  0  0  0  0
  -27.1845  -18.0119   21.6683 H   0  0  0  0  0  0
  -27.7385  -16.3502   21.7776 H   0  0  0  0  0  0
  -27.2220  -17.0188   20.2154 H   0  0  0  0  0  0
  -29.7066  -21.2176   18.8271 H   0  0  0  0  0  0
  -31.4111  -20.9528   18.6448 H   0  0  0  0  0  0
  -27.9191  -25.2466   18.7146 H   0  0  0  0  0  0
  -29.3114  -26.2308   18.3703 H   0  0  0  0  0  0
  -29.2014  -15.2265   21.5466 H   0  0  0  0  0  0
  -31.5383  -21.6218   21.0158 H   0  0  0  0  0  0
  1 25  1  0  0  0
  1 30  2  0  0  0
  1 88  1  0  0  0
  2  3  1  0  0  0
  2 25  1  0  0  0
  2 90  1  0  0  0
  2 91  1  0  0  0
  3  4  1  0  0  0
  3 92  1  0  0  0
  3 93  1  0  0  0
  4  5  1  0  0  0
  4 94  1  0  0  0
  4 95  1  0  0  0
  5  6  1  0  0  0
  5 26  1  0  0  0
  5 96  1  0  0  0
  6 25  1  0  0  0
  6 97  1  0  0  0
  6 98  1  0  0  0
  7  8  2  0  0  0
  7 26  1  0  0  0
  7 29  1  0  0  0
  8  9  1  0  0  0
  8 22  1  0  0  0
  9 10  1  0  0  0
  9 27  2  0  0  0
 10 11  2  0  0  0
 10 15  1  0  0  0
 11 12  1  0  0  0
 11 99  1  0  0  0
 12 13  2  0  0  0
 12100  1  0  0  0
 13 14  1  0  0  0
 13 31  1  0  0  0
 14 15  2  0  0  0
 14101  1  0  0  0
 15102  1  0  0  0
 16 17  2  0  0  0
 16 21  1  0  0  0
 16 31  1  0  0  0
 17 18  1  0  0  0
 17103  1  0  0  0
 18 19  2  0  0  0
 18104  1  0  0  0
 19 20  1  0  0  0
 19 24  1  0  0  0
 20 21  2  0  0  0
 20105  1  0  0  0
 21 23  1  0  0  0
 22 28  1  0  0  0
 22 32  2  0  0  0
 26 27  1  0  0  0
 28106  1  0  0  0
 28107  1  0  0  0
 29108  1  0  0  0
 29109  1  0  0  0
 33 34  1  0  0  0
 33 66  1  0  0  0
 33 70  2  0  0  0
 34 36  1  0  0  0
 34 59  1  0  0  0
 34110  1  0  0  0
 35 44  2  0  0  0
 35 45  1  0  0  0
 35 68  1  0  0  0
 36 56  1  0  0  0
 36111  1  0  0  0
 37 39  1  0  0  0
 37 47  1  0  0  0
 37 66  1  0  0  0
 37112  1  0  0  0
 38 43  2  0  0  0
 38 46  1  0  0  0
 38 47  1  0  0  0
 39 64  1  0  0  0
 39 67  2  0  0  0
 40 52  1  0  0  0
 40 53  2  0  0  0
 40 58  1  0  0  0
 41113  1  0  0  0
 41114  1  0  0  0
 41115  1  0  0  0
 41 48  1  0  0  0
 42 43  1  0  0  0
 42 66  1  0  0  0
 42116  1  0  0  0
 42117  1  0  0  0
 43 44  1  0  0  0
 44118  1  0  0  0
 45 46  2  0  0  0
 45119  1  0  0  0
 46120  1  0  0  0
 47121  1  0  0  0
 47122  1  0  0  0
 48 56  1  0  0  0
 48 65  1  0  0  0
 48123  1  0  0  0
 49 50  1  0  0  0
 49 53  1  0  0  0
 49 64  1  0  0  0
 49124  1  0  0  0
 50 51  1  0  0  0
 50125  1  0  0  0
 50126  1  0  0  0
 51 52  1  0  0  0
 51127  1  0  0  0
 51128  1  0  0  0
 52129  1  0  0  0
 52130  1  0  0  0
 53 54  1  0  0  0
 54 55  2  0  0  0
 54131  1  0  0  0
 55 57  1  0  0  0
 55132  1  0  0  0
 56 69  2  0  0  0
 57 58  2  0  0  0
 57133  1  0  0  0
 58134  1  0  0  0
 59 60  1  0  0  0
 59 61  1  0  0  0
 59 62  1  0  0  0
 60135  1  0  0  0
 60136  1  0  0  0
 60137  1  0  0  0
 61138  1  0  0  0
 61139  1  0  0  0
 61140  1  0  0  0
 62141  1  0  0  0
 62142  1  0  0  0
 62143  1  0  0  0
 63 65  1  0  0  0
 63144  1  0  0  0
 63145  1  0  0  0
 63146  1  0  0  0
 64147  1  0  0  0
 65148  1  0  0  0
 68 87  1  0  0  0
 71 72  2  0  0  0
 71 74  1  0  0  0
 71149  1  0  0  0
 72 76  1  0  0  0
 72150  1  0  0  0
 73 74  2  0  0  0
 73 75  1  0  0  0
 73151  1  0  0  0
 74 86  1  0  0  0
 75 76  2  0  0  0
 75 85  1  0  0  0
 76 88  1  0  0  0
 77 79  2  0  0  0
 77 81  1  0  0  0
 77 89  1  0  0  0
 78 80  2  0  0  0
 78152  1  0  0  0
 78153  1  0  0  0
 79 80  1  0  0  0
 79154  1  0  0  0
 80155  1  0  0  0
 81 84  1  0  0  0
 81156  1  0  0  0
 81157  1  0  0  0
 82 83  1  0  0  0
 82 84  1  0  0  0
 82158  1  0  0  0
 82159  1  0  0  0
 83 89  1  0  0  0
 83160  1  0  0  0
 83161  1  0  0  0
 84 87  1  0  0  0
 84162  1  0  0  0
 85163  1  0  0  0
 85164  1  0  0  0
 85165  1  0  0  0
 86166  1  0  0  0
 86167  1  0  0  0
 86 89  1  0  0  0
 87168  1  0  0  0
 87169  1  0  0  0
 88170  1  0  0  0
 89171  1  0  0  0
M  CHG  1  89   1
M  ISO  4   1 100  68 101  87 101  88 100
M  END
> <chiral flag>
0

> <version>
0

> <s_m_source_file>
/data/baiqing/PycharmProjects/Reinvent-master-3.2/result/LINK_invent/BTK/process_docking_weight1_custom_product_contain_oxygen_bond_distance_aromatic_linkinvent_7_9_3/rearranged_h_0057.sdf

> <i_m_source_file_index>
53

> <r_mmod_Potential_Energy-OPLS-2005>
-147.482803344727

> <r_mmod_Stretch_Energy-OPLS-2005>
38.0341682434082

> <r_mmod_Bend_Energy-OPLS-2005>
117.65177154541

> <r_mmod_Torsional_Energy-OPLS-2005>
235.200134277344

> <r_mmod_Improper_Torsional_Energy-OPLS-2005>
4.97356700897217

> <r_mmod_Van_der_Waal_Energy-OPLS-2005>
157.590103149414

> <r_mmod_Electrostatic_Energy-OPLS-2005>
-287.467010498047

> <r_mmod_Solvation_Energy-OPLS-2005>
-426.565490722656

> <b_mmod_Minimization_Converged-OPLS-2005>
0

> <r_mmod_RMS_Derivative-OPLS-2005>
1.45348799228668

$$$$
54
                    3D
 Structure written by MMmdl.
148156  0  0  1  0            999 V2000
  -30.6409  -14.8303   20.4481 C   0  0  0  0  0  0
  -30.4308  -12.5104   19.4930 C   0  0  0  0  0  0
  -29.5144  -12.5156   18.2480 C   0  0  0  0  0  0
  -28.0455  -12.3269   18.6640 C   0  0  0  0  0  0
  -27.6383  -13.2509   19.8426 C   0  0  2  0  0  0
  -28.6870  -13.2640   20.9803 C   0  0  0  0  0  0
  -25.2522  -13.8265   20.5757 C   0  0  0  0  0  0
  -24.1831  -13.0468   20.9240 C   0  0  0  0  0  0
  -24.6445  -11.6961   20.8757 C   0  0  0  0  0  0
  -23.9118  -10.4317   21.0412 C   0  0  0  0  0  0
  -24.3661   -9.4221   21.9196 C   0  0  0  0  0  0
  -23.6298   -8.2275   22.0769 C   0  0  0  0  0  0
  -22.4279   -8.0307   21.3553 C   0  0  0  0  0  0
  -21.9926   -9.0305   20.4673 C   0  0  0  0  0  0
  -22.7274  -10.2170   20.3060 C   0  0  0  0  0  0
  -21.6859   -6.0750   22.5277 C   0  0  0  0  0  0
  -21.4024   -6.5648   23.8215 C   0  0  0  0  0  0
  -21.3651   -5.6801   24.9171 C   0  0  0  0  0  0
  -21.6032   -4.3065   24.7222 C   0  0  0  0  0  0
  -21.8815   -3.8152   23.4348 C   0  0  0  0  0  0
  -21.9201   -4.6971   22.3407 C   0  0  0  0  0  0
  -22.7845  -13.5224   21.1902 C   0  0  0  0  0  0
  -22.1668   -4.2158   21.0981 F   0  0  0  0  0  0
  -21.5629   -3.4541   25.7748 F   0  0  0  0  0  0
  -29.9788  -13.6136   20.3825 N   0  0  0  0  0  0
  -26.2954  -12.9493   20.3301 N   0  0  0  0  0  0
  -25.9394  -11.6620   20.5782 N   0  0  0  0  0  0
  -22.0518  -12.8180   22.0453 N   0  0  0  0  0  0
  -25.4248  -15.1995   20.4256 N   0  0  0  0  0  0
  -31.8409  -14.8407   20.1670 O   0  0  0  0  0  0
  -21.6642   -6.8891   21.4235 O   0  0  0  0  0  0
  -22.3500  -14.5531   20.6744 O   0  0  0  0  0  0
  -24.6337  -31.8528   23.1915 C   0  0  0  0  0  0
  -25.9149  -32.4740   23.8273 C   0  0  1  0  0  0
  -27.2336  -27.2322   20.1338 C   0  0  0  0  0  0
  -25.5949  -33.8537   24.2216 N   0  0  0  0  0  0
  -23.4339  -30.4729   21.5334 C   0  0  2  0  0  0
  -24.8900  -28.9158   20.1065 C   0  0  0  0  0  0
  -22.7518  -29.4599   22.4850 C   0  0  0  0  0  0
  -18.0283  -28.1385   22.8439 C   0  0  0  0  0  0
  -24.1485  -36.7285   23.2634 C   0  0  0  0  0  0
  -25.9826  -30.7560   21.3763 C   0  0  0  0  0  0
  -26.0618  -29.3721   20.7272 C   0  0  0  0  0  0
  -27.2365  -28.5418   20.7363 C   0  0  0  0  0  0
  -26.0439  -26.8608   19.4713 C   0  0  0  0  0  0
  -24.8887  -27.6677   19.4672 C   0  0  0  0  0  0
  -23.6599  -29.8049   20.1515 C   0  0  0  0  0  0
  -25.4113  -36.3046   24.0306 C   0  0  1  0  0  0
  -20.5887  -28.3739   23.1238 C   0  0  2  0  0  0
  -20.6796  -26.9441   22.5415 C   0  0  0  0  0  0
  -19.5771  -26.6376   21.5213 C   0  0  0  0  0  0
  -18.1946  -26.7925   22.1585 C   0  0  0  0  0  0
  -19.1528  -28.8881   23.2835 C   0  0  0  0  0  0
  -18.9432  -30.1463   23.8885 C   0  0  0  0  0  0
  -17.6432  -30.6583   24.0541 C   0  0  0  0  0  0
  -25.9066  -34.9422   23.5057 C   0  0  0  0  0  0
  -16.5326  -29.9073   23.6295 C   0  0  0  0  0  0
  -16.7268  -28.6487   23.0313 C   0  0  0  0  0  0
  -26.4526  -31.6567   25.0668 C   0  0  0  0  0  0
  -25.3724  -31.3721   26.1364 C   0  0  0  0  0  0
  -27.0387  -30.2978   24.6157 C   0  0  0  0  0  0
  -27.6069  -32.4291   25.7472 C   0  0  0  0  0  0
  -27.5569  -37.1795   24.8462 C   0  0  0  0  0  0
  -21.4220  -29.3071   22.3620 N   0  0  0  0  0  0
  -26.4286  -37.3755   23.9400 N   0  0  0  0  0  0
  -24.7017  -31.0455   22.0898 N   0  0  0  0  0  0
  -23.4212  -28.8125   23.2952 O   0  0  0  0  0  0
  -28.2599  -26.2432   20.1959 O   0  0  0  0  0  0
  -26.5660  -34.8906   22.4635 O   0  0  0  0  0  0
  -23.5475  -32.1341   23.7191 O   0  0  0  0  0  0
  -32.1340  -19.1888   20.5003 C   0  0  0  0  0  0
  -31.2323  -20.2727   20.4660 C   0  0  0  0  0  0
  -31.7025  -17.8473   20.5586 C   0  0  0  0  0  0
  -29.4228  -18.6523   20.5591 C   0  0  0  0  0  0
  -29.8369  -20.0664   20.5193 C   0  0  0  0  0  0
  -30.3302  -17.4921   20.5622 C   0  0  0  0  0  0
  -28.2115  -23.6503   20.8935 C   0  0  0  0  0  0
  -27.8937  -25.0217   20.8527 C   0  0  0  0  0  0
  -29.1261  -22.5129   20.3527 C   0  0  0  0  0  0
  -28.9393  -21.2251   20.6607 N   0  0  0  0  0  0
  -29.9214  -16.0336   20.6041 N   0  0  0  0  0  0
  -31.4721  -12.6171   19.1872 H   0  0  0  0  0  0
  -30.3787  -11.5515   20.0095 H   0  0  0  0  0  0
  -29.8106  -11.7289   17.5517 H   0  0  0  0  0  0
  -29.6288  -13.4588   17.7128 H   0  0  0  0  0  0
  -27.9161  -11.2819   18.9511 H   0  0  0  0  0  0
  -27.3863  -12.4931   17.8116 H   0  0  0  0  0  0
  -27.6104  -14.2575   19.4229 H   0  0  0  0  0  0
  -28.7467  -12.3002   21.4860 H   0  0  0  0  0  0
  -28.4197  -13.9992   21.7413 H   0  0  0  0  0  0
  -25.2824   -9.5671   22.4748 H   0  0  0  0  0  0
  -24.0010   -7.4644   22.7468 H   0  0  0  0  0  0
  -21.0863   -8.8805   19.8980 H   0  0  0  0  0  0
  -22.3733  -10.9699   19.6149 H   0  0  0  0  0  0
  -21.2020   -7.6159   23.9703 H   0  0  0  0  0  0
  -21.1473   -6.0550   25.9067 H   0  0  0  0  0  0
  -22.0600   -2.7616   23.2848 H   0  0  0  0  0  0
  -22.4119  -11.9788   22.4750 H   0  0  0  0  0  0
  -21.1141  -13.1209   22.2719 H   0  0  0  0  0  0
  -24.6805  -15.8666   20.5945 H   0  0  0  0  0  0
  -26.2985  -15.6395   20.1670 H   0  0  0  0  0  0
  -26.7223  -32.5407   23.1020 H   0  0  0  0  0  0
  -25.0075  -33.9682   25.0350 H   0  0  0  0  0  0
  -22.7277  -31.2918   21.3823 H   0  0  0  0  0  0
  -23.3735  -35.9641   23.3307 H   0  0  0  0  0  0
  -24.3564  -36.8911   22.2052 H   0  0  0  0  0  0
  -23.7282  -37.6492   23.6676 H   0  0  0  0  0  0
  -26.1170  -31.5090   20.5973 H   0  0  0  0  0  0
  -26.8621  -30.8199   22.0055 H   0  0  0  0  0  0
  -28.1234  -28.8800   21.2537 H   0  0  0  0  0  0
  -25.9918  -25.8951   18.9882 H   0  0  0  0  0  0
  -23.9953  -27.3133   18.9735 H   0  0  0  0  0  0
  -23.7844  -30.5806   19.3955 H   0  0  0  0  0  0
  -22.7783  -29.2410   19.8412 H   0  0  0  0  0  0
  -25.1295  -36.1859   25.0804 H   0  0  0  0  0  0
  -20.9961  -28.3322   24.1362 H   0  0  0  0  0  0
  -20.5654  -26.2359   23.3641 H   0  0  0  0  0  0
  -21.6645  -26.7439   22.1235 H   0  0  0  0  0  0
  -19.6955  -25.6275   21.1269 H   0  0  0  0  0  0
  -19.6730  -27.3161   20.6699 H   0  0  0  0  0  0
  -17.4220  -26.6640   21.3989 H   0  0  0  0  0  0
  -18.0365  -26.0082   22.9005 H   0  0  0  0  0  0
  -19.7909  -30.7273   24.2269 H   0  0  0  0  0  0
  -17.4962  -31.6253   24.5167 H   0  0  0  0  0  0
  -15.5324  -30.2983   23.7597 H   0  0  0  0  0  0
  -15.8657  -28.0813   22.7052 H   0  0  0  0  0  0
  -24.5892  -30.7099   25.7661 H   0  0  0  0  0  0
  -24.8943  -32.2913   26.4749 H   0  0  0  0  0  0
  -25.8009  -30.8888   27.0153 H   0  0  0  0  0  0
  -26.2984  -29.6700   24.1187 H   0  0  0  0  0  0
  -27.4105  -29.7242   25.4661 H   0  0  0  0  0  0
  -27.8835  -30.4256   23.9380 H   0  0  0  0  0  0
  -27.2663  -33.3571   26.2059 H   0  0  0  0  0  0
  -28.3902  -32.6869   25.0335 H   0  0  0  0  0  0
  -28.0721  -31.8404   26.5385 H   0  0  0  0  0  0
  -28.2573  -38.0093   24.7472 H   0  0  0  0  0  0
  -28.1060  -36.2620   24.6310 H   0  0  0  0  0  0
  -27.2285  -37.1468   25.8862 H   0  0  0  0  0  0
  -20.9380  -29.8823   21.6858 H   0  0  0  0  0  0
  -26.0134  -38.2814   24.1408 H   0  0  0  0  0  0
  -33.1931  -19.4006   20.5044 H   0  0  0  0  0  0
  -31.6476  -21.2717   20.4485 H   0  0  0  0  0  0
  -32.4742  -17.0965   20.6155 H   0  0  0  0  0  0
  -28.3614  -18.4527   20.6141 H   0  0  0  0  0  0
  -27.5803  -23.1708   21.6274 H   0  0  0  0  0  0
  -27.1085  -25.2747   21.5523 H   0  0  0  0  0  0
  -29.9588  -22.8434   19.7268 H   0  0  0  0  0  0
  -28.9309  -15.8878   20.7254 H   0  0  0  0  0  0
  1 25  1  0  0  0
  1 30  2  0  0  0
  1 81  1  0  0  0
  2  3  1  0  0  0
  2 25  1  0  0  0
  2 82  1  0  0  0
  2 83  1  0  0  0
  3  4  1  0  0  0
  3 84  1  0  0  0
  3 85  1  0  0  0
  4  5  1  0  0  0
  4 86  1  0  0  0
  4 87  1  0  0  0
  5  6  1  0  0  0
  5 26  1  0  0  0
  5 88  1  0  0  0
  6 25  1  0  0  0
  6 89  1  0  0  0
  6 90  1  0  0  0
  7  8  2  0  0  0
  7 26  1  0  0  0
  7 29  1  0  0  0
  8  9  1  0  0  0
  8 22  1  0  0  0
  9 10  1  0  0  0
  9 27  2  0  0  0
 10 11  2  0  0  0
 10 15  1  0  0  0
 11 12  1  0  0  0
 11 91  1  0  0  0
 12 13  2  0  0  0
 12 92  1  0  0  0
 13 14  1  0  0  0
 13 31  1  0  0  0
 14 15  2  0  0  0
 14 93  1  0  0  0
 15 94  1  0  0  0
 16 17  2  0  0  0
 16 21  1  0  0  0
 16 31  1  0  0  0
 17 18  1  0  0  0
 17 95  1  0  0  0
 18 19  2  0  0  0
 18 96  1  0  0  0
 19 20  1  0  0  0
 19 24  1  0  0  0
 20 21  2  0  0  0
 20 97  1  0  0  0
 21 23  1  0  0  0
 22 28  1  0  0  0
 22 32  2  0  0  0
 26 27  1  0  0  0
 28 98  1  0  0  0
 28 99  1  0  0  0
 29100  1  0  0  0
 29101  1  0  0  0
 33 34  1  0  0  0
 33 66  1  0  0  0
 33 70  2  0  0  0
 34 36  1  0  0  0
 34 59  1  0  0  0
 34102  1  0  0  0
 35 44  2  0  0  0
 35 45  1  0  0  0
 35 68  1  0  0  0
 36 56  1  0  0  0
 36103  1  0  0  0
 37 39  1  0  0  0
 37 47  1  0  0  0
 37 66  1  0  0  0
 37104  1  0  0  0
 38 43  2  0  0  0
 38 46  1  0  0  0
 38 47  1  0  0  0
 39 64  1  0  0  0
 39 67  2  0  0  0
 40 52  1  0  0  0
 40 53  2  0  0  0
 40 58  1  0  0  0
 41105  1  0  0  0
 41106  1  0  0  0
 41107  1  0  0  0
 41 48  1  0  0  0
 42 43  1  0  0  0
 42 66  1  0  0  0
 42108  1  0  0  0
 42109  1  0  0  0
 43 44  1  0  0  0
 44110  1  0  0  0
 45 46  2  0  0  0
 45111  1  0  0  0
 46112  1  0  0  0
 47113  1  0  0  0
 47114  1  0  0  0
 48 56  1  0  0  0
 48 65  1  0  0  0
 48115  1  0  0  0
 49 50  1  0  0  0
 49 53  1  0  0  0
 49 64  1  0  0  0
 49116  1  0  0  0
 50 51  1  0  0  0
 50117  1  0  0  0
 50118  1  0  0  0
 51 52  1  0  0  0
 51119  1  0  0  0
 51120  1  0  0  0
 52121  1  0  0  0
 52122  1  0  0  0
 53 54  1  0  0  0
 54 55  2  0  0  0
 54123  1  0  0  0
 55 57  1  0  0  0
 55124  1  0  0  0
 56 69  2  0  0  0
 57 58  2  0  0  0
 57125  1  0  0  0
 58126  1  0  0  0
 59 60  1  0  0  0
 59 61  1  0  0  0
 59 62  1  0  0  0
 60127  1  0  0  0
 60128  1  0  0  0
 60129  1  0  0  0
 61130  1  0  0  0
 61131  1  0  0  0
 61132  1  0  0  0
 62133  1  0  0  0
 62134  1  0  0  0
 62135  1  0  0  0
 63 65  1  0  0  0
 63136  1  0  0  0
 63137  1  0  0  0
 63138  1  0  0  0
 64139  1  0  0  0
 65140  1  0  0  0
 68 78  1  0  0  0
 71 72  2  0  0  0
 71 73  1  0  0  0
 71141  1  0  0  0
 72 75  1  0  0  0
 72142  1  0  0  0
 73 76  2  0  0  0
 73143  1  0  0  0
 74 75  2  0  0  0
 74 76  1  0  0  0
 74144  1  0  0  0
 75 80  1  0  0  0
 76 81  1  0  0  0
 77 78  2  0  0  0
 77 79  1  0  0  0
 77145  1  0  0  0
 78146  1  0  0  0
 79 80  2  0  0  0
 79147  1  0  0  0
 81148  1  0  0  0
M  ISO  4   1 100  68 101  78 101  81 100
M  END
> <chiral flag>
0

> <version>
0

> <s_m_source_file>
/data/baiqing/PycharmProjects/Reinvent-master-3.2/result/LINK_invent/BTK/process_docking_weight1_custom_product_contain_oxygen_bond_distance_aromatic_linkinvent_7_9_3/rearranged_h_0057.sdf

> <i_m_source_file_index>
54

> <r_mmod_Potential_Energy-OPLS-2005>
364.095855712891

> <r_mmod_Stretch_Energy-OPLS-2005>
160.646942138672

> <r_mmod_Bend_Energy-OPLS-2005>
270.780792236328

> <r_mmod_Torsional_Energy-OPLS-2005>
225.421447753906

> <r_mmod_Improper_Torsional_Energy-OPLS-2005>
5.40808153152466

> <r_mmod_Van_der_Waal_Energy-OPLS-2005>
143.549255371094

> <r_mmod_Electrostatic_Energy-OPLS-2005>
-358.683227539062

> <r_mmod_Solvation_Energy-OPLS-2005>
-209.105026245117

> <b_mmod_Minimization_Converged-OPLS-2005>
0

> <r_mmod_RMS_Derivative-OPLS-2005>
4.51974391937256

$$$$
55
                    3D
 Structure written by MMmdl.
168177  0  0  1  0            999 V2000
  -30.6510  -14.5155   20.6094 C   0  0  0  0  0  0
  -30.4549  -12.3514   19.4042 C   0  0  0  0  0  0
  -29.5010  -12.5219   18.2011 C   0  0  0  0  0  0
  -28.0213  -12.3725   18.6182 C   0  0  0  0  0  0
  -27.6696  -13.1961   19.8852 C   0  0  2  0  0  0
  -28.7188  -12.9365   20.9914 C   0  0  0  0  0  0
  -25.2641  -13.8134   20.5703 C   0  0  0  0  0  0
  -24.1878  -13.0422   20.9176 C   0  0  0  0  0  0
  -24.6421  -11.6885   20.8735 C   0  0  0  0  0  0
  -23.9079  -10.4278   21.0408 C   0  0  0  0  0  0
  -24.3609   -9.4186   21.9198 C   0  0  0  0  0  0
  -23.6261   -8.2235   22.0777 C   0  0  0  0  0  0
  -22.4255   -8.0284   21.3549 C   0  0  0  0  0  0
  -21.9887   -9.0275   20.4667 C   0  0  0  0  0  0
  -22.7239  -10.2144   20.3067 C   0  0  0  0  0  0
  -21.6844   -6.0717   22.5272 C   0  0  0  0  0  0
  -21.4017   -6.5619   23.8207 C   0  0  0  0  0  0
  -21.3663   -5.6776   24.9173 C   0  0  0  0  0  0
  -21.6036   -4.3038   24.7222 C   0  0  0  0  0  0
  -21.8818   -3.8131   23.4342 C   0  0  0  0  0  0
  -21.9195   -4.6948   22.3395 C   0  0  0  0  0  0
  -22.7901  -13.5257   21.1794 C   0  0  0  0  0  0
  -22.1661   -4.2122   21.0970 F   0  0  0  0  0  0
  -21.5629   -3.4531   25.7741 F   0  0  0  0  0  0
  -30.0418  -13.3047   20.4451 N   0  0  0  0  0  0
  -26.3079  -12.9273   20.3431 N   0  0  0  0  0  0
  -25.9356  -11.6438   20.5784 N   0  0  0  0  0  0
  -22.0516  -12.8305   22.0368 N   0  0  0  0  0  0
  -25.4341  -15.1860   20.4106 N   0  0  0  0  0  0
  -31.7625  -14.7855   20.1433 O   0  0  0  0  0  0
  -21.6637   -6.8864   21.4230 O   0  0  0  0  0  0
  -22.3601  -14.5540   20.6583 O   0  0  0  0  0  0
  -24.6178  -31.8658   23.2060 C   0  0  0  0  0  0
  -25.9077  -32.4802   23.8350 C   0  0  1  0  0  0
  -27.2412  -27.3824   20.1044 C   0  0  0  0  0  0
  -25.5925  -33.8598   24.2286 N   0  0  0  0  0  0
  -23.4103  -30.4920   21.5435 C   0  0  2  0  0  0
  -24.8577  -28.9487   20.1166 C   0  0  0  0  0  0
  -22.7449  -29.4667   22.4928 C   0  0  0  0  0  0
  -18.0294  -28.1390   22.8496 C   0  0  0  0  0  0
  -24.1493  -36.7292   23.2629 C   0  0  0  0  0  0
  -25.9459  -30.8107   21.3732 C   0  0  0  0  0  0
  -26.0203  -29.4430   20.7170 C   0  0  0  0  0  0
  -27.2072  -28.6653   20.7140 C   0  0  0  0  0  0
  -26.0582  -26.9358   19.4646 C   0  0  0  0  0  0
  -24.8720  -27.6936   19.4922 C   0  0  0  0  0  0
  -23.6245  -29.8220   20.1608 C   0  0  0  0  0  0
  -25.4120  -36.3092   24.0326 C   0  0  1  0  0  0
  -20.5890  -28.3695   23.1299 C   0  0  2  0  0  0
  -20.6780  -26.9418   22.5401 C   0  0  0  0  0  0
  -19.5747  -26.6394   21.5212 C   0  0  0  0  0  0
  -18.1942  -26.7926   22.1652 C   0  0  0  0  0  0
  -19.1534  -28.8854   23.2880 C   0  0  0  0  0  0
  -18.9460  -30.1462   23.8895 C   0  0  0  0  0  0
  -17.6465  -30.6580   24.0579 C   0  0  0  0  0  0
  -25.9062  -34.9462   23.5104 C   0  0  0  0  0  0
  -16.5360  -29.9093   23.6325 C   0  0  0  0  0  0
  -16.7266  -28.6519   23.0336 C   0  0  0  0  0  0
  -26.4471  -31.6604   25.0701 C   0  0  0  0  0  0
  -25.3719  -31.3754   26.1437 C   0  0  0  0  0  0
  -27.0290  -30.3026   24.6140 C   0  0  0  0  0  0
  -27.6031  -32.4323   25.7467 C   0  0  0  0  0  0
  -27.5589  -37.1802   24.8464 C   0  0  0  0  0  0
  -21.4166  -29.3064   22.3681 N   0  0  0  0  0  0
  -26.4301  -37.3783   23.9402 N   0  0  0  0  0  0
  -24.6756  -31.0728   22.0985 N   0  0  0  0  0  0
  -23.4220  -28.8220   23.2981 O   0  0  0  0  0  0
  -28.4012  -26.6095   20.1740 O   0  0  0  0  0  0
  -26.5591  -34.8927   22.4653 O   0  0  0  0  0  0
  -23.5367  -32.1439   23.7446 O   0  0  0  0  0  0
  -29.7990  -16.9221   23.0762 C   0  0  0  0  0  0
  -30.0880  -17.9129   20.8836 C   0  0  0  0  0  0
  -29.6085  -18.1981   23.6299 C   0  0  0  0  0  0
  -29.8590  -19.2319   21.4004 C   0  0  0  0  0  0
  -29.5994  -19.3629   22.8095 C   0  0  0  0  0  0
  -30.0177  -16.7525   21.7014 C   0  0  0  0  0  0
  -29.9660  -18.9537   25.9834 C   0  0  0  0  0  0
  -29.3059  -18.2323   25.0746 C   0  0  0  0  0  0
  -29.7087  -20.3745   20.3875 C   0  0  0  0  0  0
  -29.3209  -18.9353   27.3425 C   0  0  0  0  0  0
  -28.0744  -17.6038   25.6811 C   0  0  0  0  0  0
  -28.1791  -17.9123   27.1889 C   0  0  0  0  0  0
  -29.2296  -20.6966   23.4706 C   0  0  0  0  0  0
  -29.2373  -24.1995   20.6237 C   0  0  0  0  0  0
  -29.4167  -22.8168   19.9049 C   0  0  0  0  0  0
  -28.3643  -25.2032   19.7907 C   0  0  0  0  0  0
  -29.8416  -15.4209   21.2070 N   0  0  0  0  0  0
  -29.8662  -21.6742   20.7432 N   0  0  0  0  0  0
  -29.4294  -20.0895   19.2201 O   0  0  0  0  0  0
  -31.4884  -12.5082   19.0882 H   0  0  0  0  0  0
  -30.4175  -11.3343   19.7932 H   0  0  0  0  0  0
  -29.7452  -11.7947   17.4253 H   0  0  0  0  0  0
  -29.6565  -13.5060   17.7573 H   0  0  0  0  0  0
  -27.8319  -11.3147   18.8058 H   0  0  0  0  0  0
  -27.3672  -12.6602   17.7941 H   0  0  0  0  0  0
  -27.7214  -14.2489   19.6067 H   0  0  0  0  0  0
  -28.7207  -11.8810   21.2715 H   0  0  0  0  0  0
  -28.4688  -13.4624   21.9139 H   0  0  0  0  0  0
  -25.2755   -9.5660   22.4784 H   0  0  0  0  0  0
  -23.9958   -7.4624   22.7508 H   0  0  0  0  0  0
  -21.0811   -8.8809   19.8979 H   0  0  0  0  0  0
  -22.3707  -10.9685   19.6178 H   0  0  0  0  0  0
  -21.2027   -7.6125   23.9698 H   0  0  0  0  0  0
  -21.1477   -6.0509   25.9063 H   0  0  0  0  0  0
  -22.0597   -2.7585   23.2859 H   0  0  0  0  0  0
  -22.4087  -11.9963   22.4789 H   0  0  0  0  0  0
  -21.1158  -13.1394   22.2522 H   0  0  0  0  0  0
  -24.6665  -15.8373   20.5404 H   0  0  0  0  0  0
  -26.2863  -15.6342   20.0960 H   0  0  0  0  0  0
  -26.7159  -32.5500   23.1111 H   0  0  0  0  0  0
  -25.0117  -33.9758   25.0461 H   0  0  0  0  0  0
  -22.6957  -31.3054   21.4006 H   0  0  0  0  0  0
  -23.3752  -35.9630   23.3310 H   0  0  0  0  0  0
  -24.3580  -36.8887   22.2038 H   0  0  0  0  0  0
  -23.7256  -37.6511   23.6636 H   0  0  0  0  0  0
  -26.0745  -31.5776   20.6074 H   0  0  0  0  0  0
  -26.8259  -30.8561   22.0028 H   0  0  0  0  0  0
  -28.0953  -29.0383   21.2012 H   0  0  0  0  0  0
  -26.0140  -25.9999   18.9323 H   0  0  0  0  0  0
  -23.9751  -27.3081   19.0260 H   0  0  0  0  0  0
  -23.7471  -30.5944   19.3999 H   0  0  0  0  0  0
  -22.7486  -29.2471   19.8612 H   0  0  0  0  0  0
  -25.1310  -36.1925   25.0822 H   0  0  0  0  0  0
  -20.9997  -28.3261   24.1405 H   0  0  0  0  0  0
  -20.5691  -26.2297   23.3593 H   0  0  0  0  0  0
  -21.6650  -26.7467   22.1192 H   0  0  0  0  0  0
  -19.6902  -25.6298   21.1238 H   0  0  0  0  0  0
  -19.6671  -27.3201   20.6735 H   0  0  0  0  0  0
  -17.4203  -26.6667   21.4058 H   0  0  0  0  0  0
  -18.0351  -26.0055   22.9044 H   0  0  0  0  0  0
  -19.7940  -30.7291   24.2249 H   0  0  0  0  0  0
  -17.5014  -31.6246   24.5203 H   0  0  0  0  0  0
  -15.5362  -30.2984   23.7649 H   0  0  0  0  0  0
  -15.8687  -28.0854   22.7012 H   0  0  0  0  0  0
  -24.5853  -30.7151   25.7768 H   0  0  0  0  0  0
  -24.8966  -32.2949   26.4886 H   0  0  0  0  0  0
  -25.8047  -30.8908   27.0200 H   0  0  0  0  0  0
  -26.2866  -29.6779   24.1165 H   0  0  0  0  0  0
  -27.3983  -29.7266   25.4634 H   0  0  0  0  0  0
  -27.8746  -30.4289   23.9361 H   0  0  0  0  0  0
  -27.2645  -33.3611   26.2066 H   0  0  0  0  0  0
  -28.3839  -32.6900   25.0299 H   0  0  0  0  0  0
  -28.0701  -31.8434   26.5372 H   0  0  0  0  0  0
  -28.2611  -38.0092   24.7509 H   0  0  0  0  0  0
  -28.1075  -36.2626   24.6300 H   0  0  0  0  0  0
  -27.2298  -37.1470   25.8862 H   0  0  0  0  0  0
  -20.9311  -29.8782   21.6917 H   0  0  0  0  0  0
  -26.0175  -38.2862   24.1385 H   0  0  0  0  0  0
  -29.7038  -16.0529   23.7125 H   0  0  0  0  0  0
  -30.2064  -17.7813   19.8180 H   0  0  0  0  0  0
  -30.8386  -19.5564   25.7749 H   0  0  0  0  0  0
  -28.9354  -19.9313   27.5666 H   0  0  0  0  0  0
  -30.0302  -18.6548   28.1217 H   0  0  0  0  0  0
  -28.0283  -16.5313   25.4875 H   0  0  0  0  0  0
  -27.1877  -18.0629   25.2444 H   0  0  0  0  0  0
  -27.2376  -18.2850   27.5961 H   0  0  0  0  0  0
  -28.4311  -16.9981   27.7296 H   0  0  0  0  0  0
  -28.5813  -20.5565   24.3336 H   0  0  0  0  0  0
  -28.6493  -21.3562   22.8329 H   0  0  0  0  0  0
  -30.1284  -21.2094   23.8115 H   0  0  0  0  0  0
  -30.2148  -24.6263   20.8476 H   0  0  0  0  0  0
  -28.7522  -24.0450   21.5878 H   0  0  0  0  0  0
  -30.1006  -22.9245   19.0612 H   0  0  0  0  0  0
  -28.4519  -22.5487   19.4721 H   0  0  0  0  0  0
  -27.3586  -24.7922   19.8678 H   0  0  0  0  0  0
  -28.6352  -25.1425   18.7346 H   0  0  0  0  0  0
  -28.9929  -14.9803   21.5270 H   0  0  0  0  0  0
  -30.1835  -21.8662   21.6829 H   0  0  0  0  0  0
  1 25  1  0  0  0
  1 30  2  0  0  0
  1 87  1  0  0  0
  2  3  1  0  0  0
  2 25  1  0  0  0
  2 90  1  0  0  0
  2 91  1  0  0  0
  3  4  1  0  0  0
  3 92  1  0  0  0
  3 93  1  0  0  0
  4  5  1  0  0  0
  4 94  1  0  0  0
  4 95  1  0  0  0
  5  6  1  0  0  0
  5 26  1  0  0  0
  5 96  1  0  0  0
  6 25  1  0  0  0
  6 97  1  0  0  0
  6 98  1  0  0  0
  7  8  2  0  0  0
  7 26  1  0  0  0
  7 29  1  0  0  0
  8  9  1  0  0  0
  8 22  1  0  0  0
  9 10  1  0  0  0
  9 27  2  0  0  0
 10 11  2  0  0  0
 10 15  1  0  0  0
 11 12  1  0  0  0
 11 99  1  0  0  0
 12 13  2  0  0  0
 12100  1  0  0  0
 13 14  1  0  0  0
 13 31  1  0  0  0
 14 15  2  0  0  0
 14101  1  0  0  0
 15102  1  0  0  0
 16 17  2  0  0  0
 16 21  1  0  0  0
 16 31  1  0  0  0
 17 18  1  0  0  0
 17103  1  0  0  0
 18 19  2  0  0  0
 18104  1  0  0  0
 19 20  1  0  0  0
 19 24  1  0  0  0
 20 21  2  0  0  0
 20105  1  0  0  0
 21 23  1  0  0  0
 22 28  1  0  0  0
 22 32  2  0  0  0
 26 27  1  0  0  0
 28106  1  0  0  0
 28107  1  0  0  0
 29108  1  0  0  0
 29109  1  0  0  0
 33 34  1  0  0  0
 33 66  1  0  0  0
 33 70  2  0  0  0
 34 36  1  0  0  0
 34 59  1  0  0  0
 34110  1  0  0  0
 35 44  2  0  0  0
 35 45  1  0  0  0
 35 68  1  0  0  0
 36 56  1  0  0  0
 36111  1  0  0  0
 37 39  1  0  0  0
 37 47  1  0  0  0
 37 66  1  0  0  0
 37112  1  0  0  0
 38 43  2  0  0  0
 38 46  1  0  0  0
 38 47  1  0  0  0
 39 64  1  0  0  0
 39 67  2  0  0  0
 40 52  1  0  0  0
 40 53  2  0  0  0
 40 58  1  0  0  0
 41113  1  0  0  0
 41114  1  0  0  0
 41115  1  0  0  0
 41 48  1  0  0  0
 42 43  1  0  0  0
 42 66  1  0  0  0
 42116  1  0  0  0
 42117  1  0  0  0
 43 44  1  0  0  0
 44118  1  0  0  0
 45 46  2  0  0  0
 45119  1  0  0  0
 46120  1  0  0  0
 47121  1  0  0  0
 47122  1  0  0  0
 48 56  1  0  0  0
 48 65  1  0  0  0
 48123  1  0  0  0
 49 50  1  0  0  0
 49 53  1  0  0  0
 49 64  1  0  0  0
 49124  1  0  0  0
 50 51  1  0  0  0
 50125  1  0  0  0
 50126  1  0  0  0
 51 52  1  0  0  0
 51127  1  0  0  0
 51128  1  0  0  0
 52129  1  0  0  0
 52130  1  0  0  0
 53 54  1  0  0  0
 54 55  2  0  0  0
 54131  1  0  0  0
 55 57  1  0  0  0
 55132  1  0  0  0
 56 69  2  0  0  0
 57 58  2  0  0  0
 57133  1  0  0  0
 58134  1  0  0  0
 59 60  1  0  0  0
 59 61  1  0  0  0
 59 62  1  0  0  0
 60135  1  0  0  0
 60136  1  0  0  0
 60137  1  0  0  0
 61138  1  0  0  0
 61139  1  0  0  0
 61140  1  0  0  0
 62141  1  0  0  0
 62142  1  0  0  0
 62143  1  0  0  0
 63 65  1  0  0  0
 63144  1  0  0  0
 63145  1  0  0  0
 63146  1  0  0  0
 64147  1  0  0  0
 65148  1  0  0  0
 68 86  1  0  0  0
 71 73  2  0  0  0
 71 76  1  0  0  0
 71149  1  0  0  0
 72 74  1  0  0  0
 72 76  2  0  0  0
 72150  1  0  0  0
 73 75  1  0  0  0
 73 78  1  0  0  0
 74 75  2  0  0  0
 74 79  1  0  0  0
 75 83  1  0  0  0
 76 87  1  0  0  0
 77 78  2  0  0  0
 77 80  1  0  0  0
 77151  1  0  0  0
 78 81  1  0  0  0
 79 88  1  0  0  0
 79 89  2  0  0  0
 80 82  1  0  0  0
 80152  1  0  0  0
 80153  1  0  0  0
 81 82  1  0  0  0
 81154  1  0  0  0
 81155  1  0  0  0
 82156  1  0  0  0
 82157  1  0  0  0
 83158  1  0  0  0
 83159  1  0  0  0
 83160  1  0  0  0
 84 85  1  0  0  0
 84 86  1  0  0  0
 84161  1  0  0  0
 84162  1  0  0  0
 85 88  1  0  0  0
 85163  1  0  0  0
 85164  1  0  0  0
 86165  1  0  0  0
 86166  1  0  0  0
 87167  1  0  0  0
 88168  1  0  0  0
M  ISO  4   1 100  68 101  86 101  87 100
M  END
> <chiral flag>
0

> <version>
0

> <s_m_source_file>
/data/baiqing/PycharmProjects/Reinvent-master-3.2/result/LINK_invent/BTK/process_docking_weight1_custom_product_contain_oxygen_bond_distance_aromatic_linkinvent_7_9_3/rearranged_h_0057.sdf

> <i_m_source_file_index>
55

> <r_mmod_Potential_Energy-OPLS-2005>
65.2473526000977

> <r_mmod_Stretch_Energy-OPLS-2005>
57.7423515319824

> <r_mmod_Bend_Energy-OPLS-2005>
179.515182495117

> <r_mmod_Torsional_Energy-OPLS-2005>
281.803405761719

> <r_mmod_Improper_Torsional_Energy-OPLS-2005>
7.73994445800781

> <r_mmod_Van_der_Waal_Energy-OPLS-2005>
166.704193115234

> <r_mmod_Electrostatic_Energy-OPLS-2005>
-420.440124511719

> <r_mmod_Solvation_Energy-OPLS-2005>
-230.602478027344

> <b_mmod_Minimization_Converged-OPLS-2005>
0

> <r_mmod_RMS_Derivative-OPLS-2005>
4.27809381484985

$$$$
56
                    3D
 Structure written by MMmdl.
167176  0  0  1  0            999 V2000
  -30.6688  -14.4353   20.5932 C   0  0  0  0  0  0
  -30.4330  -12.2864   19.4098 C   0  0  0  0  0  0
  -29.5021  -12.5112   18.2000 C   0  0  0  0  0  0
  -28.0206  -12.3505   18.6092 C   0  0  0  0  0  0
  -27.6662  -13.1796   19.8743 C   0  0  2  0  0  0
  -28.7043  -12.9192   20.9908 C   0  0  0  0  0  0
  -25.2653  -13.8077   20.5627 C   0  0  0  0  0  0
  -24.1879  -13.0427   20.9157 C   0  0  0  0  0  0
  -24.6390  -11.6882   20.8758 C   0  0  0  0  0  0
  -23.9055  -10.4312   21.0439 C   0  0  0  0  0  0
  -24.3644   -9.4203   21.9193 C   0  0  0  0  0  0
  -23.6325   -8.2230   22.0759 C   0  0  0  0  0  0
  -22.4282   -8.0305   21.3553 C   0  0  0  0  0  0
  -21.9918   -9.0273   20.4639 C   0  0  0  0  0  0
  -22.7247  -10.2158   20.3042 C   0  0  0  0  0  0
  -21.6837   -6.0799   22.5285 C   0  0  0  0  0  0
  -21.4018   -6.5686   23.8227 C   0  0  0  0  0  0
  -21.3648   -5.6819   24.9181 C   0  0  0  0  0  0
  -21.6039   -4.3078   24.7222 C   0  0  0  0  0  0
  -21.8797   -3.8185   23.4331 C   0  0  0  0  0  0
  -21.9186   -4.7033   22.3418 C   0  0  0  0  0  0
  -22.7916  -13.5251   21.1911 C   0  0  0  0  0  0
  -22.1655   -4.2226   21.0979 F   0  0  0  0  0  0
  -21.5608   -3.4553   25.7721 F   0  0  0  0  0  0
  -30.0407  -13.2411   20.4475 N   0  0  0  0  0  0
  -26.3044  -12.9179   20.3297 N   0  0  0  0  0  0
  -25.9289  -11.6398   20.5753 N   0  0  0  0  0  0
  -22.0567  -12.8252   22.0451 N   0  0  0  0  0  0
  -25.4439  -15.1843   20.4014 N   0  0  0  0  0  0
  -31.7981  -14.6925   20.1655 O   0  0  0  0  0  0
  -21.6628   -6.8940   21.4251 O   0  0  0  0  0  0
  -22.3624  -14.5617   20.6825 O   0  0  0  0  0  0
  -24.6313  -31.8785   23.2205 C   0  0  0  0  0  0
  -25.9141  -32.4913   23.8536 C   0  0  1  0  0  0
  -27.2436  -27.4791   20.0740 C   0  0  0  0  0  0
  -25.5938  -33.8709   24.2459 N   0  0  0  0  0  0
  -23.4321  -30.5102   21.5705 C   0  0  2  0  0  0
  -24.8527  -28.9618   20.1276 C   0  0  0  0  0  0
  -22.7697  -29.4960   22.5266 C   0  0  0  0  0  0
  -17.9986  -28.1178   22.8795 C   0  0  0  0  0  0
  -24.1465  -36.7312   23.2632 C   0  0  0  0  0  0
  -25.9458  -30.8548   21.3576 C   0  0  0  0  0  0
  -26.0168  -29.4897   20.7015 C   0  0  0  0  0  0
  -27.2214  -28.7584   20.6577 C   0  0  0  0  0  0
  -26.0649  -26.9468   19.5128 C   0  0  0  0  0  0
  -24.8664  -27.6884   19.5272 C   0  0  0  0  0  0
  -23.6188  -29.8285   20.1879 C   0  0  0  0  0  0
  -25.4095  -36.3204   24.0364 C   0  0  1  0  0  0
  -20.4757  -28.4615   22.7763 C   0  0  2  0  0  0
  -20.6909  -26.9661   22.5346 C   0  0  0  0  0  0
  -19.5544  -26.4538   21.6226 C   0  0  0  0  0  0
  -18.1604  -26.7478   22.2158 C   0  0  0  0  0  0
  -19.1168  -28.8970   23.2583 C   0  0  0  0  0  0
  -18.9404  -30.1450   23.8877 C   0  0  0  0  0  0
  -17.6403  -30.6451   24.0911 C   0  0  0  0  0  0
  -25.9016  -34.9526   23.5211 C   0  0  0  0  0  0
  -16.5258  -29.8909   23.6842 C   0  0  0  0  0  0
  -16.7017  -28.6264   23.0951 C   0  0  0  0  0  0
  -26.4488  -31.6652   25.0855 C   0  0  0  0  0  0
  -25.3735  -31.3710   26.1590 C   0  0  0  0  0  0
  -27.0344  -30.3141   24.6167 C   0  0  0  0  0  0
  -27.6102  -32.4297   25.7561 C   0  0  0  0  0  0
  -27.5585  -37.1831   24.8486 C   0  0  0  0  0  0
  -21.4489  -29.4518   22.3933 N   0  0  0  0  0  0
  -26.4316  -37.3861   23.9415 N   0  0  0  0  0  0
  -24.6926  -31.0927   22.1080 N   0  0  0  0  0  0
  -23.4206  -28.7699   23.2813 O   0  0  0  0  0  0
  -28.4178  -26.7657   20.0766 O   0  0  0  0  0  0
  -26.5582  -34.8944   22.4776 O   0  0  0  0  0  0
  -23.5449  -32.1487   23.7566 O   0  0  0  0  0  0
  -29.9111  -17.3319   24.1427 C   0  0  0  0  0  0
  -29.8659  -16.2527   23.2573 C   0  0  0  0  0  0
  -30.3755  -17.7554   21.3949 C   0  0  0  0  0  0
  -30.1855  -18.6305   23.6693 C   0  0  0  0  0  0
  -30.4160  -18.8597   22.2827 C   0  0  0  0  0  0
  -30.1058  -16.4579   21.8902 C   0  0  0  0  0  0
  -28.8808  -21.9506   22.1197 C   0  0  0  0  0  0
  -27.6275  -22.6278   21.5520 C   0  0  0  0  0  0
  -28.3976  -21.8746   19.2452 C   0  0  0  0  0  0
  -28.7670  -20.6219   20.0816 C   0  0  0  0  0  0
  -27.8618  -23.0705   20.0838 C   0  0  2  0  0  0
  -30.1744  -19.7415   24.7004 C   0  0  0  0  0  0
  -30.6517  -20.2567   21.7031 C   0  0  0  0  0  0
  -28.7566  -24.3281   19.9109 C   0  0  0  0  0  0
  -28.3418  -25.5293   20.7828 C   0  0  0  0  0  0
  -29.4167  -20.9731   21.3541 N   0  0  0  0  0  0
  -29.8308  -15.3774   21.0379 N   0  0  0  0  0  0
  -29.3510  -22.3286   23.1959 O   0  0  0  0  0  0
  -31.4709  -12.4243   19.1092 H   0  0  0  0  0  0
  -30.3523  -11.2632   19.7877 H   0  0  0  0  0  0
  -29.7553  -11.8174   17.3982 H   0  0  0  0  0  0
  -29.6525  -13.5161   17.7997 H   0  0  0  0  0  0
  -27.8494  -11.2945   18.8143 H   0  0  0  0  0  0
  -27.3661  -12.6117   17.7785 H   0  0  0  0  0  0
  -27.7172  -14.2298   19.5836 H   0  0  0  0  0  0
  -28.6760  -11.8760   21.3003 H   0  0  0  0  0  0
  -28.4476  -13.4769   21.8953 H   0  0  0  0  0  0
  -25.2796   -9.5683   22.4767 H   0  0  0  0  0  0
  -24.0055   -7.4595   22.7453 H   0  0  0  0  0  0
  -21.0837   -8.8772   19.8953 H   0  0  0  0  0  0
  -22.3683  -10.9717   19.6159 H   0  0  0  0  0  0
  -21.1991   -7.6177   23.9762 H   0  0  0  0  0  0
  -21.1498   -6.0547   25.9101 H   0  0  0  0  0  0
  -22.0587   -2.7666   23.2779 H   0  0  0  0  0  0
  -22.4194  -11.9866   22.4754 H   0  0  0  0  0  0
  -21.1227  -13.1312   22.2770 H   0  0  0  0  0  0
  -24.6859  -15.8452   20.5206 H   0  0  0  0  0  0
  -26.3042  -15.6190   20.0963 H   0  0  0  0  0  0
  -26.7259  -32.5652   23.1344 H   0  0  0  0  0  0
  -25.0192  -33.9893   25.0689 H   0  0  0  0  0  0
  -22.7414  -31.3442   21.4243 H   0  0  0  0  0  0
  -23.3765  -35.9612   23.3348 H   0  0  0  0  0  0
  -24.3542  -36.8859   22.2033 H   0  0  0  0  0  0
  -23.7147  -37.6499   23.6600 H   0  0  0  0  0  0
  -26.0591  -31.6159   20.5856 H   0  0  0  0  0  0
  -26.8358  -30.9174   21.9705 H   0  0  0  0  0  0
  -28.1293  -29.1607   21.0790 H   0  0  0  0  0  0
  -26.0710  -25.9635   19.0612 H   0  0  0  0  0  0
  -23.9662  -27.2822   19.0827 H   0  0  0  0  0  0
  -23.7185  -30.5975   19.4237 H   0  0  0  0  0  0
  -22.7393  -29.2516   19.8951 H   0  0  0  0  0  0
  -25.1245  -36.2092   25.0854 H   0  0  0  0  0  0
  -20.1466  -28.6836   21.7612 H   0  0  0  0  0  0
  -20.6827  -26.4441   23.4919 H   0  0  0  0  0  0
  -21.6634  -26.7702   22.0816 H   0  0  0  0  0  0
  -19.6664  -25.3813   21.4513 H   0  0  0  0  0  0
  -19.6306  -26.9161   20.6350 H   0  0  0  0  0  0
  -17.4005  -26.6306   21.4400 H   0  0  0  0  0  0
  -17.9340  -25.9952   22.9721 H   0  0  0  0  0  0
  -19.8024  -30.7405   24.1653 H   0  0  0  0  0  0
  -17.5024  -31.6117   24.5548 H   0  0  0  0  0  0
  -15.5249  -30.2772   23.8353 H   0  0  0  0  0  0
  -15.8393  -28.0507   22.7935 H   0  0  0  0  0  0
  -24.5890  -30.7089   25.7883 H   0  0  0  0  0  0
  -24.8933  -32.2847   26.5099 H   0  0  0  0  0  0
  -25.8031  -30.8824   27.0341 H   0  0  0  0  0  0
  -26.2933  -29.6865   24.1203 H   0  0  0  0  0  0
  -27.4179  -29.7354   25.4556 H   0  0  0  0  0  0
  -27.8705  -30.4535   23.9321 H   0  0  0  0  0  0
  -27.2848  -33.3590   26.2217 H   0  0  0  0  0  0
  -28.3847  -32.6828   25.0320 H   0  0  0  0  0  0
  -28.0886  -31.8390   26.5375 H   0  0  0  0  0  0
  -28.2654  -38.0085   24.7544 H   0  0  0  0  0  0
  -28.1044  -36.2619   24.6317 H   0  0  0  0  0  0
  -27.2334  -37.1495   25.8908 H   0  0  0  0  0  0
  -21.0717  -30.1615   21.7777 H   0  0  0  0  0  0
  -26.0223  -38.2952   24.1409 H   0  0  0  0  0  0
  -29.6951  -17.1434   25.1884 H   0  0  0  0  0  0
  -29.5930  -15.2728   23.6326 H   0  0  0  0  0  0
  -30.4946  -17.9176   20.3322 H   0  0  0  0  0  0
  -27.3103  -23.4503   22.1953 H   0  0  0  0  0  0
  -26.7979  -21.9173   21.5762 H   0  0  0  0  0  0
  -27.6667  -21.5975   18.4868 H   0  0  0  0  0  0
  -29.2800  -22.1891   18.6851 H   0  0  0  0  0  0
  -29.3940  -19.9558   19.4923 H   0  0  0  0  0  0
  -27.8608  -20.0546   20.3022 H   0  0  0  0  0  0
  -26.8852  -23.3386   19.6726 H   0  0  0  0  0  0
  -30.4082  -19.3295   25.6832 H   0  0  0  0  0  0
  -29.1815  -20.1879   24.7468 H   0  0  0  0  0  0
  -30.9035  -20.5233   24.4950 H   0  0  0  0  0  0
  -31.2714  -20.1743   20.8046 H   0  0  0  0  0  0
  -31.2636  -20.8525   22.3828 H   0  0  0  0  0  0
  -29.8067  -24.0976   20.1098 H   0  0  0  0  0  0
  -28.7205  -24.6303   18.8636 H   0  0  0  0  0  0
  -27.3396  -25.3845   21.1855 H   0  0  0  0  0  0
  -29.0060  -25.5943   21.6482 H   0  0  0  0  0  0
  -28.9455  -14.9402   21.2356 H   0  0  0  0  0  0
  1 25  1  0  0  0
  1 30  2  0  0  0
  1 87  1  0  0  0
  2  3  1  0  0  0
  2 25  1  0  0  0
  2 89  1  0  0  0
  2 90  1  0  0  0
  3  4  1  0  0  0
  3 91  1  0  0  0
  3 92  1  0  0  0
  4  5  1  0  0  0
  4 93  1  0  0  0
  4 94  1  0  0  0
  5  6  1  0  0  0
  5 26  1  0  0  0
  5 95  1  0  0  0
  6 25  1  0  0  0
  6 96  1  0  0  0
  6 97  1  0  0  0
  7  8  2  0  0  0
  7 26  1  0  0  0
  7 29  1  0  0  0
  8  9  1  0  0  0
  8 22  1  0  0  0
  9 10  1  0  0  0
  9 27  2  0  0  0
 10 11  2  0  0  0
 10 15  1  0  0  0
 11 12  1  0  0  0
 11 98  1  0  0  0
 12 13  2  0  0  0
 12 99  1  0  0  0
 13 14  1  0  0  0
 13 31  1  0  0  0
 14 15  2  0  0  0
 14100  1  0  0  0
 15101  1  0  0  0
 16 17  2  0  0  0
 16 21  1  0  0  0
 16 31  1  0  0  0
 17 18  1  0  0  0
 17102  1  0  0  0
 18 19  2  0  0  0
 18103  1  0  0  0
 19 20  1  0  0  0
 19 24  1  0  0  0
 20 21  2  0  0  0
 20104  1  0  0  0
 21 23  1  0  0  0
 22 28  1  0  0  0
 22 32  2  0  0  0
 26 27  1  0  0  0
 28105  1  0  0  0
 28106  1  0  0  0
 29107  1  0  0  0
 29108  1  0  0  0
 33 34  1  0  0  0
 33 66  1  0  0  0
 33 70  2  0  0  0
 34 36  1  0  0  0
 34 59  1  0  0  0
 34109  1  0  0  0
 35 44  2  0  0  0
 35 45  1  0  0  0
 35 68  1  0  0  0
 36 56  1  0  0  0
 36110  1  0  0  0
 37 39  1  0  0  0
 37 47  1  0  0  0
 37 66  1  0  0  0
 37111  1  0  0  0
 38 43  2  0  0  0
 38 46  1  0  0  0
 38 47  1  0  0  0
 39 64  1  0  0  0
 39 67  2  0  0  0
 40 52  1  0  0  0
 40 53  2  0  0  0
 40 58  1  0  0  0
 41112  1  0  0  0
 41113  1  0  0  0
 41114  1  0  0  0
 41 48  1  0  0  0
 42 43  1  0  0  0
 42 66  1  0  0  0
 42115  1  0  0  0
 42116  1  0  0  0
 43 44  1  0  0  0
 44117  1  0  0  0
 45 46  2  0  0  0
 45118  1  0  0  0
 46119  1  0  0  0
 47120  1  0  0  0
 47121  1  0  0  0
 48 56  1  0  0  0
 48 65  1  0  0  0
 48122  1  0  0  0
 49 50  1  0  0  0
 49 53  1  0  0  0
 49 64  1  0  0  0
 49123  1  0  0  0
 50 51  1  0  0  0
 50124  1  0  0  0
 50125  1  0  0  0
 51 52  1  0  0  0
 51126  1  0  0  0
 51127  1  0  0  0
 52128  1  0  0  0
 52129  1  0  0  0
 53 54  1  0  0  0
 54 55  2  0  0  0
 54130  1  0  0  0
 55 57  1  0  0  0
 55131  1  0  0  0
 56 69  2  0  0  0
 57 58  2  0  0  0
 57132  1  0  0  0
 58133  1  0  0  0
 59 60  1  0  0  0
 59 61  1  0  0  0
 59 62  1  0  0  0
 60134  1  0  0  0
 60135  1  0  0  0
 60136  1  0  0  0
 61137  1  0  0  0
 61138  1  0  0  0
 61139  1  0  0  0
 62140  1  0  0  0
 62141  1  0  0  0
 62142  1  0  0  0
 63 65  1  0  0  0
 63143  1  0  0  0
 63144  1  0  0  0
 63145  1  0  0  0
 64146  1  0  0  0
 65147  1  0  0  0
 68 85  1  0  0  0
 71 72  2  0  0  0
 71 74  1  0  0  0
 71148  1  0  0  0
 72 76  1  0  0  0
 72149  1  0  0  0
 73 75  1  0  0  0
 73 76  2  0  0  0
 73150  1  0  0  0
 74 75  2  0  0  0
 74 82  1  0  0  0
 75 83  1  0  0  0
 76 87  1  0  0  0
 77 78  1  0  0  0
 77 86  1  0  0  0
 77 88  2  0  0  0
 78 81  1  0  0  0
 78151  1  0  0  0
 78152  1  0  0  0
 79 80  1  0  0  0
 79 81  1  0  0  0
 79153  1  0  0  0
 79154  1  0  0  0
 80 86  1  0  0  0
 80155  1  0  0  0
 80156  1  0  0  0
 81 84  1  0  0  0
 81157  1  0  0  0
 82158  1  0  0  0
 82159  1  0  0  0
 82160  1  0  0  0
 83 86  1  0  0  0
 83161  1  0  0  0
 83162  1  0  0  0
 84 85  1  0  0  0
 84163  1  0  0  0
 84164  1  0  0  0
 85165  1  0  0  0
 85166  1  0  0  0
 87167  1  0  0  0
M  ISO  4   1 100  68 101  85 101  87 100
M  END
> <chiral flag>
0

> <version>
0

> <s_m_source_file>
/data/baiqing/PycharmProjects/Reinvent-master-3.2/result/LINK_invent/BTK/process_docking_weight1_custom_product_contain_oxygen_bond_distance_aromatic_linkinvent_7_9_3/rearranged_h_0057.sdf

> <i_m_source_file_index>
56

> <r_mmod_Potential_Energy-OPLS-2005>
181.614685058594

> <r_mmod_Stretch_Energy-OPLS-2005>
34.5539741516113

> <r_mmod_Bend_Energy-OPLS-2005>
206.188659667969

> <r_mmod_Torsional_Energy-OPLS-2005>
310.359771728516

> <r_mmod_Improper_Torsional_Energy-OPLS-2005>
11.6446714401245

> <r_mmod_Van_der_Waal_Energy-OPLS-2005>
177.000762939453

> <r_mmod_Electrostatic_Energy-OPLS-2005>
-363.0380859375

> <r_mmod_Solvation_Energy-OPLS-2005>
-227.552474975586

> <b_mmod_Minimization_Converged-OPLS-2005>
0

> <r_mmod_RMS_Derivative-OPLS-2005>
6.91490507125854

$$$$
57
                    3D
 Structure written by MMmdl.
163171  0  0  1  0            999 V2000
  -30.6920  -14.4349   20.5742 C   0  0  0  0  0  0
  -30.4234  -12.2824   19.4208 C   0  0  0  0  0  0
  -29.4970  -12.5188   18.2091 C   0  0  0  0  0  0
  -28.0156  -12.3814   18.6136 C   0  0  0  0  0  0
  -27.6658  -13.2048   19.8821 C   0  0  2  0  0  0
  -28.7031  -12.9493   21.0004 C   0  0  0  0  0  0
  -25.2605  -13.8152   20.5702 C   0  0  0  0  0  0
  -24.1845  -13.0434   20.9171 C   0  0  0  0  0  0
  -24.6395  -11.6900   20.8730 C   0  0  0  0  0  0
  -23.9056  -10.4294   21.0398 C   0  0  0  0  0  0
  -24.3607   -9.4214   21.9180 C   0  0  0  0  0  0
  -23.6287   -8.2249   22.0758 C   0  0  0  0  0  0
  -22.4269   -8.0288   21.3555 C   0  0  0  0  0  0
  -21.9900   -9.0258   20.4658 C   0  0  0  0  0  0
  -22.7223  -10.2135   20.3058 C   0  0  0  0  0  0
  -21.6851   -6.0746   22.5292 C   0  0  0  0  0  0
  -21.4006   -6.5645   23.8228 C   0  0  0  0  0  0
  -21.3657   -5.6791   24.9186 C   0  0  0  0  0  0
  -21.6046   -4.3059   24.7226 C   0  0  0  0  0  0
  -21.8812   -3.8155   23.4343 C   0  0  0  0  0  0
  -21.9191   -4.6975   22.3402 C   0  0  0  0  0  0
  -22.7870  -13.5245   21.1833 C   0  0  0  0  0  0
  -22.1667   -4.2157   21.0981 F   0  0  0  0  0  0
  -21.5626   -3.4544   25.7738 F   0  0  0  0  0  0
  -30.0428  -13.2463   20.4640 N   0  0  0  0  0  0
  -26.3045  -12.9318   20.3390 N   0  0  0  0  0  0
  -25.9320  -11.6475   20.5750 N   0  0  0  0  0  0
  -22.0487  -12.8267   22.0392 N   0  0  0  0  0  0
  -25.4332  -15.1872   20.4150 N   0  0  0  0  0  0
  -31.8172  -14.6379   20.1064 O   0  0  0  0  0  0
  -21.6640   -6.8887   21.4252 O   0  0  0  0  0  0
  -22.3565  -14.5554   20.6680 O   0  0  0  0  0  0
  -24.6148  -31.8705   23.2120 C   0  0  0  0  0  0
  -25.9053  -32.4838   23.8407 C   0  0  1  0  0  0
  -27.2253  -27.4382   20.0907 C   0  0  0  0  0  0
  -25.5908  -33.8636   24.2342 N   0  0  0  0  0  0
  -23.3999  -30.4970   21.5539 C   0  0  2  0  0  0
  -24.8418  -28.9674   20.1106 C   0  0  0  0  0  0
  -22.7407  -29.4684   22.5008 C   0  0  0  0  0  0
  -18.0279  -28.1386   22.8489 C   0  0  0  0  0  0
  -24.1481  -36.7314   23.2639 C   0  0  0  0  0  0
  -25.9290  -30.8362   21.3643 C   0  0  0  0  0  0
  -26.0035  -29.4738   20.7079 C   0  0  0  0  0  0
  -27.1981  -28.7181   20.6923 C   0  0  0  0  0  0
  -26.0444  -26.9530   19.4792 C   0  0  0  0  0  0
  -24.8587  -27.7078   19.4914 C   0  0  0  0  0  0
  -23.6043  -29.8351   20.1647 C   0  0  0  0  0  0
  -25.4101  -36.3126   24.0346 C   0  0  1  0  0  0
  -20.5862  -28.3670   23.1317 C   0  0  2  0  0  0
  -20.6768  -26.9412   22.5413 C   0  0  0  0  0  0
  -19.5742  -26.6395   21.5213 C   0  0  0  0  0  0
  -18.1921  -26.7931   22.1628 C   0  0  0  0  0  0
  -19.1526  -28.8846   23.2900 C   0  0  0  0  0  0
  -18.9456  -30.1451   23.8915 C   0  0  0  0  0  0
  -17.6458  -30.6588   24.0573 C   0  0  0  0  0  0
  -25.9029  -34.9489   23.5140 C   0  0  0  0  0  0
  -16.5348  -29.9093   23.6329 C   0  0  0  0  0  0
  -16.7270  -28.6510   23.0349 C   0  0  0  0  0  0
  -26.4468  -31.6617   25.0739 C   0  0  0  0  0  0
  -25.3740  -31.3718   26.1494 C   0  0  0  0  0  0
  -27.0293  -30.3064   24.6104 C   0  0  0  0  0  0
  -27.6043  -32.4333   25.7496 C   0  0  0  0  0  0
  -27.5582  -37.1825   24.8474 C   0  0  0  0  0  0
  -21.4136  -29.3050   22.3746 N   0  0  0  0  0  0
  -26.4296  -37.3809   23.9412 N   0  0  0  0  0  0
  -24.6669  -31.0811   22.1017 N   0  0  0  0  0  0
  -23.4188  -28.8223   23.3040 O   0  0  0  0  0  0
  -28.3949  -26.7019   20.1271 O   0  0  0  0  0  0
  -26.5590  -34.8940   22.4698 O   0  0  0  0  0  0
  -23.5346  -32.1461   23.7528 O   0  0  0  0  0  0
  -29.7902  -18.2553   18.6456 C   0  0  0  0  0  0
  -30.1061  -17.0085   19.2007 C   0  0  0  0  0  0
  -29.1695  -17.7396   21.3177 C   0  0  0  0  0  0
  -29.1471  -19.2555   19.4045 C   0  0  0  0  0  0
  -28.8489  -19.0209   20.7836 C   0  0  0  0  0  0
  -29.7786  -16.7269   20.5443 C   0  0  0  0  0  0
  -29.1050  -23.4987   21.6284 C   0  0  0  0  0  0
  -28.7715  -20.5185   18.6450 C   0  0  0  0  0  0
  -26.8956  -20.7017   21.1844 C   0  0  0  0  0  0
  -29.4879  -24.5094   20.5315 C   0  0  0  0  0  0
  -29.1775  -21.0903   22.3380 C   0  0  0  0  0  0
  -28.2784  -25.2806   19.9499 C   0  0  0  0  0  0
  -28.1840  -20.0585   21.7314 C   0  0  2  0  0  0
  -29.9676  -15.4300   21.1127 N   0  0  0  0  0  0
  -29.4988  -22.2251   21.4645 N   0  0  0  0  0  0
  -28.4594  -23.8697   22.6103 O   0  0  0  0  0  0
  -27.7319  -19.3930   22.7974 F   0  0  0  0  0  0
  -31.4684  -12.3814   19.1228 H   0  0  0  0  0  0
  -30.3194  -11.2612   19.7917 H   0  0  0  0  0  0
  -29.7347  -11.8174   17.4090 H   0  0  0  0  0  0
  -29.6750  -13.5162   17.8035 H   0  0  0  0  0  0
  -27.8178  -11.3237   18.7911 H   0  0  0  0  0  0
  -27.3699  -12.6802   17.7863 H   0  0  0  0  0  0
  -27.7208  -14.2589   19.6077 H   0  0  0  0  0  0
  -28.6645  -11.9051   21.3132 H   0  0  0  0  0  0
  -28.4686  -13.5263   21.8945 H   0  0  0  0  0  0
  -25.2739   -9.5693   22.4771 H   0  0  0  0  0  0
  -24.0004   -7.4632   22.7466 H   0  0  0  0  0  0
  -21.0838   -8.8765   19.8964 H   0  0  0  0  0  0
  -22.3672  -10.9678   19.6182 H   0  0  0  0  0  0
  -21.1996   -7.6151   23.9730 H   0  0  0  0  0  0
  -21.1491   -6.0525   25.9087 H   0  0  0  0  0  0
  -22.0593   -2.7617   23.2838 H   0  0  0  0  0  0
  -22.4069  -11.9935   22.4819 H   0  0  0  0  0  0
  -21.1110  -13.1340   22.2570 H   0  0  0  0  0  0
  -24.6668  -15.8409   20.5309 H   0  0  0  0  0  0
  -26.2944  -15.6332   20.1245 H   0  0  0  0  0  0
  -26.7117  -32.5541   23.1165 H   0  0  0  0  0  0
  -25.0095  -33.9793   25.0514 H   0  0  0  0  0  0
  -22.6869  -31.3142   21.4211 H   0  0  0  0  0  0
  -23.3744  -35.9650   23.3328 H   0  0  0  0  0  0
  -24.3559  -36.8899   22.2046 H   0  0  0  0  0  0
  -23.7233  -37.6533   23.6623 H   0  0  0  0  0  0
  -26.0447  -31.6027   20.5974 H   0  0  0  0  0  0
  -26.8157  -30.8838   21.9838 H   0  0  0  0  0  0
  -28.0927  -29.1079   21.1579 H   0  0  0  0  0  0
  -26.0174  -25.9944   18.9825 H   0  0  0  0  0  0
  -23.9696  -27.3151   19.0177 H   0  0  0  0  0  0
  -23.7121  -30.6157   19.4097 H   0  0  0  0  0  0
  -22.7256  -29.2584   19.8669 H   0  0  0  0  0  0
  -25.1283  -36.1996   25.0842 H   0  0  0  0  0  0
  -20.9959  -28.3234   24.1436 H   0  0  0  0  0  0
  -20.5674  -26.2289   23.3601 H   0  0  0  0  0  0
  -21.6639  -26.7459   22.1214 H   0  0  0  0  0  0
  -19.6900  -25.6307   21.1240 H   0  0  0  0  0  0
  -19.6678  -27.3210   20.6739 H   0  0  0  0  0  0
  -17.4201  -26.6691   21.4025 H   0  0  0  0  0  0
  -18.0320  -26.0065   22.9011 H   0  0  0  0  0  0
  -19.7928  -30.7267   24.2291 H   0  0  0  0  0  0
  -17.5011  -31.6265   24.5173 H   0  0  0  0  0  0
  -15.5345  -30.3008   23.7631 H   0  0  0  0  0  0
  -15.8670  -28.0835   22.7052 H   0  0  0  0  0  0
  -24.5910  -30.7058   25.7849 H   0  0  0  0  0  0
  -24.8930  -32.2872   26.4951 H   0  0  0  0  0  0
  -25.8110  -30.8897   27.0245 H   0  0  0  0  0  0
  -26.2835  -29.6839   24.1144 H   0  0  0  0  0  0
  -27.4061  -29.7283   25.4548 H   0  0  0  0  0  0
  -27.8669  -30.4395   23.9251 H   0  0  0  0  0  0
  -27.2661  -33.3623   26.2090 H   0  0  0  0  0  0
  -28.3842  -32.6906   25.0321 H   0  0  0  0  0  0
  -28.0712  -31.8446   26.5403 H   0  0  0  0  0  0
  -28.2639  -38.0090   24.7508 H   0  0  0  0  0  0
  -28.1046  -36.2629   24.6322 H   0  0  0  0  0  0
  -27.2301  -37.1507   25.8881 H   0  0  0  0  0  0
  -20.9300  -29.8766   21.6959 H   0  0  0  0  0  0
  -26.0193  -38.2900   24.1390 H   0  0  0  0  0  0
  -30.0254  -18.4285   17.6046 H   0  0  0  0  0  0
  -30.5659  -16.2693   18.5599 H   0  0  0  0  0  0
  -28.9344  -17.5141   22.3484 H   0  0  0  0  0  0
  -29.0741  -21.4256   19.1539 H   0  0  0  0  0  0
  -27.6978  -20.5459   18.4637 H   0  0  0  0  0  0
  -29.2486  -20.5465   17.6643 H   0  0  0  0  0  0
  -27.0710  -21.4227   20.3903 H   0  0  0  0  0  0
  -26.3788  -21.2506   21.9709 H   0  0  0  0  0  0
  -26.2077  -19.9416   20.8111 H   0  0  0  0  0  0
  -30.0076  -23.9983   19.7201 H   0  0  0  0  0  0
  -30.2111  -25.2074   20.9524 H   0  0  0  0  0  0
  -30.1021  -20.5882   22.6227 H   0  0  0  0  0  0
  -28.7597  -21.4670   23.2740 H   0  0  0  0  0  0
  -27.3636  -24.9143   20.4199 H   0  0  0  0  0  0
  -28.1860  -25.0599   18.8856 H   0  0  0  0  0  0
  -29.2277  -15.1226   21.7264 H   0  0  0  0  0  0
  -30.0463  -22.0095   20.6432 H   0  0  0  0  0  0
  1 25  1  0  0  0
  1 30  2  0  0  0
  1 84  1  0  0  0
  2  3  1  0  0  0
  2 25  1  0  0  0
  2 88  1  0  0  0
  2 89  1  0  0  0
  3  4  1  0  0  0
  3 90  1  0  0  0
  3 91  1  0  0  0
  4  5  1  0  0  0
  4 92  1  0  0  0
  4 93  1  0  0  0
  5  6  1  0  0  0
  5 26  1  0  0  0
  5 94  1  0  0  0
  6 25  1  0  0  0
  6 95  1  0  0  0
  6 96  1  0  0  0
  7  8  2  0  0  0
  7 26  1  0  0  0
  7 29  1  0  0  0
  8  9  1  0  0  0
  8 22  1  0  0  0
  9 10  1  0  0  0
  9 27  2  0  0  0
 10 11  2  0  0  0
 10 15  1  0  0  0
 11 12  1  0  0  0
 11 97  1  0  0  0
 12 13  2  0  0  0
 12 98  1  0  0  0
 13 14  1  0  0  0
 13 31  1  0  0  0
 14 15  2  0  0  0
 14 99  1  0  0  0
 15100  1  0  0  0
 16 17  2  0  0  0
 16 21  1  0  0  0
 16 31  1  0  0  0
 17 18  1  0  0  0
 17101  1  0  0  0
 18 19  2  0  0  0
 18102  1  0  0  0
 19 20  1  0  0  0
 19 24  1  0  0  0
 20 21  2  0  0  0
 20103  1  0  0  0
 21 23  1  0  0  0
 22 28  1  0  0  0
 22 32  2  0  0  0
 26 27  1  0  0  0
 28104  1  0  0  0
 28105  1  0  0  0
 29106  1  0  0  0
 29107  1  0  0  0
 33 34  1  0  0  0
 33 66  1  0  0  0
 33 70  2  0  0  0
 34 36  1  0  0  0
 34 59  1  0  0  0
 34108  1  0  0  0
 35 44  2  0  0  0
 35 45  1  0  0  0
 35 68  1  0  0  0
 36 56  1  0  0  0
 36109  1  0  0  0
 37 39  1  0  0  0
 37 47  1  0  0  0
 37 66  1  0  0  0
 37110  1  0  0  0
 38 43  2  0  0  0
 38 46  1  0  0  0
 38 47  1  0  0  0
 39 64  1  0  0  0
 39 67  2  0  0  0
 40 52  1  0  0  0
 40 53  2  0  0  0
 40 58  1  0  0  0
 41111  1  0  0  0
 41112  1  0  0  0
 41113  1  0  0  0
 41 48  1  0  0  0
 42 43  1  0  0  0
 42 66  1  0  0  0
 42114  1  0  0  0
 42115  1  0  0  0
 43 44  1  0  0  0
 44116  1  0  0  0
 45 46  2  0  0  0
 45117  1  0  0  0
 46118  1  0  0  0
 47119  1  0  0  0
 47120  1  0  0  0
 48 56  1  0  0  0
 48 65  1  0  0  0
 48121  1  0  0  0
 49 50  1  0  0  0
 49 53  1  0  0  0
 49 64  1  0  0  0
 49122  1  0  0  0
 50 51  1  0  0  0
 50123  1  0  0  0
 50124  1  0  0  0
 51 52  1  0  0  0
 51125  1  0  0  0
 51126  1  0  0  0
 52127  1  0  0  0
 52128  1  0  0  0
 53 54  1  0  0  0
 54 55  2  0  0  0
 54129  1  0  0  0
 55 57  1  0  0  0
 55130  1  0  0  0
 56 69  2  0  0  0
 57 58  2  0  0  0
 57131  1  0  0  0
 58132  1  0  0  0
 59 60  1  0  0  0
 59 61  1  0  0  0
 59 62  1  0  0  0
 60133  1  0  0  0
 60134  1  0  0  0
 60135  1  0  0  0
 61136  1  0  0  0
 61137  1  0  0  0
 61138  1  0  0  0
 62139  1  0  0  0
 62140  1  0  0  0
 62141  1  0  0  0
 63 65  1  0  0  0
 63142  1  0  0  0
 63143  1  0  0  0
 63144  1  0  0  0
 64145  1  0  0  0
 65146  1  0  0  0
 68 82  1  0  0  0
 71 72  2  0  0  0
 71 74  1  0  0  0
 71147  1  0  0  0
 72 76  1  0  0  0
 72148  1  0  0  0
 73 75  1  0  0  0
 73 76  2  0  0  0
 73149  1  0  0  0
 74 75  2  0  0  0
 74 78  1  0  0  0
 75 83  1  0  0  0
 76 84  1  0  0  0
 77 80  1  0  0  0
 77 85  1  0  0  0
 77 86  2  0  0  0
 78150  1  0  0  0
 78151  1  0  0  0
 78152  1  0  0  0
 79153  1  0  0  0
 79154  1  0  0  0
 79155  1  0  0  0
 79 83  1  0  0  0
 80 82  1  0  0  0
 80156  1  0  0  0
 80157  1  0  0  0
 81 83  1  0  0  0
 81 85  1  0  0  0
 81158  1  0  0  0
 81159  1  0  0  0
 82160  1  0  0  0
 82161  1  0  0  0
 83 87  1  0  0  0
 84162  1  0  0  0
 85163  1  0  0  0
M  ISO  4   1 100  68 101  82 101  84 100
M  END
> <chiral flag>
0

> <version>
0

> <s_m_source_file>
/data/baiqing/PycharmProjects/Reinvent-master-3.2/result/LINK_invent/BTK/process_docking_weight1_custom_product_contain_oxygen_bond_distance_aromatic_linkinvent_7_9_3/rearranged_h_0057.sdf

> <i_m_source_file_index>
57

> <r_mmod_Potential_Energy-OPLS-2005>
-92.2821502685547

> <r_mmod_Stretch_Energy-OPLS-2005>
40.7547454833984

> <r_mmod_Bend_Energy-OPLS-2005>
106.327247619629

> <r_mmod_Torsional_Energy-OPLS-2005>
249.906356811523

> <r_mmod_Improper_Torsional_Energy-OPLS-2005>
5.13747644424438

> <r_mmod_Van_der_Waal_Energy-OPLS-2005>
170.675079345703

> <r_mmod_Electrostatic_Energy-OPLS-2005>
-443.099243164062

> <r_mmod_Solvation_Energy-OPLS-2005>
-233.546905517578

> <b_mmod_Minimization_Converged-OPLS-2005>
0

> <r_mmod_RMS_Derivative-OPLS-2005>
2.08370923995972

$$$$
58
                    3D
 Structure written by MMmdl.
158167  0  0  1  0            999 V2000
  -30.6296  -14.5530   20.5719 C   0  0  0  0  0  0
  -30.4403  -12.3569   19.4315 C   0  0  0  0  0  0
  -29.5055  -12.5248   18.2134 C   0  0  0  0  0  0
  -28.0251  -12.3697   18.6212 C   0  0  0  0  0  0
  -27.6632  -13.2053   19.8767 C   0  0  2  0  0  0
  -28.7019  -12.9808   20.9975 C   0  0  0  0  0  0
  -25.2587  -13.8153   20.5664 C   0  0  0  0  0  0
  -24.1844  -13.0433   20.9170 C   0  0  0  0  0  0
  -24.6390  -11.6896   20.8724 C   0  0  0  0  0  0
  -23.9051  -10.4292   21.0397 C   0  0  0  0  0  0
  -24.3616   -9.4208   21.9178 C   0  0  0  0  0  0
  -23.6296   -8.2240   22.0753 C   0  0  0  0  0  0
  -22.4274   -8.0281   21.3550 C   0  0  0  0  0  0
  -21.9905   -9.0255   20.4653 C   0  0  0  0  0  0
  -22.7229  -10.2130   20.3053 C   0  0  0  0  0  0
  -21.6855   -6.0733   22.5278 C   0  0  0  0  0  0
  -21.4004   -6.5627   23.8216 C   0  0  0  0  0  0
  -21.3646   -5.6778   24.9172 C   0  0  0  0  0  0
  -21.6047   -4.3041   24.7214 C   0  0  0  0  0  0
  -21.8821   -3.8143   23.4333 C   0  0  0  0  0  0
  -21.9194   -4.6969   22.3398 C   0  0  0  0  0  0
  -22.7869  -13.5248   21.1840 C   0  0  0  0  0  0
  -22.1668   -4.2161   21.0972 F   0  0  0  0  0  0
  -21.5629   -3.4513   25.7718 F   0  0  0  0  0  0
  -30.0284  -13.3318   20.4582 N   0  0  0  0  0  0
  -26.3024  -12.9317   20.3346 N   0  0  0  0  0  0
  -25.9315  -11.6479   20.5737 N   0  0  0  0  0  0
  -22.0485  -12.8260   22.0399 N   0  0  0  0  0  0
  -25.4310  -15.1867   20.4052 N   0  0  0  0  0  0
  -31.7473  -14.7822   20.0949 O   0  0  0  0  0  0
  -21.6639   -6.8876   21.4245 O   0  0  0  0  0  0
  -22.3558  -14.5554   20.6682 O   0  0  0  0  0  0
  -24.6212  -31.8620   23.2052 C   0  0  0  0  0  0
  -25.9077  -32.4783   23.8371 C   0  0  1  0  0  0
  -27.2304  -27.3689   20.0895 C   0  0  0  0  0  0
  -25.5903  -33.8578   24.2295 N   0  0  0  0  0  0
  -23.4118  -30.4872   21.5467 C   0  0  2  0  0  0
  -24.8561  -28.9463   20.1093 C   0  0  0  0  0  0
  -22.7454  -29.4625   22.4950 C   0  0  0  0  0  0
  -18.0271  -28.1386   22.8463 C   0  0  0  0  0  0
  -24.1474  -36.7281   23.2636 C   0  0  0  0  0  0
  -25.9485  -30.8039   21.3708 C   0  0  0  0  0  0
  -26.0204  -29.4350   20.7136 C   0  0  0  0  0  0
  -27.2054  -28.6514   20.7055 C   0  0  0  0  0  0
  -26.0334  -26.9044   19.4954 C   0  0  0  0  0  0
  -24.8613  -27.6826   19.4974 C   0  0  0  0  0  0
  -23.6218  -29.8215   20.1606 C   0  0  0  0  0  0
  -25.4085  -36.3077   24.0346 C   0  0  1  0  0  0
  -20.5869  -28.3674   23.1292 C   0  0  2  0  0  0
  -20.6743  -26.9394   22.5429 C   0  0  0  0  0  0
  -19.5740  -26.6380   21.5199 C   0  0  0  0  0  0
  -18.1911  -26.7930   22.1593 C   0  0  0  0  0  0
  -19.1521  -28.8844   23.2870 C   0  0  0  0  0  0
  -18.9454  -30.1441   23.8890 C   0  0  0  0  0  0
  -17.6457  -30.6580   24.0566 C   0  0  0  0  0  0
  -25.9041  -34.9450   23.5124 C   0  0  0  0  0  0
  -16.5344  -29.9083   23.6329 C   0  0  0  0  0  0
  -16.7261  -28.6508   23.0328 C   0  0  0  0  0  0
  -26.4459  -31.6583   25.0736 C   0  0  0  0  0  0
  -25.3711  -31.3759   26.1494 C   0  0  0  0  0  0
  -27.0244  -30.2990   24.6177 C   0  0  0  0  0  0
  -27.6061  -32.4281   25.7467 C   0  0  0  0  0  0
  -27.5593  -37.1741   24.8422 C   0  0  0  0  0  0
  -21.4175  -29.3027   22.3692 N   0  0  0  0  0  0
  -26.4238  -37.3797   23.9474 N   0  0  0  0  0  0
  -24.6787  -31.0681   22.0973 N   0  0  0  0  0  0
  -23.4206  -28.8159   23.3003 O   0  0  0  0  0  0
  -28.3859  -26.5883   20.1272 O   0  0  0  0  0  0
  -26.5621  -34.8925   22.4698 O   0  0  0  0  0  0
  -23.5391  -32.1388   23.7414 O   0  0  0  0  0  0
  -28.5563  -19.0121   21.5962 C   0  0  0  0  0  0
  -30.3299  -19.1087   19.9693 C   0  0  0  0  0  0
  -28.7767  -17.6199   21.7474 C   0  0  0  0  0  0
  -30.5569  -17.7121   20.1221 C   0  0  0  0  0  0
  -29.3083  -19.7993   20.6831 C   0  0  0  0  0  0
  -29.7707  -16.9341   21.0084 C   0  0  0  0  0  0
  -27.8184  -21.7926   20.4513 C   0  0  0  0  0  0
  -27.6155  -23.3250   20.2514 C   0  0  0  0  0  0
  -30.0618  -23.6279   20.2521 C   0  0  0  0  0  0
  -30.2578  -22.0833   20.1869 C   0  0  0  0  0  0
  -28.7742  -24.0283   19.5229 C   0  0  2  0  0  0
  -28.6081  -25.5504   19.1321 C   0  0  0  0  0  0
  -29.0756  -21.2386   20.4995 N   0  0  0  0  0  0
  -29.8721  -15.5015   21.1836 N   0  0  0  0  0  0
  -26.7875  -21.1212   20.5698 O   0  0  0  0  0  0
  -31.4806  -12.4899   19.1315 H   0  0  0  0  0  0
  -30.3728  -11.3445   19.8307 H   0  0  0  0  0  0
  -29.7590  -11.7987   17.4396 H   0  0  0  0  0  0
  -29.6608  -13.5074   17.7656 H   0  0  0  0  0  0
  -27.8410  -11.3121   18.8156 H   0  0  0  0  0  0
  -27.3791  -12.6434   17.7872 H   0  0  0  0  0  0
  -27.7062  -14.2544   19.5813 H   0  0  0  0  0  0
  -28.7006  -11.9347   21.3084 H   0  0  0  0  0  0
  -28.4427  -13.5459   21.8936 H   0  0  0  0  0  0
  -25.2761   -9.5695   22.4730 H   0  0  0  0  0  0
  -24.0022   -7.4633   22.7464 H   0  0  0  0  0  0
  -21.0837   -8.8775   19.8955 H   0  0  0  0  0  0
  -22.3693  -10.9668   19.6151 H   0  0  0  0  0  0
  -21.1979   -7.6130   23.9722 H   0  0  0  0  0  0
  -21.1458   -6.0488   25.9075 H   0  0  0  0  0  0
  -22.0601   -2.7607   23.2818 H   0  0  0  0  0  0
  -22.4062  -11.9917   22.4806 H   0  0  0  0  0  0
  -21.1115  -13.1348   22.2589 H   0  0  0  0  0  0
  -24.6616  -15.8412   20.5004 H   0  0  0  0  0  0
  -26.2802  -15.6226   20.0671 H   0  0  0  0  0  0
  -26.7141  -32.5461   23.1117 H   0  0  0  0  0  0
  -25.0016  -33.9713   25.0416 H   0  0  0  0  0  0
  -22.7031  -31.3057   21.4077 H   0  0  0  0  0  0
  -23.3777  -35.9563   23.3197 H   0  0  0  0  0  0
  -24.3608  -36.8996   22.2074 H   0  0  0  0  0  0
  -23.7160  -37.6426   23.6717 H   0  0  0  0  0  0
  -26.0796  -31.5698   20.6047 H   0  0  0  0  0  0
  -26.8299  -30.8485   21.9987 H   0  0  0  0  0  0
  -28.1015  -29.0231   21.1821 H   0  0  0  0  0  0
  -25.9691  -25.9237   19.0484 H   0  0  0  0  0  0
  -23.9642  -27.2953   19.0346 H   0  0  0  0  0  0
  -23.7329  -30.5956   19.4002 H   0  0  0  0  0  0
  -22.7430  -29.2453   19.8651 H   0  0  0  0  0  0
  -25.1238  -36.1905   25.0830 H   0  0  0  0  0  0
  -20.9952  -28.3249   24.1416 H   0  0  0  0  0  0
  -20.5588  -26.2292   23.3630 H   0  0  0  0  0  0
  -21.6624  -26.7388   22.1275 H   0  0  0  0  0  0
  -19.6901  -25.6290   21.1228 H   0  0  0  0  0  0
  -19.6699  -27.3188   20.6733 H   0  0  0  0  0  0
  -17.4195  -26.6682   21.3976 H   0  0  0  0  0  0
  -18.0290  -26.0073   22.8988 H   0  0  0  0  0  0
  -19.7941  -30.7232   24.2270 H   0  0  0  0  0  0
  -17.5029  -31.6254   24.5189 H   0  0  0  0  0  0
  -15.5342  -30.2977   23.7671 H   0  0  0  0  0  0
  -15.8662  -28.0835   22.7031 H   0  0  0  0  0  0
  -24.5892  -30.7062   25.7886 H   0  0  0  0  0  0
  -24.8885  -32.2938   26.4876 H   0  0  0  0  0  0
  -25.8073  -30.9012   27.0296 H   0  0  0  0  0  0
  -26.2781  -29.6784   24.1203 H   0  0  0  0  0  0
  -27.3904  -29.7215   25.4678 H   0  0  0  0  0  0
  -27.8688  -30.4237   23.9392 H   0  0  0  0  0  0
  -27.2722  -33.3594   26.2055 H   0  0  0  0  0  0
  -28.3855  -32.6801   25.0261 H   0  0  0  0  0  0
  -28.0741  -31.8384   26.5361 H   0  0  0  0  0  0
  -28.2489  -38.0159   24.7664 H   0  0  0  0  0  0
  -28.1191  -36.2707   24.5942 H   0  0  0  0  0  0
  -27.2376  -37.1050   25.8828 H   0  0  0  0  0  0
  -20.9352  -29.8752   21.6905 H   0  0  0  0  0  0
  -26.0104  -38.2831   24.1629 H   0  0  0  0  0  0
  -27.7842  -19.4703   22.1995 H   0  0  0  0  0  0
  -30.9510  -19.6376   19.2622 H   0  0  0  0  0  0
  -28.1527  -17.0779   22.4454 H   0  0  0  0  0  0
  -31.3350  -17.2498   19.5313 H   0  0  0  0  0  0
  -27.4673  -23.7819   21.2297 H   0  0  0  0  0  0
  -26.6904  -23.4831   19.6959 H   0  0  0  0  0  0
  -30.9251  -24.1216   19.8030 H   0  0  0  0  0  0
  -30.0236  -23.9667   21.2889 H   0  0  0  0  0  0
  -31.0819  -21.8004   20.8445 H   0  0  0  0  0  0
  -30.5779  -21.8340   19.1747 H   0  0  0  0  0  0
  -28.8408  -23.5372   18.5499 H   0  0  0  0  0  0
  -27.9012  -25.6167   18.3064 H   0  0  0  0  0  0
  -29.5432  -25.8397   18.6533 H   0  0  0  0  0  0
  -29.0926  -15.0958   21.6795 H   0  0  0  0  0  0
  1 25  1  0  0  0
  1 30  2  0  0  0
  1 84  1  0  0  0
  2  3  1  0  0  0
  2 25  1  0  0  0
  2 86  1  0  0  0
  2 87  1  0  0  0
  3  4  1  0  0  0
  3 88  1  0  0  0
  3 89  1  0  0  0
  4  5  1  0  0  0
  4 90  1  0  0  0
  4 91  1  0  0  0
  5  6  1  0  0  0
  5 26  1  0  0  0
  5 92  1  0  0  0
  6 25  1  0  0  0
  6 93  1  0  0  0
  6 94  1  0  0  0
  7  8  2  0  0  0
  7 26  1  0  0  0
  7 29  1  0  0  0
  8  9  1  0  0  0
  8 22  1  0  0  0
  9 10  1  0  0  0
  9 27  2  0  0  0
 10 11  2  0  0  0
 10 15  1  0  0  0
 11 12  1  0  0  0
 11 95  1  0  0  0
 12 13  2  0  0  0
 12 96  1  0  0  0
 13 14  1  0  0  0
 13 31  1  0  0  0
 14 15  2  0  0  0
 14 97  1  0  0  0
 15 98  1  0  0  0
 16 17  2  0  0  0
 16 21  1  0  0  0
 16 31  1  0  0  0
 17 18  1  0  0  0
 17 99  1  0  0  0
 18 19  2  0  0  0
 18100  1  0  0  0
 19 20  1  0  0  0
 19 24  1  0  0  0
 20 21  2  0  0  0
 20101  1  0  0  0
 21 23  1  0  0  0
 22 28  1  0  0  0
 22 32  2  0  0  0
 26 27  1  0  0  0
 28102  1  0  0  0
 28103  1  0  0  0
 29104  1  0  0  0
 29105  1  0  0  0
 33 34  1  0  0  0
 33 66  1  0  0  0
 33 70  2  0  0  0
 34 36  1  0  0  0
 34 59  1  0  0  0
 34106  1  0  0  0
 35 44  2  0  0  0
 35 45  1  0  0  0
 35 68  1  0  0  0
 36 56  1  0  0  0
 36107  1  0  0  0
 37 39  1  0  0  0
 37 47  1  0  0  0
 37 66  1  0  0  0
 37108  1  0  0  0
 38 43  2  0  0  0
 38 46  1  0  0  0
 38 47  1  0  0  0
 39 64  1  0  0  0
 39 67  2  0  0  0
 40 52  1  0  0  0
 40 53  2  0  0  0
 40 58  1  0  0  0
 41109  1  0  0  0
 41110  1  0  0  0
 41111  1  0  0  0
 41 48  1  0  0  0
 42 43  1  0  0  0
 42 66  1  0  0  0
 42112  1  0  0  0
 42113  1  0  0  0
 43 44  1  0  0  0
 44114  1  0  0  0
 45 46  2  0  0  0
 45115  1  0  0  0
 46116  1  0  0  0
 47117  1  0  0  0
 47118  1  0  0  0
 48 56  1  0  0  0
 48 65  1  0  0  0
 48119  1  0  0  0
 49 50  1  0  0  0
 49 53  1  0  0  0
 49 64  1  0  0  0
 49120  1  0  0  0
 50 51  1  0  0  0
 50121  1  0  0  0
 50122  1  0  0  0
 51 52  1  0  0  0
 51123  1  0  0  0
 51124  1  0  0  0
 52125  1  0  0  0
 52126  1  0  0  0
 53 54  1  0  0  0
 54 55  2  0  0  0
 54127  1  0  0  0
 55 57  1  0  0  0
 55128  1  0  0  0
 56 69  2  0  0  0
 57 58  2  0  0  0
 57129  1  0  0  0
 58130  1  0  0  0
 59 60  1  0  0  0
 59 61  1  0  0  0
 59 62  1  0  0  0
 60131  1  0  0  0
 60132  1  0  0  0
 60133  1  0  0  0
 61134  1  0  0  0
 61135  1  0  0  0
 61136  1  0  0  0
 62137  1  0  0  0
 62138  1  0  0  0
 62139  1  0  0  0
 63 65  1  0  0  0
 63140  1  0  0  0
 63141  1  0  0  0
 63142  1  0  0  0
 64143  1  0  0  0
 65144  1  0  0  0
 68 82  1  0  0  0
 71 73  2  0  0  0
 71 75  1  0  0  0
 71145  1  0  0  0
 72 74  1  0  0  0
 72 75  2  0  0  0
 72146  1  0  0  0
 73 76  1  0  0  0
 73147  1  0  0  0
 74 76  2  0  0  0
 74148  1  0  0  0
 75 83  1  0  0  0
 76 84  1  0  0  0
 77 78  1  0  0  0
 77 83  1  0  0  0
 77 85  2  0  0  0
 78 81  1  0  0  0
 78149  1  0  0  0
 78150  1  0  0  0
 79 80  1  0  0  0
 79 81  1  0  0  0
 79151  1  0  0  0
 79152  1  0  0  0
 80 83  1  0  0  0
 80153  1  0  0  0
 80154  1  0  0  0
 81 82  1  0  0  0
 81155  1  0  0  0
 82156  1  0  0  0
 82157  1  0  0  0
 84158  1  0  0  0
M  ISO  4   1 100  68 101  82 101  84 100
M  END
> <chiral flag>
0

> <version>
0

> <s_m_source_file>
/data/baiqing/PycharmProjects/Reinvent-master-3.2/result/LINK_invent/BTK/process_docking_weight1_custom_product_contain_oxygen_bond_distance_aromatic_linkinvent_7_9_3/rearranged_h_0057.sdf

> <i_m_source_file_index>
58

> <r_mmod_Potential_Energy-OPLS-2005>
90.0774841308594

> <r_mmod_Stretch_Energy-OPLS-2005>
62.8212623596191

> <r_mmod_Bend_Energy-OPLS-2005>
148.710891723633

> <r_mmod_Torsional_Energy-OPLS-2005>
265.2119140625

> <r_mmod_Improper_Torsional_Energy-OPLS-2005>
3.56148147583008

> <r_mmod_Van_der_Waal_Energy-OPLS-2005>
164.015106201172

> <r_mmod_Electrostatic_Energy-OPLS-2005>
-363.489562988281

> <r_mmod_Solvation_Energy-OPLS-2005>
-217.173248291016

> <b_mmod_Minimization_Converged-OPLS-2005>
0

> <r_mmod_RMS_Derivative-OPLS-2005>
2.21078777313232

$$$$
59
                    3D
 Structure written by MMmdl.
161170  0  0  1  0            999 V2000
  -30.6477  -14.5463   20.5312 C   0  0  0  0  0  0
  -30.4358  -12.3394   19.4303 C   0  0  0  0  0  0
  -29.5041  -12.5145   18.2111 C   0  0  0  0  0  0
  -28.0219  -12.3699   18.6170 C   0  0  0  0  0  0
  -27.6604  -13.2086   19.8719 C   0  0  2  0  0  0
  -28.7038  -13.0007   20.9933 C   0  0  0  0  0  0
  -25.2596  -13.8163   20.5663 C   0  0  0  0  0  0
  -24.1847  -13.0440   20.9166 C   0  0  0  0  0  0
  -24.6401  -11.6908   20.8717 C   0  0  0  0  0  0
  -23.9052  -10.4303   21.0385 C   0  0  0  0  0  0
  -24.3609   -9.4227   21.9170 C   0  0  0  0  0  0
  -23.6296   -8.2256   22.0754 C   0  0  0  0  0  0
  -22.4279   -8.0286   21.3545 C   0  0  0  0  0  0
  -21.9900   -9.0251   20.4643 C   0  0  0  0  0  0
  -22.7215  -10.2136   20.3048 C   0  0  0  0  0  0
  -21.6863   -6.0733   22.5278 C   0  0  0  0  0  0
  -21.4025   -6.5641   23.8209 C   0  0  0  0  0  0
  -21.3660   -5.6794   24.9172 C   0  0  0  0  0  0
  -21.6050   -4.3058   24.7226 C   0  0  0  0  0  0
  -21.8828   -3.8148   23.4352 C   0  0  0  0  0  0
  -21.9202   -4.6960   22.3405 C   0  0  0  0  0  0
  -22.7868  -13.5237   21.1829 C   0  0  0  0  0  0
  -22.1667   -4.2146   21.0976 F   0  0  0  0  0  0
  -21.5620   -3.4545   25.7735 F   0  0  0  0  0  0
  -30.0309  -13.3310   20.4425 N   0  0  0  0  0  0
  -26.3026  -12.9324   20.3340 N   0  0  0  0  0  0
  -25.9326  -11.6485   20.5756 N   0  0  0  0  0  0
  -22.0519  -12.8231   22.0392 N   0  0  0  0  0  0
  -25.4347  -15.1886   20.4066 N   0  0  0  0  0  0
  -31.7879  -14.7363   20.0988 O   0  0  0  0  0  0
  -21.6664   -6.8873   21.4240 O   0  0  0  0  0  0
  -22.3541  -14.5535   20.6670 O   0  0  0  0  0  0
  -24.6188  -31.8642   23.2067 C   0  0  0  0  0  0
  -25.9062  -32.4810   23.8378 C   0  0  1  0  0  0
  -27.2358  -27.3928   20.1085 C   0  0  0  0  0  0
  -25.5909  -33.8608   24.2312 N   0  0  0  0  0  0
  -23.4094  -30.4852   21.5477 C   0  0  2  0  0  0
  -24.8588  -28.9457   20.1153 C   0  0  0  0  0  0
  -22.7435  -29.4632   22.4979 C   0  0  0  0  0  0
  -18.0271  -28.1380   22.8477 C   0  0  0  0  0  0
  -24.1492  -36.7305   23.2633 C   0  0  0  0  0  0
  -25.9426  -30.8172   21.3673 C   0  0  0  0  0  0
  -26.0211  -29.4484   20.7138 C   0  0  0  0  0  0
  -27.2145  -28.6819   20.7015 C   0  0  0  0  0  0
  -26.0563  -26.9191   19.4938 C   0  0  0  0  0  0
  -24.8744  -27.6835   19.4984 C   0  0  0  0  0  0
  -23.6204  -29.8145   20.1636 C   0  0  0  0  0  0
  -25.4111  -36.3105   24.0333 C   0  0  1  0  0  0
  -20.5863  -28.3666   23.1309 C   0  0  2  0  0  0
  -20.6765  -26.9402   22.5418 C   0  0  0  0  0  0
  -19.5749  -26.6378   21.5216 C   0  0  0  0  0  0
  -18.1919  -26.7925   22.1619 C   0  0  0  0  0  0
  -19.1519  -28.8841   23.2888 C   0  0  0  0  0  0
  -18.9451  -30.1452   23.8895 C   0  0  0  0  0  0
  -17.6449  -30.6583   24.0560 C   0  0  0  0  0  0
  -25.9037  -34.9469   23.5120 C   0  0  0  0  0  0
  -16.5338  -29.9083   23.6329 C   0  0  0  0  0  0
  -16.7260  -28.6508   23.0336 C   0  0  0  0  0  0
  -26.4465  -31.6587   25.0721 C   0  0  0  0  0  0
  -25.3717  -31.3710   26.1464 C   0  0  0  0  0  0
  -27.0285  -30.3020   24.6121 C   0  0  0  0  0  0
  -27.6030  -32.4306   25.7489 C   0  0  0  0  0  0
  -27.5591  -37.1799   24.8453 C   0  0  0  0  0  0
  -21.4156  -29.3034   22.3723 N   0  0  0  0  0  0
  -26.4291  -37.3798   23.9414 N   0  0  0  0  0  0
  -24.6752  -31.0711   22.0982 N   0  0  0  0  0  0
  -23.4187  -28.8171   23.3034 O   0  0  0  0  0  0
  -28.3875  -26.6209   20.0943 O   0  0  0  0  0  0
  -26.5600  -34.8922   22.4685 O   0  0  0  0  0  0
  -23.5368  -32.1396   23.7439 O   0  0  0  0  0  0
  -30.8879  -17.7099   20.1455 C   0  0  0  0  0  0
  -28.7683  -17.7154   21.3054 C   0  0  0  0  0  0
  -30.8012  -19.1209   19.9722 C   0  0  0  0  0  0
  -29.6729  -19.8494   20.4581 C   0  0  0  0  0  0
  -29.8718  -16.9769   20.8129 C   0  0  0  0  0  0
  -28.6677  -19.1166   21.1350 C   0  0  0  0  0  0
  -29.3011  -21.8814   19.1096 C   0  0  0  0  0  0
  -29.2138  -23.4313   18.9740 C   0  0  0  0  0  0
  -30.0397  -23.4971   21.3966 C   0  0  0  0  0  0
  -29.3873  -22.1068   21.5290 C   0  0  0  0  0  0
  -29.4703  -24.3300   20.2266 C   0  0  2  0  0  0
  -31.9512  -19.8329   19.2742 C   0  0  0  0  0  0
  -28.2747  -25.2699   20.6176 C   0  0  0  0  0  0
  -29.5322  -21.2895   20.3143 N   0  0  0  0  0  0
  -29.8614  -15.5434   21.0134 N   0  0  0  0  0  0
  -29.1704  -21.2223   18.0721 O   0  0  0  0  0  0
  -27.5775  -19.7575   21.6217 F   0  0  0  0  0  0
  -31.4794  -12.4561   19.1298 H   0  0  0  0  0  0
  -30.3534  -11.3296   19.8358 H   0  0  0  0  0  0
  -29.7518  -11.7877   17.4370 H   0  0  0  0  0  0
  -29.6673  -13.4972   17.7659 H   0  0  0  0  0  0
  -27.8315  -11.3137   18.8101 H   0  0  0  0  0  0
  -27.3785  -12.6486   17.7826 H   0  0  0  0  0  0
  -27.6970  -14.2556   19.5701 H   0  0  0  0  0  0
  -28.6947  -11.9622   21.3296 H   0  0  0  0  0  0
  -28.4589  -13.5917   21.8761 H   0  0  0  0  0  0
  -25.2766   -9.5718   22.4732 H   0  0  0  0  0  0
  -24.0025   -7.4661   22.7478 H   0  0  0  0  0  0
  -21.0832   -8.8752   19.8953 H   0  0  0  0  0  0
  -22.3666  -10.9666   19.6155 H   0  0  0  0  0  0
  -21.2028   -7.6153   23.9704 H   0  0  0  0  0  0
  -21.1465   -6.0531   25.9067 H   0  0  0  0  0  0
  -22.0610   -2.7613   23.2855 H   0  0  0  0  0  0
  -22.4146  -11.9898   22.4792 H   0  0  0  0  0  0
  -21.1133  -13.1242   22.2579 H   0  0  0  0  0  0
  -24.6718  -15.8490   20.5108 H   0  0  0  0  0  0
  -26.2837  -15.6206   20.0642 H   0  0  0  0  0  0
  -26.7135  -32.5504   23.1137 H   0  0  0  0  0  0
  -25.0066  -33.9767   25.0465 H   0  0  0  0  0  0
  -22.7000  -31.3035   21.4051 H   0  0  0  0  0  0
  -23.3770  -35.9623   23.3266 H   0  0  0  0  0  0
  -24.3597  -36.8954   22.2057 H   0  0  0  0  0  0
  -23.7220  -37.6489   23.6665 H   0  0  0  0  0  0
  -26.0630  -31.5833   20.6002 H   0  0  0  0  0  0
  -26.8278  -30.8704   21.9899 H   0  0  0  0  0  0
  -28.1114  -29.0691   21.1643 H   0  0  0  0  0  0
  -26.0463  -25.9590   18.9977 H   0  0  0  0  0  0
  -23.9841  -27.2954   19.0238 H   0  0  0  0  0  0
  -23.7269  -30.5876   19.4019 H   0  0  0  0  0  0
  -22.7457  -29.2319   19.8700 H   0  0  0  0  0  0
  -25.1292  -36.1956   25.0827 H   0  0  0  0  0  0
  -20.9944  -28.3233   24.1435 H   0  0  0  0  0  0
  -20.5672  -26.2277   23.3608 H   0  0  0  0  0  0
  -21.6632  -26.7439   22.1207 H   0  0  0  0  0  0
  -19.6910  -25.6291   21.1246 H   0  0  0  0  0  0
  -19.6700  -27.3196   20.6752 H   0  0  0  0  0  0
  -17.4196  -26.6667   21.4019 H   0  0  0  0  0  0
  -18.0318  -26.0076   22.9021 H   0  0  0  0  0  0
  -19.7921  -30.7276   24.2255 H   0  0  0  0  0  0
  -17.4997  -31.6270   24.5168 H   0  0  0  0  0  0
  -15.5339  -30.2985   23.7662 H   0  0  0  0  0  0
  -15.8656  -28.0843   22.7030 H   0  0  0  0  0  0
  -24.5879  -30.7078   25.7786 H   0  0  0  0  0  0
  -24.8927  -32.2878   26.4910 H   0  0  0  0  0  0
  -25.8056  -30.8859   27.0215 H   0  0  0  0  0  0
  -26.2838  -29.6813   24.1128 H   0  0  0  0  0  0
  -27.3981  -29.7236   25.4592 H   0  0  0  0  0  0
  -27.8708  -30.4327   23.9327 H   0  0  0  0  0  0
  -27.2641  -33.3591   26.2095 H   0  0  0  0  0  0
  -28.3830  -32.6886   25.0315 H   0  0  0  0  0  0
  -28.0708  -31.8410   26.5386 H   0  0  0  0  0  0
  -28.2569  -38.0132   24.7553 H   0  0  0  0  0  0
  -28.1128  -36.2665   24.6212 H   0  0  0  0  0  0
  -27.2316  -37.1369   25.8855 H   0  0  0  0  0  0
  -20.9330  -29.8761   21.6944 H   0  0  0  0  0  0
  -26.0178  -38.2867   24.1446 H   0  0  0  0  0  0
  -31.7564  -17.1975   19.7560 H   0  0  0  0  0  0
  -27.9667  -17.2097   21.8247 H   0  0  0  0  0  0
  -28.2426  -23.6696   18.5405 H   0  0  0  0  0  0
  -29.9347  -23.7137   18.2046 H   0  0  0  0  0  0
  -31.1090  -23.3513   21.2347 H   0  0  0  0  0  0
  -29.9645  -24.0451   22.3370 H   0  0  0  0  0  0
  -28.3263  -22.2193   21.7566 H   0  0  0  0  0  0
  -29.8313  -21.5808   22.3746 H   0  0  0  0  0  0
  -30.2772  -25.0149   19.9612 H   0  0  0  0  0  0
  -32.8553  -19.2220   19.2711 H   0  0  0  0  0  0
  -32.1979  -20.7696   19.7730 H   0  0  0  0  0  0
  -31.6928  -20.0539   18.2382 H   0  0  0  0  0  0
  -28.2426  -25.3825   21.7026 H   0  0  0  0  0  0
  -27.3334  -24.7853   20.3597 H   0  0  0  0  0  0
  -29.0092  -15.1881   21.4202 H   0  0  0  0  0  0
  1 25  1  0  0  0
  1 30  2  0  0  0
  1 85  1  0  0  0
  2  3  1  0  0  0
  2 25  1  0  0  0
  2 88  1  0  0  0
  2 89  1  0  0  0
  3  4  1  0  0  0
  3 90  1  0  0  0
  3 91  1  0  0  0
  4  5  1  0  0  0
  4 92  1  0  0  0
  4 93  1  0  0  0
  5  6  1  0  0  0
  5 26  1  0  0  0
  5 94  1  0  0  0
  6 25  1  0  0  0
  6 95  1  0  0  0
  6 96  1  0  0  0
  7  8  2  0  0  0
  7 26  1  0  0  0
  7 29  1  0  0  0
  8  9  1  0  0  0
  8 22  1  0  0  0
  9 10  1  0  0  0
  9 27  2  0  0  0
 10 11  2  0  0  0
 10 15  1  0  0  0
 11 12  1  0  0  0
 11 97  1  0  0  0
 12 13  2  0  0  0
 12 98  1  0  0  0
 13 14  1  0  0  0
 13 31  1  0  0  0
 14 15  2  0  0  0
 14 99  1  0  0  0
 15100  1  0  0  0
 16 17  2  0  0  0
 16 21  1  0  0  0
 16 31  1  0  0  0
 17 18  1  0  0  0
 17101  1  0  0  0
 18 19  2  0  0  0
 18102  1  0  0  0
 19 20  1  0  0  0
 19 24  1  0  0  0
 20 21  2  0  0  0
 20103  1  0  0  0
 21 23  1  0  0  0
 22 28  1  0  0  0
 22 32  2  0  0  0
 26 27  1  0  0  0
 28104  1  0  0  0
 28105  1  0  0  0
 29106  1  0  0  0
 29107  1  0  0  0
 33 34  1  0  0  0
 33 66  1  0  0  0
 33 70  2  0  0  0
 34 36  1  0  0  0
 34 59  1  0  0  0
 34108  1  0  0  0
 35 44  2  0  0  0
 35 45  1  0  0  0
 35 68  1  0  0  0
 36 56  1  0  0  0
 36109  1  0  0  0
 37 39  1  0  0  0
 37 47  1  0  0  0
 37 66  1  0  0  0
 37110  1  0  0  0
 38 43  2  0  0  0
 38 46  1  0  0  0
 38 47  1  0  0  0
 39 64  1  0  0  0
 39 67  2  0  0  0
 40 52  1  0  0  0
 40 53  2  0  0  0
 40 58  1  0  0  0
 41111  1  0  0  0
 41112  1  0  0  0
 41113  1  0  0  0
 41 48  1  0  0  0
 42 43  1  0  0  0
 42 66  1  0  0  0
 42114  1  0  0  0
 42115  1  0  0  0
 43 44  1  0  0  0
 44116  1  0  0  0
 45 46  2  0  0  0
 45117  1  0  0  0
 46118  1  0  0  0
 47119  1  0  0  0
 47120  1  0  0  0
 48 56  1  0  0  0
 48 65  1  0  0  0
 48121  1  0  0  0
 49 50  1  0  0  0
 49 53  1  0  0  0
 49 64  1  0  0  0
 49122  1  0  0  0
 50 51  1  0  0  0
 50123  1  0  0  0
 50124  1  0  0  0
 51 52  1  0  0  0
 51125  1  0  0  0
 51126  1  0  0  0
 52127  1  0  0  0
 52128  1  0  0  0
 53 54  1  0  0  0
 54 55  2  0  0  0
 54129  1  0  0  0
 55 57  1  0  0  0
 55130  1  0  0  0
 56 69  2  0  0  0
 57 58  2  0  0  0
 57131  1  0  0  0
 58132  1  0  0  0
 59 60  1  0  0  0
 59 61  1  0  0  0
 59 62  1  0  0  0
 60133  1  0  0  0
 60134  1  0  0  0
 60135  1  0  0  0
 61136  1  0  0  0
 61137  1  0  0  0
 61138  1  0  0  0
 62139  1  0  0  0
 62140  1  0  0  0
 62141  1  0  0  0
 63 65  1  0  0  0
 63142  1  0  0  0
 63143  1  0  0  0
 63144  1  0  0  0
 64145  1  0  0  0
 65146  1  0  0  0
 68 83  1  0  0  0
 71 73  2  0  0  0
 71 75  1  0  0  0
 71147  1  0  0  0
 72 75  2  0  0  0
 72 76  1  0  0  0
 72148  1  0  0  0
 73 74  1  0  0  0
 73 82  1  0  0  0
 74 76  2  0  0  0
 74 84  1  0  0  0
 75 85  1  0  0  0
 76 87  1  0  0  0
 77 78  1  0  0  0
 77 84  1  0  0  0
 77 86  2  0  0  0
 78 81  1  0  0  0
 78149  1  0  0  0
 78150  1  0  0  0
 79 80  1  0  0  0
 79 81  1  0  0  0
 79151  1  0  0  0
 79152  1  0  0  0
 80 84  1  0  0  0
 80153  1  0  0  0
 80154  1  0  0  0
 81 83  1  0  0  0
 81155  1  0  0  0
 82156  1  0  0  0
 82157  1  0  0  0
 82158  1  0  0  0
 83159  1  0  0  0
 83160  1  0  0  0
 85161  1  0  0  0
M  ISO  4   1 100  68 101  83 101  85 100
M  END
> <chiral flag>
0

> <version>
0

> <s_m_source_file>
/data/baiqing/PycharmProjects/Reinvent-master-3.2/result/LINK_invent/BTK/process_docking_weight1_custom_product_contain_oxygen_bond_distance_aromatic_linkinvent_7_9_3/rearranged_h_0057.sdf

> <i_m_source_file_index>
59

> <r_mmod_Potential_Energy-OPLS-2005>
99.7326736450195

> <r_mmod_Stretch_Energy-OPLS-2005>
55.2831993103027

> <r_mmod_Bend_Energy-OPLS-2005>
122.298736572266

> <r_mmod_Torsional_Energy-OPLS-2005>
315.579711914062

> <r_mmod_Improper_Torsional_Energy-OPLS-2005>
4.11043739318848

> <r_mmod_Van_der_Waal_Energy-OPLS-2005>
157.494537353516

> <r_mmod_Electrostatic_Energy-OPLS-2005>
-363.492706298828

> <r_mmod_Solvation_Energy-OPLS-2005>
-212.946243286133

> <b_mmod_Minimization_Converged-OPLS-2005>
0

> <r_mmod_RMS_Derivative-OPLS-2005>
1.90868437290192

$$$$
60
                    3D
 Structure written by MMmdl.
160168  0  0  1  0            999 V2000
  -30.7113  -14.4042   20.6323 C   0  0  0  0  0  0
  -30.4235  -12.2879   19.3926 C   0  0  0  0  0  0
  -29.4851  -12.5188   18.1902 C   0  0  0  0  0  0
  -28.0057  -12.3843   18.6044 C   0  0  0  0  0  0
  -27.6655  -13.1980   19.8806 C   0  0  2  0  0  0
  -28.7056  -12.9185   20.9877 C   0  0  0  0  0  0
  -25.2607  -13.8151   20.5671 C   0  0  0  0  0  0
  -24.1841  -13.0444   20.9170 C   0  0  0  0  0  0
  -24.6384  -11.6903   20.8736 C   0  0  0  0  0  0
  -23.9052  -10.4297   21.0411 C   0  0  0  0  0  0
  -24.3607   -9.4215   21.9190 C   0  0  0  0  0  0
  -23.6286   -8.2250   22.0758 C   0  0  0  0  0  0
  -22.4267   -8.0290   21.3549 C   0  0  0  0  0  0
  -21.9902   -9.0262   20.4648 C   0  0  0  0  0  0
  -22.7232  -10.2138   20.3053 C   0  0  0  0  0  0
  -21.6849   -6.0746   22.5288 C   0  0  0  0  0  0
  -21.4013   -6.5653   23.8223 C   0  0  0  0  0  0
  -21.3653   -5.6798   24.9183 C   0  0  0  0  0  0
  -21.6039   -4.3062   24.7227 C   0  0  0  0  0  0
  -21.8819   -3.8155   23.4349 C   0  0  0  0  0  0
  -21.9188   -4.6976   22.3406 C   0  0  0  0  0  0
  -22.7870  -13.5253   21.1844 C   0  0  0  0  0  0
  -22.1657   -4.2165   21.0984 F   0  0  0  0  0  0
  -21.5621   -3.4542   25.7735 F   0  0  0  0  0  0
  -30.0425  -13.2353   20.4486 N   0  0  0  0  0  0
  -26.3036  -12.9298   20.3385 N   0  0  0  0  0  0
  -25.9306  -11.6468   20.5769 N   0  0  0  0  0  0
  -22.0490  -12.8244   22.0387 N   0  0  0  0  0  0
  -25.4363  -15.1863   20.4074 N   0  0  0  0  0  0
  -31.7949  -14.6519   20.0928 O   0  0  0  0  0  0
  -21.6634   -6.8887   21.4249 O   0  0  0  0  0  0
  -22.3566  -14.5570   20.6704 O   0  0  0  0  0  0
  -24.6123  -31.8694   23.2106 C   0  0  0  0  0  0
  -25.9031  -32.4819   23.8399 C   0  0  1  0  0  0
  -27.2422  -27.4469   20.0796 C   0  0  0  0  0  0
  -25.5906  -33.8615   24.2355 N   0  0  0  0  0  0
  -23.3987  -30.4924   21.5514 C   0  0  2  0  0  0
  -24.8440  -28.9556   20.1203 C   0  0  0  0  0  0
  -22.7398  -29.4665   22.5005 C   0  0  0  0  0  0
  -18.0265  -28.1368   22.8487 C   0  0  0  0  0  0
  -24.1492  -36.7310   23.2635 C   0  0  0  0  0  0
  -25.9265  -30.8355   21.3619 C   0  0  0  0  0  0
  -26.0030  -29.4680   20.7151 C   0  0  0  0  0  0
  -27.1992  -28.7167   20.6996 C   0  0  0  0  0  0
  -26.0512  -26.9324   19.5117 C   0  0  0  0  0  0
  -24.8611  -27.6842   19.5242 C   0  0  0  0  0  0
  -23.6055  -29.8214   20.1669 C   0  0  0  0  0  0
  -25.4105  -36.3110   24.0351 C   0  0  1  0  0  0
  -20.5855  -28.3652   23.1325 C   0  0  2  0  0  0
  -20.6758  -26.9391   22.5418 C   0  0  0  0  0  0
  -19.5747  -26.6378   21.5201 C   0  0  0  0  0  0
  -18.1917  -26.7921   22.1599 C   0  0  0  0  0  0
  -19.1512  -28.8825   23.2905 C   0  0  0  0  0  0
  -18.9445  -30.1431   23.8918 C   0  0  0  0  0  0
  -17.6450  -30.6585   24.0550 C   0  0  0  0  0  0
  -25.9033  -34.9472   23.5151 C   0  0  0  0  0  0
  -16.5339  -29.9085   23.6322 C   0  0  0  0  0  0
  -16.7251  -28.6492   23.0355 C   0  0  0  0  0  0
  -26.4471  -31.6562   25.0702 C   0  0  0  0  0  0
  -25.3750  -31.3645   26.1460 C   0  0  0  0  0  0
  -27.0266  -30.3002   24.6028 C   0  0  0  0  0  0
  -27.6083  -32.4228   25.7455 C   0  0  0  0  0  0
  -27.5587  -37.1811   24.8469 C   0  0  0  0  0  0
  -21.4129  -29.3027   22.3745 N   0  0  0  0  0  0
  -26.4293  -37.3792   23.9415 N   0  0  0  0  0  0
  -24.6639  -31.0807   22.0997 N   0  0  0  0  0  0
  -23.4183  -28.8206   23.3031 O   0  0  0  0  0  0
  -28.4500  -26.7753   20.0571 O   0  0  0  0  0  0
  -26.5586  -34.8924   22.4706 O   0  0  0  0  0  0
  -23.5319  -32.1446   23.7512 O   0  0  0  0  0  0
  -29.3808  -18.8506   22.2433 C   0  0  0  0  0  0
  -31.7872  -18.5818   21.9951 C   0  0  0  0  0  0
  -29.1977  -17.4910   21.9234 C   0  0  0  0  0  0
  -31.6054  -17.2221   21.6678 C   0  0  0  0  0  0
  -30.6774  -19.4003   22.2974 C   0  0  0  0  0  0
  -30.3052  -16.6652   21.6353 C   0  0  0  0  0  0
  -29.7030  -22.5651   21.4101 C   0  0  0  0  0  0
  -32.0973  -22.0787   20.9854 C   0  0  0  0  0  0
  -30.8759  -20.8422   22.7505 C   0  0  0  0  0  0
  -29.8093  -23.8101   20.5048 C   0  0  0  0  0  0
  -28.4709  -24.3177   19.9209 C   0  0  0  0  0  0
  -28.6266  -25.6599   19.1779 C   0  0  0  0  0  0
  -30.0445  -15.2914   21.3890 N   0  0  0  0  0  0
  -30.8240  -21.8464   21.6752 N   0  0  0  0  0  0
  -28.6115  -22.2911   21.9190 O   0  0  0  0  0  0
  -31.4658  -12.3988   19.0871 H   0  0  0  0  0  0
  -30.3308  -11.2646   19.7600 H   0  0  0  0  0  0
  -29.7128  -11.8094   17.3937 H   0  0  0  0  0  0
  -29.6585  -13.5125   17.7736 H   0  0  0  0  0  0
  -27.8008  -11.3270   18.7738 H   0  0  0  0  0  0
  -27.3561  -12.6878   17.7822 H   0  0  0  0  0  0
  -27.7277  -14.2544   19.6171 H   0  0  0  0  0  0
  -28.6743  -11.8655   21.2717 H   0  0  0  0  0  0
  -28.4587  -13.4588   21.9021 H   0  0  0  0  0  0
  -25.2753   -9.5689   22.4768 H   0  0  0  0  0  0
  -23.9993   -7.4641   22.7478 H   0  0  0  0  0  0
  -21.0832   -8.8786   19.8954 H   0  0  0  0  0  0
  -22.3706  -10.9678   19.6155 H   0  0  0  0  0  0
  -21.2014   -7.6159   23.9733 H   0  0  0  0  0  0
  -21.1468   -6.0528   25.9083 H   0  0  0  0  0  0
  -22.0599   -2.7620   23.2847 H   0  0  0  0  0  0
  -22.4067  -11.9871   22.4740 H   0  0  0  0  0  0
  -21.1123  -13.1305   22.2607 H   0  0  0  0  0  0
  -24.6732  -15.8464   20.5117 H   0  0  0  0  0  0
  -26.2919  -15.6206   20.0834 H   0  0  0  0  0  0
  -26.7098  -32.5542   23.1156 H   0  0  0  0  0  0
  -25.0082  -33.9772   25.0520 H   0  0  0  0  0  0
  -22.6865  -31.3086   21.4114 H   0  0  0  0  0  0
  -23.3766  -35.9630   23.3278 H   0  0  0  0  0  0
  -24.3606  -36.8930   22.2054 H   0  0  0  0  0  0
  -23.7228  -37.6506   23.6650 H   0  0  0  0  0  0
  -26.0347  -31.5969   20.5879 H   0  0  0  0  0  0
  -26.8160  -30.8934   21.9769 H   0  0  0  0  0  0
  -28.0984  -29.1146   21.1496 H   0  0  0  0  0  0
  -26.0141  -25.9516   19.0616 H   0  0  0  0  0  0
  -23.9639  -27.2765   19.0786 H   0  0  0  0  0  0
  -23.7111  -30.5941   19.4047 H   0  0  0  0  0  0
  -22.7299  -29.2391   19.8732 H   0  0  0  0  0  0
  -25.1271  -36.1979   25.0846 H   0  0  0  0  0  0
  -20.9933  -28.3203   24.1448 H   0  0  0  0  0  0
  -20.5647  -26.2253   23.3598 H   0  0  0  0  0  0
  -21.6629  -26.7436   22.1208 H   0  0  0  0  0  0
  -19.6914  -25.6289   21.1224 H   0  0  0  0  0  0
  -19.6702  -27.3193   20.6740 H   0  0  0  0  0  0
  -17.4194  -26.6682   21.3992 H   0  0  0  0  0  0
  -18.0312  -26.0044   22.8972 H   0  0  0  0  0  0
  -19.7926  -30.7230   24.2307 H   0  0  0  0  0  0
  -17.5013  -31.6282   24.5119 H   0  0  0  0  0  0
  -15.5342  -30.2995   23.7646 H   0  0  0  0  0  0
  -15.8643  -28.0815   22.7083 H   0  0  0  0  0  0
  -24.5960  -30.6946   25.7803 H   0  0  0  0  0  0
  -24.8901  -32.2779   26.4909 H   0  0  0  0  0  0
  -25.8121  -30.8828   27.0214 H   0  0  0  0  0  0
  -26.2781  -29.6790   24.1096 H   0  0  0  0  0  0
  -27.4065  -29.7193   25.4441 H   0  0  0  0  0  0
  -27.8613  -30.4317   23.9139 H   0  0  0  0  0  0
  -27.2776  -33.3555   26.2032 H   0  0  0  0  0  0
  -28.3914  -32.6710   25.0278 H   0  0  0  0  0  0
  -28.0723  -31.8320   26.5362 H   0  0  0  0  0  0
  -28.2596  -38.0115   24.7504 H   0  0  0  0  0  0
  -28.1088  -36.2642   24.6290 H   0  0  0  0  0  0
  -27.2311  -37.1451   25.8875 H   0  0  0  0  0  0
  -20.9293  -29.8761   21.6978 H   0  0  0  0  0  0
  -26.0189  -38.2873   24.1402 H   0  0  0  0  0  0
  -28.5216  -19.4647   22.4754 H   0  0  0  0  0  0
  -32.7892  -18.9848   22.0413 H   0  0  0  0  0  0
  -28.1948  -17.0857   21.9112 H   0  0  0  0  0  0
  -32.4781  -16.6149   21.4732 H   0  0  0  0  0  0
  -32.4405  -23.1029   21.1361 H   0  0  0  0  0  0
  -31.9938  -21.9005   19.9147 H   0  0  0  0  0  0
  -32.8897  -21.4179   21.3382 H   0  0  0  0  0  0
  -31.8329  -20.9167   23.2699 H   0  0  0  0  0  0
  -30.1411  -21.0682   23.5251 H   0  0  0  0  0  0
  -30.4824  -23.6153   19.6710 H   0  0  0  0  0  0
  -30.2674  -24.6007   21.0998 H   0  0  0  0  0  0
  -27.7048  -24.4101   20.6916 H   0  0  0  0  0  0
  -28.1012  -23.5683   19.2193 H   0  0  0  0  0  0
  -27.9800  -25.7063   18.3022 H   0  0  0  0  0  0
  -29.6332  -25.7290   18.7638 H   0  0  0  0  0  0
  -29.1473  -14.9550   21.7018 H   0  0  0  0  0  0
  1 25  1  0  0  0
  1 30  2  0  0  0
  1 83  1  0  0  0
  2  3  1  0  0  0
  2 25  1  0  0  0
  2 86  1  0  0  0
  2 87  1  0  0  0
  3  4  1  0  0  0
  3 88  1  0  0  0
  3 89  1  0  0  0
  4  5  1  0  0  0
  4 90  1  0  0  0
  4 91  1  0  0  0
  5  6  1  0  0  0
  5 26  1  0  0  0
  5 92  1  0  0  0
  6 25  1  0  0  0
  6 93  1  0  0  0
  6 94  1  0  0  0
  7  8  2  0  0  0
  7 26  1  0  0  0
  7 29  1  0  0  0
  8  9  1  0  0  0
  8 22  1  0  0  0
  9 10  1  0  0  0
  9 27  2  0  0  0
 10 11  2  0  0  0
 10 15  1  0  0  0
 11 12  1  0  0  0
 11 95  1  0  0  0
 12 13  2  0  0  0
 12 96  1  0  0  0
 13 14  1  0  0  0
 13 31  1  0  0  0
 14 15  2  0  0  0
 14 97  1  0  0  0
 15 98  1  0  0  0
 16 17  2  0  0  0
 16 21  1  0  0  0
 16 31  1  0  0  0
 17 18  1  0  0  0
 17 99  1  0  0  0
 18 19  2  0  0  0
 18100  1  0  0  0
 19 20  1  0  0  0
 19 24  1  0  0  0
 20 21  2  0  0  0
 20101  1  0  0  0
 21 23  1  0  0  0
 22 28  1  0  0  0
 22 32  2  0  0  0
 26 27  1  0  0  0
 28102  1  0  0  0
 28103  1  0  0  0
 29104  1  0  0  0
 29105  1  0  0  0
 33 34  1  0  0  0
 33 66  1  0  0  0
 33 70  2  0  0  0
 34 36  1  0  0  0
 34 59  1  0  0  0
 34106  1  0  0  0
 35 44  2  0  0  0
 35 45  1  0  0  0
 35 68  1  0  0  0
 36 56  1  0  0  0
 36107  1  0  0  0
 37 39  1  0  0  0
 37 47  1  0  0  0
 37 66  1  0  0  0
 37108  1  0  0  0
 38 43  2  0  0  0
 38 46  1  0  0  0
 38 47  1  0  0  0
 39 64  1  0  0  0
 39 67  2  0  0  0
 40 52  1  0  0  0
 40 53  2  0  0  0
 40 58  1  0  0  0
 41109  1  0  0  0
 41110  1  0  0  0
 41111  1  0  0  0
 41 48  1  0  0  0
 42 43  1  0  0  0
 42 66  1  0  0  0
 42112  1  0  0  0
 42113  1  0  0  0
 43 44  1  0  0  0
 44114  1  0  0  0
 45 46  2  0  0  0
 45115  1  0  0  0
 46116  1  0  0  0
 47117  1  0  0  0
 47118  1  0  0  0
 48 56  1  0  0  0
 48 65  1  0  0  0
 48119  1  0  0  0
 49 50  1  0  0  0
 49 53  1  0  0  0
 49 64  1  0  0  0
 49120  1  0  0  0
 50 51  1  0  0  0
 50121  1  0  0  0
 50122  1  0  0  0
 51 52  1  0  0  0
 51123  1  0  0  0
 51124  1  0  0  0
 52125  1  0  0  0
 52126  1  0  0  0
 53 54  1  0  0  0
 54 55  2  0  0  0
 54127  1  0  0  0
 55 57  1  0  0  0
 55128  1  0  0  0
 56 69  2  0  0  0
 57 58  2  0  0  0
 57129  1  0  0  0
 58130  1  0  0  0
 59 60  1  0  0  0
 59 61  1  0  0  0
 59 62  1  0  0  0
 60131  1  0  0  0
 60132  1  0  0  0
 60133  1  0  0  0
 61134  1  0  0  0
 61135  1  0  0  0
 61136  1  0  0  0
 62137  1  0  0  0
 62138  1  0  0  0
 62139  1  0  0  0
 63 65  1  0  0  0
 63140  1  0  0  0
 63141  1  0  0  0
 63142  1  0  0  0
 64143  1  0  0  0
 65144  1  0  0  0
 68 82  1  0  0  0
 71 73  2  0  0  0
 71 75  1  0  0  0
 71145  1  0  0  0
 72 74  1  0  0  0
 72 75  2  0  0  0
 72146  1  0  0  0
 73 76  1  0  0  0
 73147  1  0  0  0
 74 76  2  0  0  0
 74148  1  0  0  0
 75 79  1  0  0  0
 76 83  1  0  0  0
 77 80  1  0  0  0
 77 84  1  0  0  0
 77 85  2  0  0  0
 78 84  1  0  0  0
 78149  1  0  0  0
 78150  1  0  0  0
 78151  1  0  0  0
 79 84  1  0  0  0
 79152  1  0  0  0
 79153  1  0  0  0
 80 81  1  0  0  0
 80154  1  0  0  0
 80155  1  0  0  0
 81 82  1  0  0  0
 81156  1  0  0  0
 81157  1  0  0  0
 82158  1  0  0  0
 82159  1  0  0  0
 83160  1  0  0  0
M  ISO  4   1 100  68 101  82 101  83 100
M  END
> <chiral flag>
0

> <version>
0

> <s_m_source_file>
/data/baiqing/PycharmProjects/Reinvent-master-3.2/result/LINK_invent/BTK/process_docking_weight1_custom_product_contain_oxygen_bond_distance_aromatic_linkinvent_7_9_3/rearranged_h_0057.sdf

> <i_m_source_file_index>
60

> <r_mmod_Potential_Energy-OPLS-2005>
-92.3433074951172

> <r_mmod_Stretch_Energy-OPLS-2005>
36.1849327087402

> <r_mmod_Bend_Energy-OPLS-2005>
103.276878356934

> <r_mmod_Torsional_Energy-OPLS-2005>
224.941680908203

> <r_mmod_Improper_Torsional_Energy-OPLS-2005>
3.16070175170898

> <r_mmod_Van_der_Waal_Energy-OPLS-2005>
167.030029296875

> <r_mmod_Electrostatic_Energy-OPLS-2005>
-406.796966552734

> <r_mmod_Solvation_Energy-OPLS-2005>
-228.643310546875

> <b_mmod_Minimization_Converged-OPLS-2005>
0

> <r_mmod_RMS_Derivative-OPLS-2005>
1.23357546329498

$$$$
61
                    3D
 Structure written by MMmdl.
168177  0  0  1  0            999 V2000
  -30.6405  -14.5333   20.5347 C   0  0  0  0  0  0
  -30.4425  -12.3355   19.4177 C   0  0  0  0  0  0
  -29.5082  -12.5160   18.2034 C   0  0  0  0  0  0
  -28.0211  -12.3808   18.6061 C   0  0  0  0  0  0
  -27.6577  -13.2064   19.8685 C   0  0  2  0  0  0
  -28.7052  -13.0009   20.9870 C   0  0  0  0  0  0
  -25.2575  -13.8151   20.5659 C   0  0  0  0  0  0
  -24.1831  -13.0467   20.9199 C   0  0  0  0  0  0
  -24.6376  -11.6934   20.8780 C   0  0  0  0  0  0
  -23.9073  -10.4320   21.0446 C   0  0  0  0  0  0
  -24.3625   -9.4230   21.9221 C   0  0  0  0  0  0
  -23.6313   -8.2268   22.0777 C   0  0  0  0  0  0
  -22.4302   -8.0300   21.3567 C   0  0  0  0  0  0
  -21.9928   -9.0267   20.4673 C   0  0  0  0  0  0
  -22.7246  -10.2157   20.3096 C   0  0  0  0  0  0
  -21.6851   -6.0743   22.5280 C   0  0  0  0  0  0
  -21.3998   -6.5649   23.8203 C   0  0  0  0  0  0
  -21.3663   -5.6812   24.9172 C   0  0  0  0  0  0
  -21.6058   -4.3070   24.7229 C   0  0  0  0  0  0
  -21.8818   -3.8151   23.4345 C   0  0  0  0  0  0
  -21.9184   -4.6969   22.3396 C   0  0  0  0  0  0
  -22.7837  -13.5255   21.1838 C   0  0  0  0  0  0
  -22.1663   -4.2185   21.0970 F   0  0  0  0  0  0
  -21.5649   -3.4537   25.7725 F   0  0  0  0  0  0
  -30.0300  -13.3212   20.4245 N   0  0  0  0  0  0
  -26.3011  -12.9324   20.3349 N   0  0  0  0  0  0
  -25.9303  -11.6504   20.5783 N   0  0  0  0  0  0
  -22.0447  -12.8304   22.0388 N   0  0  0  0  0  0
  -25.4275  -15.1898   20.4022 N   0  0  0  0  0  0
  -31.8067  -14.7412   20.1905 O   0  0  0  0  0  0
  -21.6657   -6.8907   21.4260 O   0  0  0  0  0  0
  -22.3547  -14.5560   20.6654 O   0  0  0  0  0  0
  -24.6148  -31.8677   23.2061 C   0  0  0  0  0  0
  -25.9021  -32.4836   23.8380 C   0  0  1  0  0  0
  -27.2563  -27.4311   20.0896 C   0  0  0  0  0  0
  -25.5875  -33.8630   24.2327 N   0  0  0  0  0  0
  -23.4056  -30.4857   21.5461 C   0  0  2  0  0  0
  -24.8582  -28.9434   20.1179 C   0  0  0  0  0  0
  -22.7421  -29.4645   22.4970 C   0  0  0  0  0  0
  -18.0281  -28.1376   22.8499 C   0  0  0  0  0  0
  -24.1489  -36.7315   23.2638 C   0  0  0  0  0  0
  -25.9332  -30.8303   21.3577 C   0  0  0  0  0  0
  -26.0168  -29.4606   20.7118 C   0  0  0  0  0  0
  -27.2190  -28.7126   20.6894 C   0  0  0  0  0  0
  -26.0800  -26.9290   19.4935 C   0  0  0  0  0  0
  -24.8840  -27.6760   19.5082 C   0  0  0  0  0  0
  -23.6150  -29.8069   20.1661 C   0  0  0  0  0  0
  -25.4109  -36.3116   24.0344 C   0  0  1  0  0  0
  -20.5879  -28.3652   23.1325 C   0  0  2  0  0  0
  -20.6773  -26.9392   22.5406 C   0  0  0  0  0  0
  -19.5736  -26.6378   21.5224 C   0  0  0  0  0  0
  -18.1917  -26.7923   22.1628 C   0  0  0  0  0  0
  -19.1527  -28.8835   23.2921 C   0  0  0  0  0  0
  -18.9446  -30.1455   23.8923 C   0  0  0  0  0  0
  -17.6441  -30.6584   24.0577 C   0  0  0  0  0  0
  -25.9042  -34.9484   23.5146 C   0  0  0  0  0  0
  -16.5345  -29.9082   23.6329 C   0  0  0  0  0  0
  -16.7268  -28.6502   23.0346 C   0  0  0  0  0  0
  -26.4445  -31.6599   25.0697 C   0  0  0  0  0  0
  -25.3707  -31.3652   26.1437 C   0  0  0  0  0  0
  -27.0283  -30.3071   24.6015 C   0  0  0  0  0  0
  -27.6080  -32.4272   25.7413 C   0  0  0  0  0  0
  -27.5589  -37.1810   24.8465 C   0  0  0  0  0  0
  -21.4142  -29.3039   22.3742 N   0  0  0  0  0  0
  -26.4308  -37.3793   23.9404 N   0  0  0  0  0  0
  -24.6704  -31.0747   22.0957 N   0  0  0  0  0  0
  -23.4196  -28.8179   23.3012 O   0  0  0  0  0  0
  -28.4337  -26.7059   20.0500 O   0  0  0  0  0  0
  -26.5591  -34.8936   22.4706 O   0  0  0  0  0  0
  -23.5347  -32.1390   23.7444 O   0  0  0  0  0  0
  -30.2083  -17.1106   22.5739 C   0  0  0  0  0  0
  -29.5606  -17.9648   20.4011 C   0  0  0  0  0  0
  -30.0141  -18.3931   23.1353 C   0  0  0  0  0  0
  -29.4184  -19.2851   20.9149 C   0  0  0  0  0  0
  -29.6151  -19.4949   22.3116 C   0  0  0  0  0  0
  -29.9408  -16.8727   21.2168 C   0  0  0  0  0  0
  -30.9060  -23.0626   18.7068 C   0  0  0  0  0  0
  -28.3818  -22.8084   20.0523 C   0  0  0  0  0  0
  -30.2092  -18.4777   24.6073 C   0  0  0  0  0  0
  -30.2217  -24.3992   18.9751 C   0  0  0  0  0  0
  -30.7308  -22.0506   19.8298 C   0  0  0  0  0  0
  -28.7804  -24.2429   19.5585 C   0  0  2  0  0  0
  -29.3295  -20.8676   22.9158 C   0  0  0  0  0  0
  -28.9807  -18.8072   25.4487 C   0  0  0  0  0  0
  -28.8785  -20.3605   19.9326 C   0  0  0  0  0  0
  -28.4005  -25.3622   20.5797 C   0  0  0  0  0  0
  -29.2949  -21.7873   20.0231 N   0  0  0  0  0  0
  -29.7619  -15.5338   20.7656 N   0  0  0  0  0  0
  -31.4740  -22.7946   17.6460 O   0  0  0  0  0  0
  -27.2058  -22.6179   20.3695 O   0  0  0  0  0  0
  -31.2793  -18.2135   25.1663 O   0  0  0  0  0  0
  -31.4834  -12.4702   19.1171 H   0  0  0  0  0  0
  -30.3700  -11.3263   19.8224 H   0  0  0  0  0  0
  -29.7506  -11.7934   17.4227 H   0  0  0  0  0  0
  -29.6704  -13.5045   17.7699 H   0  0  0  0  0  0
  -27.8125  -11.3248   18.7768 H   0  0  0  0  0  0
  -27.3830  -12.6891   17.7764 H   0  0  0  0  0  0
  -27.6883  -14.2533   19.5631 H   0  0  0  0  0  0
  -28.6944  -11.9727   21.3517 H   0  0  0  0  0  0
  -28.4704  -13.6190   21.8583 H   0  0  0  0  0  0
  -25.2775   -9.5717   22.4785 H   0  0  0  0  0  0
  -24.0034   -7.4652   22.7481 H   0  0  0  0  0  0
  -21.0864   -8.8780   19.8956 H   0  0  0  0  0  0
  -22.3707  -10.9706   19.6198 H   0  0  0  0  0  0
  -21.1982   -7.6160   23.9735 H   0  0  0  0  0  0
  -21.1495   -6.0526   25.9093 H   0  0  0  0  0  0
  -22.0592   -2.7626   23.2812 H   0  0  0  0  0  0
  -22.4008  -11.9970   22.4850 H   0  0  0  0  0  0
  -21.1057  -13.1356   22.2527 H   0  0  0  0  0  0
  -24.6575  -15.8411   20.5178 H   0  0  0  0  0  0
  -26.2680  -15.6349   20.0564 H   0  0  0  0  0  0
  -26.7097  -32.5544   23.1166 H   0  0  0  0  0  0
  -25.0074  -33.9803   25.0499 H   0  0  0  0  0  0
  -22.6956  -31.3035   21.4012 H   0  0  0  0  0  0
  -23.3775  -35.9634   23.3313 H   0  0  0  0  0  0
  -24.3584  -36.8906   22.2054 H   0  0  0  0  0  0
  -23.7234  -37.6525   23.6639 H   0  0  0  0  0  0
  -26.0344  -31.5879   20.5797 H   0  0  0  0  0  0
  -26.8283  -30.8998   21.9627 H   0  0  0  0  0  0
  -28.1155  -29.1124   21.1407 H   0  0  0  0  0  0
  -26.0929  -25.9646   19.0071 H   0  0  0  0  0  0
  -23.9957  -27.2708   19.0410 H   0  0  0  0  0  0
  -23.7137  -30.5779   19.4002 H   0  0  0  0  0  0
  -22.7406  -29.2168   19.8774 H   0  0  0  0  0  0
  -25.1288  -36.2010   25.0843 H   0  0  0  0  0  0
  -20.9992  -28.3222   24.1442 H   0  0  0  0  0  0
  -20.5698  -26.2261   23.3594 H   0  0  0  0  0  0
  -21.6638  -26.7435   22.1196 H   0  0  0  0  0  0
  -19.6898  -25.6292   21.1249 H   0  0  0  0  0  0
  -19.6696  -27.3206   20.6780 H   0  0  0  0  0  0
  -17.4200  -26.6717   21.4025 H   0  0  0  0  0  0
  -18.0301  -26.0054   22.9007 H   0  0  0  0  0  0
  -19.7920  -30.7280   24.2293 H   0  0  0  0  0  0
  -17.4988  -31.6263   24.5163 H   0  0  0  0  0  0
  -15.5345  -30.2986   23.7626 H   0  0  0  0  0  0
  -15.8674  -28.0836   22.7023 H   0  0  0  0  0  0
  -24.5912  -30.6978   25.7734 H   0  0  0  0  0  0
  -24.8842  -32.2772   26.4915 H   0  0  0  0  0  0
  -25.8045  -30.8786   27.0180 H   0  0  0  0  0  0
  -26.2800  -29.6820   24.1132 H   0  0  0  0  0  0
  -27.4181  -29.7316   25.4418 H   0  0  0  0  0  0
  -27.8569  -30.4455   23.9065 H   0  0  0  0  0  0
  -27.2809  -33.3601   26.2015 H   0  0  0  0  0  0
  -28.3861  -32.6770   25.0183 H   0  0  0  0  0  0
  -28.0782  -31.8346   26.5269 H   0  0  0  0  0  0
  -28.2623  -38.0089   24.7538 H   0  0  0  0  0  0
  -28.1073  -36.2641   24.6286 H   0  0  0  0  0  0
  -27.2301  -37.1450   25.8858 H   0  0  0  0  0  0
  -20.9279  -29.8790   21.7002 H   0  0  0  0  0  0
  -26.0218  -38.2887   24.1388 H   0  0  0  0  0  0
  -30.4616  -16.2845   23.2224 H   0  0  0  0  0  0
  -29.3014  -17.7736   19.3693 H   0  0  0  0  0  0
  -30.1908  -24.9725   18.0495 H   0  0  0  0  0  0
  -30.8561  -24.9593   19.6602 H   0  0  0  0  0  0
  -31.1466  -22.4787   20.7426 H   0  0  0  0  0  0
  -31.2993  -21.1431   19.6301 H   0  0  0  0  0  0
  -28.1193  -24.3939   18.7069 H   0  0  0  0  0  0
  -28.3318  -21.1955   22.6255 H   0  0  0  0  0  0
  -30.0566  -21.6062   22.5898 H   0  0  0  0  0  0
  -29.3606  -20.8998   23.9987 H   0  0  0  0  0  0
  -28.1630  -19.1693   24.8266 H   0  0  0  0  0  0
  -29.2172  -19.5834   26.1751 H   0  0  0  0  0  0
  -28.6375  -17.9208   25.9838 H   0  0  0  0  0  0
  -27.7922  -20.2666   19.9604 H   0  0  0  0  0  0
  -29.1453  -20.0482   18.9199 H   0  0  0  0  0  0
  -29.1067  -25.3321   21.4081 H   0  0  0  0  0  0
  -27.4274  -25.1569   21.0298 H   0  0  0  0  0  0
  -28.8092  -15.2048   20.8009 H   0  0  0  0  0  0
  1 25  1  0  0  0
  1 30  2  0  0  0
  1 88  1  0  0  0
  2  3  1  0  0  0
  2 25  1  0  0  0
  2 92  1  0  0  0
  2 93  1  0  0  0
  3  4  1  0  0  0
  3 94  1  0  0  0
  3 95  1  0  0  0
  4  5  1  0  0  0
  4 96  1  0  0  0
  4 97  1  0  0  0
  5  6  1  0  0  0
  5 26  1  0  0  0
  5 98  1  0  0  0
  6 25  1  0  0  0
  6 99  1  0  0  0
  6100  1  0  0  0
  7  8  2  0  0  0
  7 26  1  0  0  0
  7 29  1  0  0  0
  8  9  1  0  0  0
  8 22  1  0  0  0
  9 10  1  0  0  0
  9 27  2  0  0  0
 10 11  2  0  0  0
 10 15  1  0  0  0
 11 12  1  0  0  0
 11101  1  0  0  0
 12 13  2  0  0  0
 12102  1  0  0  0
 13 14  1  0  0  0
 13 31  1  0  0  0
 14 15  2  0  0  0
 14103  1  0  0  0
 15104  1  0  0  0
 16 17  2  0  0  0
 16 21  1  0  0  0
 16 31  1  0  0  0
 17 18  1  0  0  0
 17105  1  0  0  0
 18 19  2  0  0  0
 18106  1  0  0  0
 19 20  1  0  0  0
 19 24  1  0  0  0
 20 21  2  0  0  0
 20107  1  0  0  0
 21 23  1  0  0  0
 22 28  1  0  0  0
 22 32  2  0  0  0
 26 27  1  0  0  0
 28108  1  0  0  0
 28109  1  0  0  0
 29110  1  0  0  0
 29111  1  0  0  0
 33 34  1  0  0  0
 33 66  1  0  0  0
 33 70  2  0  0  0
 34 36  1  0  0  0
 34 59  1  0  0  0
 34112  1  0  0  0
 35 44  2  0  0  0
 35 45  1  0  0  0
 35 68  1  0  0  0
 36 56  1  0  0  0
 36113  1  0  0  0
 37 39  1  0  0  0
 37 47  1  0  0  0
 37 66  1  0  0  0
 37114  1  0  0  0
 38 43  2  0  0  0
 38 46  1  0  0  0
 38 47  1  0  0  0
 39 64  1  0  0  0
 39 67  2  0  0  0
 40 52  1  0  0  0
 40 53  2  0  0  0
 40 58  1  0  0  0
 41115  1  0  0  0
 41116  1  0  0  0
 41117  1  0  0  0
 41 48  1  0  0  0
 42 43  1  0  0  0
 42 66  1  0  0  0
 42118  1  0  0  0
 42119  1  0  0  0
 43 44  1  0  0  0
 44120  1  0  0  0
 45 46  2  0  0  0
 45121  1  0  0  0
 46122  1  0  0  0
 47123  1  0  0  0
 47124  1  0  0  0
 48 56  1  0  0  0
 48 65  1  0  0  0
 48125  1  0  0  0
 49 50  1  0  0  0
 49 53  1  0  0  0
 49 64  1  0  0  0
 49126  1  0  0  0
 50 51  1  0  0  0
 50127  1  0  0  0
 50128  1  0  0  0
 51 52  1  0  0  0
 51129  1  0  0  0
 51130  1  0  0  0
 52131  1  0  0  0
 52132  1  0  0  0
 53 54  1  0  0  0
 54 55  2  0  0  0
 54133  1  0  0  0
 55 57  1  0  0  0
 55134  1  0  0  0
 56 69  2  0  0  0
 57 58  2  0  0  0
 57135  1  0  0  0
 58136  1  0  0  0
 59 60  1  0  0  0
 59 61  1  0  0  0
 59 62  1  0  0  0
 60137  1  0  0  0
 60138  1  0  0  0
 60139  1  0  0  0
 61140  1  0  0  0
 61141  1  0  0  0
 61142  1  0  0  0
 62143  1  0  0  0
 62144  1  0  0  0
 62145  1  0  0  0
 63 65  1  0  0  0
 63146  1  0  0  0
 63147  1  0  0  0
 63148  1  0  0  0
 64149  1  0  0  0
 65150  1  0  0  0
 68 86  1  0  0  0
 71 73  2  0  0  0
 71 76  1  0  0  0
 71151  1  0  0  0
 72 74  1  0  0  0
 72 76  2  0  0  0
 72152  1  0  0  0
 73 75  1  0  0  0
 73 79  1  0  0  0
 74 75  2  0  0  0
 74 85  1  0  0  0
 75 83  1  0  0  0
 76 88  1  0  0  0
 77 80  1  0  0  0
 77 81  1  0  0  0
 77 89  2  0  0  0
 78 82  1  0  0  0
 78 87  1  0  0  0
 78 90  2  0  0  0
 79 84  1  0  0  0
 79 91  2  0  0  0
 80 82  1  0  0  0
 80153  1  0  0  0
 80154  1  0  0  0
 81 87  1  0  0  0
 81155  1  0  0  0
 81156  1  0  0  0
 82 86  1  0  0  0
 82157  1  0  0  0
 83158  1  0  0  0
 83159  1  0  0  0
 83160  1  0  0  0
 84161  1  0  0  0
 84162  1  0  0  0
 84163  1  0  0  0
 85 87  1  0  0  0
 85164  1  0  0  0
 85165  1  0  0  0
 86166  1  0  0  0
 86167  1  0  0  0
 88168  1  0  0  0
M  ISO  4   1 100  68 101  86 101  88 100
M  END
> <chiral flag>
0

> <version>
0

> <s_m_source_file>
/data/baiqing/PycharmProjects/Reinvent-master-3.2/result/LINK_invent/BTK/process_docking_weight1_custom_product_contain_oxygen_bond_distance_aromatic_linkinvent_7_9_3/rearranged_h_0057.sdf

> <i_m_source_file_index>
61

> <r_mmod_Potential_Energy-OPLS-2005>
3.23549866676331

> <r_mmod_Stretch_Energy-OPLS-2005>
53.3537406921387

> <r_mmod_Bend_Energy-OPLS-2005>
127.511543273926

> <r_mmod_Torsional_Energy-OPLS-2005>
347.053314208984

> <r_mmod_Improper_Torsional_Energy-OPLS-2005>
12.9824085235596

> <r_mmod_Van_der_Waal_Energy-OPLS-2005>
168.202590942383

> <r_mmod_Electrostatic_Energy-OPLS-2005>
-469.162658691406

> <r_mmod_Solvation_Energy-OPLS-2005>
-255.58935546875

> <b_mmod_Minimization_Converged-OPLS-2005>
0

> <r_mmod_RMS_Derivative-OPLS-2005>
5.09460115432739

$$$$
62
                    3D
 Structure written by MMmdl.
161169  0  0  1  0            999 V2000
  -30.7261  -14.3861   20.6111 C   0  0  0  0  0  0
  -30.4175  -12.2697   19.3915 C   0  0  0  0  0  0
  -29.4898  -12.5204   18.1877 C   0  0  0  0  0  0
  -28.0108  -12.3825   18.5994 C   0  0  0  0  0  0
  -27.6648  -13.1987   19.8755 C   0  0  2  0  0  0
  -28.7053  -12.9273   20.9848 C   0  0  0  0  0  0
  -25.2597  -13.8133   20.5603 C   0  0  0  0  0  0
  -24.1849  -13.0436   20.9165 C   0  0  0  0  0  0
  -24.6383  -11.6908   20.8713 C   0  0  0  0  0  0
  -23.9041  -10.4297   21.0369 C   0  0  0  0  0  0
  -24.3587   -9.4219   21.9139 C   0  0  0  0  0  0
  -23.6289   -8.2243   22.0725 C   0  0  0  0  0  0
  -22.4267   -8.0258   21.3538 C   0  0  0  0  0  0
  -21.9895   -9.0225   20.4631 C   0  0  0  0  0  0
  -22.7209  -10.2129   20.3021 C   0  0  0  0  0  0
  -21.6860   -6.0712   22.5267 C   0  0  0  0  0  0
  -21.4012   -6.5609   23.8206 C   0  0  0  0  0  0
  -21.3666   -5.6768   24.9167 C   0  0  0  0  0  0
  -21.6063   -4.3036   24.7218 C   0  0  0  0  0  0
  -21.8823   -3.8116   23.4340 C   0  0  0  0  0  0
  -21.9193   -4.6931   22.3393 C   0  0  0  0  0  0
  -22.7854  -13.5249   21.1835 C   0  0  0  0  0  0
  -22.1671   -4.2118   21.0974 F   0  0  0  0  0  0
  -21.5632   -3.4517   25.7733 F   0  0  0  0  0  0
  -30.0465  -13.2243   20.4422 N   0  0  0  0  0  0
  -26.3032  -12.9306   20.3348 N   0  0  0  0  0  0
  -25.9309  -11.6476   20.5729 N   0  0  0  0  0  0
  -22.0481  -12.8289   22.0417 N   0  0  0  0  0  0
  -25.4283  -15.1838   20.3953 N   0  0  0  0  0  0
  -31.8203  -14.6238   20.0870 O   0  0  0  0  0  0
  -21.6646   -6.8845   21.4238 O   0  0  0  0  0  0
  -22.3575  -14.5544   20.6642 O   0  0  0  0  0  0
  -24.6097  -31.8712   23.2160 C   0  0  0  0  0  0
  -25.9007  -32.4851   23.8432 C   0  0  1  0  0  0
  -27.2361  -27.4789   20.0831 C   0  0  0  0  0  0
  -25.5888  -33.8655   24.2373 N   0  0  0  0  0  0
  -23.3979  -30.4986   21.5539 C   0  0  2  0  0  0
  -24.8461  -28.9761   20.1140 C   0  0  0  0  0  0
  -22.7394  -29.4683   22.4994 C   0  0  0  0  0  0
  -18.0257  -28.1386   22.8499 C   0  0  0  0  0  0
  -24.1482  -36.7334   23.2642 C   0  0  0  0  0  0
  -25.9249  -30.8554   21.3609 C   0  0  0  0  0  0
  -26.0061  -29.4944   20.7048 C   0  0  0  0  0  0
  -27.2100  -28.7570   20.6881 C   0  0  0  0  0  0
  -26.0567  -26.9612   19.5135 C   0  0  0  0  0  0
  -24.8639  -27.7050   19.5139 C   0  0  0  0  0  0
  -23.6075  -29.8383   20.1648 C   0  0  0  0  0  0
  -25.4103  -36.3143   24.0349 C   0  0  1  0  0  0
  -20.5850  -28.3668   23.1322 C   0  0  2  0  0  0
  -20.6760  -26.9408   22.5422 C   0  0  0  0  0  0
  -19.5741  -26.6389   21.5220 C   0  0  0  0  0  0
  -18.1912  -26.7938   22.1615 C   0  0  0  0  0  0
  -19.1509  -28.8833   23.2919 C   0  0  0  0  0  0
  -18.9448  -30.1441   23.8922 C   0  0  0  0  0  0
  -17.6456  -30.6588   24.0566 C   0  0  0  0  0  0
  -25.9024  -34.9499   23.5155 C   0  0  0  0  0  0
  -16.5343  -29.9103   23.6323 C   0  0  0  0  0  0
  -16.7250  -28.6522   23.0341 C   0  0  0  0  0  0
  -26.4456  -31.6608   25.0733 C   0  0  0  0  0  0
  -25.3764  -31.3680   26.1507 C   0  0  0  0  0  0
  -27.0272  -30.3060   24.6064 C   0  0  0  0  0  0
  -27.6051  -32.4305   25.7475 C   0  0  0  0  0  0
  -27.5592  -37.1821   24.8463 C   0  0  0  0  0  0
  -21.4120  -29.3041   22.3737 N   0  0  0  0  0  0
  -26.4296  -37.3826   23.9417 N   0  0  0  0  0  0
  -24.6633  -31.0853   22.1039 N   0  0  0  0  0  0
  -23.4192  -28.8217   23.3013 O   0  0  0  0  0  0
  -28.3218  -26.6430   20.0467 O   0  0  0  0  0  0
  -26.5577  -34.8932   22.4708 O   0  0  0  0  0  0
  -23.5294  -32.1433   23.7579 O   0  0  0  0  0  0
  -31.4383  -18.3702   22.8712 C   0  0  0  0  0  0
  -30.9281  -19.3666   22.0240 C   0  0  0  0  0  0
  -31.1777  -17.0200   22.5967 C   0  0  0  0  0  0
  -30.1800  -19.0342   20.8670 C   0  0  0  0  0  0
  -29.9393  -17.6580   20.5689 C   0  0  0  0  0  0
  -30.4225  -16.6643   21.4638 C   0  0  0  0  0  0
  -29.6017  -20.1599   20.0471 C   0  0  0  0  0  0
  -29.1774  -17.2322   19.3115 C   0  0  0  0  0  0
  -30.0852  -22.4555   19.2023 C   0  0  0  0  0  0
  -30.7225  -23.6068   19.9995 C   0  0  0  0  0  0
  -29.6451  -27.1478   20.0247 C   0  0  0  0  0  0
  -30.5092  -25.9401   20.4134 C   0  0  0  0  0  0
  -30.0625  -15.3088   21.3127 N   0  0  0  0  0  0
  -30.4424  -21.1696   19.7954 N   0  0  0  0  0  0
  -28.4314  -20.1408   19.6574 O   0  0  0  0  0  0
  -30.2075  -24.8496   19.5407 O   0  0  0  0  0  0
  -31.4613  -12.3614   19.0893 H   0  0  0  0  0  0
  -30.2997  -11.2447   19.7512 H   0  0  0  0  0  0
  -29.7248  -11.8238   17.3823 H   0  0  0  0  0  0
  -29.6704  -13.5169   17.7787 H   0  0  0  0  0  0
  -27.8117  -11.3263   18.7736 H   0  0  0  0  0  0
  -27.3561  -12.6789   17.7794 H   0  0  0  0  0  0
  -27.7271  -14.2534   19.6106 H   0  0  0  0  0  0
  -28.6679  -11.8768   21.2774 H   0  0  0  0  0  0
  -28.4664  -13.4795   21.8955 H   0  0  0  0  0  0
  -25.2712   -9.5730   22.4739 H   0  0  0  0  0  0
  -24.0000   -7.4640   22.7453 H   0  0  0  0  0  0
  -21.0798   -8.8724   19.8973 H   0  0  0  0  0  0
  -22.3595  -10.9646   19.6139 H   0  0  0  0  0  0
  -21.2011   -7.6112   23.9703 H   0  0  0  0  0  0
  -21.1489   -6.0494   25.9079 H   0  0  0  0  0  0
  -22.0602   -2.7573   23.2850 H   0  0  0  0  0  0
  -22.4081  -11.9984   22.4875 H   0  0  0  0  0  0
  -21.1056  -13.1307   22.2486 H   0  0  0  0  0  0
  -24.6526  -15.8300   20.4838 H   0  0  0  0  0  0
  -26.2716  -15.6215   20.0446 H   0  0  0  0  0  0
  -26.7097  -32.5594   23.1222 H   0  0  0  0  0  0
  -25.0055  -33.9818   25.0529 H   0  0  0  0  0  0
  -22.6858  -31.3149   21.4203 H   0  0  0  0  0  0
  -23.3741  -35.9670   23.3308 H   0  0  0  0  0  0
  -24.3590  -36.8921   22.2054 H   0  0  0  0  0  0
  -23.7207  -37.6539   23.6634 H   0  0  0  0  0  0
  -26.0268  -31.6278   20.5961 H   0  0  0  0  0  0
  -26.8149  -30.9123   21.9753 H   0  0  0  0  0  0
  -28.0916  -29.1700   21.1587 H   0  0  0  0  0  0
  -26.0646  -25.9773   19.0643 H   0  0  0  0  0  0
  -23.9713  -27.2994   19.0564 H   0  0  0  0  0  0
  -23.7170  -30.6177   19.4105 H   0  0  0  0  0  0
  -22.7309  -29.2607   19.8643 H   0  0  0  0  0  0
  -25.1271  -36.2037   25.0844 H   0  0  0  0  0  0
  -20.9947  -28.3240   24.1442 H   0  0  0  0  0  0
  -20.5660  -26.2285   23.3616 H   0  0  0  0  0  0
  -21.6634  -26.7466   22.1217 H   0  0  0  0  0  0
  -19.6908  -25.6301   21.1237 H   0  0  0  0  0  0
  -19.6683  -27.3207   20.6760 H   0  0  0  0  0  0
  -17.4198  -26.6687   21.4006 H   0  0  0  0  0  0
  -18.0305  -26.0071   22.8994 H   0  0  0  0  0  0
  -19.7921  -30.7246   24.2324 H   0  0  0  0  0  0
  -17.5005  -31.6263   24.5171 H   0  0  0  0  0  0
  -15.5346  -30.3020   23.7623 H   0  0  0  0  0  0
  -15.8641  -28.0850   22.7049 H   0  0  0  0  0  0
  -24.5936  -30.7022   25.7852 H   0  0  0  0  0  0
  -24.8954  -32.2824   26.4998 H   0  0  0  0  0  0
  -25.8150  -30.8823   27.0237 H   0  0  0  0  0  0
  -26.2795  -29.6829   24.1144 H   0  0  0  0  0  0
  -27.4091  -29.7271   25.4484 H   0  0  0  0  0  0
  -27.8609  -30.4378   23.9161 H   0  0  0  0  0  0
  -27.2698  -33.3586   26.2109 H   0  0  0  0  0  0
  -28.3829  -32.6891   25.0282 H   0  0  0  0  0  0
  -28.0773  -31.8403   26.5335 H   0  0  0  0  0  0
  -28.2611  -38.0122   24.7532 H   0  0  0  0  0  0
  -28.1081  -36.2651   24.6264 H   0  0  0  0  0  0
  -27.2322  -37.1443   25.8869 H   0  0  0  0  0  0
  -20.9283  -29.8785   21.6975 H   0  0  0  0  0  0
  -26.0192  -38.2907   24.1434 H   0  0  0  0  0  0
  -32.0069  -18.6419   23.7507 H   0  0  0  0  0  0
  -31.1009  -20.4042   22.2811 H   0  0  0  0  0  0
  -31.5501  -16.2558   23.2654 H   0  0  0  0  0  0
  -29.5142  -16.2670   18.9291 H   0  0  0  0  0  0
  -29.3280  -17.9379   18.4930 H   0  0  0  0  0  0
  -28.1083  -17.1621   19.5174 H   0  0  0  0  0  0
  -30.4131  -22.4760   18.1618 H   0  0  0  0  0  0
  -29.0008  -22.5847   19.1946 H   0  0  0  0  0  0
  -31.8090  -23.5934   19.9026 H   0  0  0  0  0  0
  -30.4888  -23.4739   21.0568 H   0  0  0  0  0  0
  -29.8926  -27.4943   19.0212 H   0  0  0  0  0  0
  -29.8194  -27.9642   20.7246 H   0  0  0  0  0  0
  -30.2835  -25.6722   21.4478 H   0  0  0  0  0  0
  -31.5697  -26.1900   20.3632 H   0  0  0  0  0  0
  -29.1694  -15.0281   21.6855 H   0  0  0  0  0  0
  -31.3926  -21.0623   20.1234 H   0  0  0  0  0  0
  1 25  1  0  0  0
  1 30  2  0  0  0
  1 83  1  0  0  0
  2  3  1  0  0  0
  2 25  1  0  0  0
  2 87  1  0  0  0
  2 88  1  0  0  0
  3  4  1  0  0  0
  3 89  1  0  0  0
  3 90  1  0  0  0
  4  5  1  0  0  0
  4 91  1  0  0  0
  4 92  1  0  0  0
  5  6  1  0  0  0
  5 26  1  0  0  0
  5 93  1  0  0  0
  6 25  1  0  0  0
  6 94  1  0  0  0
  6 95  1  0  0  0
  7  8  2  0  0  0
  7 26  1  0  0  0
  7 29  1  0  0  0
  8  9  1  0  0  0
  8 22  1  0  0  0
  9 10  1  0  0  0
  9 27  2  0  0  0
 10 11  2  0  0  0
 10 15  1  0  0  0
 11 12  1  0  0  0
 11 96  1  0  0  0
 12 13  2  0  0  0
 12 97  1  0  0  0
 13 14  1  0  0  0
 13 31  1  0  0  0
 14 15  2  0  0  0
 14 98  1  0  0  0
 15 99  1  0  0  0
 16 17  2  0  0  0
 16 21  1  0  0  0
 16 31  1  0  0  0
 17 18  1  0  0  0
 17100  1  0  0  0
 18 19  2  0  0  0
 18101  1  0  0  0
 19 20  1  0  0  0
 19 24  1  0  0  0
 20 21  2  0  0  0
 20102  1  0  0  0
 21 23  1  0  0  0
 22 28  1  0  0  0
 22 32  2  0  0  0
 26 27  1  0  0  0
 28103  1  0  0  0
 28104  1  0  0  0
 29105  1  0  0  0
 29106  1  0  0  0
 33 34  1  0  0  0
 33 66  1  0  0  0
 33 70  2  0  0  0
 34 36  1  0  0  0
 34 59  1  0  0  0
 34107  1  0  0  0
 35 44  2  0  0  0
 35 45  1  0  0  0
 35 68  1  0  0  0
 36 56  1  0  0  0
 36108  1  0  0  0
 37 39  1  0  0  0
 37 47  1  0  0  0
 37 66  1  0  0  0
 37109  1  0  0  0
 38 43  2  0  0  0
 38 46  1  0  0  0
 38 47  1  0  0  0
 39 64  1  0  0  0
 39 67  2  0  0  0
 40 52  1  0  0  0
 40 53  2  0  0  0
 40 58  1  0  0  0
 41110  1  0  0  0
 41111  1  0  0  0
 41112  1  0  0  0
 41 48  1  0  0  0
 42 43  1  0  0  0
 42 66  1  0  0  0
 42113  1  0  0  0
 42114  1  0  0  0
 43 44  1  0  0  0
 44115  1  0  0  0
 45 46  2  0  0  0
 45116  1  0  0  0
 46117  1  0  0  0
 47118  1  0  0  0
 47119  1  0  0  0
 48 56  1  0  0  0
 48 65  1  0  0  0
 48120  1  0  0  0
 49 50  1  0  0  0
 49 53  1  0  0  0
 49 64  1  0  0  0
 49121  1  0  0  0
 50 51  1  0  0  0
 50122  1  0  0  0
 50123  1  0  0  0
 51 52  1  0  0  0
 51124  1  0  0  0
 51125  1  0  0  0
 52126  1  0  0  0
 52127  1  0  0  0
 53 54  1  0  0  0
 54 55  2  0  0  0
 54128  1  0  0  0
 55 57  1  0  0  0
 55129  1  0  0  0
 56 69  2  0  0  0
 57 58  2  0  0  0
 57130  1  0  0  0
 58131  1  0  0  0
 59 60  1  0  0  0
 59 61  1  0  0  0
 59 62  1  0  0  0
 60132  1  0  0  0
 60133  1  0  0  0
 60134  1  0  0  0
 61135  1  0  0  0
 61136  1  0  0  0
 61137  1  0  0  0
 62138  1  0  0  0
 62139  1  0  0  0
 62140  1  0  0  0
 63 65  1  0  0  0
 63141  1  0  0  0
 63142  1  0  0  0
 63143  1  0  0  0
 64144  1  0  0  0
 65145  1  0  0  0
 68 81  1  0  0  0
 71 72  2  0  0  0
 71 73  1  0  0  0
 71146  1  0  0  0
 72 74  1  0  0  0
 72147  1  0  0  0
 73 76  2  0  0  0
 73148  1  0  0  0
 74 75  2  0  0  0
 74 77  1  0  0  0
 75 76  1  0  0  0
 75 78  1  0  0  0
 76 83  1  0  0  0
 77 84  1  0  0  0
 77 85  2  0  0  0
 78149  1  0  0  0
 78150  1  0  0  0
 78151  1  0  0  0
 79 80  1  0  0  0
 79 84  1  0  0  0
 79152  1  0  0  0
 79153  1  0  0  0
 80 86  1  0  0  0
 80154  1  0  0  0
 80155  1  0  0  0
 81 82  1  0  0  0
 81156  1  0  0  0
 81157  1  0  0  0
 82 86  1  0  0  0
 82158  1  0  0  0
 82159  1  0  0  0
 83160  1  0  0  0
 84161  1  0  0  0
M  ISO  4   1 100  68 101  81 101  83 100
M  END
> <chiral flag>
0

> <version>
0

> <s_m_source_file>
/data/baiqing/PycharmProjects/Reinvent-master-3.2/result/LINK_invent/BTK/process_docking_weight1_custom_product_contain_oxygen_bond_distance_aromatic_linkinvent_7_9_3/rearranged_h_0057.sdf

> <i_m_source_file_index>
62

> <r_mmod_Potential_Energy-OPLS-2005>
-119.062225341797

> <r_mmod_Stretch_Energy-OPLS-2005>
34.1086654663086

> <r_mmod_Bend_Energy-OPLS-2005>
102.296524047852

> <r_mmod_Torsional_Energy-OPLS-2005>
252.576171875

> <r_mmod_Improper_Torsional_Energy-OPLS-2005>
3.57867622375488

> <r_mmod_Van_der_Waal_Energy-OPLS-2005>
160.065216064453

> <r_mmod_Electrostatic_Energy-OPLS-2005>
-437.617126464844

> <r_mmod_Solvation_Energy-OPLS-2005>
-242.851226806641

> <b_mmod_Minimization_Converged-OPLS-2005>
0

> <r_mmod_RMS_Derivative-OPLS-2005>
4.56844663619995

$$$$
63
                    3D
 Structure written by MMmdl.
154162  0  0  1  0            999 V2000
  -30.6738  -14.5492   20.5395 C   0  0  0  0  0  0
  -30.4316  -12.3467   19.4361 C   0  0  0  0  0  0
  -29.5034  -12.4964   18.2128 C   0  0  0  0  0  0
  -28.0247  -12.3462   18.6256 C   0  0  0  0  0  0
  -27.6552  -13.2097   19.8616 C   0  0  2  0  0  0
  -28.6989  -13.0425   20.9893 C   0  0  0  0  0  0
  -25.2552  -13.8162   20.5644 C   0  0  0  0  0  0
  -24.1816  -13.0435   20.9165 C   0  0  0  0  0  0
  -24.6379  -11.6904   20.8722 C   0  0  0  0  0  0
  -23.9043  -10.4290   21.0399 C   0  0  0  0  0  0
  -24.3596   -9.4208   21.9182 C   0  0  0  0  0  0
  -23.6272   -8.2239   22.0757 C   0  0  0  0  0  0
  -22.4262   -8.0268   21.3538 C   0  0  0  0  0  0
  -21.9888   -9.0245   20.4652 C   0  0  0  0  0  0
  -22.7214  -10.2127   20.3053 C   0  0  0  0  0  0
  -21.6849   -6.0722   22.5269 C   0  0  0  0  0  0
  -21.4021   -6.5618   23.8202 C   0  0  0  0  0  0
  -21.3659   -5.6775   24.9163 C   0  0  0  0  0  0
  -21.6044   -4.3038   24.7221 C   0  0  0  0  0  0
  -21.8817   -3.8128   23.4343 C   0  0  0  0  0  0
  -21.9191   -4.6941   22.3396 C   0  0  0  0  0  0
  -22.7836  -13.5229   21.1826 C   0  0  0  0  0  0
  -22.1656   -4.2125   21.0976 F   0  0  0  0  0  0
  -21.5636   -3.4531   25.7740 F   0  0  0  0  0  0
  -30.0203  -13.3574   20.4245 N   0  0  0  0  0  0
  -26.2984  -12.9333   20.3291 N   0  0  0  0  0  0
  -25.9301  -11.6491   20.5726 N   0  0  0  0  0  0
  -22.0467  -12.8247   22.0394 N   0  0  0  0  0  0
  -25.4255  -15.1888   20.4054 N   0  0  0  0  0  0
  -31.8403  -14.6977   20.1635 O   0  0  0  0  0  0
  -21.6623   -6.8861   21.4230 O   0  0  0  0  0  0
  -22.3518  -14.5529   20.6665 O   0  0  0  0  0  0
  -24.6193  -31.8647   23.2061 C   0  0  0  0  0  0
  -25.9071  -32.4801   23.8372 C   0  0  1  0  0  0
  -27.2277  -27.3891   20.1144 C   0  0  0  0  0  0
  -25.5910  -33.8599   24.2306 N   0  0  0  0  0  0
  -23.4089  -30.4878   21.5481 C   0  0  2  0  0  0
  -24.8550  -28.9443   20.1177 C   0  0  0  0  0  0
  -22.7430  -29.4653   22.4978 C   0  0  0  0  0  0
  -18.0278  -28.1375   22.8496 C   0  0  0  0  0  0
  -24.1488  -36.7305   23.2638 C   0  0  0  0  0  0
  -25.9417  -30.8166   21.3659 C   0  0  0  0  0  0
  -26.0178  -29.4455   20.7177 C   0  0  0  0  0  0
  -27.2097  -28.6769   20.7102 C   0  0  0  0  0  0
  -26.0510  -26.9144   19.5013 C   0  0  0  0  0  0
  -24.8688  -27.6800   19.5034 C   0  0  0  0  0  0
  -23.6197  -29.8171   20.1645 C   0  0  0  0  0  0
  -25.4103  -36.3094   24.0338 C   0  0  1  0  0  0
  -20.5872  -28.3672   23.1309 C   0  0  2  0  0  0
  -20.6771  -26.9408   22.5414 C   0  0  0  0  0  0
  -19.5746  -26.6385   21.5216 C   0  0  0  0  0  0
  -18.1925  -26.7921   22.1628 C   0  0  0  0  0  0
  -19.1528  -28.8841   23.2897 C   0  0  0  0  0  0
  -18.9450  -30.1446   23.8910 C   0  0  0  0  0  0
  -17.6450  -30.6583   24.0565 C   0  0  0  0  0  0
  -25.9037  -34.9466   23.5120 C   0  0  0  0  0  0
  -16.5345  -29.9082   23.6323 C   0  0  0  0  0  0
  -16.7265  -28.6496   23.0353 C   0  0  0  0  0  0
  -26.4490  -31.6589   25.0712 C   0  0  0  0  0  0
  -25.3747  -31.3711   26.1459 C   0  0  0  0  0  0
  -27.0327  -30.3022   24.6116 C   0  0  0  0  0  0
  -27.6062  -32.4319   25.7472 C   0  0  0  0  0  0
  -27.5588  -37.1788   24.8456 C   0  0  0  0  0  0
  -21.4154  -29.3033   22.3708 N   0  0  0  0  0  0
  -26.4282  -37.3785   23.9429 N   0  0  0  0  0  0
  -24.6752  -31.0724   22.0975 N   0  0  0  0  0  0
  -23.4186  -28.8201   23.3038 O   0  0  0  0  0  0
  -28.3707  -26.6095   20.0749 O   0  0  0  0  0  0
  -26.5600  -34.8929   22.4682 O   0  0  0  0  0  0
  -23.5378  -32.1423   23.7429 O   0  0  0  0  0  0
  -31.3195  -17.2888   21.9989 C   0  0  0  0  0  0
  -31.6828  -18.6277   22.2396 C   0  0  0  0  0  0
  -29.6447  -18.0607   20.4082 C   0  0  0  0  0  0
  -30.0221  -19.4240   20.6209 C   0  0  0  0  0  0
  -30.3002  -16.9815   21.0729 C   0  0  0  0  0  0
  -31.0553  -19.6880   21.5547 C   0  0  0  0  0  0
  -28.9588  -23.0333   20.0796 C   0  0  0  0  0  0
  -29.4212  -20.5560   19.7463 C   0  0  0  0  0  0
  -27.9228  -24.0814   20.5766 C   0  0  0  0  0  0
  -28.4392  -25.5022   21.0123 C   0  0  0  0  0  0
  -29.8985  -15.6144   20.8712 N   0  0  0  0  0  0
  -28.7728  -21.7248   20.3983 N   0  0  0  0  0  0
  -29.8856  -23.4002   19.3553 O   0  0  0  0  0  0
  -31.6202  -21.2938   21.8576 Cl  0  0  0  0  0  0
  -31.4752  -12.4599   19.1360 H   0  0  0  0  0  0
  -30.3484  -11.3462   19.8639 H   0  0  0  0  0  0
  -29.7587  -11.7531   17.4564 H   0  0  0  0  0  0
  -29.6594  -13.4702   17.7464 H   0  0  0  0  0  0
  -27.8500  -11.2932   18.8500 H   0  0  0  0  0  0
  -27.3713  -12.5915   17.7869 H   0  0  0  0  0  0
  -27.6821  -14.2477   19.5283 H   0  0  0  0  0  0
  -28.6920  -12.0210   21.3720 H   0  0  0  0  0  0
  -28.4572  -13.6790   21.8424 H   0  0  0  0  0  0
  -25.2751   -9.5683   22.4741 H   0  0  0  0  0  0
  -23.9980   -7.4636   22.7482 H   0  0  0  0  0  0
  -21.0812   -8.8765   19.8970 H   0  0  0  0  0  0
  -22.3674  -10.9656   19.6148 H   0  0  0  0  0  0
  -21.2020   -7.6133   23.9697 H   0  0  0  0  0  0
  -21.1482   -6.0508   25.9062 H   0  0  0  0  0  0
  -22.0606   -2.7591   23.2845 H   0  0  0  0  0  0
  -22.4076  -11.9929   22.4822 H   0  0  0  0  0  0
  -21.1092  -13.1304   22.2593 H   0  0  0  0  0  0
  -24.6541  -15.8392   20.5103 H   0  0  0  0  0  0
  -26.2678  -15.6315   20.0611 H   0  0  0  0  0  0
  -26.7142  -32.5500   23.1132 H   0  0  0  0  0  0
  -25.0072  -33.9749   25.0463 H   0  0  0  0  0  0
  -22.6991  -31.3055   21.4057 H   0  0  0  0  0  0
  -23.3748  -35.9637   23.3280 H   0  0  0  0  0  0
  -24.3600  -36.8936   22.2056 H   0  0  0  0  0  0
  -23.7234  -37.6502   23.6664 H   0  0  0  0  0  0
  -26.0608  -31.5793   20.5953 H   0  0  0  0  0  0
  -26.8284  -30.8712   21.9859 H   0  0  0  0  0  0
  -28.1101  -29.0622   21.1684 H   0  0  0  0  0  0
  -26.0467  -25.9514   19.0122 H   0  0  0  0  0  0
  -23.9786  -27.2916   19.0278 H   0  0  0  0  0  0
  -23.7298  -30.5904   19.4032 H   0  0  0  0  0  0
  -22.7424  -29.2390   19.8681 H   0  0  0  0  0  0
  -25.1273  -36.1946   25.0827 H   0  0  0  0  0  0
  -20.9970  -28.3247   24.1430 H   0  0  0  0  0  0
  -20.5688  -26.2282   23.3603 H   0  0  0  0  0  0
  -21.6640  -26.7456   22.1200 H   0  0  0  0  0  0
  -19.6911  -25.6298   21.1237 H   0  0  0  0  0  0
  -19.6679  -27.3202   20.6748 H   0  0  0  0  0  0
  -17.4197  -26.6673   21.4027 H   0  0  0  0  0  0
  -18.0324  -26.0058   22.9020 H   0  0  0  0  0  0
  -19.7929  -30.7256   24.2290 H   0  0  0  0  0  0
  -17.5007  -31.6267   24.5161 H   0  0  0  0  0  0
  -15.5348  -30.2988   23.7633 H   0  0  0  0  0  0
  -15.8666  -28.0812   22.7066 H   0  0  0  0  0  0
  -24.5903  -30.7078   25.7798 H   0  0  0  0  0  0
  -24.8954  -32.2871   26.4921 H   0  0  0  0  0  0
  -25.8093  -30.8863   27.0209 H   0  0  0  0  0  0
  -26.2873  -29.6761   24.1192 H   0  0  0  0  0  0
  -27.4109  -29.7286   25.4591 H   0  0  0  0  0  0
  -27.8709  -30.4331   23.9266 H   0  0  0  0  0  0
  -27.2686  -33.3631   26.2041 H   0  0  0  0  0  0
  -28.3871  -32.6861   25.0290 H   0  0  0  0  0  0
  -28.0730  -31.8440   26.5388 H   0  0  0  0  0  0
  -28.2564  -38.0126   24.7566 H   0  0  0  0  0  0
  -28.1123  -36.2660   24.6192 H   0  0  0  0  0  0
  -27.2324  -37.1333   25.8861 H   0  0  0  0  0  0
  -20.9324  -29.8743   21.6913 H   0  0  0  0  0  0
  -26.0165  -38.2858   24.1448 H   0  0  0  0  0  0
  -31.8258  -16.5023   22.5411 H   0  0  0  0  0  0
  -32.4678  -18.8475   22.9491 H   0  0  0  0  0  0
  -28.8667  -17.8369   19.6915 H   0  0  0  0  0  0
  -28.6827  -20.1152   19.0756 H   0  0  0  0  0  0
  -30.2252  -20.8985   19.0926 H   0  0  0  0  0  0
  -27.4241  -23.6381   21.4391 H   0  0  0  0  0  0
  -27.1496  -24.1779   19.8169 H   0  0  0  0  0  0
  -29.4807  -25.4147   21.3226 H   0  0  0  0  0  0
  -27.9100  -25.7904   21.9227 H   0  0  0  0  0  0
  -28.9136  -15.4193   20.9602 H   0  0  0  0  0  0
  -27.9994  -21.5074   21.0121 H   0  0  0  0  0  0
  1 25  1  0  0  0
  1 30  2  0  0  0
  1 81  1  0  0  0
  2  3  1  0  0  0
  2 25  1  0  0  0
  2 85  1  0  0  0
  2 86  1  0  0  0
  3  4  1  0  0  0
  3 87  1  0  0  0
  3 88  1  0  0  0
  4  5  1  0  0  0
  4 89  1  0  0  0
  4 90  1  0  0  0
  5  6  1  0  0  0
  5 26  1  0  0  0
  5 91  1  0  0  0
  6 25  1  0  0  0
  6 92  1  0  0  0
  6 93  1  0  0  0
  7  8  2  0  0  0
  7 26  1  0  0  0
  7 29  1  0  0  0
  8  9  1  0  0  0
  8 22  1  0  0  0
  9 10  1  0  0  0
  9 27  2  0  0  0
 10 11  2  0  0  0
 10 15  1  0  0  0
 11 12  1  0  0  0
 11 94  1  0  0  0
 12 13  2  0  0  0
 12 95  1  0  0  0
 13 14  1  0  0  0
 13 31  1  0  0  0
 14 15  2  0  0  0
 14 96  1  0  0  0
 15 97  1  0  0  0
 16 17  2  0  0  0
 16 21  1  0  0  0
 16 31  1  0  0  0
 17 18  1  0  0  0
 17 98  1  0  0  0
 18 19  2  0  0  0
 18 99  1  0  0  0
 19 20  1  0  0  0
 19 24  1  0  0  0
 20 21  2  0  0  0
 20100  1  0  0  0
 21 23  1  0  0  0
 22 28  1  0  0  0
 22 32  2  0  0  0
 26 27  1  0  0  0
 28101  1  0  0  0
 28102  1  0  0  0
 29103  1  0  0  0
 29104  1  0  0  0
 33 34  1  0  0  0
 33 66  1  0  0  0
 33 70  2  0  0  0
 34 36  1  0  0  0
 34 59  1  0  0  0
 34105  1  0  0  0
 35 44  2  0  0  0
 35 45  1  0  0  0
 35 68  1  0  0  0
 36 56  1  0  0  0
 36106  1  0  0  0
 37 39  1  0  0  0
 37 47  1  0  0  0
 37 66  1  0  0  0
 37107  1  0  0  0
 38 43  2  0  0  0
 38 46  1  0  0  0
 38 47  1  0  0  0
 39 64  1  0  0  0
 39 67  2  0  0  0
 40 52  1  0  0  0
 40 53  2  0  0  0
 40 58  1  0  0  0
 41108  1  0  0  0
 41109  1  0  0  0
 41110  1  0  0  0
 41 48  1  0  0  0
 42 43  1  0  0  0
 42 66  1  0  0  0
 42111  1  0  0  0
 42112  1  0  0  0
 43 44  1  0  0  0
 44113  1  0  0  0
 45 46  2  0  0  0
 45114  1  0  0  0
 46115  1  0  0  0
 47116  1  0  0  0
 47117  1  0  0  0
 48 56  1  0  0  0
 48 65  1  0  0  0
 48118  1  0  0  0
 49 50  1  0  0  0
 49 53  1  0  0  0
 49 64  1  0  0  0
 49119  1  0  0  0
 50 51  1  0  0  0
 50120  1  0  0  0
 50121  1  0  0  0
 51 52  1  0  0  0
 51122  1  0  0  0
 51123  1  0  0  0
 52124  1  0  0  0
 52125  1  0  0  0
 53 54  1  0  0  0
 54 55  2  0  0  0
 54126  1  0  0  0
 55 57  1  0  0  0
 55127  1  0  0  0
 56 69  2  0  0  0
 57 58  2  0  0  0
 57128  1  0  0  0
 58129  1  0  0  0
 59 60  1  0  0  0
 59 61  1  0  0  0
 59 62  1  0  0  0
 60130  1  0  0  0
 60131  1  0  0  0
 60132  1  0  0  0
 61133  1  0  0  0
 61134  1  0  0  0
 61135  1  0  0  0
 62136  1  0  0  0
 62137  1  0  0  0
 62138  1  0  0  0
 63 65  1  0  0  0
 63139  1  0  0  0
 63140  1  0  0  0
 63141  1  0  0  0
 64142  1  0  0  0
 65143  1  0  0  0
 68 80  1  0  0  0
 71 72  2  0  0  0
 71 75  1  0  0  0
 71144  1  0  0  0
 72 76  1  0  0  0
 72145  1  0  0  0
 73 74  1  0  0  0
 73 75  2  0  0  0
 73146  1  0  0  0
 74 76  2  0  0  0
 74 78  1  0  0  0
 75 81  1  0  0  0
 76 84  1  0  0  0
 77 79  1  0  0  0
 77 82  1  0  0  0
 77 83  2  0  0  0
 78 82  1  0  0  0
 78147  1  0  0  0
 78148  1  0  0  0
 79 80  1  0  0  0
 79149  1  0  0  0
 79150  1  0  0  0
 80151  1  0  0  0
 80152  1  0  0  0
 81153  1  0  0  0
 82154  1  0  0  0
M  ISO  4   1 100  68 101  80 101  81 100
M  END
> <chiral flag>
0

> <version>
0

> <s_m_source_file>
/data/baiqing/PycharmProjects/Reinvent-master-3.2/result/LINK_invent/BTK/process_docking_weight1_custom_product_contain_oxygen_bond_distance_aromatic_linkinvent_7_9_3/rearranged_h_0057.sdf

> <i_m_source_file_index>
63

> <r_mmod_Potential_Energy-OPLS-2005>
-85.3000030517578

> <r_mmod_Stretch_Energy-OPLS-2005>
50.363883972168

> <r_mmod_Bend_Energy-OPLS-2005>
110.669227600098

> <r_mmod_Torsional_Energy-OPLS-2005>
251.30810546875

> <r_mmod_Improper_Torsional_Energy-OPLS-2005>
6.44975852966309

> <r_mmod_Van_der_Waal_Energy-OPLS-2005>
140.406951904297

> <r_mmod_Electrostatic_Energy-OPLS-2005>
-418.462921142578

> <r_mmod_Solvation_Energy-OPLS-2005>
-250.015533447266

> <b_mmod_Minimization_Converged-OPLS-2005>
0

> <r_mmod_RMS_Derivative-OPLS-2005>
1.63230729103088

$$$$
64
                    3D
 Structure written by MMmdl.
164173  0  0  1  0            999 V2000
  -30.7287  -14.4634   20.6138 C   0  0  0  0  0  0
  -30.4181  -12.3200   19.4203 C   0  0  0  0  0  0
  -29.4817  -12.5248   18.2100 C   0  0  0  0  0  0
  -28.0041  -12.3868   18.6262 C   0  0  0  0  0  0
  -27.6619  -13.2167   19.8900 C   0  0  2  0  0  0
  -28.7081  -12.9897   21.0067 C   0  0  0  0  0  0
  -25.2568  -13.8175   20.5758 C   0  0  0  0  0  0
  -24.1818  -13.0453   20.9215 C   0  0  0  0  0  0
  -24.6390  -11.6920   20.8773 C   0  0  0  0  0  0
  -23.9052  -10.4293   21.0443 C   0  0  0  0  0  0
  -24.3591   -9.4188   21.9226 C   0  0  0  0  0  0
  -23.6266   -8.2216   22.0758 C   0  0  0  0  0  0
  -22.4254   -8.0266   21.3537 C   0  0  0  0  0  0
  -21.9906   -9.0244   20.4643 C   0  0  0  0  0  0
  -22.7221  -10.2136   20.3085 C   0  0  0  0  0  0
  -21.6825   -6.0715   22.5286 C   0  0  0  0  0  0
  -21.4003   -6.5624   23.8220 C   0  0  0  0  0  0
  -21.3675   -5.6782   24.9176 C   0  0  0  0  0  0
  -21.6038   -4.3045   24.7237 C   0  0  0  0  0  0
  -21.8819   -3.8133   23.4362 C   0  0  0  0  0  0
  -21.9182   -4.6943   22.3407 C   0  0  0  0  0  0
  -22.7842  -13.5253   21.1837 C   0  0  0  0  0  0
  -22.1650   -4.2124   21.0990 F   0  0  0  0  0  0
  -21.5641   -3.4546   25.7761 F   0  0  0  0  0  0
  -30.0418  -13.2956   20.4579 N   0  0  0  0  0  0
  -26.3024  -12.9364   20.3490 N   0  0  0  0  0  0
  -25.9319  -11.6502   20.5816 N   0  0  0  0  0  0
  -22.0445  -12.8268   22.0386 N   0  0  0  0  0  0
  -25.4324  -15.1892   20.4213 N   0  0  0  0  0  0
  -31.8273  -14.6399   20.0842 O   0  0  0  0  0  0
  -21.6623   -6.8856   21.4239 O   0  0  0  0  0  0
  -22.3539  -14.5539   20.6642 O   0  0  0  0  0  0
  -24.6172  -31.8703   23.2134 C   0  0  0  0  0  0
  -25.9068  -32.4825   23.8438 C   0  0  1  0  0  0
  -27.2112  -27.4005   20.0907 C   0  0  0  0  0  0
  -25.5936  -33.8628   24.2382 N   0  0  0  0  0  0
  -23.4017  -30.5013   21.5550 C   0  0  2  0  0  0
  -24.8417  -28.9731   20.1145 C   0  0  0  0  0  0
  -22.7358  -29.4707   22.4976 C   0  0  0  0  0  0
  -18.0263  -28.1326   22.8428 C   0  0  0  0  0  0
  -24.1477  -36.7308   23.2649 C   0  0  0  0  0  0
  -25.9381  -30.8256   21.3688 C   0  0  0  0  0  0
  -26.0080  -29.4599   20.7145 C   0  0  0  0  0  0
  -27.1916  -28.6790   20.7039 C   0  0  0  0  0  0
  -26.0180  -26.9528   19.4678 C   0  0  0  0  0  0
  -24.8442  -27.7212   19.4900 C   0  0  0  0  0  0
  -23.6050  -29.8403   20.1694 C   0  0  0  0  0  0
  -25.4090  -36.3117   24.0365 C   0  0  1  0  0  0
  -20.5852  -28.3584   23.1228 C   0  0  2  0  0  0
  -20.6754  -26.9370   22.5222 C   0  0  0  0  0  0
  -19.5689  -26.6298   21.5115 C   0  0  0  0  0  0
  -18.1859  -26.7887   22.1501 C   0  0  0  0  0  0
  -19.1529  -28.8761   23.2878 C   0  0  0  0  0  0
  -18.9455  -30.1346   23.8978 C   0  0  0  0  0  0
  -17.6461  -30.6479   24.0622 C   0  0  0  0  0  0
  -25.9015  -34.9463   23.5162 C   0  0  0  0  0  0
  -16.5365  -29.9017   23.6277 C   0  0  0  0  0  0
  -16.7272  -28.6459   23.0217 C   0  0  0  0  0  0
  -26.4462  -31.6591   25.0772 C   0  0  0  0  0  0
  -25.3723  -31.3708   26.1535 C   0  0  0  0  0  0
  -27.0298  -30.3036   24.6127 C   0  0  0  0  0  0
  -27.6032  -32.4316   25.7545 C   0  0  0  0  0  0
  -27.5568  -37.1824   24.8474 C   0  0  0  0  0  0
  -21.4096  -29.2977   22.3661 N   0  0  0  0  0  0
  -26.4270  -37.3803   23.9422 N   0  0  0  0  0  0
  -24.6726  -31.0800   22.1035 N   0  0  0  0  0  0
  -23.4120  -28.8287   23.3086 O   0  0  0  0  0  0
  -28.3753  -26.6429   20.1459 O   0  0  0  0  0  0
  -26.5551  -34.8913   22.4702 O   0  0  0  0  0  0
  -23.5375  -32.1471   23.7521 O   0  0  0  0  0  0
  -31.7013  -18.8307   20.9384 C   0  0  0  0  0  0
  -30.6361  -19.6790   21.2684 C   0  0  0  0  0  0
  -31.5380  -17.4385   20.9754 C   0  0  0  0  0  0
  -29.3883  -19.1460   21.6525 C   0  0  0  0  0  0
  -29.2325  -17.7227   21.7329 C   0  0  0  0  0  0
  -30.3003  -16.8540   21.3433 C   0  0  0  0  0  0
  -28.5635  -22.5769   22.3713 C   0  0  0  0  0  0
  -28.4444  -24.0061   21.7955 C   0  0  0  0  0  0
  -29.2127  -22.9035   19.5959 C   0  0  0  0  0  0
  -28.2590  -21.7899   20.0841 C   0  0  0  0  0  0
  -29.1186  -24.2228   20.4127 C   0  0  1  0  0  0
  -27.9208  -17.1246   22.2479 C   0  0  0  0  0  0
  -28.2364  -20.1219   21.9601 C   0  0  0  0  0  0
  -28.4219  -25.3221   19.5614 C   0  0  0  0  0  0
  -28.4023  -21.5328   21.5223 N   0  0  0  0  0  0
  -30.0968  -15.4263   21.3281 N   0  0  0  0  0  0
  -28.7451  -22.4338   23.5850 O   0  0  0  0  0  0
  -31.4571  -12.4241   19.1049 H   0  0  0  0  0  0
  -30.3326  -11.3034   19.8074 H   0  0  0  0  0  0
  -29.7090  -11.8011   17.4284 H   0  0  0  0  0  0
  -29.6459  -13.5115   17.7740 H   0  0  0  0  0  0
  -27.8047  -11.3308   18.8065 H   0  0  0  0  0  0
  -27.3540  -12.6760   17.8022 H   0  0  0  0  0  0
  -27.7098  -14.2662   19.5993 H   0  0  0  0  0  0
  -28.6820  -11.9527   21.3433 H   0  0  0  0  0  0
  -28.4650  -13.5803   21.8888 H   0  0  0  0  0  0
  -25.2716   -9.5640   22.4825 H   0  0  0  0  0  0
  -23.9963   -7.4595   22.7469 H   0  0  0  0  0  0
  -21.0847   -8.8761   19.8928 H   0  0  0  0  0  0
  -22.3686  -10.9686   19.6206 H   0  0  0  0  0  0
  -21.1994   -7.6136   23.9727 H   0  0  0  0  0  0
  -21.1500   -6.0512   25.9087 H   0  0  0  0  0  0
  -22.0586   -2.7597   23.2875 H   0  0  0  0  0  0
  -22.4021  -11.9921   22.4773 H   0  0  0  0  0  0
  -21.1077  -13.1333   22.2564 H   0  0  0  0  0  0
  -24.6838  -15.8541   20.5780 H   0  0  0  0  0  0
  -26.2935  -15.6225   20.1188 H   0  0  0  0  0  0
  -26.7141  -32.5489   23.1213 H   0  0  0  0  0  0
  -25.0135  -33.9776   25.0568 H   0  0  0  0  0  0
  -22.6954  -31.3231   21.4200 H   0  0  0  0  0  0
  -23.3738  -35.9640   23.3310 H   0  0  0  0  0  0
  -24.3586  -36.8903   22.2060 H   0  0  0  0  0  0
  -23.7200  -37.6520   23.6631 H   0  0  0  0  0  0
  -26.0516  -31.5908   20.6004 H   0  0  0  0  0  0
  -26.8270  -30.8796   21.9861 H   0  0  0  0  0  0
  -28.0912  -29.0489   21.1779 H   0  0  0  0  0  0
  -25.9180  -26.0173   18.9449 H   0  0  0  0  0  0
  -23.9497  -27.3421   19.0168 H   0  0  0  0  0  0
  -23.7042  -30.6171   19.4100 H   0  0  0  0  0  0
  -22.7297  -29.2572   19.8786 H   0  0  0  0  0  0
  -25.1254  -36.2004   25.0859 H   0  0  0  0  0  0
  -20.9951  -28.3089   24.1346 H   0  0  0  0  0  0
  -20.5816  -26.2184   23.3371 H   0  0  0  0  0  0
  -21.6602  -26.7542   22.0897 H   0  0  0  0  0  0
  -19.6865  -25.6197   21.1114 H   0  0  0  0  0  0
  -19.6581  -27.3072   20.6612 H   0  0  0  0  0  0
  -17.4192  -26.6791   21.3829 H   0  0  0  0  0  0
  -18.0121  -25.9911   22.8738 H   0  0  0  0  0  0
  -19.7947  -30.7125   24.2381 H   0  0  0  0  0  0
  -17.5031  -31.6149   24.5265 H   0  0  0  0  0  0
  -15.5364  -30.2979   23.7461 H   0  0  0  0  0  0
  -15.8719  -28.0792   22.6792 H   0  0  0  0  0  0
  -24.5917  -30.7017   25.7909 H   0  0  0  0  0  0
  -24.8888  -32.2865   26.4951 H   0  0  0  0  0  0
  -25.8096  -30.8939   27.0307 H   0  0  0  0  0  0
  -26.2860  -29.6858   24.1080 H   0  0  0  0  0  0
  -27.3988  -29.7225   25.4574 H   0  0  0  0  0  0
  -27.8724  -30.4397   23.9344 H   0  0  0  0  0  0
  -27.2649  -33.3630   26.2099 H   0  0  0  0  0  0
  -28.3861  -32.6835   25.0383 H   0  0  0  0  0  0
  -28.0656  -31.8434   26.5489 H   0  0  0  0  0  0
  -28.2608  -38.0105   24.7515 H   0  0  0  0  0  0
  -28.1050  -36.2634   24.6303 H   0  0  0  0  0  0
  -27.2302  -37.1490   25.8889 H   0  0  0  0  0  0
  -20.9251  -29.8506   21.6744 H   0  0  0  0  0  0
  -26.0176  -38.2891   24.1420 H   0  0  0  0  0  0
  -32.6476  -19.2576   20.6395 H   0  0  0  0  0  0
  -30.7979  -20.7461   21.2169 H   0  0  0  0  0  0
  -32.3937  -16.8392   20.7131 H   0  0  0  0  0  0
  -28.8525  -24.7208   22.5098 H   0  0  0  0  0  0
  -27.3800  -24.2317   21.7345 H   0  0  0  0  0  0
  -29.0179  -23.0825   18.5368 H   0  0  0  0  0  0
  -30.2375  -22.5291   19.6334 H   0  0  0  0  0  0
  -28.4502  -20.8836   19.5106 H   0  0  0  0  0  0
  -27.2217  -22.0644   19.8834 H   0  0  0  0  0  0
  -30.1384  -24.5630   20.5970 H   0  0  0  0  0  0
  -27.7677  -16.0890   21.9525 H   0  0  0  0  0  0
  -27.0447  -17.6516   21.8776 H   0  0  0  0  0  0
  -27.8969  -17.1480   23.3395 H   0  0  0  0  0  0
  -28.0171  -20.0594   23.0294 H   0  0  0  0  0  0
  -27.3432  -19.7613   21.4525 H   0  0  0  0  0  0
  -27.4630  -24.8917   19.3029 H   0  0  0  0  0  0
  -28.9540  -25.4367   18.6156 H   0  0  0  0  0  0
  -29.2279  -15.1160   21.7346 H   0  0  0  0  0  0
  1 25  1  0  0  0
  1 30  2  0  0  0
  1 86  1  0  0  0
  2  3  1  0  0  0
  2 25  1  0  0  0
  2 88  1  0  0  0
  2 89  1  0  0  0
  3  4  1  0  0  0
  3 90  1  0  0  0
  3 91  1  0  0  0
  4  5  1  0  0  0
  4 92  1  0  0  0
  4 93  1  0  0  0
  5  6  1  0  0  0
  5 26  1  0  0  0
  5 94  1  0  0  0
  6 25  1  0  0  0
  6 95  1  0  0  0
  6 96  1  0  0  0
  7  8  2  0  0  0
  7 26  1  0  0  0
  7 29  1  0  0  0
  8  9  1  0  0  0
  8 22  1  0  0  0
  9 10  1  0  0  0
  9 27  2  0  0  0
 10 11  2  0  0  0
 10 15  1  0  0  0
 11 12  1  0  0  0
 11 97  1  0  0  0
 12 13  2  0  0  0
 12 98  1  0  0  0
 13 14  1  0  0  0
 13 31  1  0  0  0
 14 15  2  0  0  0
 14 99  1  0  0  0
 15100  1  0  0  0
 16 17  2  0  0  0
 16 21  1  0  0  0
 16 31  1  0  0  0
 17 18  1  0  0  0
 17101  1  0  0  0
 18 19  2  0  0  0
 18102  1  0  0  0
 19 20  1  0  0  0
 19 24  1  0  0  0
 20 21  2  0  0  0
 20103  1  0  0  0
 21 23  1  0  0  0
 22 28  1  0  0  0
 22 32  2  0  0  0
 26 27  1  0  0  0
 28104  1  0  0  0
 28105  1  0  0  0
 29106  1  0  0  0
 29107  1  0  0  0
 33 34  1  0  0  0
 33 66  1  0  0  0
 33 70  2  0  0  0
 34 36  1  0  0  0
 34 59  1  0  0  0
 34108  1  0  0  0
 35 44  2  0  0  0
 35 45  1  0  0  0
 35 68  1  0  0  0
 36 56  1  0  0  0
 36109  1  0  0  0
 37 39  1  0  0  0
 37 47  1  0  0  0
 37 66  1  0  0  0
 37110  1  0  0  0
 38 43  2  0  0  0
 38 46  1  0  0  0
 38 47  1  0  0  0
 39 64  1  0  0  0
 39 67  2  0  0  0
 40 52  1  0  0  0
 40 53  2  0  0  0
 40 58  1  0  0  0
 41111  1  0  0  0
 41112  1  0  0  0
 41113  1  0  0  0
 41 48  1  0  0  0
 42 43  1  0  0  0
 42 66  1  0  0  0
 42114  1  0  0  0
 42115  1  0  0  0
 43 44  1  0  0  0
 44116  1  0  0  0
 45 46  2  0  0  0
 45117  1  0  0  0
 46118  1  0  0  0
 47119  1  0  0  0
 47120  1  0  0  0
 48 56  1  0  0  0
 48 65  1  0  0  0
 48121  1  0  0  0
 49 50  1  0  0  0
 49 53  1  0  0  0
 49 64  1  0  0  0
 49122  1  0  0  0
 50 51  1  0  0  0
 50123  1  0  0  0
 50124  1  0  0  0
 51 52  1  0  0  0
 51125  1  0  0  0
 51126  1  0  0  0
 52127  1  0  0  0
 52128  1  0  0  0
 53 54  1  0  0  0
 54 55  2  0  0  0
 54129  1  0  0  0
 55 57  1  0  0  0
 55130  1  0  0  0
 56 69  2  0  0  0
 57 58  2  0  0  0
 57131  1  0  0  0
 58132  1  0  0  0
 59 60  1  0  0  0
 59 61  1  0  0  0
 59 62  1  0  0  0
 60133  1  0  0  0
 60134  1  0  0  0
 60135  1  0  0  0
 61136  1  0  0  0
 61137  1  0  0  0
 61138  1  0  0  0
 62139  1  0  0  0
 62140  1  0  0  0
 62141  1  0  0  0
 63 65  1  0  0  0
 63142  1  0  0  0
 63143  1  0  0  0
 63144  1  0  0  0
 64145  1  0  0  0
 65146  1  0  0  0
 68 84  1  0  0  0
 71 72  2  0  0  0
 71 73  1  0  0  0
 71147  1  0  0  0
 72 74  1  0  0  0
 72148  1  0  0  0
 73 76  2  0  0  0
 73149  1  0  0  0
 74 75  2  0  0  0
 74 83  1  0  0  0
 75 76  1  0  0  0
 75 82  1  0  0  0
 76 86  1  0  0  0
 77 78  1  0  0  0
 77 85  1  0  0  0
 77 87  2  0  0  0
 78 81  1  0  0  0
 78150  1  0  0  0
 78151  1  0  0  0
 79 80  1  0  0  0
 79 81  1  0  0  0
 79152  1  0  0  0
 79153  1  0  0  0
 80 85  1  0  0  0
 80154  1  0  0  0
 80155  1  0  0  0
 81 84  1  0  0  0
 81156  1  0  0  0
 82157  1  0  0  0
 82158  1  0  0  0
 82159  1  0  0  0
 83 85  1  0  0  0
 83160  1  0  0  0
 83161  1  0  0  0
 84162  1  0  0  0
 84163  1  0  0  0
 86164  1  0  0  0
M  ISO  4   1 100  68 101  84 101  86 100
M  END
> <chiral flag>
0

> <version>
0

> <s_m_source_file>
/data/baiqing/PycharmProjects/Reinvent-master-3.2/result/LINK_invent/BTK/process_docking_weight1_custom_product_contain_oxygen_bond_distance_aromatic_linkinvent_7_9_3/rearranged_h_0057.sdf

> <i_m_source_file_index>
64

> <r_mmod_Potential_Energy-OPLS-2005>
-26.7871284484863

> <r_mmod_Stretch_Energy-OPLS-2005>
50.6972732543945

> <r_mmod_Bend_Energy-OPLS-2005>
120.145149230957

> <r_mmod_Torsional_Energy-OPLS-2005>
240.209503173828

> <r_mmod_Improper_Torsional_Energy-OPLS-2005>
2.92887544631958

> <r_mmod_Van_der_Waal_Energy-OPLS-2005>
179.788070678711

> <r_mmod_Electrostatic_Energy-OPLS-2005>
-408.738037109375

> <r_mmod_Solvation_Energy-OPLS-2005>
-227.783813476562

> <b_mmod_Minimization_Converged-OPLS-2005>
0

> <r_mmod_RMS_Derivative-OPLS-2005>
5.43968534469604

$$$$
65
                    3D
 Structure written by MMmdl.
157165  0  0  1  0            999 V2000
  -30.6207  -14.7529   20.4880 C   0  0  0  0  0  0
  -30.4370  -12.4680   19.4694 C   0  0  0  0  0  0
  -29.5127  -12.5172   18.2325 C   0  0  0  0  0  0
  -28.0392  -12.3348   18.6483 C   0  0  0  0  0  0
  -27.6426  -13.2321   19.8487 C   0  0  2  0  0  0
  -28.6891  -13.1762   20.9826 C   0  0  0  0  0  0
  -25.2508  -13.8172   20.5708 C   0  0  0  0  0  0
  -24.1793  -13.0422   20.9201 C   0  0  0  0  0  0
  -24.6351  -11.6895   20.8706 C   0  0  0  0  0  0
  -23.9003  -10.4274   21.0371 C   0  0  0  0  0  0
  -24.3560   -9.4221   21.9170 C   0  0  0  0  0  0
  -23.6268   -8.2227   22.0736 C   0  0  0  0  0  0
  -22.4269   -8.0244   21.3523 C   0  0  0  0  0  0
  -21.9880   -9.0208   20.4623 C   0  0  0  0  0  0
  -22.7159  -10.2102   20.3028 C   0  0  0  0  0  0
  -21.6841   -6.0712   22.5260 C   0  0  0  0  0  0
  -21.4016   -6.5632   23.8195 C   0  0  0  0  0  0
  -21.3664   -5.6786   24.9167 C   0  0  0  0  0  0
  -21.6048   -4.3040   24.7213 C   0  0  0  0  0  0
  -21.8826   -3.8121   23.4327 C   0  0  0  0  0  0
  -21.9193   -4.6947   22.3380 C   0  0  0  0  0  0
  -22.7817  -13.5221   21.1863 C   0  0  0  0  0  0
  -22.1656   -4.2132   21.0949 F   0  0  0  0  0  0
  -21.5643   -3.4520   25.7723 F   0  0  0  0  0  0
  -29.9881  -13.5321   20.3980 N   0  0  0  0  0  0
  -26.2927  -12.9385   20.3261 N   0  0  0  0  0  0
  -25.9288  -11.6519   20.5705 N   0  0  0  0  0  0
  -22.0435  -12.8213   22.0407 N   0  0  0  0  0  0
  -25.4216  -15.1897   20.4137 N   0  0  0  0  0  0
  -31.8143  -14.8406   20.1825 O   0  0  0  0  0  0
  -21.6622   -6.8853   21.4218 O   0  0  0  0  0  0
  -22.3515  -14.5527   20.6711 O   0  0  0  0  0  0
  -24.6338  -31.8553   23.1955 C   0  0  0  0  0  0
  -25.9151  -32.4752   23.8322 C   0  0  1  0  0  0
  -27.2286  -27.2622   20.1548 C   0  0  0  0  0  0
  -25.5936  -33.8549   24.2259 N   0  0  0  0  0  0
  -23.4305  -30.4762   21.5399 C   0  0  2  0  0  0
  -24.8798  -28.9140   20.1159 C   0  0  0  0  0  0
  -22.7523  -29.4613   22.4912 C   0  0  0  0  0  0
  -18.0304  -28.1375   22.8486 C   0  0  0  0  0  0
  -24.1496  -36.7292   23.2635 C   0  0  0  0  0  0
  -25.9750  -30.7713   21.3731 C   0  0  0  0  0  0
  -26.0507  -29.3907   20.7200 C   0  0  0  0  0  0
  -27.2312  -28.5817   20.7186 C   0  0  0  0  0  0
  -26.0381  -26.8436   19.5242 C   0  0  0  0  0  0
  -24.8791  -27.6494   19.5021 C   0  0  0  0  0  0
  -23.6498  -29.8024   20.1587 C   0  0  0  0  0  0
  -25.4119  -36.3061   24.0343 C   0  0  1  0  0  0
  -20.5911  -28.3694   23.1264 C   0  0  2  0  0  0
  -20.6788  -26.9406   22.5402 C   0  0  0  0  0  0
  -19.5758  -26.6382   21.5203 C   0  0  0  0  0  0
  -18.1942  -26.7923   22.1618 C   0  0  0  0  0  0
  -19.1552  -28.8850   23.2872 C   0  0  0  0  0  0
  -18.9474  -30.1453   23.8885 C   0  0  0  0  0  0
  -17.6467  -30.6571   24.0553 C   0  0  0  0  0  0
  -25.9065  -34.9435   23.5101 C   0  0  0  0  0  0
  -16.5359  -29.9065   23.6322 C   0  0  0  0  0  0
  -16.7283  -28.6486   23.0344 C   0  0  0  0  0  0
  -26.4502  -31.6561   25.0714 C   0  0  0  0  0  0
  -25.3721  -31.3698   26.1432 C   0  0  0  0  0  0
  -27.0341  -30.2974   24.6188 C   0  0  0  0  0  0
  -27.6074  -32.4288   25.7479 C   0  0  0  0  0  0
  -27.5603  -37.1781   24.8451 C   0  0  0  0  0  0
  -21.4230  -29.3035   22.3648 N   0  0  0  0  0  0
  -26.4280  -37.3777   23.9428 N   0  0  0  0  0  0
  -24.6987  -31.0530   22.0927 N   0  0  0  0  0  0
  -23.4214  -28.8177   23.3030 O   0  0  0  0  0  0
  -28.3298  -26.3796   20.1708 O   0  0  0  0  0  0
  -26.5648  -34.8920   22.4674 O   0  0  0  0  0  0
  -23.5487  -32.1360   23.7256 O   0  0  0  0  0  0
  -31.3684  -17.6036   21.6515 C   0  0  0  0  0  0
  -29.4485  -18.4753   20.4677 C   0  0  0  0  0  0
  -31.7483  -18.9296   21.9704 C   0  0  0  0  0  0
  -29.8137  -19.8635   20.7380 C   0  0  0  0  0  0
  -31.0089  -20.0539   21.4943 C   0  0  0  0  0  0
  -30.2185  -17.3155   20.8900 C   0  0  0  0  0  0
  -28.6656  -23.7159   20.0804 C   0  0  0  0  0  0
  -32.9846  -19.1061   22.8480 C   0  0  0  0  0  0
  -31.5310  -21.4606   21.7754 C   0  0  0  0  0  0
  -28.9830  -21.0935   20.1182 C   0  0  0  0  0  0
  -28.1829  -25.0423   20.8501 C   0  0  0  0  0  0
  -29.8424  -15.8937   20.6559 N   0  0  0  0  0  0
  -28.8562  -22.4972   20.7289 N   0  0  0  0  0  0
  -28.8194  -23.7852   18.8589 O   0  0  0  0  0  0
  -31.4753  -12.5988   19.1649 H   0  0  0  0  0  0
  -30.3847  -11.4902   19.9522 H   0  0  0  0  0  0
  -29.7998  -11.7502   17.5111 H   0  0  0  0  0  0
  -29.6334  -13.4766   17.7258 H   0  0  0  0  0  0
  -27.8950  -11.2869   18.9114 H   0  0  0  0  0  0
  -27.3794  -12.5327   17.8025 H   0  0  0  0  0  0
  -27.6334  -14.2504   19.4612 H   0  0  0  0  0  0
  -28.7298  -12.1814   21.4262 H   0  0  0  0  0  0
  -28.4229  -13.8600   21.7870 H   0  0  0  0  0  0
  -25.2693   -9.5737   22.4764 H   0  0  0  0  0  0
  -24.0007   -7.4625   22.7464 H   0  0  0  0  0  0
  -21.0803   -8.8644   19.8956 H   0  0  0  0  0  0
  -22.3545  -10.9615   19.6138 H   0  0  0  0  0  0
  -21.2001   -7.6151   23.9687 H   0  0  0  0  0  0
  -21.1499   -6.0516   25.9073 H   0  0  0  0  0  0
  -22.0612   -2.7586   23.2782 H   0  0  0  0  0  0
  -22.4033  -11.9875   22.4822 H   0  0  0  0  0  0
  -21.1045  -13.1264   22.2553 H   0  0  0  0  0  0
  -24.6599  -15.8446   20.5557 H   0  0  0  0  0  0
  -26.2541  -15.6278   20.0424 H   0  0  0  0  0  0
  -26.7223  -32.5396   23.1075 H   0  0  0  0  0  0
  -25.0057  -33.9662   25.0380 H   0  0  0  0  0  0
  -22.7271  -31.2979   21.3895 H   0  0  0  0  0  0
  -23.3766  -35.9616   23.3271 H   0  0  0  0  0  0
  -24.3600  -36.8937   22.2062 H   0  0  0  0  0  0
  -23.7237  -37.6482   23.6676 H   0  0  0  0  0  0
  -26.1127  -31.5268   20.5992 H   0  0  0  0  0  0
  -26.8554  -30.8232   22.0030 H   0  0  0  0  0  0
  -28.1337  -28.9504   21.1865 H   0  0  0  0  0  0
  -26.0019  -25.8696   19.0568 H   0  0  0  0  0  0
  -23.9838  -27.2793   19.0216 H   0  0  0  0  0  0
  -23.7765  -30.5748   19.3987 H   0  0  0  0  0  0
  -22.7688  -29.2353   19.8546 H   0  0  0  0  0  0
  -25.1287  -36.1915   25.0830 H   0  0  0  0  0  0
  -21.0006  -28.3259   24.1385 H   0  0  0  0  0  0
  -20.5669  -26.2303   23.3609 H   0  0  0  0  0  0
  -21.6653  -26.7415   22.1209 H   0  0  0  0  0  0
  -19.6920  -25.6289   21.1234 H   0  0  0  0  0  0
  -19.6695  -27.3188   20.6735 H   0  0  0  0  0  0
  -17.4220  -26.6682   21.4008 H   0  0  0  0  0  0
  -18.0328  -26.0051   22.8998 H   0  0  0  0  0  0
  -19.7943  -30.7270   24.2250 H   0  0  0  0  0  0
  -17.5014  -31.6251   24.5159 H   0  0  0  0  0  0
  -15.5355  -30.2955   23.7648 H   0  0  0  0  0  0
  -15.8698  -28.0799   22.7052 H   0  0  0  0  0  0
  -24.5903  -30.7047   25.7748 H   0  0  0  0  0  0
  -24.8894  -32.2853   26.4864 H   0  0  0  0  0  0
  -25.8033  -30.8862   27.0209 H   0  0  0  0  0  0
  -26.2900  -29.6714   24.1252 H   0  0  0  0  0  0
  -27.4060  -29.7252   25.4701 H   0  0  0  0  0  0
  -27.8771  -30.4251   23.9393 H   0  0  0  0  0  0
  -27.2710  -33.3601   26.2054 H   0  0  0  0  0  0
  -28.3882  -32.6830   25.0295 H   0  0  0  0  0  0
  -28.0753  -31.8405   26.5387 H   0  0  0  0  0  0
  -28.2557  -38.0140   24.7586 H   0  0  0  0  0  0
  -28.1154  -36.2676   24.6148 H   0  0  0  0  0  0
  -27.2342  -37.1284   25.8850 H   0  0  0  0  0  0
  -20.9432  -29.8719   21.6818 H   0  0  0  0  0  0
  -26.0169  -38.2849   24.1440 H   0  0  0  0  0  0
  -31.9717  -16.7865   22.0240 H   0  0  0  0  0  0
  -28.5540  -18.3011   19.8856 H   0  0  0  0  0  0
  -33.2749  -18.1749   23.3375 H   0  0  0  0  0  0
  -32.8014  -19.8314   23.6428 H   0  0  0  0  0  0
  -33.8388  -19.4416   22.2591 H   0  0  0  0  0  0
  -32.5920  -21.4839   22.0190 H   0  0  0  0  0  0
  -30.9898  -21.9051   22.6100 H   0  0  0  0  0  0
  -31.4272  -22.1048   20.9037 H   0  0  0  0  0  0
  -27.9575  -20.7424   19.9925 H   0  0  0  0  0  0
  -29.3564  -21.2150   19.1006 H   0  0  0  0  0  0
  -28.7407  -25.0992   21.7857 H   0  0  0  0  0  0
  -27.1436  -24.8858   21.1420 H   0  0  0  0  0  0
  -28.8507  -15.7155   20.6332 H   0  0  0  0  0  0
  -28.7641  -22.5181   21.7354 H   0  0  0  0  0  0
  1 25  1  0  0  0
  1 30  2  0  0  0
  1 82  1  0  0  0
  2  3  1  0  0  0
  2 25  1  0  0  0
  2 85  1  0  0  0
  2 86  1  0  0  0
  3  4  1  0  0  0
  3 87  1  0  0  0
  3 88  1  0  0  0
  4  5  1  0  0  0
  4 89  1  0  0  0
  4 90  1  0  0  0
  5  6  1  0  0  0
  5 26  1  0  0  0
  5 91  1  0  0  0
  6 25  1  0  0  0
  6 92  1  0  0  0
  6 93  1  0  0  0
  7  8  2  0  0  0
  7 26  1  0  0  0
  7 29  1  0  0  0
  8  9  1  0  0  0
  8 22  1  0  0  0
  9 10  1  0  0  0
  9 27  2  0  0  0
 10 11  2  0  0  0
 10 15  1  0  0  0
 11 12  1  0  0  0
 11 94  1  0  0  0
 12 13  2  0  0  0
 12 95  1  0  0  0
 13 14  1  0  0  0
 13 31  1  0  0  0
 14 15  2  0  0  0
 14 96  1  0  0  0
 15 97  1  0  0  0
 16 17  2  0  0  0
 16 21  1  0  0  0
 16 31  1  0  0  0
 17 18  1  0  0  0
 17 98  1  0  0  0
 18 19  2  0  0  0
 18 99  1  0  0  0
 19 20  1  0  0  0
 19 24  1  0  0  0
 20 21  2  0  0  0
 20100  1  0  0  0
 21 23  1  0  0  0
 22 28  1  0  0  0
 22 32  2  0  0  0
 26 27  1  0  0  0
 28101  1  0  0  0
 28102  1  0  0  0
 29103  1  0  0  0
 29104  1  0  0  0
 33 34  1  0  0  0
 33 66  1  0  0  0
 33 70  2  0  0  0
 34 36  1  0  0  0
 34 59  1  0  0  0
 34105  1  0  0  0
 35 44  2  0  0  0
 35 45  1  0  0  0
 35 68  1  0  0  0
 36 56  1  0  0  0
 36106  1  0  0  0
 37 39  1  0  0  0
 37 47  1  0  0  0
 37 66  1  0  0  0
 37107  1  0  0  0
 38 43  2  0  0  0
 38 46  1  0  0  0
 38 47  1  0  0  0
 39 64  1  0  0  0
 39 67  2  0  0  0
 40 52  1  0  0  0
 40 53  2  0  0  0
 40 58  1  0  0  0
 41108  1  0  0  0
 41109  1  0  0  0
 41110  1  0  0  0
 41 48  1  0  0  0
 42 43  1  0  0  0
 42 66  1  0  0  0
 42111  1  0  0  0
 42112  1  0  0  0
 43 44  1  0  0  0
 44113  1  0  0  0
 45 46  2  0  0  0
 45114  1  0  0  0
 46115  1  0  0  0
 47116  1  0  0  0
 47117  1  0  0  0
 48 56  1  0  0  0
 48 65  1  0  0  0
 48118  1  0  0  0
 49 50  1  0  0  0
 49 53  1  0  0  0
 49 64  1  0  0  0
 49119  1  0  0  0
 50 51  1  0  0  0
 50120  1  0  0  0
 50121  1  0  0  0
 51 52  1  0  0  0
 51122  1  0  0  0
 51123  1  0  0  0
 52124  1  0  0  0
 52125  1  0  0  0
 53 54  1  0  0  0
 54 55  2  0  0  0
 54126  1  0  0  0
 55 57  1  0  0  0
 55127  1  0  0  0
 56 69  2  0  0  0
 57 58  2  0  0  0
 57128  1  0  0  0
 58129  1  0  0  0
 59 60  1  0  0  0
 59 61  1  0  0  0
 59 62  1  0  0  0
 60130  1  0  0  0
 60131  1  0  0  0
 60132  1  0  0  0
 61133  1  0  0  0
 61134  1  0  0  0
 61135  1  0  0  0
 62136  1  0  0  0
 62137  1  0  0  0
 62138  1  0  0  0
 63 65  1  0  0  0
 63139  1  0  0  0
 63140  1  0  0  0
 63141  1  0  0  0
 64142  1  0  0  0
 65143  1  0  0  0
 68 81  1  0  0  0
 71 73  2  0  0  0
 71 76  1  0  0  0
 71144  1  0  0  0
 72 74  1  0  0  0
 72 76  2  0  0  0
 72145  1  0  0  0
 73 75  1  0  0  0
 73 78  1  0  0  0
 74 75  2  0  0  0
 74 80  1  0  0  0
 75 79  1  0  0  0
 76 82  1  0  0  0
 77 81  1  0  0  0
 77 83  1  0  0  0
 77 84  2  0  0  0
 78146  1  0  0  0
 78147  1  0  0  0
 78148  1  0  0  0
 79149  1  0  0  0
 79150  1  0  0  0
 79151  1  0  0  0
 80 83  1  0  0  0
 80152  1  0  0  0
 80153  1  0  0  0
 81154  1  0  0  0
 81155  1  0  0  0
 82156  1  0  0  0
 83157  1  0  0  0
M  ISO  4   1 100  68 101  81 101  82 100
M  END
> <chiral flag>
0

> <version>
0

> <s_m_source_file>
/data/baiqing/PycharmProjects/Reinvent-master-3.2/result/LINK_invent/BTK/process_docking_weight1_custom_product_contain_oxygen_bond_distance_aromatic_linkinvent_7_9_3/rearranged_h_0057.sdf

> <i_m_source_file_index>
65

> <r_mmod_Potential_Energy-OPLS-2005>
103.968574523926

> <r_mmod_Stretch_Energy-OPLS-2005>
130.213897705078

> <r_mmod_Bend_Energy-OPLS-2005>
161.319885253906

> <r_mmod_Torsional_Energy-OPLS-2005>
240.704925537109

> <r_mmod_Improper_Torsional_Energy-OPLS-2005>
7.04090309143066

> <r_mmod_Van_der_Waal_Energy-OPLS-2005>
139.657852172852

> <r_mmod_Electrostatic_Energy-OPLS-2005>
-416.556304931641

> <r_mmod_Solvation_Energy-OPLS-2005>
-244.505798339844

> <b_mmod_Minimization_Converged-OPLS-2005>
0

> <r_mmod_RMS_Derivative-OPLS-2005>
3.38411283493042

$$$$
66
                    3D
 Structure written by MMmdl.
154162  0  0  1  0            999 V2000
  -30.7128  -14.4735   20.6152 C   0  0  0  0  0  0
  -30.4225  -12.3270   19.4206 C   0  0  0  0  0  0
  -29.4924  -12.5089   18.2036 C   0  0  0  0  0  0
  -28.0142  -12.3581   18.6153 C   0  0  0  0  0  0
  -27.6568  -13.2048   19.8666 C   0  0  2  0  0  0
  -28.6957  -12.9958   20.9905 C   0  0  0  0  0  0
  -25.2575  -13.8157   20.5665 C   0  0  0  0  0  0
  -24.1821  -13.0434   20.9148 C   0  0  0  0  0  0
  -24.6371  -11.6901   20.8704 C   0  0  0  0  0  0
  -23.9035  -10.4288   21.0386 C   0  0  0  0  0  0
  -24.3596   -9.4211   21.9170 C   0  0  0  0  0  0
  -23.6273   -8.2246   22.0752 C   0  0  0  0  0  0
  -22.4258   -8.0280   21.3541 C   0  0  0  0  0  0
  -21.9884   -9.0246   20.4645 C   0  0  0  0  0  0
  -22.7206  -10.2128   20.3040 C   0  0  0  0  0  0
  -21.6858   -6.0726   22.5276 C   0  0  0  0  0  0
  -21.4026   -6.5634   23.8207 C   0  0  0  0  0  0
  -21.3652   -5.6789   24.9168 C   0  0  0  0  0  0
  -21.6043   -4.3050   24.7226 C   0  0  0  0  0  0
  -21.8821   -3.8138   23.4344 C   0  0  0  0  0  0
  -21.9194   -4.6953   22.3401 C   0  0  0  0  0  0
  -22.7849  -13.5249   21.1807 C   0  0  0  0  0  0
  -22.1660   -4.2138   21.0979 F   0  0  0  0  0  0
  -21.5613   -3.4537   25.7737 F   0  0  0  0  0  0
  -30.0261  -13.3103   20.4417 N   0  0  0  0  0  0
  -26.2985  -12.9314   20.3303 N   0  0  0  0  0  0
  -25.9291  -11.6473   20.5710 N   0  0  0  0  0  0
  -22.0487  -12.8257   22.0383 N   0  0  0  0  0  0
  -25.4308  -15.1874   20.4105 N   0  0  0  0  0  0
  -31.8225  -14.6698   20.1107 O   0  0  0  0  0  0
  -21.6638   -6.8865   21.4234 O   0  0  0  0  0  0
  -22.3538  -14.5551   20.6646 O   0  0  0  0  0  0
  -24.6180  -31.8656   23.2069 C   0  0  0  0  0  0
  -25.9070  -32.4790   23.8366 C   0  0  1  0  0  0
  -27.2312  -27.4152   20.0892 C   0  0  0  0  0  0
  -25.5922  -33.8592   24.2308 N   0  0  0  0  0  0
  -23.4053  -30.4898   21.5472 C   0  0  2  0  0  0
  -24.8476  -28.9520   20.1119 C   0  0  0  0  0  0
  -22.7424  -29.4655   22.4965 C   0  0  0  0  0  0
  -18.0281  -28.1376   22.8494 C   0  0  0  0  0  0
  -24.1489  -36.7303   23.2640 C   0  0  0  0  0  0
  -25.9359  -30.8238   21.3627 C   0  0  0  0  0  0
  -26.0081  -29.4575   20.7091 C   0  0  0  0  0  0
  -27.1993  -28.6952   20.6950 C   0  0  0  0  0  0
  -26.0472  -26.9267   19.4893 C   0  0  0  0  0  0
  -24.8629  -27.6875   19.5001 C   0  0  0  0  0  0
  -23.6123  -29.8211   20.1621 C   0  0  0  0  0  0
  -25.4107  -36.3089   24.0337 C   0  0  1  0  0  0
  -20.5875  -28.3671   23.1306 C   0  0  2  0  0  0
  -20.6763  -26.9400   22.5416 C   0  0  0  0  0  0
  -19.5740  -26.6386   21.5212 C   0  0  0  0  0  0
  -18.1923  -26.7927   22.1625 C   0  0  0  0  0  0
  -19.1533  -28.8839   23.2897 C   0  0  0  0  0  0
  -18.9456  -30.1439   23.8916 C   0  0  0  0  0  0
  -17.6457  -30.6584   24.0567 C   0  0  0  0  0  0
  -25.9040  -34.9453   23.5115 C   0  0  0  0  0  0
  -16.5347  -29.9091   23.6317 C   0  0  0  0  0  0
  -16.7267  -28.6502   23.0350 C   0  0  0  0  0  0
  -26.4502  -31.6574   25.0700 C   0  0  0  0  0  0
  -25.3774  -31.3693   26.1452 C   0  0  0  0  0  0
  -27.0340  -30.3010   24.6088 C   0  0  0  0  0  0
  -27.6064  -32.4302   25.7476 C   0  0  0  0  0  0
  -27.5573  -37.1802   24.8466 C   0  0  0  0  0  0
  -21.4150  -29.3042   22.3717 N   0  0  0  0  0  0
  -26.4287  -37.3773   23.9416 N   0  0  0  0  0  0
  -24.6712  -31.0758   22.0967 N   0  0  0  0  0  0
  -23.4185  -28.8202   23.3021 O   0  0  0  0  0  0
  -28.4161  -26.7006   20.1167 O   0  0  0  0  0  0
  -26.5597  -34.8922   22.4675 O   0  0  0  0  0  0
  -23.5367  -32.1415   23.7455 O   0  0  0  0  0  0
  -30.0995  -18.5414   20.1160 C   0  0  0  0  0  0
  -29.5339  -19.8021   19.8084 C   0  0  0  0  0  0
  -29.2430  -18.7141   22.3842 C   0  0  0  0  0  0
  -29.9676  -17.9892   21.4108 C   0  0  0  0  0  0
  -28.8332  -20.5344   20.7947 C   0  0  0  0  0  0
  -28.6792  -19.9732   22.0824 C   0  0  0  0  0  0
  -28.7760  -23.0005   20.6316 C   0  0  0  0  0  0
  -30.6874  -16.6913   21.7958 C   0  0  0  0  0  0
  -27.8747  -24.2366   20.3966 C   0  0  0  0  0  0
  -28.5050  -25.3801   19.5438 C   0  0  0  0  0  0
  -28.2187  -21.7833   20.4824 N   0  0  0  0  0  0
  -30.0875  -15.4326   21.3250 N   0  0  0  0  0  0
  -29.9593  -23.1484   20.9512 O   0  0  0  0  0  0
  -27.9968  -20.6457   23.0418 F   0  0  0  0  0  0
  -31.4664  -12.4342   19.1187 H   0  0  0  0  0  0
  -30.3337  -11.3177   19.8259 H   0  0  0  0  0  0
  -29.7411  -11.7826   17.4284 H   0  0  0  0  0  0
  -29.6492  -13.4935   17.7603 H   0  0  0  0  0  0
  -27.8350  -11.3017   18.8207 H   0  0  0  0  0  0
  -27.3630  -12.6177   17.7794 H   0  0  0  0  0  0
  -27.6989  -14.2502   19.5606 H   0  0  0  0  0  0
  -28.6782  -11.9609   21.3340 H   0  0  0  0  0  0
  -28.4402  -13.5947   21.8654 H   0  0  0  0  0  0
  -25.2742   -9.5699   22.4739 H   0  0  0  0  0  0
  -23.9983   -7.4651   22.7490 H   0  0  0  0  0  0
  -21.0801   -8.8759   19.8967 H   0  0  0  0  0  0
  -22.3650  -10.9658   19.6145 H   0  0  0  0  0  0
  -21.2039   -7.6148   23.9702 H   0  0  0  0  0  0
  -21.1463   -6.0523   25.9067 H   0  0  0  0  0  0
  -22.0606   -2.7601   23.2849 H   0  0  0  0  0  0
  -22.4106  -11.9938   22.4798 H   0  0  0  0  0  0
  -21.1106  -13.1294   22.2566 H   0  0  0  0  0  0
  -24.6671  -15.8450   20.5260 H   0  0  0  0  0  0
  -26.2897  -15.6278   20.1047 H   0  0  0  0  0  0
  -26.7140  -32.5492   23.1123 H   0  0  0  0  0  0
  -25.0094  -33.9751   25.0468 H   0  0  0  0  0  0
  -22.6940  -31.3062   21.4064 H   0  0  0  0  0  0
  -23.3734  -35.9653   23.3306 H   0  0  0  0  0  0
  -24.3585  -36.8914   22.2055 H   0  0  0  0  0  0
  -23.7258  -37.6519   23.6649 H   0  0  0  0  0  0
  -26.0546  -31.5886   20.5932 H   0  0  0  0  0  0
  -26.8223  -30.8729   21.9827 H   0  0  0  0  0  0
  -28.0971  -29.0834   21.1552 H   0  0  0  0  0  0
  -26.0138  -25.9607   19.0092 H   0  0  0  0  0  0
  -23.9688  -27.2939   19.0366 H   0  0  0  0  0  0
  -23.7212  -30.5924   19.3990 H   0  0  0  0  0  0
  -22.7360  -29.2408   19.8684 H   0  0  0  0  0  0
  -25.1278  -36.1948   25.0825 H   0  0  0  0  0  0
  -20.9961  -28.3239   24.1425 H   0  0  0  0  0  0
  -20.5660  -26.2280   23.3611 H   0  0  0  0  0  0
  -21.6638  -26.7440   22.1211 H   0  0  0  0  0  0
  -19.6905  -25.6305   21.1224 H   0  0  0  0  0  0
  -19.6679  -27.3211   20.6753 H   0  0  0  0  0  0
  -17.4192  -26.6678   21.4023 H   0  0  0  0  0  0
  -18.0320  -26.0065   22.9016 H   0  0  0  0  0  0
  -19.7934  -30.7245   24.2293 H   0  0  0  0  0  0
  -17.5020  -31.6265   24.5174 H   0  0  0  0  0  0
  -15.5352  -30.3008   23.7624 H   0  0  0  0  0  0
  -15.8663  -28.0824   22.7065 H   0  0  0  0  0  0
  -24.5947  -30.7032   25.7807 H   0  0  0  0  0  0
  -24.8977  -32.2862   26.4886 H   0  0  0  0  0  0
  -25.8146  -30.8885   27.0210 H   0  0  0  0  0  0
  -26.2889  -29.6747   24.1169 H   0  0  0  0  0  0
  -27.4142  -29.7262   25.4544 H   0  0  0  0  0  0
  -27.8706  -30.4318   23.9216 H   0  0  0  0  0  0
  -27.2661  -33.3585   26.2074 H   0  0  0  0  0  0
  -28.3875  -32.6887   25.0312 H   0  0  0  0  0  0
  -28.0730  -31.8415   26.5387 H   0  0  0  0  0  0
  -28.2591  -38.0091   24.7492 H   0  0  0  0  0  0
  -28.1064  -36.2628   24.6311 H   0  0  0  0  0  0
  -27.2295  -37.1469   25.8867 H   0  0  0  0  0  0
  -20.9312  -29.8767   21.6943 H   0  0  0  0  0  0
  -26.0169  -38.2847   24.1411 H   0  0  0  0  0  0
  -30.6602  -18.0092   19.3596 H   0  0  0  0  0  0
  -29.6528  -20.2108   18.8152 H   0  0  0  0  0  0
  -29.1371  -18.3211   23.3854 H   0  0  0  0  0  0
  -30.7443  -16.6350   22.8839 H   0  0  0  0  0  0
  -31.7224  -16.7822   21.4620 H   0  0  0  0  0  0
  -27.6005  -24.6232   21.3774 H   0  0  0  0  0  0
  -26.9386  -23.9205   19.9354 H   0  0  0  0  0  0
  -28.0958  -25.3703   18.5331 H   0  0  0  0  0  0
  -29.5706  -25.1953   19.4050 H   0  0  0  0  0  0
  -27.2400  -21.7495   20.2285 H   0  0  0  0  0  0
  -29.1673  -15.2098   21.6723 H   0  0  0  0  0  0
  1 25  1  0  0  0
  1 30  2  0  0  0
  1 82  1  0  0  0
  2  3  1  0  0  0
  2 25  1  0  0  0
  2 85  1  0  0  0
  2 86  1  0  0  0
  3  4  1  0  0  0
  3 87  1  0  0  0
  3 88  1  0  0  0
  4  5  1  0  0  0
  4 89  1  0  0  0
  4 90  1  0  0  0
  5  6  1  0  0  0
  5 26  1  0  0  0
  5 91  1  0  0  0
  6 25  1  0  0  0
  6 92  1  0  0  0
  6 93  1  0  0  0
  7  8  2  0  0  0
  7 26  1  0  0  0
  7 29  1  0  0  0
  8  9  1  0  0  0
  8 22  1  0  0  0
  9 10  1  0  0  0
  9 27  2  0  0  0
 10 11  2  0  0  0
 10 15  1  0  0  0
 11 12  1  0  0  0
 11 94  1  0  0  0
 12 13  2  0  0  0
 12 95  1  0  0  0
 13 14  1  0  0  0
 13 31  1  0  0  0
 14 15  2  0  0  0
 14 96  1  0  0  0
 15 97  1  0  0  0
 16 17  2  0  0  0
 16 21  1  0  0  0
 16 31  1  0  0  0
 17 18  1  0  0  0
 17 98  1  0  0  0
 18 19  2  0  0  0
 18 99  1  0  0  0
 19 20  1  0  0  0
 19 24  1  0  0  0
 20 21  2  0  0  0
 20100  1  0  0  0
 21 23  1  0  0  0
 22 28  1  0  0  0
 22 32  2  0  0  0
 26 27  1  0  0  0
 28101  1  0  0  0
 28102  1  0  0  0
 29103  1  0  0  0
 29104  1  0  0  0
 33 34  1  0  0  0
 33 66  1  0  0  0
 33 70  2  0  0  0
 34 36  1  0  0  0
 34 59  1  0  0  0
 34105  1  0  0  0
 35 44  2  0  0  0
 35 45  1  0  0  0
 35 68  1  0  0  0
 36 56  1  0  0  0
 36106  1  0  0  0
 37 39  1  0  0  0
 37 47  1  0  0  0
 37 66  1  0  0  0
 37107  1  0  0  0
 38 43  2  0  0  0
 38 46  1  0  0  0
 38 47  1  0  0  0
 39 64  1  0  0  0
 39 67  2  0  0  0
 40 52  1  0  0  0
 40 53  2  0  0  0
 40 58  1  0  0  0
 41108  1  0  0  0
 41109  1  0  0  0
 41110  1  0  0  0
 41 48  1  0  0  0
 42 43  1  0  0  0
 42 66  1  0  0  0
 42111  1  0  0  0
 42112  1  0  0  0
 43 44  1  0  0  0
 44113  1  0  0  0
 45 46  2  0  0  0
 45114  1  0  0  0
 46115  1  0  0  0
 47116  1  0  0  0
 47117  1  0  0  0
 48 56  1  0  0  0
 48 65  1  0  0  0
 48118  1  0  0  0
 49 50  1  0  0  0
 49 53  1  0  0  0
 49 64  1  0  0  0
 49119  1  0  0  0
 50 51  1  0  0  0
 50120  1  0  0  0
 50121  1  0  0  0
 51 52  1  0  0  0
 51122  1  0  0  0
 51123  1  0  0  0
 52124  1  0  0  0
 52125  1  0  0  0
 53 54  1  0  0  0
 54 55  2  0  0  0
 54126  1  0  0  0
 55 57  1  0  0  0
 55127  1  0  0  0
 56 69  2  0  0  0
 57 58  2  0  0  0
 57128  1  0  0  0
 58129  1  0  0  0
 59 60  1  0  0  0
 59 61  1  0  0  0
 59 62  1  0  0  0
 60130  1  0  0  0
 60131  1  0  0  0
 60132  1  0  0  0
 61133  1  0  0  0
 61134  1  0  0  0
 61135  1  0  0  0
 62136  1  0  0  0
 62137  1  0  0  0
 62138  1  0  0  0
 63 65  1  0  0  0
 63139  1  0  0  0
 63140  1  0  0  0
 63141  1  0  0  0
 64142  1  0  0  0
 65143  1  0  0  0
 68 80  1  0  0  0
 71 72  2  0  0  0
 71 74  1  0  0  0
 71144  1  0  0  0
 72 75  1  0  0  0
 72145  1  0  0  0
 73 74  2  0  0  0
 73 76  1  0  0  0
 73146  1  0  0  0
 74 78  1  0  0  0
 75 76  2  0  0  0
 75 81  1  0  0  0
 76 84  1  0  0  0
 77 79  1  0  0  0
 77 81  1  0  0  0
 77 83  2  0  0  0
 78 82  1  0  0  0
 78147  1  0  0  0
 78148  1  0  0  0
 79 80  1  0  0  0
 79149  1  0  0  0
 79150  1  0  0  0
 80151  1  0  0  0
 80152  1  0  0  0
 81153  1  0  0  0
 82154  1  0  0  0
M  ISO  4   1 100  68 101  80 101  82 100
M  END
> <chiral flag>
0

> <version>
0

> <s_m_source_file>
/data/baiqing/PycharmProjects/Reinvent-master-3.2/result/LINK_invent/BTK/process_docking_weight1_custom_product_contain_oxygen_bond_distance_aromatic_linkinvent_7_9_3/rearranged_h_0057.sdf

> <i_m_source_file_index>
66

> <r_mmod_Potential_Energy-OPLS-2005>
-159.962524414062

> <r_mmod_Stretch_Energy-OPLS-2005>
38.9143371582031

> <r_mmod_Bend_Energy-OPLS-2005>
102.264030456543

> <r_mmod_Torsional_Energy-OPLS-2005>
229.970520019531

> <r_mmod_Improper_Torsional_Energy-OPLS-2005>
2.60429167747498

> <r_mmod_Van_der_Waal_Energy-OPLS-2005>
150.396072387695

> <r_mmod_Electrostatic_Energy-OPLS-2005>
-462.206024169922

> <r_mmod_Solvation_Energy-OPLS-2005>
-235.890106201172

> <b_mmod_Minimization_Converged-OPLS-2005>
0

> <r_mmod_RMS_Derivative-OPLS-2005>
2.29008555412292

$$$$
67
                    3D
 Structure written by MMmdl.
157165  0  0  1  0            999 V2000
  -30.6461  -14.5561   20.5834 C   0  0  0  0  0  0
  -30.4466  -12.3612   19.4373 C   0  0  0  0  0  0
  -29.5096  -12.5082   18.2178 C   0  0  0  0  0  0
  -28.0309  -12.3461   18.6290 C   0  0  0  0  0  0
  -27.6608  -13.2023   19.8693 C   0  0  2  0  0  0
  -28.6999  -13.0052   20.9950 C   0  0  0  0  0  0
  -25.2597  -13.8153   20.5717 C   0  0  0  0  0  0
  -24.1839  -13.0438   20.9186 C   0  0  0  0  0  0
  -24.6369  -11.6901   20.8712 C   0  0  0  0  0  0
  -23.9026  -10.4297   21.0389 C   0  0  0  0  0  0
  -24.3589   -9.4223   21.9173 C   0  0  0  0  0  0
  -23.6285   -8.2242   22.0747 C   0  0  0  0  0  0
  -22.4269   -8.0268   21.3544 C   0  0  0  0  0  0
  -21.9883   -9.0240   20.4650 C   0  0  0  0  0  0
  -22.7191  -10.2132   20.3051 C   0  0  0  0  0  0
  -21.6857   -6.0730   22.5280 C   0  0  0  0  0  0
  -21.4019   -6.5634   23.8208 C   0  0  0  0  0  0
  -21.3647   -5.6787   24.9171 C   0  0  0  0  0  0
  -21.6041   -4.3049   24.7216 C   0  0  0  0  0  0
  -21.8819   -3.8144   23.4336 C   0  0  0  0  0  0
  -21.9193   -4.6957   22.3393 C   0  0  0  0  0  0
  -22.7861  -13.5261   21.1845 C   0  0  0  0  0  0
  -22.1671   -4.2144   21.0970 F   0  0  0  0  0  0
  -21.5623   -3.4529   25.7728 F   0  0  0  0  0  0
  -30.0261  -13.3462   20.4482 N   0  0  0  0  0  0
  -26.3013  -12.9307   20.3332 N   0  0  0  0  0  0
  -25.9293  -11.6468   20.5718 N   0  0  0  0  0  0
  -22.0473  -12.8285   22.0410 N   0  0  0  0  0  0
  -25.4369  -15.1880   20.4222 N   0  0  0  0  0  0
  -31.7778  -14.7735   20.1374 O   0  0  0  0  0  0
  -21.6632   -6.8863   21.4241 O   0  0  0  0  0  0
  -22.3548  -14.5536   20.6638 O   0  0  0  0  0  0
  -24.6170  -31.8628   23.2054 C   0  0  0  0  0  0
  -25.9041  -32.4788   23.8377 C   0  0  1  0  0  0
  -27.2375  -27.3909   20.1220 C   0  0  0  0  0  0
  -25.5881  -33.8588   24.2312 N   0  0  0  0  0  0
  -23.4084  -30.4845   21.5458 C   0  0  2  0  0  0
  -24.8591  -28.9411   20.1170 C   0  0  0  0  0  0
  -22.7426  -29.4622   22.4957 C   0  0  0  0  0  0
  -18.0271  -28.1381   22.8491 C   0  0  0  0  0  0
  -24.1489  -36.7312   23.2648 C   0  0  0  0  0  0
  -25.9401  -30.8195   21.3615 C   0  0  0  0  0  0
  -26.0208  -29.4487   20.7137 C   0  0  0  0  0  0
  -27.2158  -28.6851   20.7049 C   0  0  0  0  0  0
  -26.0588  -26.9041   19.5219 C   0  0  0  0  0  0
  -24.8755  -27.6702   19.5147 C   0  0  0  0  0  0
  -23.6217  -29.8124   20.1629 C   0  0  0  0  0  0
  -25.4104  -36.3092   24.0351 C   0  0  1  0  0  0
  -20.5860  -28.3667   23.1317 C   0  0  2  0  0  0
  -20.6752  -26.9392   22.5436 C   0  0  0  0  0  0
  -19.5754  -26.6376   21.5213 C   0  0  0  0  0  0
  -18.1920  -26.7936   22.1599 C   0  0  0  0  0  0
  -19.1518  -28.8841   23.2902 C   0  0  0  0  0  0
  -18.9446  -30.1440   23.8919 C   0  0  0  0  0  0
  -17.6449  -30.6582   24.0565 C   0  0  0  0  0  0
  -25.9025  -34.9455   23.5129 C   0  0  0  0  0  0
  -16.5341  -29.9088   23.6315 C   0  0  0  0  0  0
  -16.7259  -28.6502   23.0344 C   0  0  0  0  0  0
  -26.4474  -31.6587   25.0717 C   0  0  0  0  0  0
  -25.3754  -31.3713   26.1493 C   0  0  0  0  0  0
  -27.0309  -30.3030   24.6101 C   0  0  0  0  0  0
  -27.6062  -32.4315   25.7441 C   0  0  0  0  0  0
  -27.5589  -37.1795   24.8457 C   0  0  0  0  0  0
  -21.4143  -29.3029   22.3718 N   0  0  0  0  0  0
  -26.4291  -37.3775   23.9415 N   0  0  0  0  0  0
  -24.6738  -31.0708   22.0956 N   0  0  0  0  0  0
  -23.4184  -28.8169   23.3011 O   0  0  0  0  0  0
  -28.3875  -26.6187   20.0973 O   0  0  0  0  0  0
  -26.5598  -34.8911   22.4696 O   0  0  0  0  0  0
  -23.5355  -32.1384   23.7436 O   0  0  0  0  0  0
  -30.2679  -19.6270   22.2468 C   0  0  0  0  0  0
  -30.5070  -18.5885   23.1688 C   0  0  0  0  0  0
  -29.8849  -17.9644   20.5068 C   0  0  0  0  0  0
  -29.9450  -19.3367   20.9071 C   0  0  0  0  0  0
  -30.4207  -17.2340   22.7784 C   0  0  0  0  0  0
  -30.1236  -16.9020   21.4323 C   0  0  0  0  0  0
  -29.2088  -22.9770   20.1717 C   0  0  0  0  0  0
  -30.6078  -16.1482   23.8266 C   0  0  0  0  0  0
  -29.7303  -20.4956   19.9030 C   0  0  0  0  0  0
  -28.0685  -24.0394   20.2594 C   0  0  0  0  0  0
  -28.3962  -25.4252   20.9309 C   0  0  0  0  0  0
  -29.8551  -15.5296   21.0992 N   0  0  0  0  0  0
  -28.9112  -21.6613   20.3378 N   0  0  0  0  0  0
  -30.3490  -23.3449   19.8825 O   0  0  0  0  0  0
  -31.4855  -12.5079   19.1342 H   0  0  0  0  0  0
  -30.3976  -11.3519   19.8494 H   0  0  0  0  0  0
  -29.7748  -11.7735   17.4563 H   0  0  0  0  0  0
  -29.6561  -13.4879   17.7602 H   0  0  0  0  0  0
  -27.8651  -11.2919   18.8527 H   0  0  0  0  0  0
  -27.3734  -12.5894   17.7938 H   0  0  0  0  0  0
  -27.6982  -14.2448   19.5520 H   0  0  0  0  0  0
  -28.6997  -11.9704   21.3395 H   0  0  0  0  0  0
  -28.4339  -13.6001   21.8703 H   0  0  0  0  0  0
  -25.2718   -9.5729   22.4757 H   0  0  0  0  0  0
  -24.0010   -7.4638   22.7462 H   0  0  0  0  0  0
  -21.0808   -8.8736   19.8976 H   0  0  0  0  0  0
  -22.3611  -10.9668   19.6172 H   0  0  0  0  0  0
  -21.2019   -7.6148   23.9720 H   0  0  0  0  0  0
  -21.1477   -6.0509   25.9076 H   0  0  0  0  0  0
  -22.0611   -2.7610   23.2825 H   0  0  0  0  0  0
  -22.4040  -11.9966   22.4869 H   0  0  0  0  0  0
  -21.1104  -13.1377   22.2572 H   0  0  0  0  0  0
  -24.6790  -15.8486   20.5523 H   0  0  0  0  0  0
  -26.2959  -15.6330   20.1251 H   0  0  0  0  0  0
  -26.7109  -32.5499   23.1136 H   0  0  0  0  0  0
  -25.0033  -33.9743   25.0462 H   0  0  0  0  0  0
  -22.6984  -31.3015   21.4021 H   0  0  0  0  0  0
  -23.3735  -35.9658   23.3303 H   0  0  0  0  0  0
  -24.3592  -36.8930   22.2062 H   0  0  0  0  0  0
  -23.7256  -37.6523   23.6669 H   0  0  0  0  0  0
  -26.0542  -31.5820   20.5897 H   0  0  0  0  0  0
  -26.8267  -30.8772   21.9808 H   0  0  0  0  0  0
  -28.1150  -29.0788   21.1589 H   0  0  0  0  0  0
  -26.0557  -25.9279   19.0584 H   0  0  0  0  0  0
  -23.9844  -27.2740   19.0462 H   0  0  0  0  0  0
  -23.7326  -30.5845   19.4012 H   0  0  0  0  0  0
  -22.7456  -29.2333   19.8652 H   0  0  0  0  0  0
  -25.1277  -36.1945   25.0847 H   0  0  0  0  0  0
  -20.9963  -28.3238   24.1434 H   0  0  0  0  0  0
  -20.5611  -26.2276   23.3631 H   0  0  0  0  0  0
  -21.6634  -26.7405   22.1261 H   0  0  0  0  0  0
  -19.6907  -25.6283   21.1248 H   0  0  0  0  0  0
  -19.6717  -27.3177   20.6743 H   0  0  0  0  0  0
  -17.4203  -26.6708   21.3978 H   0  0  0  0  0  0
  -18.0288  -26.0064   22.8979 H   0  0  0  0  0  0
  -19.7918  -30.7241   24.2311 H   0  0  0  0  0  0
  -17.5002  -31.6266   24.5163 H   0  0  0  0  0  0
  -15.5340  -30.2997   23.7626 H   0  0  0  0  0  0
  -15.8659  -28.0823   22.7056 H   0  0  0  0  0  0
  -24.5889  -30.7091   25.7851 H   0  0  0  0  0  0
  -24.8988  -32.2883   26.4972 H   0  0  0  0  0  0
  -25.8122  -30.8861   27.0232 H   0  0  0  0  0  0
  -26.2853  -29.6761   24.1196 H   0  0  0  0  0  0
  -27.4133  -29.7289   25.4549 H   0  0  0  0  0  0
  -27.8661  -30.4354   23.9218 H   0  0  0  0  0  0
  -27.2681  -33.3568   26.2113 H   0  0  0  0  0  0
  -28.3788  -32.6961   25.0210 H   0  0  0  0  0  0
  -28.0839  -31.8403   26.5259 H   0  0  0  0  0  0
  -28.2606  -38.0091   24.7488 H   0  0  0  0  0  0
  -28.1083  -36.2620   24.6275 H   0  0  0  0  0  0
  -27.2330  -37.1445   25.8871 H   0  0  0  0  0  0
  -20.9297  -29.8769   21.6961 H   0  0  0  0  0  0
  -26.0176  -38.2853   24.1418 H   0  0  0  0  0  0
  -30.3392  -20.6550   22.5768 H   0  0  0  0  0  0
  -30.7370  -18.8438   24.1946 H   0  0  0  0  0  0
  -29.6238  -17.7242   19.4856 H   0  0  0  0  0  0
  -30.9241  -16.5626   24.7846 H   0  0  0  0  0  0
  -31.3643  -15.4287   23.5091 H   0  0  0  0  0  0
  -29.6703  -15.6142   23.9903 H   0  0  0  0  0  0
  -29.2681  -20.0921   19.0018 H   0  0  0  0  0  0
  -30.7197  -20.8342   19.5933 H   0  0  0  0  0  0
  -27.2219  -23.5918   20.7817 H   0  0  0  0  0  0
  -27.7180  -24.2160   19.2434 H   0  0  0  0  0  0
  -29.3842  -25.3761   21.3908 H   0  0  0  0  0  0
  -27.7195  -25.5744   21.7754 H   0  0  0  0  0  0
  -28.9593  -15.1887   21.4120 H   0  0  0  0  0  0
  -27.9611  -21.4434   20.6065 H   0  0  0  0  0  0
  1 25  1  0  0  0
  1 30  2  0  0  0
  1 82  1  0  0  0
  2  3  1  0  0  0
  2 25  1  0  0  0
  2 85  1  0  0  0
  2 86  1  0  0  0
  3  4  1  0  0  0
  3 87  1  0  0  0
  3 88  1  0  0  0
  4  5  1  0  0  0
  4 89  1  0  0  0
  4 90  1  0  0  0
  5  6  1  0  0  0
  5 26  1  0  0  0
  5 91  1  0  0  0
  6 25  1  0  0  0
  6 92  1  0  0  0
  6 93  1  0  0  0
  7  8  2  0  0  0
  7 26  1  0  0  0
  7 29  1  0  0  0
  8  9  1  0  0  0
  8 22  1  0  0  0
  9 10  1  0  0  0
  9 27  2  0  0  0
 10 11  2  0  0  0
 10 15  1  0  0  0
 11 12  1  0  0  0
 11 94  1  0  0  0
 12 13  2  0  0  0
 12 95  1  0  0  0
 13 14  1  0  0  0
 13 31  1  0  0  0
 14 15  2  0  0  0
 14 96  1  0  0  0
 15 97  1  0  0  0
 16 17  2  0  0  0
 16 21  1  0  0  0
 16 31  1  0  0  0
 17 18  1  0  0  0
 17 98  1  0  0  0
 18 19  2  0  0  0
 18 99  1  0  0  0
 19 20  1  0  0  0
 19 24  1  0  0  0
 20 21  2  0  0  0
 20100  1  0  0  0
 21 23  1  0  0  0
 22 28  1  0  0  0
 22 32  2  0  0  0
 26 27  1  0  0  0
 28101  1  0  0  0
 28102  1  0  0  0
 29103  1  0  0  0
 29104  1  0  0  0
 33 34  1  0  0  0
 33 66  1  0  0  0
 33 70  2  0  0  0
 34 36  1  0  0  0
 34 59  1  0  0  0
 34105  1  0  0  0
 35 44  2  0  0  0
 35 45  1  0  0  0
 35 68  1  0  0  0
 36 56  1  0  0  0
 36106  1  0  0  0
 37 39  1  0  0  0
 37 47  1  0  0  0
 37 66  1  0  0  0
 37107  1  0  0  0
 38 43  2  0  0  0
 38 46  1  0  0  0
 38 47  1  0  0  0
 39 64  1  0  0  0
 39 67  2  0  0  0
 40 52  1  0  0  0
 40 53  2  0  0  0
 40 58  1  0  0  0
 41108  1  0  0  0
 41109  1  0  0  0
 41110  1  0  0  0
 41 48  1  0  0  0
 42 43  1  0  0  0
 42 66  1  0  0  0
 42111  1  0  0  0
 42112  1  0  0  0
 43 44  1  0  0  0
 44113  1  0  0  0
 45 46  2  0  0  0
 45114  1  0  0  0
 46115  1  0  0  0
 47116  1  0  0  0
 47117  1  0  0  0
 48 56  1  0  0  0
 48 65  1  0  0  0
 48118  1  0  0  0
 49 50  1  0  0  0
 49 53  1  0  0  0
 49 64  1  0  0  0
 49119  1  0  0  0
 50 51  1  0  0  0
 50120  1  0  0  0
 50121  1  0  0  0
 51 52  1  0  0  0
 51122  1  0  0  0
 51123  1  0  0  0
 52124  1  0  0  0
 52125  1  0  0  0
 53 54  1  0  0  0
 54 55  2  0  0  0
 54126  1  0  0  0
 55 57  1  0  0  0
 55127  1  0  0  0
 56 69  2  0  0  0
 57 58  2  0  0  0
 57128  1  0  0  0
 58129  1  0  0  0
 59 60  1  0  0  0
 59 61  1  0  0  0
 59 62  1  0  0  0
 60130  1  0  0  0
 60131  1  0  0  0
 60132  1  0  0  0
 61133  1  0  0  0
 61134  1  0  0  0
 61135  1  0  0  0
 62136  1  0  0  0
 62137  1  0  0  0
 62138  1  0  0  0
 63 65  1  0  0  0
 63139  1  0  0  0
 63140  1  0  0  0
 63141  1  0  0  0
 64142  1  0  0  0
 65143  1  0  0  0
 68 81  1  0  0  0
 71 72  2  0  0  0
 71 74  1  0  0  0
 71144  1  0  0  0
 72 75  1  0  0  0
 72145  1  0  0  0
 73 74  2  0  0  0
 73 76  1  0  0  0
 73146  1  0  0  0
 74 79  1  0  0  0
 75 76  2  0  0  0
 75 78  1  0  0  0
 76 82  1  0  0  0
 77 80  1  0  0  0
 77 83  1  0  0  0
 77 84  2  0  0  0
 78147  1  0  0  0
 78148  1  0  0  0
 78149  1  0  0  0
 79 83  1  0  0  0
 79150  1  0  0  0
 79151  1  0  0  0
 80 81  1  0  0  0
 80152  1  0  0  0
 80153  1  0  0  0
 81154  1  0  0  0
 81155  1  0  0  0
 82156  1  0  0  0
 83157  1  0  0  0
M  ISO  4   1 100  68 101  81 101  82 100
M  END
> <chiral flag>
0

> <version>
0

> <s_m_source_file>
/data/baiqing/PycharmProjects/Reinvent-master-3.2/result/LINK_invent/BTK/process_docking_weight1_custom_product_contain_oxygen_bond_distance_aromatic_linkinvent_7_9_3/rearranged_h_0057.sdf

> <i_m_source_file_index>
67

> <r_mmod_Potential_Energy-OPLS-2005>
-100.299880981445

> <r_mmod_Stretch_Energy-OPLS-2005>
52.3819885253906

> <r_mmod_Bend_Energy-OPLS-2005>
111.65648651123

> <r_mmod_Torsional_Energy-OPLS-2005>
261.895111083984

> <r_mmod_Improper_Torsional_Energy-OPLS-2005>
5.68444871902466

> <r_mmod_Van_der_Waal_Energy-OPLS-2005>
140.511520385742

> <r_mmod_Electrostatic_Energy-OPLS-2005>
-453.203033447266

> <r_mmod_Solvation_Energy-OPLS-2005>
-242.544158935547

> <b_mmod_Minimization_Converged-OPLS-2005>
0

> <r_mmod_RMS_Derivative-OPLS-2005>
2.47456812858582

$$$$
68
                    3D
 Structure written by MMmdl.
166174  0  0  1  0            999 V2000
  -30.6940  -14.4468   20.6031 C   0  0  0  0  0  0
  -30.4285  -12.2963   19.4203 C   0  0  0  0  0  0
  -29.4990  -12.4967   18.2047 C   0  0  0  0  0  0
  -28.0193  -12.3585   18.6168 C   0  0  0  0  0  0
  -27.6628  -13.1989   19.8727 C   0  0  2  0  0  0
  -28.6986  -12.9710   20.9956 C   0  0  0  0  0  0
  -25.2606  -13.8128   20.5618 C   0  0  0  0  0  0
  -24.1857  -13.0431   20.9160 C   0  0  0  0  0  0
  -24.6395  -11.6889   20.8733 C   0  0  0  0  0  0
  -23.9056  -10.4293   21.0425 C   0  0  0  0  0  0
  -24.3621   -9.4208   21.9195 C   0  0  0  0  0  0
  -23.6289   -8.2244   22.0773 C   0  0  0  0  0  0
  -22.4269   -8.0283   21.3557 C   0  0  0  0  0  0
  -21.9906   -9.0266   20.4670 C   0  0  0  0  0  0
  -22.7236  -10.2142   20.3073 C   0  0  0  0  0  0
  -21.6858   -6.0723   22.5273 C   0  0  0  0  0  0
  -21.4018   -6.5636   23.8203 C   0  0  0  0  0  0
  -21.3655   -5.6793   24.9168 C   0  0  0  0  0  0
  -21.6047   -4.3055   24.7224 C   0  0  0  0  0  0
  -21.8818   -3.8139   23.4349 C   0  0  0  0  0  0
  -21.9197   -4.6949   22.3401 C   0  0  0  0  0  0
  -22.7894  -13.5257   21.1824 C   0  0  0  0  0  0
  -22.1659   -4.2132   21.0976 F   0  0  0  0  0  0
  -21.5634   -3.4539   25.7740 F   0  0  0  0  0  0
  -30.0341  -13.2692   20.4513 N   0  0  0  0  0  0
  -26.3036  -12.9289   20.3329 N   0  0  0  0  0  0
  -25.9318  -11.6456   20.5752 N   0  0  0  0  0  0
  -22.0512  -12.8281   22.0391 N   0  0  0  0  0  0
  -25.4311  -15.1839   20.3912 N   0  0  0  0  0  0
  -31.8130  -14.6427   20.1145 O   0  0  0  0  0  0
  -21.6642   -6.8873   21.4239 O   0  0  0  0  0  0
  -22.3607  -14.5568   20.6671 O   0  0  0  0  0  0
  -24.6146  -31.8674   23.2129 C   0  0  0  0  0  0
  -25.9052  -32.4817   23.8428 C   0  0  1  0  0  0
  -27.2358  -27.4319   20.1187 C   0  0  0  0  0  0
  -25.5923  -33.8620   24.2351 N   0  0  0  0  0  0
  -23.4029  -30.4883   21.5520 C   0  0  2  0  0  0
  -24.8490  -28.9438   20.1328 C   0  0  0  0  0  0
  -22.7397  -29.4651   22.5000 C   0  0  0  0  0  0
  -18.0266  -28.1377   22.8483 C   0  0  0  0  0  0
  -24.1478  -36.7305   23.2623 C   0  0  0  0  0  0
  -25.9290  -30.8321   21.3654 C   0  0  0  0  0  0
  -26.0063  -29.4593   20.7298 C   0  0  0  0  0  0
  -27.2042  -28.7087   20.7224 C   0  0  0  0  0  0
  -26.0642  -26.9315   19.5138 C   0  0  0  0  0  0
  -24.8693  -27.6762   19.5257 C   0  0  0  0  0  0
  -23.6131  -29.8141   20.1709 C   0  0  0  0  0  0
  -25.4103  -36.3109   24.0324 C   0  0  1  0  0  0
  -20.5849  -28.3677   23.1312 C   0  0  2  0  0  0
  -20.6768  -26.9406   22.5412 C   0  0  0  0  0  0
  -19.5741  -26.6343   21.5232 C   0  0  0  0  0  0
  -18.1925  -26.7905   22.1651 C   0  0  0  0  0  0
  -19.1509  -28.8846   23.2877 C   0  0  0  0  0  0
  -18.9429  -30.1455   23.8872 C   0  0  0  0  0  0
  -17.6436  -30.6597   24.0533 C   0  0  0  0  0  0
  -25.9034  -34.9472   23.5133 C   0  0  0  0  0  0
  -16.5328  -29.9087   23.6323 C   0  0  0  0  0  0
  -16.7253  -28.6493   23.0362 C   0  0  0  0  0  0
  -26.4481  -31.6593   25.0751 C   0  0  0  0  0  0
  -25.3710  -31.3662   26.1454 C   0  0  0  0  0  0
  -27.0321  -30.3036   24.6109 C   0  0  0  0  0  0
  -27.6035  -32.4322   25.7582 C   0  0  0  0  0  0
  -27.5570  -37.1812   24.8453 C   0  0  0  0  0  0
  -21.4126  -29.3041   22.3728 N   0  0  0  0  0  0
  -26.4288  -37.3800   23.9395 N   0  0  0  0  0  0
  -24.6668  -31.0772   22.1035 N   0  0  0  0  0  0
  -23.4166  -28.8184   23.3046 O   0  0  0  0  0  0
  -28.4220  -26.7507   19.9828 O   0  0  0  0  0  0
  -26.5570  -34.8917   22.4681 O   0  0  0  0  0  0
  -23.5328  -32.1436   23.7519 O   0  0  0  0  0  0
  -26.0513  -19.4289   21.1492 C   0  0  0  0  0  0
  -24.8897  -20.2163   21.0614 C   0  0  0  0  0  0
  -27.2514  -21.3167   22.1023 C   0  0  0  0  0  0
  -27.2439  -19.9628   21.6837 C   0  0  0  0  0  0
  -26.0883  -22.1216   22.0157 C   0  0  0  0  0  0
  -24.8915  -21.5597   21.4909 C   0  0  0  0  0  0
  -28.4856  -19.1615   21.7451 C   0  0  0  0  0  0
  -28.7404  -18.0443   21.0312 C   0  0  0  0  0  0
  -26.1121  -23.5039   22.5257 C   0  0  0  0  0  0
  -23.6047  -22.3665   21.3497 C   0  0  0  0  0  0
  -29.1854  -26.1207   22.2426 C   0  0  0  0  0  0
  -27.7757  -24.4327   20.8577 C   0  0  0  0  0  0
  -28.7403  -25.6504   20.8465 C   0  0  2  0  0  0
  -25.3620  -23.8024   23.5806 N   0  0  0  0  0  0
  -29.9961  -15.4760   21.2433 N   0  0  0  0  0  0
  -26.8307  -24.5001   21.9849 N   0  3  0  0  0  0
  -31.0058  -17.4336   19.8614 O   0  0  0  0  0  0
  -30.9840  -17.5736   22.4004 O   0  0  0  0  0  0
  -30.3277  -17.1666   21.1441 S   0  0  0  0  0  0
  -31.4729  -12.4044   19.1189 H   0  0  0  0  0  0
  -30.3353  -11.2805   19.8067 H   0  0  0  0  0  0
  -29.7362  -11.7708   17.4252 H   0  0  0  0  0  0
  -29.6720  -13.4800   17.7645 H   0  0  0  0  0  0
  -27.8312  -11.3017   18.8119 H   0  0  0  0  0  0
  -27.3708  -12.6320   17.7845 H   0  0  0  0  0  0
  -27.7119  -14.2483   19.5815 H   0  0  0  0  0  0
  -28.6675  -11.9348   21.3366 H   0  0  0  0  0  0
  -28.4579  -13.5665   21.8777 H   0  0  0  0  0  0
  -25.2777   -9.5678   22.4750 H   0  0  0  0  0  0
  -23.9995   -7.4650   22.7510 H   0  0  0  0  0  0
  -21.0825   -8.8800   19.8992 H   0  0  0  0  0  0
  -22.3707  -10.9683   19.6176 H   0  0  0  0  0  0
  -21.2007   -7.6146   23.9694 H   0  0  0  0  0  0
  -21.1480   -6.0530   25.9070 H   0  0  0  0  0  0
  -22.0601   -2.7597   23.2856 H   0  0  0  0  0  0
  -22.4093  -11.9941   22.4804 H   0  0  0  0  0  0
  -21.1133  -13.1341   22.2573 H   0  0  0  0  0  0
  -24.6398  -15.8155   20.4452 H   0  0  0  0  0  0
  -26.2419  -15.5967   19.9507 H   0  0  0  0  0  0
  -26.7162  -32.5523   23.1242 H   0  0  0  0  0  0
  -25.0178  -33.9798   25.0561 H   0  0  0  0  0  0
  -22.6899  -31.3023   21.4076 H   0  0  0  0  0  0
  -23.3751  -35.9632   23.3296 H   0  0  0  0  0  0
  -24.3565  -36.8896   22.2036 H   0  0  0  0  0  0
  -23.7234  -37.6521   23.6617 H   0  0  0  0  0  0
  -26.0278  -31.5868   20.5838 H   0  0  0  0  0  0
  -26.8247  -30.9006   21.9710 H   0  0  0  0  0  0
  -28.1064  -29.1116   21.1603 H   0  0  0  0  0  0
  -26.0771  -25.9819   19.0006 H   0  0  0  0  0  0
  -23.9801  -27.2766   19.0574 H   0  0  0  0  0  0
  -23.7265  -30.5851   19.4089 H   0  0  0  0  0  0
  -22.7364  -29.2339   19.8758 H   0  0  0  0  0  0
  -25.1286  -36.1993   25.0822 H   0  0  0  0  0  0
  -20.9912  -28.3272   24.1451 H   0  0  0  0  0  0
  -20.5721  -26.2297   23.3622 H   0  0  0  0  0  0
  -21.6626  -26.7475   22.1152 H   0  0  0  0  0  0
  -19.6913  -25.6230   21.1316 H   0  0  0  0  0  0
  -19.6670  -27.3081   20.6703 H   0  0  0  0  0  0
  -17.4184  -26.6611   21.4067 H   0  0  0  0  0  0
  -18.0340  -26.0080   22.9090 H   0  0  0  0  0  0
  -19.7894  -30.7287   24.2239 H   0  0  0  0  0  0
  -17.4979  -31.6276   24.5124 H   0  0  0  0  0  0
  -15.5330  -30.2986   23.7642 H   0  0  0  0  0  0
  -15.8658  -28.0804   22.7097 H   0  0  0  0  0  0
  -24.5897  -30.7021   25.7725 H   0  0  0  0  0  0
  -24.8862  -32.2799   26.4891 H   0  0  0  0  0  0
  -25.8021  -30.8775   27.0210 H   0  0  0  0  0  0
  -26.2838  -29.6787   24.1222 H   0  0  0  0  0  0
  -27.4210  -29.7278   25.4515 H   0  0  0  0  0  0
  -27.8621  -30.4376   23.9177 H   0  0  0  0  0  0
  -27.2653  -33.3675   26.2068 H   0  0  0  0  0  0
  -28.3955  -32.6777   25.0488 H   0  0  0  0  0  0
  -28.0587  -31.8485   26.5589 H   0  0  0  0  0  0
  -28.2620  -38.0080   24.7498 H   0  0  0  0  0  0
  -28.1044  -36.2630   24.6287 H   0  0  0  0  0  0
  -27.2280  -37.1453   25.8852 H   0  0  0  0  0  0
  -20.9312  -29.8750   21.6920 H   0  0  0  0  0  0
  -26.0174  -38.2875   24.1428 H   0  0  0  0  0  0
  -26.0038  -18.4049   20.8095 H   0  0  0  0  0  0
  -23.9901  -19.7743   20.6565 H   0  0  0  0  0  0
  -28.1581  -21.7419   22.5120 H   0  0  0  0  0  0
  -29.2475  -19.5172   22.4248 H   0  0  0  0  0  0
  -28.0482  -17.6039   20.3315 H   0  0  0  0  0  0
  -23.1977  -22.6318   22.3257 H   0  0  0  0  0  0
  -22.8344  -21.8031   20.8216 H   0  0  0  0  0  0
  -23.7813  -23.2848   20.7883 H   0  0  0  0  0  0
  -29.5144  -25.2736   22.8455 H   0  0  0  0  0  0
  -28.3833  -26.6228   22.7827 H   0  0  0  0  0  0
  -30.0208  -26.8170   22.1715 H   0  0  0  0  0  0
  -28.3805  -23.5316   20.9676 H   0  0  0  0  0  0
  -27.2529  -24.3228   19.9069 H   0  0  0  0  0  0
  -29.6492  -25.2589   20.3876 H   0  0  0  0  0  0
  -24.8385  -23.0577   24.0168 H   0  0  0  0  0  0
  -25.3747  -24.6982   24.0374 H   0  0  0  0  0  0
  -29.0712  -15.3029   21.6261 H   0  0  0  0  0  0
  -26.6490  -25.4435   22.2906 H   0  0  0  0  0  0
  1 25  1  0  0  0
  1 30  2  0  0  0
  1 85  1  0  0  0
  2  3  1  0  0  0
  2 25  1  0  0  0
  2 90  1  0  0  0
  2 91  1  0  0  0
  3  4  1  0  0  0
  3 92  1  0  0  0
  3 93  1  0  0  0
  4  5  1  0  0  0
  4 94  1  0  0  0
  4 95  1  0  0  0
  5  6  1  0  0  0
  5 26  1  0  0  0
  5 96  1  0  0  0
  6 25  1  0  0  0
  6 97  1  0  0  0
  6 98  1  0  0  0
  7  8  2  0  0  0
  7 26  1  0  0  0
  7 29  1  0  0  0
  8  9  1  0  0  0
  8 22  1  0  0  0
  9 10  1  0  0  0
  9 27  2  0  0  0
 10 11  2  0  0  0
 10 15  1  0  0  0
 11 12  1  0  0  0
 11 99  1  0  0  0
 12 13  2  0  0  0
 12100  1  0  0  0
 13 14  1  0  0  0
 13 31  1  0  0  0
 14 15  2  0  0  0
 14101  1  0  0  0
 15102  1  0  0  0
 16 17  2  0  0  0
 16 21  1  0  0  0
 16 31  1  0  0  0
 17 18  1  0  0  0
 17103  1  0  0  0
 18 19  2  0  0  0
 18104  1  0  0  0
 19 20  1  0  0  0
 19 24  1  0  0  0
 20 21  2  0  0  0
 20105  1  0  0  0
 21 23  1  0  0  0
 22 28  1  0  0  0
 22 32  2  0  0  0
 26 27  1  0  0  0
 28106  1  0  0  0
 28107  1  0  0  0
 29108  1  0  0  0
 29109  1  0  0  0
 33 34  1  0  0  0
 33 66  1  0  0  0
 33 70  2  0  0  0
 34 36  1  0  0  0
 34 59  1  0  0  0
 34110  1  0  0  0
 35 44  2  0  0  0
 35 45  1  0  0  0
 35 68  1  0  0  0
 36 56  1  0  0  0
 36111  1  0  0  0
 37 39  1  0  0  0
 37 47  1  0  0  0
 37 66  1  0  0  0
 37112  1  0  0  0
 38 43  2  0  0  0
 38 46  1  0  0  0
 38 47  1  0  0  0
 39 64  1  0  0  0
 39 67  2  0  0  0
 40 52  1  0  0  0
 40 53  2  0  0  0
 40 58  1  0  0  0
 41113  1  0  0  0
 41114  1  0  0  0
 41115  1  0  0  0
 41 48  1  0  0  0
 42 43  1  0  0  0
 42 66  1  0  0  0
 42116  1  0  0  0
 42117  1  0  0  0
 43 44  1  0  0  0
 44118  1  0  0  0
 45 46  2  0  0  0
 45119  1  0  0  0
 46120  1  0  0  0
 47121  1  0  0  0
 47122  1  0  0  0
 48 56  1  0  0  0
 48 65  1  0  0  0
 48123  1  0  0  0
 49 50  1  0  0  0
 49 53  1  0  0  0
 49 64  1  0  0  0
 49124  1  0  0  0
 50 51  1  0  0  0
 50125  1  0  0  0
 50126  1  0  0  0
 51 52  1  0  0  0
 51127  1  0  0  0
 51128  1  0  0  0
 52129  1  0  0  0
 52130  1  0  0  0
 53 54  1  0  0  0
 54 55  2  0  0  0
 54131  1  0  0  0
 55 57  1  0  0  0
 55132  1  0  0  0
 56 69  2  0  0  0
 57 58  2  0  0  0
 57133  1  0  0  0
 58134  1  0  0  0
 59 60  1  0  0  0
 59 61  1  0  0  0
 59 62  1  0  0  0
 60135  1  0  0  0
 60136  1  0  0  0
 60137  1  0  0  0
 61138  1  0  0  0
 61139  1  0  0  0
 61140  1  0  0  0
 62141  1  0  0  0
 62142  1  0  0  0
 62143  1  0  0  0
 63 65  1  0  0  0
 63144  1  0  0  0
 63145  1  0  0  0
 63146  1  0  0  0
 64147  1  0  0  0
 65148  1  0  0  0
 68 83  1  0  0  0
 71 72  2  0  0  0
 71 74  1  0  0  0
 71149  1  0  0  0
 72 76  1  0  0  0
 72150  1  0  0  0
 73 74  2  0  0  0
 73 75  1  0  0  0
 73151  1  0  0  0
 74 77  1  0  0  0
 75 76  2  0  0  0
 75 79  1  0  0  0
 76 80  1  0  0  0
 77 78  2  0  0  0
 77152  1  0  0  0
 78 89  1  0  0  0
 78153  1  0  0  0
 79 84  1  0  0  0
 79 86  2  0  0  0
 80154  1  0  0  0
 80155  1  0  0  0
 80156  1  0  0  0
 81157  1  0  0  0
 81158  1  0  0  0
 81159  1  0  0  0
 81 83  1  0  0  0
 82 83  1  0  0  0
 82 86  1  0  0  0
 82160  1  0  0  0
 82161  1  0  0  0
 83162  1  0  0  0
 84163  1  0  0  0
 84164  1  0  0  0
 85165  1  0  0  0
 85 89  1  0  0  0
 86166  1  0  0  0
 87 89  2  0  0  0
 88 89  2  0  0  0
M  CHG  1  86   1
M  ISO  4   1 100  68 101  83 101  85 100
M  END
> <chiral flag>
0

> <version>
0

> <s_m_source_file>
/data/baiqing/PycharmProjects/Reinvent-master-3.2/result/LINK_invent/BTK/process_docking_weight1_custom_product_contain_oxygen_bond_distance_aromatic_linkinvent_7_9_3/rearranged_h_0057.sdf

> <i_m_source_file_index>
68

> <r_mmod_Potential_Energy-OPLS-2005>
-481.111663818359

> <r_mmod_Stretch_Energy-OPLS-2005>
35.8947639465332

> <r_mmod_Bend_Energy-OPLS-2005>
112.119361877441

> <r_mmod_Torsional_Energy-OPLS-2005>
215.755096435547

> <r_mmod_Improper_Torsional_Energy-OPLS-2005>
5.22038173675537

> <r_mmod_Van_der_Waal_Energy-OPLS-2005>
136.895950317383

> <r_mmod_Electrostatic_Energy-OPLS-2005>
-542.568298339844

> <r_mmod_Solvation_Energy-OPLS-2005>
-454.589202880859

> <b_mmod_Minimization_Converged-OPLS-2005>
0

> <r_mmod_RMS_Derivative-OPLS-2005>
2.5759379863739

$$$$
69
                    3D
 Structure written by MMmdl.
161170  0  0  1  0            999 V2000
  -30.6601  -14.7244   20.4500 C   0  0  0  0  0  0
  -30.4283  -12.4447   19.4504 C   0  0  0  0  0  0
  -29.5014  -12.4919   18.2182 C   0  0  0  0  0  0
  -28.0251  -12.3238   18.6339 C   0  0  0  0  0  0
  -27.6367  -13.2346   19.8312 C   0  0  2  0  0  0
  -28.6933  -13.1876   20.9568 C   0  0  0  0  0  0
  -25.2468  -13.8237   20.5642 C   0  0  0  0  0  0
  -24.1735  -13.0459   20.9216 C   0  0  0  0  0  0
  -24.6358  -11.6973   20.8746 C   0  0  0  0  0  0
  -23.9027  -10.4324   21.0355 C   0  0  0  0  0  0
  -24.3582   -9.4253   21.9125 C   0  0  0  0  0  0
  -23.6286   -8.2267   22.0704 C   0  0  0  0  0  0
  -22.4267   -8.0270   21.3508 C   0  0  0  0  0  0
  -21.9870   -9.0242   20.4622 C   0  0  0  0  0  0
  -22.7183  -10.2144   20.3032 C   0  0  0  0  0  0
  -21.6868   -6.0689   22.5248 C   0  0  0  0  0  0
  -21.4039   -6.5592   23.8185 C   0  0  0  0  0  0
  -21.3677   -5.6754   24.9148 C   0  0  0  0  0  0
  -21.6028   -4.3016   24.7191 C   0  0  0  0  0  0
  -21.8833   -3.8104   23.4328 C   0  0  0  0  0  0
  -21.9211   -4.6910   22.3384 C   0  0  0  0  0  0
  -22.7767  -13.5240   21.1851 C   0  0  0  0  0  0
  -22.1663   -4.2114   21.0938 F   0  0  0  0  0  0
  -21.5643   -3.4500   25.7691 F   0  0  0  0  0  0
  -29.9919  -13.5247   20.3599 N   0  0  0  0  0  0
  -26.2895  -12.9444   20.3203 N   0  0  0  0  0  0
  -25.9291  -11.6608   20.5749 N   0  0  0  0  0  0
  -22.0381  -12.8290   22.0450 N   0  0  0  0  0  0
  -25.4079  -15.1949   20.3982 N   0  0  0  0  0  0
  -31.8677  -14.7738   20.2096 O   0  0  0  0  0  0
  -21.6669   -6.8834   21.4200 O   0  0  0  0  0  0
  -22.3447  -14.5483   20.6609 O   0  0  0  0  0  0
  -24.6288  -31.8506   23.1979 C   0  0  0  0  0  0
  -25.9103  -32.4758   23.8278 C   0  0  1  0  0  0
  -27.2473  -27.2785   20.1486 C   0  0  0  0  0  0
  -25.5904  -33.8549   24.2229 N   0  0  0  0  0  0
  -23.4284  -30.4652   21.5404 C   0  0  2  0  0  0
  -24.8871  -28.8977   20.1284 C   0  0  0  0  0  0
  -22.7455  -29.4581   22.4942 C   0  0  0  0  0  0
  -18.0245  -28.1383   22.8518 C   0  0  0  0  0  0
  -24.1484  -36.7309   23.2633 C   0  0  0  0  0  0
  -25.9688  -30.7675   21.3770 C   0  0  0  0  0  0
  -26.0521  -29.3846   20.7343 C   0  0  0  0  0  0
  -27.2365  -28.5859   20.7357 C   0  0  0  0  0  0
  -26.0651  -26.8462   19.5158 C   0  0  0  0  0  0
  -24.8972  -27.6370   19.5080 C   0  0  0  0  0  0
  -23.6530  -29.7778   20.1656 C   0  0  0  0  0  0
  -25.4130  -36.3108   24.0314 C   0  0  1  0  0  0
  -20.5836  -28.3720   23.1303 C   0  0  2  0  0  0
  -20.6760  -26.9437   22.5452 C   0  0  0  0  0  0
  -19.5751  -26.6403   21.5238 C   0  0  0  0  0  0
  -18.1915  -26.7929   22.1631 C   0  0  0  0  0  0
  -19.1494  -28.8864   23.2900 C   0  0  0  0  0  0
  -18.9430  -30.1454   23.8937 C   0  0  0  0  0  0
  -17.6439  -30.6617   24.0577 C   0  0  0  0  0  0
  -25.9071  -34.9450   23.5106 C   0  0  0  0  0  0
  -16.5319  -29.9119   23.6328 C   0  0  0  0  0  0
  -16.7226  -28.6507   23.0391 C   0  0  0  0  0  0
  -26.4484  -31.6580   25.0667 C   0  0  0  0  0  0
  -25.3719  -31.3734   26.1402 C   0  0  0  0  0  0
  -27.0301  -30.2995   24.6167 C   0  0  0  0  0  0
  -27.6037  -32.4315   25.7446 C   0  0  0  0  0  0
  -27.5599  -37.1824   24.8441 C   0  0  0  0  0  0
  -21.4166  -29.3056   22.3697 N   0  0  0  0  0  0
  -26.4310  -37.3821   23.9393 N   0  0  0  0  0  0
  -24.6948  -31.0431   22.0975 N   0  0  0  0  0  0
  -23.4148  -28.8130   23.3057 O   0  0  0  0  0  0
  -28.3704  -26.4305   20.1221 O   0  0  0  0  0  0
  -26.5650  -34.8916   22.4685 O   0  0  0  0  0  0
  -23.5450  -32.1274   23.7317 O   0  0  0  0  0  0
  -31.7873  -18.7553   22.1153 C   0  0  0  0  0  0
  -31.3687  -17.4712   21.7405 C   0  0  0  0  0  0
  -29.7279  -18.5016   20.2728 C   0  0  0  0  0  0
  -31.2045  -19.9303   21.5839 C   0  0  0  0  0  0
  -30.1218  -19.8678   20.6435 C   0  0  0  0  0  0
  -30.3359  -17.2855   20.8049 C   0  0  0  0  0  0
  -29.5752  -21.2296   18.6606 C   0  0  0  0  0  0
  -29.8416  -22.5900   17.9631 C   0  0  0  0  0  0
  -29.5805  -23.8963   18.7789 C   0  0  0  0  0  0
  -29.1563  -22.4070   20.7693 C   0  0  0  0  0  0
  -28.6068  -23.6897   19.9385 C   0  0  1  0  0  0
  -31.8619  -21.2217   22.0462 C   0  0  0  0  0  0
  -28.3079  -25.0706   20.7407 C   0  0  0  0  0  0
  -29.5643  -21.1295   20.0158 N   0  0  0  0  0  0
  -29.9158  -15.8944   20.5075 N   0  0  0  0  0  0
  -29.3892  -20.2558   17.9242 O   0  0  0  0  0  0
  -31.4709  -12.5458   19.1461 H   0  0  0  0  0  0
  -30.3590  -11.4805   19.9557 H   0  0  0  0  0  0
  -29.7792  -11.7171   17.5021 H   0  0  0  0  0  0
  -29.6209  -13.4453   17.7025 H   0  0  0  0  0  0
  -27.8730  -11.2769   18.8981 H   0  0  0  0  0  0
  -27.3672  -12.5103   17.7839 H   0  0  0  0  0  0
  -27.6196  -14.2506   19.4362 H   0  0  0  0  0  0
  -28.7282  -12.1929   21.4039 H   0  0  0  0  0  0
  -28.4351  -13.8797   21.7613 H   0  0  0  0  0  0
  -25.2715   -9.5760   22.4699 H   0  0  0  0  0  0
  -24.0008   -7.4659   22.7416 H   0  0  0  0  0  0
  -21.0789   -8.8733   19.8943 H   0  0  0  0  0  0
  -22.3574  -10.9654   19.6152 H   0  0  0  0  0  0
  -21.2039   -7.6106   23.9681 H   0  0  0  0  0  0
  -21.1485   -6.0460   25.9041 H   0  0  0  0  0  0
  -22.0612   -2.7565   23.2813 H   0  0  0  0  0  0
  -22.4011  -12.0091   22.5058 H   0  0  0  0  0  0
  -21.0948  -13.1260   22.2480 H   0  0  0  0  0  0
  -24.6217  -15.8329   20.4639 H   0  0  0  0  0  0
  -26.2303  -15.6301   19.9963 H   0  0  0  0  0  0
  -26.7150  -32.5442   23.0984 H   0  0  0  0  0  0
  -25.0016  -33.9628   25.0351 H   0  0  0  0  0  0
  -22.7322  -31.2918   21.3832 H   0  0  0  0  0  0
  -23.3767  -35.9617   23.3280 H   0  0  0  0  0  0
  -24.3570  -36.8990   22.2057 H   0  0  0  0  0  0
  -23.7196  -37.6497   23.6653 H   0  0  0  0  0  0
  -26.0853  -31.5235   20.5987 H   0  0  0  0  0  0
  -26.8503  -30.8367   22.0030 H   0  0  0  0  0  0
  -28.1286  -28.9550   21.2257 H   0  0  0  0  0  0
  -26.0475  -25.8842   19.0219 H   0  0  0  0  0  0
  -24.0071  -27.2601   19.0234 H   0  0  0  0  0  0
  -23.7699  -30.5324   19.3869 H   0  0  0  0  0  0
  -22.7792  -29.1918   19.8794 H   0  0  0  0  0  0
  -25.1324  -36.1994   25.0811 H   0  0  0  0  0  0
  -20.9876  -28.3287   24.1437 H   0  0  0  0  0  0
  -20.5681  -26.2300   23.3647 H   0  0  0  0  0  0
  -21.6636  -26.7506   22.1240 H   0  0  0  0  0  0
  -19.6922  -25.6308   21.1292 H   0  0  0  0  0  0
  -19.6705  -27.3183   20.6739 H   0  0  0  0  0  0
  -17.4205  -26.6664   21.4014 H   0  0  0  0  0  0
  -18.0319  -26.0041   22.8992 H   0  0  0  0  0  0
  -19.7907  -30.7254   24.2344 H   0  0  0  0  0  0
  -17.5005  -31.6309   24.5195 H   0  0  0  0  0  0
  -15.5328  -30.3081   23.7665 H   0  0  0  0  0  0
  -15.8588  -28.0865   22.7139 H   0  0  0  0  0  0
  -24.5793  -30.7226   25.7681 H   0  0  0  0  0  0
  -24.9017  -32.2935   26.4916 H   0  0  0  0  0  0
  -25.8025  -30.8782   27.0126 H   0  0  0  0  0  0
  -26.2850  -29.6779   24.1204 H   0  0  0  0  0  0
  -27.3960  -29.7263   25.4698 H   0  0  0  0  0  0
  -27.8742  -30.4236   23.9374 H   0  0  0  0  0  0
  -27.2577  -33.3522   26.2160 H   0  0  0  0  0  0
  -28.3763  -32.7092   25.0241 H   0  0  0  0  0  0
  -28.0788  -31.8382   26.5282 H   0  0  0  0  0  0
  -28.2650  -38.0104   24.7575 H   0  0  0  0  0  0
  -28.1100  -36.2679   24.6205 H   0  0  0  0  0  0
  -27.2314  -37.1392   25.8838 H   0  0  0  0  0  0
  -20.9340  -29.8775   21.6907 H   0  0  0  0  0  0
  -26.0227  -38.2915   24.1425 H   0  0  0  0  0  0
  -32.6028  -18.8200   22.8270 H   0  0  0  0  0  0
  -31.8634  -16.6265   22.1951 H   0  0  0  0  0  0
  -28.9531  -18.3766   19.5305 H   0  0  0  0  0  0
  -29.2705  -22.5990   17.0242 H   0  0  0  0  0  0
  -30.8940  -22.5648   17.6612 H   0  0  0  0  0  0
  -29.1763  -24.6799   18.1237 H   0  0  0  0  0  0
  -30.5172  -24.2989   19.1842 H   0  0  0  0  0  0
  -28.4094  -22.1328   21.5138 H   0  0  0  0  0  0
  -30.0028  -22.7722   21.3392 H   0  0  0  0  0  0
  -27.6490  -23.4025   19.4960 H   0  0  0  0  0  0
  -32.8222  -21.0199   22.5277 H   0  0  0  0  0  0
  -31.2422  -21.7226   22.7879 H   0  0  0  0  0  0
  -32.0706  -21.8794   21.2028 H   0  0  0  0  0  0
  -27.3510  -24.9652   21.2552 H   0  0  0  0  0  0
  -29.0372  -25.1255   21.5479 H   0  0  0  0  0  0
  -28.9266  -15.7613   20.3781 H   0  0  0  0  0  0
  1 25  1  0  0  0
  1 30  2  0  0  0
  1 85  1  0  0  0
  2  3  1  0  0  0
  2 25  1  0  0  0
  2 87  1  0  0  0
  2 88  1  0  0  0
  3  4  1  0  0  0
  3 89  1  0  0  0
  3 90  1  0  0  0
  4  5  1  0  0  0
  4 91  1  0  0  0
  4 92  1  0  0  0
  5  6  1  0  0  0
  5 26  1  0  0  0
  5 93  1  0  0  0
  6 25  1  0  0  0
  6 94  1  0  0  0
  6 95  1  0  0  0
  7  8  2  0  0  0
  7 26  1  0  0  0
  7 29  1  0  0  0
  8  9  1  0  0  0
  8 22  1  0  0  0
  9 10  1  0  0  0
  9 27  2  0  0  0
 10 11  2  0  0  0
 10 15  1  0  0  0
 11 12  1  0  0  0
 11 96  1  0  0  0
 12 13  2  0  0  0
 12 97  1  0  0  0
 13 14  1  0  0  0
 13 31  1  0  0  0
 14 15  2  0  0  0
 14 98  1  0  0  0
 15 99  1  0  0  0
 16 17  2  0  0  0
 16 21  1  0  0  0
 16 31  1  0  0  0
 17 18  1  0  0  0
 17100  1  0  0  0
 18 19  2  0  0  0
 18101  1  0  0  0
 19 20  1  0  0  0
 19 24  1  0  0  0
 20 21  2  0  0  0
 20102  1  0  0  0
 21 23  1  0  0  0
 22 28  1  0  0  0
 22 32  2  0  0  0
 26 27  1  0  0  0
 28103  1  0  0  0
 28104  1  0  0  0
 29105  1  0  0  0
 29106  1  0  0  0
 33 34  1  0  0  0
 33 66  1  0  0  0
 33 70  2  0  0  0
 34 36  1  0  0  0
 34 59  1  0  0  0
 34107  1  0  0  0
 35 44  2  0  0  0
 35 45  1  0  0  0
 35 68  1  0  0  0
 36 56  1  0  0  0
 36108  1  0  0  0
 37 39  1  0  0  0
 37 47  1  0  0  0
 37 66  1  0  0  0
 37109  1  0  0  0
 38 43  2  0  0  0
 38 46  1  0  0  0
 38 47  1  0  0  0
 39 64  1  0  0  0
 39 67  2  0  0  0
 40 52  1  0  0  0
 40 53  2  0  0  0
 40 58  1  0  0  0
 41110  1  0  0  0
 41111  1  0  0  0
 41112  1  0  0  0
 41 48  1  0  0  0
 42 43  1  0  0  0
 42 66  1  0  0  0
 42113  1  0  0  0
 42114  1  0  0  0
 43 44  1  0  0  0
 44115  1  0  0  0
 45 46  2  0  0  0
 45116  1  0  0  0
 46117  1  0  0  0
 47118  1  0  0  0
 47119  1  0  0  0
 48 56  1  0  0  0
 48 65  1  0  0  0
 48120  1  0  0  0
 49 50  1  0  0  0
 49 53  1  0  0  0
 49 64  1  0  0  0
 49121  1  0  0  0
 50 51  1  0  0  0
 50122  1  0  0  0
 50123  1  0  0  0
 51 52  1  0  0  0
 51124  1  0  0  0
 51125  1  0  0  0
 52126  1  0  0  0
 52127  1  0  0  0
 53 54  1  0  0  0
 54 55  2  0  0  0
 54128  1  0  0  0
 55 57  1  0  0  0
 55129  1  0  0  0
 56 69  2  0  0  0
 57 58  2  0  0  0
 57130  1  0  0  0
 58131  1  0  0  0
 59 60  1  0  0  0
 59 61  1  0  0  0
 59 62  1  0  0  0
 60132  1  0  0  0
 60133  1  0  0  0
 60134  1  0  0  0
 61135  1  0  0  0
 61136  1  0  0  0
 61137  1  0  0  0
 62138  1  0  0  0
 62139  1  0  0  0
 62140  1  0  0  0
 63 65  1  0  0  0
 63141  1  0  0  0
 63142  1  0  0  0
 63143  1  0  0  0
 64144  1  0  0  0
 65145  1  0  0  0
 68 83  1  0  0  0
 71 72  2  0  0  0
 71 74  1  0  0  0
 71146  1  0  0  0
 72 76  1  0  0  0
 72147  1  0  0  0
 73 75  1  0  0  0
 73 76  2  0  0  0
 73148  1  0  0  0
 74 75  2  0  0  0
 74 82  1  0  0  0
 75 84  1  0  0  0
 76 85  1  0  0  0
 77 78  1  0  0  0
 77 84  1  0  0  0
 77 86  2  0  0  0
 78 79  1  0  0  0
 78149  1  0  0  0
 78150  1  0  0  0
 79 81  1  0  0  0
 79151  1  0  0  0
 79152  1  0  0  0
 80 81  1  0  0  0
 80 84  1  0  0  0
 80153  1  0  0  0
 80154  1  0  0  0
 81 83  1  0  0  0
 81155  1  0  0  0
 82156  1  0  0  0
 82157  1  0  0  0
 82158  1  0  0  0
 83159  1  0  0  0
 83160  1  0  0  0
 85161  1  0  0  0
M  ISO  4   1 100  68 101  83 101  85 100
M  END
> <chiral flag>
0

> <version>
0

> <s_m_source_file>
/data/baiqing/PycharmProjects/Reinvent-master-3.2/result/LINK_invent/BTK/process_docking_weight1_custom_product_contain_oxygen_bond_distance_aromatic_linkinvent_7_9_3/rearranged_h_0057.sdf

> <i_m_source_file_index>
69

> <r_mmod_Potential_Energy-OPLS-2005>
318.340942382812

> <r_mmod_Stretch_Energy-OPLS-2005>
139.152084350586

> <r_mmod_Bend_Energy-OPLS-2005>
173.173645019531

> <r_mmod_Torsional_Energy-OPLS-2005>
338.375518798828

> <r_mmod_Improper_Torsional_Energy-OPLS-2005>
8.4428014755249

> <r_mmod_Van_der_Waal_Energy-OPLS-2005>
149.371109008789

> <r_mmod_Electrostatic_Energy-OPLS-2005>
-347.951721191406

> <r_mmod_Solvation_Energy-OPLS-2005>
-220.120315551758

> <b_mmod_Minimization_Converged-OPLS-2005>
0

> <r_mmod_RMS_Derivative-OPLS-2005>
6.59098815917969

$$$$
70
                    3D
 Structure written by MMmdl.
163172  0  0  1  0            999 V2000
  -30.6935  -14.5350   20.5123 C   0  0  0  0  0  0
  -30.4131  -12.3275   19.4473 C   0  0  0  0  0  0
  -29.4982  -12.5062   18.2183 C   0  0  0  0  0  0
  -28.0174  -12.3684   18.6220 C   0  0  0  0  0  0
  -27.6519  -13.2221   19.8673 C   0  0  2  0  0  0
  -28.6950  -13.0572   20.9972 C   0  0  0  0  0  0
  -25.2518  -13.8191   20.5694 C   0  0  0  0  0  0
  -24.1800  -13.0438   20.9174 C   0  0  0  0  0  0
  -24.6383  -11.6916   20.8730 C   0  0  0  0  0  0
  -23.9064  -10.4294   21.0410 C   0  0  0  0  0  0
  -24.3618   -9.4206   21.9184 C   0  0  0  0  0  0
  -23.6289   -8.2240   22.0757 C   0  0  0  0  0  0
  -22.4262   -8.0281   21.3549 C   0  0  0  0  0  0
  -21.9898   -9.0261   20.4655 C   0  0  0  0  0  0
  -22.7235  -10.2138   20.3062 C   0  0  0  0  0  0
  -21.6845   -6.0728   22.5271 C   0  0  0  0  0  0
  -21.4027   -6.5639   23.8206 C   0  0  0  0  0  0
  -21.3664   -5.6794   24.9172 C   0  0  0  0  0  0
  -21.6034   -4.3054   24.7223 C   0  0  0  0  0  0
  -21.8817   -3.8139   23.4348 C   0  0  0  0  0  0
  -21.9195   -4.6957   22.3402 C   0  0  0  0  0  0
  -22.7824  -13.5231   21.1836 C   0  0  0  0  0  0
  -22.1656   -4.2138   21.0983 F   0  0  0  0  0  0
  -21.5624   -3.4543   25.7744 F   0  0  0  0  0  0
  -30.0201  -13.3501   20.4348 N   0  0  0  0  0  0
  -26.2968  -12.9394   20.3340 N   0  0  0  0  0  0
  -25.9310  -11.6537   20.5739 N   0  0  0  0  0  0
  -22.0474  -12.8246   22.0419 N   0  0  0  0  0  0
  -25.4183  -15.1924   20.4148 N   0  0  0  0  0  0
  -31.8706  -14.6147   20.1589 O   0  0  0  0  0  0
  -21.6626   -6.8874   21.4233 O   0  0  0  0  0  0
  -22.3519  -14.5532   20.6675 O   0  0  0  0  0  0
  -24.6188  -31.8668   23.2087 C   0  0  0  0  0  0
  -25.9076  -32.4816   23.8378 C   0  0  1  0  0  0
  -27.2224  -27.4044   20.1131 C   0  0  0  0  0  0
  -25.5934  -33.8612   24.2329 N   0  0  0  0  0  0
  -23.4072  -30.4921   21.5480 C   0  0  2  0  0  0
  -24.8543  -28.9545   20.1153 C   0  0  0  0  0  0
  -22.7435  -29.4663   22.4952 C   0  0  0  0  0  0
  -18.0290  -28.1389   22.8498 C   0  0  0  0  0  0
  -24.1486  -36.7303   23.2634 C   0  0  0  0  0  0
  -25.9392  -30.8257   21.3650 C   0  0  0  0  0  0
  -26.0161  -29.4553   20.7183 C   0  0  0  0  0  0
  -27.2076  -28.6853   20.7167 C   0  0  0  0  0  0
  -26.0482  -26.9295   19.4955 C   0  0  0  0  0  0
  -24.8650  -27.6905   19.5011 C   0  0  0  0  0  0
  -23.6199  -29.8283   20.1619 C   0  0  0  0  0  0
  -25.4103  -36.3106   24.0340 C   0  0  1  0  0  0
  -20.5887  -28.3689   23.1304 C   0  0  2  0  0  0
  -20.6776  -26.9416   22.5415 C   0  0  0  0  0  0
  -19.5748  -26.6402   21.5213 C   0  0  0  0  0  0
  -18.1931  -26.7940   22.1627 C   0  0  0  0  0  0
  -19.1539  -28.8855   23.2906 C   0  0  0  0  0  0
  -18.9458  -30.1463   23.8911 C   0  0  0  0  0  0
  -17.6458  -30.6590   24.0578 C   0  0  0  0  0  0
  -25.9038  -34.9472   23.5123 C   0  0  0  0  0  0
  -16.5352  -29.9090   23.6333 C   0  0  0  0  0  0
  -16.7280  -28.6516   23.0339 C   0  0  0  0  0  0
  -26.4498  -31.6591   25.0703 C   0  0  0  0  0  0
  -25.3769  -31.3694   26.1457 C   0  0  0  0  0  0
  -27.0318  -30.3027   24.6070 C   0  0  0  0  0  0
  -27.6077  -32.4298   25.7475 C   0  0  0  0  0  0
  -27.5577  -37.1805   24.8471 C   0  0  0  0  0  0
  -21.4164  -29.3042   22.3696 N   0  0  0  0  0  0
  -26.4288  -37.3788   23.9418 N   0  0  0  0  0  0
  -24.6734  -31.0757   22.0990 N   0  0  0  0  0  0
  -23.4198  -28.8208   23.3013 O   0  0  0  0  0  0
  -28.3484  -26.6049   20.0848 O   0  0  0  0  0  0
  -26.5586  -34.8931   22.4680 O   0  0  0  0  0  0
  -23.5377  -32.1427   23.7474 O   0  0  0  0  0  0
  -31.5776  -18.7904   19.4451 C   0  0  0  0  0  0
  -31.2971  -17.4351   19.6829 C   0  0  0  0  0  0
  -29.4659  -18.0814   21.1349 C   0  0  0  0  0  0
  -30.8206  -19.8097   20.0508 C   0  0  0  0  0  0
  -29.7218  -19.4679   20.8806 C   0  0  0  0  0  0
  -30.2555  -17.0394   20.5596 C   0  0  0  0  0  0
  -28.4405  -24.3203   20.3989 C   0  0  0  0  0  0
  -28.8632  -24.0847   18.9601 C   0  0  0  0  0  0
  -27.5112  -21.3308   19.6095 C   0  0  0  0  0  0
  -28.2819  -23.0391   21.2817 C   0  0  0  0  0  0
  -27.8985  -23.3089   18.0536 C   0  0  0  0  0  0
  -26.8547  -22.4471   18.7937 C   0  0  0  0  0  0
  -31.2265  -21.2494   19.7845 C   0  0  0  0  0  0
  -28.8421  -20.5663   21.5365 C   0  0  0  0  0  0
  -28.1958  -25.4675   20.9396 N   0  0  0  0  0  0
  -28.2819  -21.6600   20.6785 N   0  0  0  0  0  0
  -29.9629  -15.6407   20.8335 N   0  0  0  0  0  0
  -29.9183  -24.5238   18.4911 O   0  0  0  0  0  0
  -27.3087  -20.1681   19.2526 O   0  0  0  0  0  0
  -31.4618  -12.4003   19.1541 H   0  0  0  0  0  0
  -30.2961  -11.3294   19.8730 H   0  0  0  0  0  0
  -29.7477  -11.7748   17.4492 H   0  0  0  0  0  0
  -29.6664  -13.4875   17.7714 H   0  0  0  0  0  0
  -27.8260  -11.3147   18.8265 H   0  0  0  0  0  0
  -27.3756  -12.6359   17.7814 H   0  0  0  0  0  0
  -27.6772  -14.2631   19.5452 H   0  0  0  0  0  0
  -28.6763  -12.0394   21.3892 H   0  0  0  0  0  0
  -28.4627  -13.7043   21.8448 H   0  0  0  0  0  0
  -25.2771   -9.5670   22.4751 H   0  0  0  0  0  0
  -23.9991   -7.4631   22.7487 H   0  0  0  0  0  0
  -21.0811   -8.8794   19.8972 H   0  0  0  0  0  0
  -22.3697  -10.9681   19.6167 H   0  0  0  0  0  0
  -21.2028   -7.6149   23.9713 H   0  0  0  0  0  0
  -21.1483   -6.0524   25.9077 H   0  0  0  0  0  0
  -22.0590   -2.7597   23.2851 H   0  0  0  0  0  0
  -22.4107  -11.9925   22.4818 H   0  0  0  0  0  0
  -21.1103  -13.1290   22.2636 H   0  0  0  0  0  0
  -24.6436  -15.8383   20.5224 H   0  0  0  0  0  0
  -26.2643  -15.6411   20.0856 H   0  0  0  0  0  0
  -26.7148  -32.5535   23.1140 H   0  0  0  0  0  0
  -25.0112  -33.9759   25.0496 H   0  0  0  0  0  0
  -22.6954  -31.3088   21.4078 H   0  0  0  0  0  0
  -23.3742  -35.9642   23.3316 H   0  0  0  0  0  0
  -24.3576  -36.8892   22.2042 H   0  0  0  0  0  0
  -23.7244  -37.6516   23.6636 H   0  0  0  0  0  0
  -26.0499  -31.5888   20.5934 H   0  0  0  0  0  0
  -26.8259  -30.8845   21.9842 H   0  0  0  0  0  0
  -28.1085  -29.0623   21.1785 H   0  0  0  0  0  0
  -26.0467  -25.9603   19.0191 H   0  0  0  0  0  0
  -23.9728  -27.2988   19.0327 H   0  0  0  0  0  0
  -23.7358  -30.6042   19.4036 H   0  0  0  0  0  0
  -22.7416  -29.2550   19.8616 H   0  0  0  0  0  0
  -25.1278  -36.1960   25.0830 H   0  0  0  0  0  0
  -20.9992  -28.3262   24.1421 H   0  0  0  0  0  0
  -20.5681  -26.2287   23.3606 H   0  0  0  0  0  0
  -21.6643  -26.7453   22.1203 H   0  0  0  0  0  0
  -19.6901  -25.6318   21.1228 H   0  0  0  0  0  0
  -19.6683  -27.3224   20.6754 H   0  0  0  0  0  0
  -17.4202  -26.6719   21.4027 H   0  0  0  0  0  0
  -18.0320  -26.0068   22.9005 H   0  0  0  0  0  0
  -19.7926  -30.7291   24.2267 H   0  0  0  0  0  0
  -17.5003  -31.6266   24.5182 H   0  0  0  0  0  0
  -15.5347  -30.2991   23.7641 H   0  0  0  0  0  0
  -15.8687  -28.0848   22.7012 H   0  0  0  0  0  0
  -24.5972  -30.6993   25.7817 H   0  0  0  0  0  0
  -24.8916  -32.2834   26.4884 H   0  0  0  0  0  0
  -25.8137  -30.8906   27.0228 H   0  0  0  0  0  0
  -26.2852  -29.6783   24.1135 H   0  0  0  0  0  0
  -27.4105  -29.7269   25.4526 H   0  0  0  0  0  0
  -27.8691  -30.4334   23.9205 H   0  0  0  0  0  0
  -27.2713  -33.3601   26.2062 H   0  0  0  0  0  0
  -28.3894  -32.6831   25.0303 H   0  0  0  0  0  0
  -28.0735  -31.8397   26.5380 H   0  0  0  0  0  0
  -28.2611  -38.0085   24.7500 H   0  0  0  0  0  0
  -28.1055  -36.2614   24.6322 H   0  0  0  0  0  0
  -27.2300  -37.1498   25.8877 H   0  0  0  0  0  0
  -20.9331  -29.8749   21.6902 H   0  0  0  0  0  0
  -26.0179  -38.2867   24.1415 H   0  0  0  0  0  0
  -32.3973  -19.0422   18.7860 H   0  0  0  0  0  0
  -31.9141  -16.7230   19.1585 H   0  0  0  0  0  0
  -28.6471  -17.8168   21.7897 H   0  0  0  0  0  0
  -27.3429  -23.1368   21.8289 H   0  0  0  0  0  0
  -29.0572  -23.0985   22.0449 H   0  0  0  0  0  0
  -28.4882  -22.6750   17.3899 H   0  0  0  0  0  0
  -27.3886  -24.0298   17.4141 H   0  0  0  0  0  0
  -26.1951  -23.0428   19.4260 H   0  0  0  0  0  0
  -26.1975  -21.9903   18.0535 H   0  0  0  0  0  0
  -32.2725  -21.3126   19.4804 H   0  0  0  0  0  0
  -31.1165  -21.8727   20.6715 H   0  0  0  0  0  0
  -30.6218  -21.6680   18.9807 H   0  0  0  0  0  0
  -29.4365  -20.9901   22.3466 H   0  0  0  0  0  0
  -28.0017  -20.0828   22.0363 H   0  0  0  0  0  0
  -29.0501  -15.4475   21.2151 H   0  0  0  0  0  0
  1 25  1  0  0  0
  1 30  2  0  0  0
  1 87  1  0  0  0
  2  3  1  0  0  0
  2 25  1  0  0  0
  2 90  1  0  0  0
  2 91  1  0  0  0
  3  4  1  0  0  0
  3 92  1  0  0  0
  3 93  1  0  0  0
  4  5  1  0  0  0
  4 94  1  0  0  0
  4 95  1  0  0  0
  5  6  1  0  0  0
  5 26  1  0  0  0
  5 96  1  0  0  0
  6 25  1  0  0  0
  6 97  1  0  0  0
  6 98  1  0  0  0
  7  8  2  0  0  0
  7 26  1  0  0  0
  7 29  1  0  0  0
  8  9  1  0  0  0
  8 22  1  0  0  0
  9 10  1  0  0  0
  9 27  2  0  0  0
 10 11  2  0  0  0
 10 15  1  0  0  0
 11 12  1  0  0  0
 11 99  1  0  0  0
 12 13  2  0  0  0
 12100  1  0  0  0
 13 14  1  0  0  0
 13 31  1  0  0  0
 14 15  2  0  0  0
 14101  1  0  0  0
 15102  1  0  0  0
 16 17  2  0  0  0
 16 21  1  0  0  0
 16 31  1  0  0  0
 17 18  1  0  0  0
 17103  1  0  0  0
 18 19  2  0  0  0
 18104  1  0  0  0
 19 20  1  0  0  0
 19 24  1  0  0  0
 20 21  2  0  0  0
 20105  1  0  0  0
 21 23  1  0  0  0
 22 28  1  0  0  0
 22 32  2  0  0  0
 26 27  1  0  0  0
 28106  1  0  0  0
 28107  1  0  0  0
 29108  1  0  0  0
 29109  1  0  0  0
 33 34  1  0  0  0
 33 66  1  0  0  0
 33 70  2  0  0  0
 34 36  1  0  0  0
 34 59  1  0  0  0
 34110  1  0  0  0
 35 44  2  0  0  0
 35 45  1  0  0  0
 35 68  1  0  0  0
 36 56  1  0  0  0
 36111  1  0  0  0
 37 39  1  0  0  0
 37 47  1  0  0  0
 37 66  1  0  0  0
 37112  1  0  0  0
 38 43  2  0  0  0
 38 46  1  0  0  0
 38 47  1  0  0  0
 39 64  1  0  0  0
 39 67  2  0  0  0
 40 52  1  0  0  0
 40 53  2  0  0  0
 40 58  1  0  0  0
 41113  1  0  0  0
 41114  1  0  0  0
 41115  1  0  0  0
 41 48  1  0  0  0
 42 43  1  0  0  0
 42 66  1  0  0  0
 42116  1  0  0  0
 42117  1  0  0  0
 43 44  1  0  0  0
 44118  1  0  0  0
 45 46  2  0  0  0
 45119  1  0  0  0
 46120  1  0  0  0
 47121  1  0  0  0
 47122  1  0  0  0
 48 56  1  0  0  0
 48 65  1  0  0  0
 48123  1  0  0  0
 49 50  1  0  0  0
 49 53  1  0  0  0
 49 64  1  0  0  0
 49124  1  0  0  0
 50 51  1  0  0  0
 50125  1  0  0  0
 50126  1  0  0  0
 51 52  1  0  0  0
 51127  1  0  0  0
 51128  1  0  0  0
 52129  1  0  0  0
 52130  1  0  0  0
 53 54  1  0  0  0
 54 55  2  0  0  0
 54131  1  0  0  0
 55 57  1  0  0  0
 55132  1  0  0  0
 56 69  2  0  0  0
 57 58  2  0  0  0
 57133  1  0  0  0
 58134  1  0  0  0
 59 60  1  0  0  0
 59 61  1  0  0  0
 59 62  1  0  0  0
 60135  1  0  0  0
 60136  1  0  0  0
 60137  1  0  0  0
 61138  1  0  0  0
 61139  1  0  0  0
 61140  1  0  0  0
 62141  1  0  0  0
 62142  1  0  0  0
 62143  1  0  0  0
 63 65  1  0  0  0
 63144  1  0  0  0
 63145  1  0  0  0
 63146  1  0  0  0
 64147  1  0  0  0
 65148  1  0  0  0
 68 85  1  0  0  0
 71 72  2  0  0  0
 71 74  1  0  0  0
 71149  1  0  0  0
 72 76  1  0  0  0
 72150  1  0  0  0
 73 75  1  0  0  0
 73 76  2  0  0  0
 73151  1  0  0  0
 74 75  2  0  0  0
 74 83  1  0  0  0
 75 84  1  0  0  0
 76 87  1  0  0  0
 77 78  1  0  0  0
 77 80  1  0  0  0
 77 85  2  0  0  0
 78 81  1  0  0  0
 78 88  2  0  0  0
 79 82  1  0  0  0
 79 86  1  0  0  0
 79 89  2  0  0  0
 80 86  1  0  0  0
 80152  1  0  0  0
 80153  1  0  0  0
 81 82  1  0  0  0
 81154  1  0  0  0
 81155  1  0  0  0
 82156  1  0  0  0
 82157  1  0  0  0
 83158  1  0  0  0
 83159  1  0  0  0
 83160  1  0  0  0
 84 86  1  0  0  0
 84161  1  0  0  0
 84162  1  0  0  0
 87163  1  0  0  0
M  ISO  4   1 100  68 101  85 101  87 100
M  END
> <chiral flag>
0

> <version>
0

> <s_m_source_file>
/data/baiqing/PycharmProjects/Reinvent-master-3.2/result/LINK_invent/BTK/process_docking_weight1_custom_product_contain_oxygen_bond_distance_aromatic_linkinvent_7_9_3/rearranged_h_0057.sdf

> <i_m_source_file_index>
70

> <r_mmod_Potential_Energy-OPLS-2005>
-13.702582359314

> <r_mmod_Stretch_Energy-OPLS-2005>
61.8084106445312

> <r_mmod_Bend_Energy-OPLS-2005>
121.52515411377

> <r_mmod_Torsional_Energy-OPLS-2005>
273.26611328125

> <r_mmod_Improper_Torsional_Energy-OPLS-2005>
4.86289930343628

> <r_mmod_Van_der_Waal_Energy-OPLS-2005>
166.670135498047

> <r_mmod_Electrostatic_Energy-OPLS-2005>
-408.266571044922

> <r_mmod_Solvation_Energy-OPLS-2005>
-257.069519042969

> <b_mmod_Minimization_Converged-OPLS-2005>
0

> <r_mmod_RMS_Derivative-OPLS-2005>
2.0867772102356

$$$$
71
                    3D
 Structure written by MMmdl.
177186  0  0  1  0            999 V2000
  -29.5834  -12.8599   20.2899 C   0  0  0  0  0  0
  -30.4676  -11.7539   19.4132 C   0  0  0  0  0  0
  -29.4891  -12.2671   17.9991 C   0  0  0  0  0  0
  -28.0061  -13.0649   18.2824 C   0  0  0  0  0  0
  -27.6453  -13.9823   19.7725 C   0  0  2  0  0  0
  -28.6713  -13.5750   21.2589 C   0  0  0  0  0  0
  -25.2944  -14.5771   20.5842 C   0  0  0  0  0  0
  -24.3009  -13.7026   20.8374 C   0  0  0  0  0  0
  -25.0525  -12.4752   20.5637 C   0  0  0  0  0  0
  -24.7504   -9.7198   21.0109 C   0  0  0  0  0  0
  -24.6240   -8.9515   22.2322 C   0  0  0  0  0  0
  -23.5603   -8.0549   22.4983 C   0  0  0  0  0  0
  -22.5176   -7.8457   21.5551 C   0  0  0  0  0  0
  -22.6414   -8.4202   20.3324 C   0  0  0  0  0  0
  -23.9640   -8.7974   20.1230 C   0  0  0  0  0  0
  -21.5670   -6.0404   22.6306 C   0  0  0  0  0  0
  -21.2939   -6.5011   23.9288 C   0  0  0  0  0  0
  -21.3338   -5.6060   25.0009 C   0  0  0  0  0  0
  -21.5996   -4.2473   24.7596 C   0  0  0  0  0  0
  -21.8744   -3.7870   23.4564 C   0  0  0  0  0  0
  -21.8720   -4.6887   22.3816 C   0  0  0  0  0  0
  -22.8370  -14.0681   21.1200 C   0  0  0  0  0  0
  -22.1380   -4.2521   21.1232 F   0  0  0  0  0  0
  -21.5825   -3.3814   25.7940 F   0  0  0  0  0  0
  -29.9888  -12.3572   21.0090 N   0  0  0  0  0  0
  -26.3534  -13.8276   20.2562 N   0  0  0  0  0  0
  -25.7004  -13.0384   19.6197 N   0  0  0  0  0  0
  -22.1318  -13.6540   22.1728 N   0  0  0  0  0  0
  -25.3968  -15.9173   20.4856 N   0  0  0  0  0  0
  -30.6769  -13.7709   20.3253 O   0  0  0  0  0  0
  -21.5103   -6.9386   21.6260 O   0  0  0  0  0  0
  -22.2723  -14.8189   20.3538 O   0  0  0  0  0  0
  -24.6310  -31.8595   23.2064 C   0  0  0  0  0  0
  -25.9190  -32.4738   23.8350 C   0  0  1  0  0  0
  -27.1035  -27.2166   20.1931 C   0  0  0  0  0  0
  -25.5994  -33.8551   24.2223 N   0  0  0  0  0  0
  -23.4190  -30.5031   21.5444 C   0  0  2  0  0  0
  -24.8496  -28.9677   20.0863 C   0  0  0  0  0  0
  -22.7441  -29.4716   22.4815 C   0  0  0  0  0  0
  -18.0311  -28.1396   22.8451 C   0  0  0  0  0  0
  -24.1518  -36.7318   23.2636 C   0  0  0  0  0  0
  -25.9751  -30.7588   21.4041 C   0  0  0  0  0  0
  -26.0207  -29.3907   20.7279 C   0  0  0  0  0  0
  -27.1583  -28.5244   20.7797 C   0  0  0  0  0  0
  -25.9656  -26.9260   19.4126 C   0  0  0  0  0  0
  -24.8333  -27.7494   19.4015 C   0  0  0  0  0  0
  -23.6296  -29.8627   20.1489 C   0  0  0  0  0  0
  -25.4138  -36.3063   24.0305 C   0  0  1  0  0  0
  -20.5907  -28.3768   23.1178 C   0  0  2  0  0  0
  -20.6795  -26.9467   22.5382 C   0  0  0  0  0  0
  -19.5806  -26.6396   21.5148 C   0  0  0  0  0  0
  -18.1965  -26.7950   22.1550 C   0  0  0  0  0  0
  -19.1562  -28.8880   23.2832 C   0  0  0  0  0  0
  -18.9497  -30.1452   23.8902 C   0  0  0  0  0  0
  -17.6509  -30.6597   24.0575 C   0  0  0  0  0  0
  -25.9081  -34.9433   23.5055 C   0  0  0  0  0  0
  -16.5391  -29.9113   23.6323 C   0  0  0  0  0  0
  -16.7299  -28.6517   23.0344 C   0  0  0  0  0  0
  -26.4521  -31.6595   25.0779 C   0  0  0  0  0  0
  -25.3709  -31.3864   26.1489 C   0  0  0  0  0  0
  -27.0329  -30.2936   24.6437 C   0  0  0  0  0  0
  -27.6071  -32.4362   25.7532 C   0  0  0  0  0  0
  -27.5595  -37.1799   24.8447 C   0  0  0  0  0  0
  -21.4163  -29.3110   22.3522 N   0  0  0  0  0  0
  -26.4320  -37.3748   23.9366 N   0  0  0  0  0  0
  -24.6925  -31.0601   22.1045 N   0  0  0  0  0  0
  -23.4142  -28.8220   23.2882 O   0  0  0  0  0  0
  -28.0279  -26.1778   20.4375 O   0  0  0  0  0  0
  -26.5659  -34.8918   22.4629 O   0  0  0  0  0  0
  -23.5476  -32.1470   23.7390 O   0  0  0  0  0  0
  -23.6532  -18.1306   23.0745 C   0  0  0  0  0  0
  -23.8948  -16.8283   23.5545 C   0  0  0  0  0  0
  -24.7040  -18.9679   22.6517 C   0  0  0  0  0  0
  -23.8341  -11.0505   19.3181 C   0  0  0  0  0  0
  -25.6904  -10.7002   19.1532 C   0  0  0  0  0  0
  -26.1397  -11.2332   22.1852 C   0  0  0  0  0  0
  -24.3694  -11.4967   22.4993 C   0  0  0  0  0  0
  -23.1336  -11.3097   21.0536 C   0  0  0  0  0  0
  -25.1966  -16.2989   23.6440 C   0  0  0  0  0  0
  -26.0448  -18.5403   22.6845 C   0  0  0  0  0  0
  -26.2772  -17.1764   23.1868 C   0  0  0  0  0  0
  -26.8606  -10.9499   20.5830 C   0  0  0  0  0  0
  -24.2620  -12.4861   23.6906 C   0  0  0  0  0  0
  -27.3024  -22.0476   21.2083 C   0  0  0  0  0  0
  -21.6123  -11.1643   21.2513 C   0  0  0  0  0  0
  -27.6895  -16.6164   23.2055 C   0  0  0  0  0  0
  -25.3071  -14.8668   24.3545 C   0  0  0  0  0  0
  -27.1322  -19.5395   22.0559 C   0  0  0  0  0  0
  -27.7331  -23.5745   21.5256 C   0  0  0  0  0  0
  -27.4882  -24.7432   20.4153 C   0  0  0  0  0  0
  -28.4873  -11.4822   20.5262 N   0  0  0  0  0  0
  -25.1286  -13.5665   23.6049 N   0  0  0  0  0  0
  -27.0675  -21.0731   22.1768 N   0  0  0  0  0  0
  -23.3581  -12.4015   24.5193 O   0  0  0  0  0  0
  -27.2321  -21.7287   20.0214 O   0  0  0  0  0  0
  -31.5365  -11.9042   19.1918 H   0  0  0  0  0  0
  -30.4842  -10.6556   19.4369 H   0  0  0  0  0  0
  -29.3069  -11.4038   17.3548 H   0  0  0  0  0  0
  -30.1050  -12.9320   17.3903 H   0  0  0  0  0  0
  -27.2758  -12.3115   18.0295 H   0  0  0  0  0  0
  -27.8722  -13.7646   17.4584 H   0  0  0  0  0  0
  -27.7971  -15.0384   19.5406 H   0  0  0  0  0  0
  -28.0147  -13.2578   22.0865 H   0  0  0  0  0  0
  -28.9895  -14.5233   21.7495 H   0  0  0  0  0  0
  -25.2168   -9.1821   23.1062 H   0  0  0  0  0  0
  -23.5498   -7.5865   23.4713 H   0  0  0  0  0  0
  -21.9971   -8.1169   19.5190 H   0  0  0  0  0  0
  -24.1672   -8.7672   19.0588 H   0  0  0  0  0  0
  -21.0604   -7.5419   24.1046 H   0  0  0  0  0  0
  -21.1427   -5.9507   26.0073 H   0  0  0  0  0  0
  -22.0800   -2.7422   23.2833 H   0  0  0  0  0  0
  -22.5128  -13.0566   22.8886 H   0  0  0  0  0  0
  -21.1894  -13.9934   22.2789 H   0  0  0  0  0  0
  -24.6591  -16.5430   20.7843 H   0  0  0  0  0  0
  -26.2408  -16.4069   20.2275 H   0  0  0  0  0  0
  -26.7251  -32.5289   23.1061 H   0  0  0  0  0  0
  -25.0073  -33.9676   25.0323 H   0  0  0  0  0  0
  -22.7182  -31.3313   21.4109 H   0  0  0  0  0  0
  -23.3745  -35.9689   23.3316 H   0  0  0  0  0  0
  -24.3626  -36.8937   22.2052 H   0  0  0  0  0  0
  -23.7322  -37.6546   23.6663 H   0  0  0  0  0  0
  -26.1563  -31.5277   20.6541 H   0  0  0  0  0  0
  -26.8408  -30.7697   22.0540 H   0  0  0  0  0  0
  -28.0275  -28.8142   21.3540 H   0  0  0  0  0  0
  -25.8926  -26.0111   18.8445 H   0  0  0  0  0  0
  -23.9500  -27.4293   18.8640 H   0  0  0  0  0  0
  -23.7704  -30.6539   19.4129 H   0  0  0  0  0  0
  -22.7361  -29.3229   19.8289 H   0  0  0  0  0  0
  -25.1316  -36.1921   25.0800 H   0  0  0  0  0  0
  -21.0055  -28.3428   24.1275 H   0  0  0  0  0  0
  -20.5598  -26.2410   23.3612 H   0  0  0  0  0  0
  -21.6672  -26.7414   22.1240 H   0  0  0  0  0  0
  -19.7003  -25.6281   21.1220 H   0  0  0  0  0  0
  -19.6779  -27.3149   20.6623 H   0  0  0  0  0  0
  -17.4223  -26.6677   21.3961 H   0  0  0  0  0  0
  -18.0432  -26.0064   22.8927 H   0  0  0  0  0  0
  -19.7990  -30.7238   24.2275 H   0  0  0  0  0  0
  -17.5096  -31.6281   24.5191 H   0  0  0  0  0  0
  -15.5403  -30.3050   23.7654 H   0  0  0  0  0  0
  -15.8678  -28.0851   22.7075 H   0  0  0  0  0  0
  -24.5971  -30.7054   25.7923 H   0  0  0  0  0  0
  -24.8784  -32.3065   26.4655 H   0  0  0  0  0  0
  -25.8037  -30.9314   27.0406 H   0  0  0  0  0  0
  -26.2944  -29.6679   24.1417 H   0  0  0  0  0  0
  -27.3795  -29.7248   25.5078 H   0  0  0  0  0  0
  -27.8935  -30.4056   23.9841 H   0  0  0  0  0  0
  -27.2641  -33.3630   26.2151 H   0  0  0  0  0  0
  -28.3863  -32.6996   25.0362 H   0  0  0  0  0  0
  -28.0793  -31.8487   26.5420 H   0  0  0  0  0  0
  -28.2631  -38.0068   24.7405 H   0  0  0  0  0  0
  -28.1059  -36.2591   24.6348 H   0  0  0  0  0  0
  -27.2315  -37.1547   25.8854 H   0  0  0  0  0  0
  -20.9297  -29.8856   21.6764 H   0  0  0  0  0  0
  -26.0210  -38.2840   24.1298 H   0  0  0  0  0  0
  -22.6359  -18.4945   23.0376 H   0  0  0  0  0  0
  -23.0660  -16.2214   23.8948 H   0  0  0  0  0  0
  -24.4680  -19.9474   22.2601 H   0  0  0  0  0  0
  -23.1775  -10.9516   18.4639 H   0  0  0  0  0  0
  -26.0847  -10.5220   18.1644 H   0  0  0  0  0  0
  -26.8162  -11.4943   22.9887 H   0  0  0  0  0  0
  -21.1887  -10.2426   20.8714 H   0  0  0  0  0  0
  -21.0764  -11.9336   20.6987 H   0  0  0  0  0  0
  -21.3630  -11.2153   22.3121 H   0  0  0  0  0  0
  -27.6736  -15.5290   23.2460 H   0  0  0  0  0  0
  -28.2335  -16.9677   24.0801 H   0  0  0  0  0  0
  -28.2423  -16.8900   22.3064 H   0  0  0  0  0  0
  -24.5748  -14.8603   25.1645 H   0  0  0  0  0  0
  -26.2671  -14.8049   24.8703 H   0  0  0  0  0  0
  -27.1796  -19.2974   20.9904 H   0  0  0  0  0  0
  -28.1125  -19.2535   22.4354 H   0  0  0  0  0  0
  -28.7977  -23.5510   21.7517 H   0  0  0  0  0  0
  -27.2436  -23.8709   22.4522 H   0  0  0  0  0  0
  -26.4009  -24.7640   20.4224 H   0  0  0  0  0  0
  -27.7515  -24.3464   19.4357 H   0  0  0  0  0  0
  -29.0407  -10.8737   21.1160 H   0  0  0  0  0  0
  -25.7876  -13.4751   22.8482 H   0  0  0  0  0  0
  -27.0539  -21.4016   23.1315 H   0  0  0  0  0  0
  1 25  1  0  0  0
  1 30  2  0  0  0
  1 91  1  0  0  0
  2  3  1  0  0  0
  2 25  1  0  0  0
  2 96  1  0  0  0
  2 97  1  0  0  0
  3  4  1  0  0  0
  3 98  1  0  0  0
  3 99  1  0  0  0
  4  5  1  0  0  0
  4100  1  0  0  0
  4101  1  0  0  0
  5  6  1  0  0  0
  5 26  1  0  0  0
  5102  1  0  0  0
  6 25  1  0  0  0
  6103  1  0  0  0
  6104  1  0  0  0
  7  8  2  0  0  0
  7 26  1  0  0  0
  7 29  1  0  0  0
  8  9  1  0  0  0
  8 22  1  0  0  0
  9 10  1  0  0  0
  9 27  2  0  0  0
 10 11  2  0  0  0
 10 15  1  0  0  0
 11 12  1  0  0  0
 11105  1  0  0  0
 12 13  2  0  0  0
 12106  1  0  0  0
 13 14  1  0  0  0
 13 31  1  0  0  0
 14 15  2  0  0  0
 14107  1  0  0  0
 15108  1  0  0  0
 16 17  2  0  0  0
 16 21  1  0  0  0
 16 31  1  0  0  0
 17 18  1  0  0  0
 17109  1  0  0  0
 18 19  2  0  0  0
 18110  1  0  0  0
 19 20  1  0  0  0
 19 24  1  0  0  0
 20 21  2  0  0  0
 20111  1  0  0  0
 21 23  1  0  0  0
 22 28  1  0  0  0
 22 32  2  0  0  0
 26 27  1  0  0  0
 28112  1  0  0  0
 28113  1  0  0  0
 29114  1  0  0  0
 29115  1  0  0  0
 33 34  1  0  0  0
 33 66  1  0  0  0
 33 70  2  0  0  0
 34 36  1  0  0  0
 34 59  1  0  0  0
 34116  1  0  0  0
 35 44  2  0  0  0
 35 45  1  0  0  0
 35 68  1  0  0  0
 36 56  1  0  0  0
 36117  1  0  0  0
 37 39  1  0  0  0
 37 47  1  0  0  0
 37 66  1  0  0  0
 37118  1  0  0  0
 38 43  2  0  0  0
 38 46  1  0  0  0
 38 47  1  0  0  0
 39 64  1  0  0  0
 39 67  2  0  0  0
 40 52  1  0  0  0
 40 53  2  0  0  0
 40 58  1  0  0  0
 41119  1  0  0  0
 41120  1  0  0  0
 41121  1  0  0  0
 41 48  1  0  0  0
 42 43  1  0  0  0
 42 66  1  0  0  0
 42122  1  0  0  0
 42123  1  0  0  0
 43 44  1  0  0  0
 44124  1  0  0  0
 45 46  2  0  0  0
 45125  1  0  0  0
 46126  1  0  0  0
 47127  1  0  0  0
 47128  1  0  0  0
 48 56  1  0  0  0
 48 65  1  0  0  0
 48129  1  0  0  0
 49 50  1  0  0  0
 49 53  1  0  0  0
 49 64  1  0  0  0
 49130  1  0  0  0
 50 51  1  0  0  0
 50131  1  0  0  0
 50132  1  0  0  0
 51 52  1  0  0  0
 51133  1  0  0  0
 51134  1  0  0  0
 52135  1  0  0  0
 52136  1  0  0  0
 53 54  1  0  0  0
 54 55  2  0  0  0
 54137  1  0  0  0
 55 57  1  0  0  0
 55138  1  0  0  0
 56 69  2  0  0  0
 57 58  2  0  0  0
 57139  1  0  0  0
 58140  1  0  0  0
 59 60  1  0  0  0
 59 61  1  0  0  0
 59 62  1  0  0  0
 60141  1  0  0  0
 60142  1  0  0  0
 60143  1  0  0  0
 61144  1  0  0  0
 61145  1  0  0  0
 61146  1  0  0  0
 62147  1  0  0  0
 62148  1  0  0  0
 62149  1  0  0  0
 63 65  1  0  0  0
 63150  1  0  0  0
 63151  1  0  0  0
 63152  1  0  0  0
 64153  1  0  0  0
 65154  1  0  0  0
 68 90  1  0  0  0
 71 72  2  0  0  0
 71 73  1  0  0  0
 71155  1  0  0  0
 72 79  1  0  0  0
 72156  1  0  0  0
 73 80  2  0  0  0
 73157  1  0  0  0
 74 75  2  0  0  0
 74 78  1  0  0  0
 74158  1  0  0  0
 75 82  1  0  0  0
 75159  1  0  0  0
 76 77  1  0  0  0
 76 82  2  0  0  0
 76160  1  0  0  0
 77 78  2  0  0  0
 77 83  1  0  0  0
 78 85  1  0  0  0
 79 81  2  0  0  0
 79 87  1  0  0  0
 80 81  1  0  0  0
 80 88  1  0  0  0
 81 86  1  0  0  0
 82 91  1  0  0  0
 83 92  1  0  0  0
 83 94  2  0  0  0
 84 89  1  0  0  0
 84 93  1  0  0  0
 84 95  2  0  0  0
 85161  1  0  0  0
 85162  1  0  0  0
 85163  1  0  0  0
 86164  1  0  0  0
 86165  1  0  0  0
 86166  1  0  0  0
 87 92  1  0  0  0
 87167  1  0  0  0
 87168  1  0  0  0
 88 93  1  0  0  0
 88169  1  0  0  0
 88170  1  0  0  0
 89 90  1  0  0  0
 89171  1  0  0  0
 89172  1  0  0  0
 90173  1  0  0  0
 90174  1  0  0  0
 91175  1  0  0  0
 92176  1  0  0  0
 93177  1  0  0  0
M  ISO  4   1 100  68 101  90 101  91 100
M  END
> <chiral flag>
0

> <version>
0

> <s_m_source_file>
/data/baiqing/PycharmProjects/Reinvent-master-3.2/result/LINK_invent/BTK/process_docking_weight1_custom_product_contain_oxygen_bond_distance_aromatic_linkinvent_7_9_3/rearranged_h_0057.sdf

> <i_m_source_file_index>
71

> <r_mmod_Potential_Energy-OPLS-2005>
14313.171875

> <r_mmod_Stretch_Energy-OPLS-2005>
6837.203125

> <r_mmod_Bend_Energy-OPLS-2005>
1464.94958496094

> <r_mmod_Torsional_Energy-OPLS-2005>
780.276489257812

> <r_mmod_Improper_Torsional_Energy-OPLS-2005>
52.7080726623535

> <r_mmod_Van_der_Waal_Energy-OPLS-2005>
3624.8154296875

> <r_mmod_Electrostatic_Energy-OPLS-2005>
-533.245544433594

> <r_mmod_Solvation_Energy-OPLS-2005>
-259.366882324219

> <b_mmod_Minimization_Converged-OPLS-2005>
0

> <r_mmod_RMS_Derivative-OPLS-2005>
8.79991817474365

$$$$
72
                    3D
 Structure written by MMmdl.
167176  0  0  1  0            999 V2000
  -30.6779  -14.5001   20.4809 C   0  0  0  0  0  0
  -30.4190  -12.2926   19.4469 C   0  0  0  0  0  0
  -29.4984  -12.4491   18.2175 C   0  0  0  0  0  0
  -28.0171  -12.3174   18.6269 C   0  0  0  0  0  0
  -27.6520  -13.1946   19.8556 C   0  0  2  0  0  0
  -28.6914  -13.0445   20.9888 C   0  0  0  0  0  0
  -25.2609  -13.8142   20.5693 C   0  0  0  0  0  0
  -24.1836  -13.0433   20.9168 C   0  0  0  0  0  0
  -24.6357  -11.6896   20.8709 C   0  0  0  0  0  0
  -23.9018  -10.4291   21.0379 C   0  0  0  0  0  0
  -24.3589   -9.4230   21.9162 C   0  0  0  0  0  0
  -23.6290   -8.2256   22.0736 C   0  0  0  0  0  0
  -22.4269   -8.0279   21.3535 C   0  0  0  0  0  0
  -21.9887   -9.0245   20.4638 C   0  0  0  0  0  0
  -22.7189  -10.2131   20.3039 C   0  0  0  0  0  0
  -21.6860   -6.0725   22.5270 C   0  0  0  0  0  0
  -21.4022   -6.5640   23.8196 C   0  0  0  0  0  0
  -21.3663   -5.6795   24.9161 C   0  0  0  0  0  0
  -21.6029   -4.3052   24.7212 C   0  0  0  0  0  0
  -21.8841   -3.8146   23.4340 C   0  0  0  0  0  0
  -21.9212   -4.6955   22.3397 C   0  0  0  0  0  0
  -22.7871  -13.5258   21.1844 C   0  0  0  0  0  0
  -22.1679   -4.2133   21.0971 F   0  0  0  0  0  0
  -21.5619   -3.4549   25.7735 F   0  0  0  0  0  0
  -30.0174  -13.3152   20.4207 N   0  0  0  0  0  0
  -26.2983  -12.9261   20.3281 N   0  0  0  0  0  0
  -25.9270  -11.6437   20.5740 N   0  0  0  0  0  0
  -22.0523  -12.8231   22.0386 N   0  0  0  0  0  0
  -25.4390  -15.1852   20.4165 N   0  0  0  0  0  0
  -31.8741  -14.6150   20.2163 O   0  0  0  0  0  0
  -21.6645   -6.8868   21.4229 O   0  0  0  0  0  0
  -22.3551  -14.5565   20.6697 O   0  0  0  0  0  0
  -24.6200  -31.8620   23.2095 C   0  0  0  0  0  0
  -25.9068  -32.4799   23.8399 C   0  0  1  0  0  0
  -27.2370  -27.3858   20.1038 C   0  0  0  0  0  0
  -25.5893  -33.8593   24.2311 N   0  0  0  0  0  0
  -23.4127  -30.4876   21.5467 C   0  0  2  0  0  0
  -24.8559  -28.9433   20.1141 C   0  0  0  0  0  0
  -22.7443  -29.4652   22.4950 C   0  0  0  0  0  0
  -18.0334  -28.1349   22.8519 C   0  0  0  0  0  0
  -24.1501  -36.7341   23.2638 C   0  0  0  0  0  0
  -25.9457  -30.8072   21.3757 C   0  0  0  0  0  0
  -26.0149  -29.4402   20.7188 C   0  0  0  0  0  0
  -27.2002  -28.6670   20.7149 C   0  0  0  0  0  0
  -26.0553  -26.9124   19.4872 C   0  0  0  0  0  0
  -24.8720  -27.6804   19.4960 C   0  0  0  0  0  0
  -23.6246  -29.8207   20.1608 C   0  0  0  0  0  0
  -25.4116  -36.3106   24.0327 C   0  0  1  0  0  0
  -20.5904  -28.3782   23.1390 C   0  0  2  0  0  0
  -20.6819  -26.9472   22.5633 C   0  0  0  0  0  0
  -19.5917  -26.6489   21.5310 C   0  0  0  0  0  0
  -18.2083  -26.7846   22.1750 C   0  0  0  0  0  0
  -19.1543  -28.8895   23.2921 C   0  0  0  0  0  0
  -18.9400  -30.1516   23.8876 C   0  0  0  0  0  0
  -17.6372  -30.6584   24.0485 C   0  0  0  0  0  0
  -25.9037  -34.9470   23.5127 C   0  0  0  0  0  0
  -16.5321  -29.9032   23.6209 C   0  0  0  0  0  0
  -16.7312  -28.6426   23.0284 C   0  0  0  0  0  0
  -26.4502  -31.6610   25.0738 C   0  0  0  0  0  0
  -25.3786  -31.3729   26.1507 C   0  0  0  0  0  0
  -27.0381  -30.3056   24.6174 C   0  0  0  0  0  0
  -27.6061  -32.4378   25.7459 C   0  0  0  0  0  0
  -27.5595  -37.1822   24.8445 C   0  0  0  0  0  0
  -21.4154  -29.3086   22.3684 N   0  0  0  0  0  0
  -26.4313  -37.3783   23.9376 N   0  0  0  0  0  0
  -24.6776  -31.0691   22.1009 N   0  0  0  0  0  0
  -23.4184  -28.8170   23.2976 O   0  0  0  0  0  0
  -28.4228  -26.6657   20.1533 O   0  0  0  0  0  0
  -26.5611  -34.8915   22.4688 O   0  0  0  0  0  0
  -23.5359  -32.1405   23.7430 O   0  0  0  0  0  0
  -28.8421  -17.7269   20.5900 C   0  0  0  0  0  0
  -29.2696  -16.3269   22.5333 C   0  0  0  0  0  0
  -28.1977  -18.7022   21.3930 C   0  0  0  0  0  0
  -28.1047  -18.4736   22.7927 C   0  0  0  0  0  0
  -29.3598  -16.5306   21.1422 C   0  0  0  0  0  0
  -28.6552  -17.2959   23.3514 C   0  0  0  0  0  0
  -26.8848  -22.2102   21.2001 C   0  0  0  0  0  0
  -27.2029  -23.7160   21.0292 C   0  0  0  0  0  0
  -29.3471  -22.9215   19.8970 C   0  0  0  0  0  0
  -29.2324  -21.6468   20.7592 C   0  0  0  0  0  0
  -28.6121  -24.1293   20.5239 C   0  0  1  0  0  0
  -25.9081  -18.8766   23.9580 C   0  0  0  0  0  0
  -27.3258  -19.4017   23.7143 C   0  0  0  0  0  0
  -27.4582  -19.8517   20.6820 C   0  0  0  0  0  0
  -28.5807  -25.3591   19.5483 C   0  0  0  0  0  0
  -27.8313  -21.2655   20.9562 N   0  0  0  0  0  0
  -29.8913  -15.5632   20.2393 N   0  0  0  0  0  0
  -25.7218  -21.9163   21.4905 O   0  0  0  0  0  0
  -28.5402  -17.0568   24.6801 F   0  0  0  0  0  0
  -31.4650  -12.3785   19.1490 H   0  0  0  0  0  0
  -30.3129  -11.2966   19.8820 H   0  0  0  0  0  0
  -29.7490  -11.6882   17.4780 H   0  0  0  0  0  0
  -29.6672  -13.4124   17.7331 H   0  0  0  0  0  0
  -27.8366  -11.2658   18.8552 H   0  0  0  0  0  0
  -27.3717  -12.5571   17.7822 H   0  0  0  0  0  0
  -27.6778  -14.2257   19.5088 H   0  0  0  0  0  0
  -28.6622  -12.0423   21.4192 H   0  0  0  0  0  0
  -28.4599  -13.7335   21.8001 H   0  0  0  0  0  0
  -25.2735   -9.5720   22.4712 H   0  0  0  0  0  0
  -24.0019   -7.4655   22.7451 H   0  0  0  0  0  0
  -21.0821   -8.8756   19.8951 H   0  0  0  0  0  0
  -22.3647  -10.9664   19.6145 H   0  0  0  0  0  0
  -21.2019   -7.6146   23.9691 H   0  0  0  0  0  0
  -21.1449   -6.0520   25.9054 H   0  0  0  0  0  0
  -22.0616   -2.7607   23.2845 H   0  0  0  0  0  0
  -22.4196  -11.9897   22.4744 H   0  0  0  0  0  0
  -21.1118  -13.1194   22.2581 H   0  0  0  0  0  0
  -24.6825  -15.8463   20.5488 H   0  0  0  0  0  0
  -26.3167  -15.6275   20.1727 H   0  0  0  0  0  0
  -26.7106  -32.5479   23.1122 H   0  0  0  0  0  0
  -25.0026  -33.9742   25.0453 H   0  0  0  0  0  0
  -22.7053  -31.3086   21.4062 H   0  0  0  0  0  0
  -23.3744  -35.9703   23.3298 H   0  0  0  0  0  0
  -24.3606  -36.8960   22.2061 H   0  0  0  0  0  0
  -23.7291  -37.6550   23.6671 H   0  0  0  0  0  0
  -26.0790  -31.5721   20.6085 H   0  0  0  0  0  0
  -26.8222  -30.8496   22.0084 H   0  0  0  0  0  0
  -28.0911  -29.0464   21.1941 H   0  0  0  0  0  0
  -26.0148  -25.9535   18.9974 H   0  0  0  0  0  0
  -23.9802  -27.2940   19.0216 H   0  0  0  0  0  0
  -23.7463  -30.5989   19.4033 H   0  0  0  0  0  0
  -22.7458  -29.2490   19.8587 H   0  0  0  0  0  0
  -25.1310  -36.1983   25.0827 H   0  0  0  0  0  0
  -20.9966  -28.3478   24.1521 H   0  0  0  0  0  0
  -21.6763  -26.7412   22.1669 H   0  0  0  0  0  0
  -20.5512  -26.2480   23.3916 H   0  0  0  0  0  0
  -19.7260  -25.6497   21.1185 H   0  0  0  0  0  0
  -19.6867  -27.3455   20.6956 H   0  0  0  0  0  0
  -17.4307  -26.6308   21.4250 H   0  0  0  0  0  0
  -18.0736  -26.0051   22.9278 H   0  0  0  0  0  0
  -19.7834  -30.7418   24.2244 H   0  0  0  0  0  0
  -17.4835  -31.6300   24.5010 H   0  0  0  0  0  0
  -15.5295  -30.2891   23.7403 H   0  0  0  0  0  0
  -15.8759  -28.0680   22.6962 H   0  0  0  0  0  0
  -24.5888  -30.7148   25.7856 H   0  0  0  0  0  0
  -24.9073  -32.2906   26.5046 H   0  0  0  0  0  0
  -25.8143  -30.8817   27.0224 H   0  0  0  0  0  0
  -26.2967  -29.6741   24.1257 H   0  0  0  0  0  0
  -27.4194  -29.7349   25.4656 H   0  0  0  0  0  0
  -27.8779  -30.4377   23.9339 H   0  0  0  0  0  0
  -27.2651  -33.3645   26.2089 H   0  0  0  0  0  0
  -28.3798  -32.7012   25.0233 H   0  0  0  0  0  0
  -28.0843  -31.8519   26.5314 H   0  0  0  0  0  0
  -28.2603  -38.0127   24.7486 H   0  0  0  0  0  0
  -28.1092  -36.2655   24.6280 H   0  0  0  0  0  0
  -27.2303  -37.1484   25.8843 H   0  0  0  0  0  0
  -20.9337  -29.8783   21.6870 H   0  0  0  0  0  0
  -26.0203  -38.2865   24.1351 H   0  0  0  0  0  0
  -28.8742  -17.8731   19.5183 H   0  0  0  0  0  0
  -29.6353  -15.4245   22.9950 H   0  0  0  0  0  0
  -26.9957  -24.2250   21.9699 H   0  0  0  0  0  0
  -26.4583  -24.0859   20.3267 H   0  0  0  0  0  0
  -28.9434  -22.7113   18.9059 H   0  0  0  0  0  0
  -30.3988  -23.1647   19.7476 H   0  0  0  0  0  0
  -29.6910  -21.8039   21.7379 H   0  0  0  0  0  0
  -29.7854  -20.8319   20.2897 H   0  0  0  0  0  0
  -29.2048  -24.4266   21.3908 H   0  0  0  0  0  0
  -25.9288  -17.9688   24.5627 H   0  0  0  0  0  0
  -25.4062  -18.6431   23.0176 H   0  0  0  0  0  0
  -25.3003  -19.6126   24.4804 H   0  0  0  0  0  0
  -27.2817  -20.4127   23.3235 H   0  0  0  0  0  0
  -27.8565  -19.4923   24.6640 H   0  0  0  0  0  0
  -26.4056  -19.6779   20.9003 H   0  0  0  0  0  0
  -27.5243  -19.7105   19.6015 H   0  0  0  0  0  0
  -27.9187  -25.1762   18.7035 H   0  0  0  0  0  0
  -29.5666  -25.4178   19.0851 H   0  0  0  0  0  0
  -30.1117  -15.9628   19.3394 H   0  0  0  0  0  0
  1 25  1  0  0  0
  1 30  2  0  0  0
  1 87  1  0  0  0
  2  3  1  0  0  0
  2 25  1  0  0  0
  2 90  1  0  0  0
  2 91  1  0  0  0
  3  4  1  0  0  0
  3 92  1  0  0  0
  3 93  1  0  0  0
  4  5  1  0  0  0
  4 94  1  0  0  0
  4 95  1  0  0  0
  5  6  1  0  0  0
  5 26  1  0  0  0
  5 96  1  0  0  0
  6 25  1  0  0  0
  6 97  1  0  0  0
  6 98  1  0  0  0
  7  8  2  0  0  0
  7 26  1  0  0  0
  7 29  1  0  0  0
  8  9  1  0  0  0
  8 22  1  0  0  0
  9 10  1  0  0  0
  9 27  2  0  0  0
 10 11  2  0  0  0
 10 15  1  0  0  0
 11 12  1  0  0  0
 11 99  1  0  0  0
 12 13  2  0  0  0
 12100  1  0  0  0
 13 14  1  0  0  0
 13 31  1  0  0  0
 14 15  2  0  0  0
 14101  1  0  0  0
 15102  1  0  0  0
 16 17  2  0  0  0
 16 21  1  0  0  0
 16 31  1  0  0  0
 17 18  1  0  0  0
 17103  1  0  0  0
 18 19  2  0  0  0
 18104  1  0  0  0
 19 20  1  0  0  0
 19 24  1  0  0  0
 20 21  2  0  0  0
 20105  1  0  0  0
 21 23  1  0  0  0
 22 28  1  0  0  0
 22 32  2  0  0  0
 26 27  1  0  0  0
 28106  1  0  0  0
 28107  1  0  0  0
 29108  1  0  0  0
 29109  1  0  0  0
 33 34  1  0  0  0
 33 66  1  0  0  0
 33 70  2  0  0  0
 34 36  1  0  0  0
 34 59  1  0  0  0
 34110  1  0  0  0
 35 44  2  0  0  0
 35 45  1  0  0  0
 35 68  1  0  0  0
 36 56  1  0  0  0
 36111  1  0  0  0
 37 39  1  0  0  0
 37 47  1  0  0  0
 37 66  1  0  0  0
 37112  1  0  0  0
 38 43  2  0  0  0
 38 46  1  0  0  0
 38 47  1  0  0  0
 39 64  1  0  0  0
 39 67  2  0  0  0
 40 52  1  0  0  0
 40 53  2  0  0  0
 40 58  1  0  0  0
 41113  1  0  0  0
 41114  1  0  0  0
 41115  1  0  0  0
 41 48  1  0  0  0
 42 43  1  0  0  0
 42 66  1  0  0  0
 42116  1  0  0  0
 42117  1  0  0  0
 43 44  1  0  0  0
 44118  1  0  0  0
 45 46  2  0  0  0
 45119  1  0  0  0
 46120  1  0  0  0
 47121  1  0  0  0
 47122  1  0  0  0
 48 56  1  0  0  0
 48 65  1  0  0  0
 48123  1  0  0  0
 49 50  1  0  0  0
 49 53  1  0  0  0
 49 64  1  0  0  0
 49124  1  0  0  0
 50 51  1  0  0  0
 50125  1  0  0  0
 50126  1  0  0  0
 51 52  1  0  0  0
 51127  1  0  0  0
 51128  1  0  0  0
 52129  1  0  0  0
 52130  1  0  0  0
 53 54  1  0  0  0
 54 55  2  0  0  0
 54131  1  0  0  0
 55 57  1  0  0  0
 55132  1  0  0  0
 56 69  2  0  0  0
 57 58  2  0  0  0
 57133  1  0  0  0
 58134  1  0  0  0
 59 60  1  0  0  0
 59 61  1  0  0  0
 59 62  1  0  0  0
 60135  1  0  0  0
 60136  1  0  0  0
 60137  1  0  0  0
 61138  1  0  0  0
 61139  1  0  0  0
 61140  1  0  0  0
 62141  1  0  0  0
 62142  1  0  0  0
 62143  1  0  0  0
 63 65  1  0  0  0
 63144  1  0  0  0
 63145  1  0  0  0
 63146  1  0  0  0
 64147  1  0  0  0
 65148  1  0  0  0
 68 85  1  0  0  0
 71 73  2  0  0  0
 71 75  1  0  0  0
 71149  1  0  0  0
 72 75  2  0  0  0
 72 76  1  0  0  0
 72150  1  0  0  0
 73 74  1  0  0  0
 73 84  1  0  0  0
 74 76  2  0  0  0
 74 83  1  0  0  0
 75 87  1  0  0  0
 76 89  1  0  0  0
 77 78  1  0  0  0
 77 86  1  0  0  0
 77 88  2  0  0  0
 78 81  1  0  0  0
 78151  1  0  0  0
 78152  1  0  0  0
 79 80  1  0  0  0
 79 81  1  0  0  0
 79153  1  0  0  0
 79154  1  0  0  0
 80 86  1  0  0  0
 80155  1  0  0  0
 80156  1  0  0  0
 81 85  1  0  0  0
 81157  1  0  0  0
 82 83  1  0  0  0
 82158  1  0  0  0
 82159  1  0  0  0
 82160  1  0  0  0
 83161  1  0  0  0
 83162  1  0  0  0
 84 86  1  0  0  0
 84163  1  0  0  0
 84164  1  0  0  0
 85165  1  0  0  0
 85166  1  0  0  0
 87167  1  0  0  0
M  ISO  4   1 100  68 101  85 101  87 100
M  END
> <chiral flag>
0

> <version>
0

> <s_m_source_file>
/data/baiqing/PycharmProjects/Reinvent-master-3.2/result/LINK_invent/BTK/process_docking_weight1_custom_product_contain_oxygen_bond_distance_aromatic_linkinvent_7_9_3/rearranged_h_0057.sdf

> <i_m_source_file_index>
72

> <r_mmod_Potential_Energy-OPLS-2005>
88.0107040405273

> <r_mmod_Stretch_Energy-OPLS-2005>
45.2122955322266

> <r_mmod_Bend_Energy-OPLS-2005>
139.238876342773

> <r_mmod_Torsional_Energy-OPLS-2005>
298.680084228516

> <r_mmod_Improper_Torsional_Energy-OPLS-2005>
24.7854347229004

> <r_mmod_Van_der_Waal_Energy-OPLS-2005>
150.006378173828

> <r_mmod_Electrostatic_Energy-OPLS-2005>
-385.345153808594

> <r_mmod_Solvation_Energy-OPLS-2005>
-211.485961914062

> <b_mmod_Minimization_Converged-OPLS-2005>
0

> <r_mmod_RMS_Derivative-OPLS-2005>
4.32207298278809

$$$$
73
                    3D
 Structure written by MMmdl.
158166  0  0  1  0            999 V2000
  -30.7073  -14.5013   20.4653 C   0  0  0  0  0  0
  -30.4201  -12.2946   19.4475 C   0  0  0  0  0  0
  -29.5020  -12.4519   18.2172 C   0  0  0  0  0  0
  -28.0207  -12.3364   18.6266 C   0  0  0  0  0  0
  -27.6575  -13.2131   19.8557 C   0  0  2  0  0  0
  -28.6992  -13.0571   20.9880 C   0  0  0  0  0  0
  -25.2567  -13.8181   20.5689 C   0  0  0  0  0  0
  -24.1816  -13.0461   20.9187 C   0  0  0  0  0  0
  -24.6369  -11.6928   20.8732 C   0  0  0  0  0  0
  -23.9034  -10.4306   21.0387 C   0  0  0  0  0  0
  -24.3595   -9.4212   21.9148 C   0  0  0  0  0  0
  -23.6275   -8.2237   22.0734 C   0  0  0  0  0  0
  -22.4244   -8.0259   21.3536 C   0  0  0  0  0  0
  -21.9869   -9.0239   20.4643 C   0  0  0  0  0  0
  -22.7205  -10.2122   20.3043 C   0  0  0  0  0  0
  -21.6831   -6.0714   22.5259 C   0  0  0  0  0  0
  -21.4021   -6.5618   23.8197 C   0  0  0  0  0  0
  -21.3669   -5.6774   24.9165 C   0  0  0  0  0  0
  -21.6032   -4.3042   24.7204 C   0  0  0  0  0  0
  -21.8823   -3.8134   23.4330 C   0  0  0  0  0  0
  -21.9202   -4.6956   22.3391 C   0  0  0  0  0  0
  -22.7835  -13.5258   21.1844 C   0  0  0  0  0  0
  -22.1663   -4.2162   21.0953 F   0  0  0  0  0  0
  -21.5634   -3.4521   25.7729 F   0  0  0  0  0  0
  -30.0313  -13.3239   20.4218 N   0  0  0  0  0  0
  -26.2994  -12.9379   20.3274 N   0  0  0  0  0  0
  -25.9303  -11.6538   20.5765 N   0  0  0  0  0  0
  -22.0462  -12.8268   22.0391 N   0  0  0  0  0  0
  -25.4272  -15.1880   20.4104 N   0  0  0  0  0  0
  -31.9012  -14.5784   20.1664 O   0  0  0  0  0  0
  -21.6632   -6.8843   21.4207 O   0  0  0  0  0  0
  -22.3534  -14.5563   20.6691 O   0  0  0  0  0  0
  -24.6144  -31.8684   23.2085 C   0  0  0  0  0  0
  -25.9046  -32.4826   23.8362 C   0  0  1  0  0  0
  -27.2283  -27.4367   20.0930 C   0  0  0  0  0  0
  -25.5913  -33.8617   24.2324 N   0  0  0  0  0  0
  -23.4006  -30.4915   21.5492 C   0  0  2  0  0  0
  -24.8440  -28.9530   20.1183 C   0  0  0  0  0  0
  -22.7387  -29.4677   22.4996 C   0  0  0  0  0  0
  -18.0265  -28.1380   22.8479 C   0  0  0  0  0  0
  -24.1483  -36.7302   23.2632 C   0  0  0  0  0  0
  -25.9288  -30.8328   21.3601 C   0  0  0  0  0  0
  -26.0050  -29.4659   20.7101 C   0  0  0  0  0  0
  -27.2021  -28.7162   20.6904 C   0  0  0  0  0  0
  -26.0524  -26.9316   19.4990 C   0  0  0  0  0  0
  -24.8631  -27.6849   19.5078 C   0  0  0  0  0  0
  -23.6083  -29.8220   20.1644 C   0  0  0  0  0  0
  -25.4108  -36.3101   24.0334 C   0  0  1  0  0  0
  -20.5850  -28.3676   23.1321 C   0  0  2  0  0  0
  -20.6783  -26.9421   22.5427 C   0  0  0  0  0  0
  -19.5766  -26.6401   21.5212 C   0  0  0  0  0  0
  -18.1928  -26.7935   22.1597 C   0  0  0  0  0  0
  -19.1519  -28.8837   23.2899 C   0  0  0  0  0  0
  -18.9450  -30.1432   23.8939 C   0  0  0  0  0  0
  -17.6461  -30.6584   24.0573 C   0  0  0  0  0  0
  -25.9039  -34.9479   23.5124 C   0  0  0  0  0  0
  -16.5352  -29.9109   23.6325 C   0  0  0  0  0  0
  -16.7250  -28.6520   23.0350 C   0  0  0  0  0  0
  -26.4489  -31.6583   25.0672 C   0  0  0  0  0  0
  -25.3777  -31.3701   26.1440 C   0  0  0  0  0  0
  -27.0303  -30.3018   24.6024 C   0  0  0  0  0  0
  -27.6063  -32.4301   25.7435 C   0  0  0  0  0  0
  -27.5590  -37.1794   24.8466 C   0  0  0  0  0  0
  -21.4121  -29.3031   22.3717 N   0  0  0  0  0  0
  -26.4289  -37.3797   23.9409 N   0  0  0  0  0  0
  -24.6661  -31.0777   22.0988 N   0  0  0  0  0  0
  -23.4158  -28.8223   23.3048 O   0  0  0  0  0  0
  -28.4037  -26.7221   20.0583 O   0  0  0  0  0  0
  -26.5591  -34.8941   22.4679 O   0  0  0  0  0  0
  -23.5338  -32.1441   23.7490 O   0  0  0  0  0  0
  -31.3410  -18.5831   18.7225 C   0  0  0  0  0  0
  -30.3786  -19.5603   19.0320 C   0  0  0  0  0  0
  -31.2237  -17.2817   19.2453 C   0  0  0  0  0  0
  -29.1803  -17.9270   20.3972 C   0  0  0  0  0  0
  -29.2761  -19.2328   19.8467 C   0  0  0  0  0  0
  -30.1492  -16.9303   20.1094 C   0  0  0  0  0  0
  -27.6252  -23.1149   19.6374 C   0  0  0  0  0  0
  -28.2057  -24.3227   19.4665 C   0  0  0  0  0  0
  -27.5274  -22.1745   18.5254 C   0  0  0  0  0  0
  -27.2859  -19.8439   17.8292 C   0  0  0  0  0  0
  -28.1863  -20.2856   20.0903 C   0  0  0  0  0  0
  -28.3609  -25.3778   20.5520 C   0  0  0  0  0  0
  -29.9498  -15.6047   20.6461 N   0  0  0  0  0  0
  -27.6200  -20.8539   18.8436 N   0  0  0  0  0  0
  -27.3098  -22.5449   17.3658 O   0  0  0  0  0  0
  -31.4706  -12.3667   19.1551 H   0  0  0  0  0  0
  -30.3014  -11.3063   19.8896 H   0  0  0  0  0  0
  -29.7384  -11.6805   17.4807 H   0  0  0  0  0  0
  -29.6836  -13.4078   17.7242 H   0  0  0  0  0  0
  -27.8304  -11.2891   18.8564 H   0  0  0  0  0  0
  -27.3783  -12.5838   17.7819 H   0  0  0  0  0  0
  -27.6910  -14.2481   19.5129 H   0  0  0  0  0  0
  -28.6696  -12.0468   21.4006 H   0  0  0  0  0  0
  -28.4803  -13.7335   21.8174 H   0  0  0  0  0  0
  -25.2746   -9.5715   22.4714 H   0  0  0  0  0  0
  -24.0017   -7.4624   22.7445 H   0  0  0  0  0  0
  -21.0808   -8.8758   19.8945 H   0  0  0  0  0  0
  -22.3657  -10.9643   19.6178 H   0  0  0  0  0  0
  -21.2015   -7.6141   23.9696 H   0  0  0  0  0  0
  -21.1486   -6.0504   25.9051 H   0  0  0  0  0  0
  -22.0605   -2.7586   23.2815 H   0  0  0  0  0  0
  -22.4120  -12.0025   22.4915 H   0  0  0  0  0  0
  -21.1059  -13.1254   22.2533 H   0  0  0  0  0  0
  -24.6626  -15.8443   20.5331 H   0  0  0  0  0  0
  -26.2649  -15.6137   20.0380 H   0  0  0  0  0  0
  -26.7113  -32.5554   23.1120 H   0  0  0  0  0  0
  -25.0118  -33.9765   25.0497 H   0  0  0  0  0  0
  -22.6899  -31.3089   21.4103 H   0  0  0  0  0  0
  -23.3769  -35.9618   23.3297 H   0  0  0  0  0  0
  -24.3584  -36.8912   22.2053 H   0  0  0  0  0  0
  -23.7230  -37.6492   23.6654 H   0  0  0  0  0  0
  -26.0402  -31.5970   20.5894 H   0  0  0  0  0  0
  -26.8194  -30.8909   21.9745 H   0  0  0  0  0  0
  -28.1027  -29.1090   21.1398 H   0  0  0  0  0  0
  -26.0588  -25.9658   19.0136 H   0  0  0  0  0  0
  -23.9713  -27.2870   19.0419 H   0  0  0  0  0  0
  -23.7238  -30.5983   19.4076 H   0  0  0  0  0  0
  -22.7305  -29.2456   19.8635 H   0  0  0  0  0  0
  -25.1288  -36.1967   25.0831 H   0  0  0  0  0  0
  -20.9933  -28.3282   24.1436 H   0  0  0  0  0  0
  -20.5698  -26.2289   23.3617 H   0  0  0  0  0  0
  -21.6661  -26.7490   22.1224 H   0  0  0  0  0  0
  -19.6958  -25.6319   21.1227 H   0  0  0  0  0  0
  -19.6716  -27.3227   20.6756 H   0  0  0  0  0  0
  -17.4209  -26.6669   21.3985 H   0  0  0  0  0  0
  -18.0319  -26.0063   22.8977 H   0  0  0  0  0  0
  -19.7941  -30.7216   24.2347 H   0  0  0  0  0  0
  -17.5033  -31.6266   24.5184 H   0  0  0  0  0  0
  -15.5358  -30.3033   23.7623 H   0  0  0  0  0  0
  -15.8639  -28.0842   22.7074 H   0  0  0  0  0  0
  -24.5949  -30.7034   25.7805 H   0  0  0  0  0  0
  -24.8980  -32.2872   26.4866 H   0  0  0  0  0  0
  -25.8158  -30.8898   27.0196 H   0  0  0  0  0  0
  -26.2806  -29.6760   24.1176 H   0  0  0  0  0  0
  -27.4186  -29.7262   25.4432 H   0  0  0  0  0  0
  -27.8596  -30.4314   23.9072 H   0  0  0  0  0  0
  -27.2667  -33.3584   26.2039 H   0  0  0  0  0  0
  -28.3857  -32.6892   25.0257 H   0  0  0  0  0  0
  -28.0757  -31.8423   26.5327 H   0  0  0  0  0  0
  -28.2609  -38.0083   24.7523 H   0  0  0  0  0  0
  -28.1070  -36.2628   24.6269 H   0  0  0  0  0  0
  -27.2311  -37.1435   25.8861 H   0  0  0  0  0  0
  -20.9292  -29.8702   21.6893 H   0  0  0  0  0  0
  -26.0189  -38.2863   24.1435 H   0  0  0  0  0  0
  -32.1612  -18.8283   18.0623 H   0  0  0  0  0  0
  -30.4735  -20.5492   18.6076 H   0  0  0  0  0  0
  -31.9726  -16.5707   18.9349 H   0  0  0  0  0  0
  -28.3337  -17.6864   21.0217 H   0  0  0  0  0  0
  -27.2139  -22.8506   20.6026 H   0  0  0  0  0  0
  -28.6228  -24.5819   18.5040 H   0  0  0  0  0  0
  -28.1553  -19.6403   17.2017 H   0  0  0  0  0  0
  -26.4635  -20.1488   17.1783 H   0  0  0  0  0  0
  -26.9820  -18.9047   18.2909 H   0  0  0  0  0  0
  -28.6323  -21.0516   20.7240 H   0  0  0  0  0  0
  -27.3721  -19.8556   20.6724 H   0  0  0  0  0  0
  -29.3202  -25.1941   21.0362 H   0  0  0  0  0  0
  -27.5972  -25.2542   21.3197 H   0  0  0  0  0  0
  -29.0303  -15.4202   21.0201 H   0  0  0  0  0  0
  1 25  1  0  0  0
  1 30  2  0  0  0
  1 83  1  0  0  0
  2  3  1  0  0  0
  2 25  1  0  0  0
  2 86  1  0  0  0
  2 87  1  0  0  0
  3  4  1  0  0  0
  3 88  1  0  0  0
  3 89  1  0  0  0
  4  5  1  0  0  0
  4 90  1  0  0  0
  4 91  1  0  0  0
  5  6  1  0  0  0
  5 26  1  0  0  0
  5 92  1  0  0  0
  6 25  1  0  0  0
  6 93  1  0  0  0
  6 94  1  0  0  0
  7  8  2  0  0  0
  7 26  1  0  0  0
  7 29  1  0  0  0
  8  9  1  0  0  0
  8 22  1  0  0  0
  9 10  1  0  0  0
  9 27  2  0  0  0
 10 11  2  0  0  0
 10 15  1  0  0  0
 11 12  1  0  0  0
 11 95  1  0  0  0
 12 13  2  0  0  0
 12 96  1  0  0  0
 13 14  1  0  0  0
 13 31  1  0  0  0
 14 15  2  0  0  0
 14 97  1  0  0  0
 15 98  1  0  0  0
 16 17  2  0  0  0
 16 21  1  0  0  0
 16 31  1  0  0  0
 17 18  1  0  0  0
 17 99  1  0  0  0
 18 19  2  0  0  0
 18100  1  0  0  0
 19 20  1  0  0  0
 19 24  1  0  0  0
 20 21  2  0  0  0
 20101  1  0  0  0
 21 23  1  0  0  0
 22 28  1  0  0  0
 22 32  2  0  0  0
 26 27  1  0  0  0
 28102  1  0  0  0
 28103  1  0  0  0
 29104  1  0  0  0
 29105  1  0  0  0
 33 34  1  0  0  0
 33 66  1  0  0  0
 33 70  2  0  0  0
 34 36  1  0  0  0
 34 59  1  0  0  0
 34106  1  0  0  0
 35 44  2  0  0  0
 35 45  1  0  0  0
 35 68  1  0  0  0
 36 56  1  0  0  0
 36107  1  0  0  0
 37 39  1  0  0  0
 37 47  1  0  0  0
 37 66  1  0  0  0
 37108  1  0  0  0
 38 43  2  0  0  0
 38 46  1  0  0  0
 38 47  1  0  0  0
 39 64  1  0  0  0
 39 67  2  0  0  0
 40 52  1  0  0  0
 40 53  2  0  0  0
 40 58  1  0  0  0
 41109  1  0  0  0
 41110  1  0  0  0
 41111  1  0  0  0
 41 48  1  0  0  0
 42 43  1  0  0  0
 42 66  1  0  0  0
 42112  1  0  0  0
 42113  1  0  0  0
 43 44  1  0  0  0
 44114  1  0  0  0
 45 46  2  0  0  0
 45115  1  0  0  0
 46116  1  0  0  0
 47117  1  0  0  0
 47118  1  0  0  0
 48 56  1  0  0  0
 48 65  1  0  0  0
 48119  1  0  0  0
 49 50  1  0  0  0
 49 53  1  0  0  0
 49 64  1  0  0  0
 49120  1  0  0  0
 50 51  1  0  0  0
 50121  1  0  0  0
 50122  1  0  0  0
 51 52  1  0  0  0
 51123  1  0  0  0
 51124  1  0  0  0
 52125  1  0  0  0
 52126  1  0  0  0
 53 54  1  0  0  0
 54 55  2  0  0  0
 54127  1  0  0  0
 55 57  1  0  0  0
 55128  1  0  0  0
 56 69  2  0  0  0
 57 58  2  0  0  0
 57129  1  0  0  0
 58130  1  0  0  0
 59 60  1  0  0  0
 59 61  1  0  0  0
 59 62  1  0  0  0
 60131  1  0  0  0
 60132  1  0  0  0
 60133  1  0  0  0
 61134  1  0  0  0
 61135  1  0  0  0
 61136  1  0  0  0
 62137  1  0  0  0
 62138  1  0  0  0
 62139  1  0  0  0
 63 65  1  0  0  0
 63140  1  0  0  0
 63141  1  0  0  0
 63142  1  0  0  0
 64143  1  0  0  0
 65144  1  0  0  0
 68 82  1  0  0  0
 71 72  2  0  0  0
 71 73  1  0  0  0
 71145  1  0  0  0
 72 75  1  0  0  0
 72146  1  0  0  0
 73 76  2  0  0  0
 73147  1  0  0  0
 74 75  2  0  0  0
 74 76  1  0  0  0
 74148  1  0  0  0
 75 81  1  0  0  0
 76 83  1  0  0  0
 77 78  2  0  0  0
 77 79  1  0  0  0
 77149  1  0  0  0
 78 82  1  0  0  0
 78150  1  0  0  0
 79 84  1  0  0  0
 79 85  2  0  0  0
 80 84  1  0  0  0
 80151  1  0  0  0
 80152  1  0  0  0
 80153  1  0  0  0
 81 84  1  0  0  0
 81154  1  0  0  0
 81155  1  0  0  0
 82156  1  0  0  0
 82157  1  0  0  0
 83158  1  0  0  0
M  ISO  4   1 100  68 101  82 101  83 100
M  END
> <chiral flag>
0

> <version>
0

> <s_m_source_file>
/data/baiqing/PycharmProjects/Reinvent-master-3.2/result/LINK_invent/BTK/process_docking_weight1_custom_product_contain_oxygen_bond_distance_aromatic_linkinvent_7_9_3/rearranged_h_0057.sdf

> <i_m_source_file_index>
73

> <r_mmod_Potential_Energy-OPLS-2005>
-32.5008964538574

> <r_mmod_Stretch_Energy-OPLS-2005>
41.2803497314453

> <r_mmod_Bend_Energy-OPLS-2005>
99.5968780517578

> <r_mmod_Torsional_Energy-OPLS-2005>
258.398803710938

> <r_mmod_Improper_Torsional_Energy-OPLS-2005>
6.22735357284546

> <r_mmod_Van_der_Waal_Energy-OPLS-2005>
165.445709228516

> <r_mmod_Electrostatic_Energy-OPLS-2005>
-394.689819335938

> <r_mmod_Solvation_Energy-OPLS-2005>
-230.393692016602

> <b_mmod_Minimization_Converged-OPLS-2005>
0

> <r_mmod_RMS_Derivative-OPLS-2005>
4.85028028488159

$$$$
74
                    3D
 Structure written by MMmdl.
160168  0  0  1  0            999 V2000
  -30.6474  -14.5330   20.5020 C   0  0  0  0  0  0
  -30.4357  -12.3168   19.4559 C   0  0  0  0  0  0
  -29.5096  -12.4817   18.2298 C   0  0  0  0  0  0
  -28.0272  -12.3393   18.6380 C   0  0  0  0  0  0
  -27.6592  -13.2037   19.8734 C   0  0  2  0  0  0
  -28.6977  -13.0160   21.0061 C   0  0  0  0  0  0
  -25.2555  -13.8135   20.5678 C   0  0  0  0  0  0
  -24.1809  -13.0424   20.9165 C   0  0  0  0  0  0
  -24.6365  -11.6884   20.8725 C   0  0  0  0  0  0
  -23.9046  -10.4278   21.0399 C   0  0  0  0  0  0
  -24.3600   -9.4188   21.9178 C   0  0  0  0  0  0
  -23.6274   -8.2230   22.0760 C   0  0  0  0  0  0
  -22.4253   -8.0276   21.3549 C   0  0  0  0  0  0
  -21.9881   -9.0244   20.4641 C   0  0  0  0  0  0
  -22.7223  -10.2116   20.3044 C   0  0  0  0  0  0
  -21.6846   -6.0716   22.5277 C   0  0  0  0  0  0
  -21.4028   -6.5623   23.8210 C   0  0  0  0  0  0
  -21.3677   -5.6783   24.9175 C   0  0  0  0  0  0
  -21.6044   -4.3041   24.7222 C   0  0  0  0  0  0
  -21.8813   -3.8132   23.4342 C   0  0  0  0  0  0
  -21.9182   -4.6945   22.3397 C   0  0  0  0  0  0
  -22.7833  -13.5219   21.1859 C   0  0  0  0  0  0
  -22.1651   -4.2133   21.0974 F   0  0  0  0  0  0
  -21.5627   -3.4529   25.7735 F   0  0  0  0  0  0
  -30.0302  -13.3185   20.4563 N   0  0  0  0  0  0
  -26.2987  -12.9310   20.3329 N   0  0  0  0  0  0
  -25.9280  -11.6469   20.5739 N   0  0  0  0  0  0
  -22.0483  -12.8223   22.0414 N   0  0  0  0  0  0
  -25.4254  -15.1867   20.4122 N   0  0  0  0  0  0
  -31.7935  -14.7180   20.0834 O   0  0  0  0  0  0
  -21.6635   -6.8857   21.4237 O   0  0  0  0  0  0
  -22.3507  -14.5537   20.6720 O   0  0  0  0  0  0
  -24.6114  -31.8680   23.2068 C   0  0  0  0  0  0
  -25.8990  -32.4849   23.8381 C   0  0  1  0  0  0
  -27.2565  -27.4293   20.1056 C   0  0  0  0  0  0
  -25.5838  -33.8655   24.2306 N   0  0  0  0  0  0
  -23.4082  -30.4809   21.5453 C   0  0  2  0  0  0
  -24.8684  -28.9523   20.1073 C   0  0  0  0  0  0
  -22.7462  -29.4581   22.4980 C   0  0  0  0  0  0
  -18.0263  -28.1348   22.8533 C   0  0  0  0  0  0
  -24.1488  -36.7404   23.2617 C   0  0  0  0  0  0
  -25.9380  -30.8257   21.3719 C   0  0  0  0  0  0
  -26.0207  -29.4582   20.7231 C   0  0  0  0  0  0
  -27.2184  -28.7014   20.7221 C   0  0  0  0  0  0
  -26.0988  -26.9593   19.4492 C   0  0  0  0  0  0
  -24.9045  -27.7039   19.4603 C   0  0  0  0  0  0
  -23.6217  -29.8079   20.1616 C   0  0  0  0  0  0
  -25.4108  -36.3160   24.0300 C   0  0  1  0  0  0
  -20.5869  -28.3616   23.1363 C   0  0  2  0  0  0
  -20.6735  -26.9353   22.5444 C   0  0  0  0  0  0
  -19.5702  -26.6370   21.5237 C   0  0  0  0  0  0
  -18.1887  -26.7901   22.1658 C   0  0  0  0  0  0
  -19.1523  -28.8811   23.2934 C   0  0  0  0  0  0
  -18.9431  -30.1415   23.8932 C   0  0  0  0  0  0
  -17.6427  -30.6562   24.0553 C   0  0  0  0  0  0
  -25.9025  -34.9510   23.5127 C   0  0  0  0  0  0
  -16.5321  -29.9058   23.6319 C   0  0  0  0  0  0
  -16.7246  -28.6468   23.0370 C   0  0  0  0  0  0
  -26.4479  -31.6638   25.0703 C   0  0  0  0  0  0
  -25.3748  -31.3782   26.1486 C   0  0  0  0  0  0
  -27.0329  -30.3071   24.6111 C   0  0  0  0  0  0
  -27.6119  -32.4398   25.7320 C   0  0  0  0  0  0
  -27.5596  -37.1862   24.8430 C   0  0  0  0  0  0
  -21.4175  -29.2983   22.3778 N   0  0  0  0  0  0
  -26.4305  -37.3834   23.9374 N   0  0  0  0  0  0
  -24.6682  -31.0749   22.0983 N   0  0  0  0  0  0
  -23.4238  -28.8129   23.3024 O   0  0  0  0  0  0
  -28.4227  -26.6873   20.0573 O   0  0  0  0  0  0
  -26.5603  -34.8947   22.4699 O   0  0  0  0  0  0
  -23.5295  -32.1425   23.7459 O   0  0  0  0  0  0
  -31.1093  -19.5264   22.3591 C   0  0  0  0  0  0
  -30.6035  -20.7096   21.7767 C   0  0  0  0  0  0
  -30.8208  -18.2635   21.7996 C   0  0  0  0  0  0
  -29.5188  -19.3665   20.0670 C   0  0  0  0  0  0
  -29.7987  -20.6528   20.6122 C   0  0  0  0  0  0
  -30.0253  -18.1682   20.6427 C   0  0  0  0  0  0
  -29.2862  -21.9147   19.9274 C   0  0  0  0  0  0
  -27.2299  -24.8176   21.2965 C   0  0  0  0  0  0
  -29.3986  -25.8165   22.0480 C   0  0  0  0  0  0
  -29.7623  -16.8145   19.9593 C   0  0  0  0  0  0
  -29.3145  -24.4401   19.8981 C   0  0  0  0  0  0
  -28.5560  -25.4511   20.8142 C   0  0  0  0  0  0
  -29.5603  -23.1075   20.4959 N   0  0  0  0  0  0
  -29.8239  -15.5721   20.7646 N   0  0  0  0  0  0
  -28.6619  -21.8307   18.8672 O   0  0  0  0  0  0
  -31.4812  -12.4226   19.1585 H   0  0  0  0  0  0
  -30.3489  -11.3125   19.8740 H   0  0  0  0  0  0
  -29.7575  -11.7416   17.4688 H   0  0  0  0  0  0
  -29.6737  -13.4577   17.7710 H   0  0  0  0  0  0
  -27.8448  -11.2868   18.8632 H   0  0  0  0  0  0
  -27.3780  -12.5854   17.7973 H   0  0  0  0  0  0
  -27.6910  -14.2427   19.5431 H   0  0  0  0  0  0
  -28.6730  -11.9885   21.3722 H   0  0  0  0  0  0
  -28.4606  -13.6396   21.8708 H   0  0  0  0  0  0
  -25.2745   -9.5657   22.4751 H   0  0  0  0  0  0
  -23.9971   -7.4617   22.7484 H   0  0  0  0  0  0
  -21.0803   -8.8754   19.8960 H   0  0  0  0  0  0
  -22.3678  -10.9642   19.6143 H   0  0  0  0  0  0
  -21.2050   -7.6136   23.9707 H   0  0  0  0  0  0
  -21.1513   -6.0516   25.9076 H   0  0  0  0  0  0
  -22.0579   -2.7587   23.2844 H   0  0  0  0  0  0
  -22.4111  -11.9875   22.4778 H   0  0  0  0  0  0
  -21.1125  -13.1266   22.2699 H   0  0  0  0  0  0
  -24.6557  -15.8372   20.5345 H   0  0  0  0  0  0
  -26.2633  -15.6276   20.0570 H   0  0  0  0  0  0
  -26.7046  -32.5586   23.1126 H   0  0  0  0  0  0
  -24.9965  -33.9840   25.0430 H   0  0  0  0  0  0
  -22.6928  -31.2929   21.3996 H   0  0  0  0  0  0
  -23.3734  -35.9752   23.3271 H   0  0  0  0  0  0
  -24.3562  -36.9076   22.2032 H   0  0  0  0  0  0
  -23.7292  -37.6608   23.6690 H   0  0  0  0  0  0
  -26.0579  -31.5900   20.6035 H   0  0  0  0  0  0
  -26.8214  -30.8850   21.9949 H   0  0  0  0  0  0
  -28.1081  -29.0865   21.1995 H   0  0  0  0  0  0
  -26.1312  -26.0200   18.9167 H   0  0  0  0  0  0
  -24.0317  -27.3248   18.9441 H   0  0  0  0  0  0
  -23.7125  -30.5771   19.3944 H   0  0  0  0  0  0
  -22.7542  -29.2105   19.8746 H   0  0  0  0  0  0
  -25.1296  -36.2036   25.0789 H   0  0  0  0  0  0
  -20.9949  -28.3123   24.1476 H   0  0  0  0  0  0
  -20.5651  -26.2178   23.3595 H   0  0  0  0  0  0
  -21.6592  -26.7381   22.1200 H   0  0  0  0  0  0
  -19.6843  -25.6303   21.1196 H   0  0  0  0  0  0
  -19.6630  -27.3240   20.6809 H   0  0  0  0  0  0
  -17.4159  -26.6695   21.4044 H   0  0  0  0  0  0
  -18.0237  -26.0021   22.9025 H   0  0  0  0  0  0
  -19.7893  -30.7234   24.2324 H   0  0  0  0  0  0
  -17.4959  -31.6241   24.5158 H   0  0  0  0  0  0
  -15.5320  -30.2948   23.7628 H   0  0  0  0  0  0
  -15.8636  -28.0772   22.7088 H   0  0  0  0  0  0
  -24.5884  -30.7178   25.7825 H   0  0  0  0  0  0
  -24.8957  -32.2932   26.4957 H   0  0  0  0  0  0
  -25.8072  -30.8916   27.0241 H   0  0  0  0  0  0
  -26.3007  -29.6977   24.0807 H   0  0  0  0  0  0
  -27.3734  -29.7150   25.4623 H   0  0  0  0  0  0
  -27.8962  -30.4426   23.9576 H   0  0  0  0  0  0
  -27.2792  -33.3641   26.2036 H   0  0  0  0  0  0
  -28.3708  -32.7117   24.9966 H   0  0  0  0  0  0
  -28.1098  -31.8509   26.5025 H   0  0  0  0  0  0
  -28.2588  -38.0187   24.7503 H   0  0  0  0  0  0
  -28.1120  -36.2718   24.6213 H   0  0  0  0  0  0
  -27.2309  -37.1465   25.8830 H   0  0  0  0  0  0
  -20.9334  -29.8715   21.7013 H   0  0  0  0  0  0
  -26.0195  -38.2922   24.1342 H   0  0  0  0  0  0
  -31.7354  -19.5839   23.2388 H   0  0  0  0  0  0
  -30.8535  -21.6598   22.2297 H   0  0  0  0  0  0
  -31.2241  -17.3673   22.2508 H   0  0  0  0  0  0
  -28.9129  -19.2988   19.1738 H   0  0  0  0  0  0
  -26.6175  -25.5265   21.8517 H   0  0  0  0  0  0
  -27.4090  -23.9800   21.9716 H   0  0  0  0  0  0
  -26.6418  -24.4340   20.4638 H   0  0  0  0  0  0
  -28.8543  -26.4941   22.7071 H   0  0  0  0  0  0
  -30.3296  -26.3091   21.7653 H   0  0  0  0  0  0
  -29.6574  -24.9336   22.6334 H   0  0  0  0  0  0
  -30.4427  -16.7448   19.1093 H   0  0  0  0  0  0
  -28.7632  -16.8488   19.5201 H   0  0  0  0  0  0
  -30.2823  -24.8618   19.6243 H   0  0  0  0  0  0
  -28.7681  -24.3415   18.9582 H   0  0  0  0  0  0
  -30.0631  -23.0919   21.3704 H   0  0  0  0  0  0
  -28.9556  -15.3100   21.2043 H   0  0  0  0  0  0
  1 25  1  0  0  0
  1 30  2  0  0  0
  1 84  1  0  0  0
  2  3  1  0  0  0
  2 25  1  0  0  0
  2 86  1  0  0  0
  2 87  1  0  0  0
  3  4  1  0  0  0
  3 88  1  0  0  0
  3 89  1  0  0  0
  4  5  1  0  0  0
  4 90  1  0  0  0
  4 91  1  0  0  0
  5  6  1  0  0  0
  5 26  1  0  0  0
  5 92  1  0  0  0
  6 25  1  0  0  0
  6 93  1  0  0  0
  6 94  1  0  0  0
  7  8  2  0  0  0
  7 26  1  0  0  0
  7 29  1  0  0  0
  8  9  1  0  0  0
  8 22  1  0  0  0
  9 10  1  0  0  0
  9 27  2  0  0  0
 10 11  2  0  0  0
 10 15  1  0  0  0
 11 12  1  0  0  0
 11 95  1  0  0  0
 12 13  2  0  0  0
 12 96  1  0  0  0
 13 14  1  0  0  0
 13 31  1  0  0  0
 14 15  2  0  0  0
 14 97  1  0  0  0
 15 98  1  0  0  0
 16 17  2  0  0  0
 16 21  1  0  0  0
 16 31  1  0  0  0
 17 18  1  0  0  0
 17 99  1  0  0  0
 18 19  2  0  0  0
 18100  1  0  0  0
 19 20  1  0  0  0
 19 24  1  0  0  0
 20 21  2  0  0  0
 20101  1  0  0  0
 21 23  1  0  0  0
 22 28  1  0  0  0
 22 32  2  0  0  0
 26 27  1  0  0  0
 28102  1  0  0  0
 28103  1  0  0  0
 29104  1  0  0  0
 29105  1  0  0  0
 33 34  1  0  0  0
 33 66  1  0  0  0
 33 70  2  0  0  0
 34 36  1  0  0  0
 34 59  1  0  0  0
 34106  1  0  0  0
 35 44  2  0  0  0
 35 45  1  0  0  0
 35 68  1  0  0  0
 36 56  1  0  0  0
 36107  1  0  0  0
 37 39  1  0  0  0
 37 47  1  0  0  0
 37 66  1  0  0  0
 37108  1  0  0  0
 38 43  2  0  0  0
 38 46  1  0  0  0
 38 47  1  0  0  0
 39 64  1  0  0  0
 39 67  2  0  0  0
 40 52  1  0  0  0
 40 53  2  0  0  0
 40 58  1  0  0  0
 41109  1  0  0  0
 41110  1  0  0  0
 41111  1  0  0  0
 41 48  1  0  0  0
 42 43  1  0  0  0
 42 66  1  0  0  0
 42112  1  0  0  0
 42113  1  0  0  0
 43 44  1  0  0  0
 44114  1  0  0  0
 45 46  2  0  0  0
 45115  1  0  0  0
 46116  1  0  0  0
 47117  1  0  0  0
 47118  1  0  0  0
 48 56  1  0  0  0
 48 65  1  0  0  0
 48119  1  0  0  0
 49 50  1  0  0  0
 49 53  1  0  0  0
 49 64  1  0  0  0
 49120  1  0  0  0
 50 51  1  0  0  0
 50121  1  0  0  0
 50122  1  0  0  0
 51 52  1  0  0  0
 51123  1  0  0  0
 51124  1  0  0  0
 52125  1  0  0  0
 52126  1  0  0  0
 53 54  1  0  0  0
 54 55  2  0  0  0
 54127  1  0  0  0
 55 57  1  0  0  0
 55128  1  0  0  0
 56 69  2  0  0  0
 57 58  2  0  0  0
 57129  1  0  0  0
 58130  1  0  0  0
 59 60  1  0  0  0
 59 61  1  0  0  0
 59 62  1  0  0  0
 60131  1  0  0  0
 60132  1  0  0  0
 60133  1  0  0  0
 61134  1  0  0  0
 61135  1  0  0  0
 61136  1  0  0  0
 62137  1  0  0  0
 62138  1  0  0  0
 62139  1  0  0  0
 63 65  1  0  0  0
 63140  1  0  0  0
 63141  1  0  0  0
 63142  1  0  0  0
 64143  1  0  0  0
 65144  1  0  0  0
 68 82  1  0  0  0
 71 72  2  0  0  0
 71 73  1  0  0  0
 71145  1  0  0  0
 72 75  1  0  0  0
 72146  1  0  0  0
 73 76  2  0  0  0
 73147  1  0  0  0
 74 75  2  0  0  0
 74 76  1  0  0  0
 74148  1  0  0  0
 75 77  1  0  0  0
 76 80  1  0  0  0
 77 83  1  0  0  0
 77 85  2  0  0  0
 78149  1  0  0  0
 78150  1  0  0  0
 78151  1  0  0  0
 78 82  1  0  0  0
 79 82  1  0  0  0
 79152  1  0  0  0
 79153  1  0  0  0
 79154  1  0  0  0
 80 84  1  0  0  0
 80155  1  0  0  0
 80156  1  0  0  0
 81 82  1  0  0  0
 81 83  1  0  0  0
 81157  1  0  0  0
 81158  1  0  0  0
 83159  1  0  0  0
 84160  1  0  0  0
M  ISO  4   1 100  68 101  82 101  84 100
M  END
> <chiral flag>
0

> <version>
0

> <s_m_source_file>
/data/baiqing/PycharmProjects/Reinvent-master-3.2/result/LINK_invent/BTK/process_docking_weight1_custom_product_contain_oxygen_bond_distance_aromatic_linkinvent_7_9_3/rearranged_h_0057.sdf

> <i_m_source_file_index>
74

> <r_mmod_Potential_Energy-OPLS-2005>
-145.401214599609

> <r_mmod_Stretch_Energy-OPLS-2005>
46.4616050720215

> <r_mmod_Bend_Energy-OPLS-2005>
108.439338684082

> <r_mmod_Torsional_Energy-OPLS-2005>
257.651702880859

> <r_mmod_Improper_Torsional_Energy-OPLS-2005>
9.76176738739014

> <r_mmod_Van_der_Waal_Energy-OPLS-2005>
153.102569580078

> <r_mmod_Electrostatic_Energy-OPLS-2005>
-512.275024414062

> <r_mmod_Solvation_Energy-OPLS-2005>
-227.954162597656

> <b_mmod_Minimization_Converged-OPLS-2005>
0

> <r_mmod_RMS_Derivative-OPLS-2005>
3.77129745483398

$$$$
75
                    3D
 Structure written by MMmdl.
164173  0  0  1  0            999 V2000
  -30.7096  -14.4636   20.5961 C   0  0  0  0  0  0
  -30.4260  -12.3124   19.4194 C   0  0  0  0  0  0
  -29.4962  -12.5151   18.2050 C   0  0  0  0  0  0
  -28.0162  -12.3745   18.6127 C   0  0  0  0  0  0
  -27.6611  -13.2073   19.8745 C   0  0  2  0  0  0
  -28.7037  -12.9814   20.9934 C   0  0  0  0  0  0
  -25.2575  -13.8161   20.5700 C   0  0  0  0  0  0
  -24.1831  -13.0430   20.9182 C   0  0  0  0  0  0
  -24.6387  -11.6900   20.8719 C   0  0  0  0  0  0
  -23.9061  -10.4280   21.0393 C   0  0  0  0  0  0
  -24.3619   -9.4202   21.9171 C   0  0  0  0  0  0
  -23.6292   -8.2244   22.0753 C   0  0  0  0  0  0
  -22.4271   -8.0284   21.3549 C   0  0  0  0  0  0
  -21.9908   -9.0250   20.4647 C   0  0  0  0  0  0
  -22.7232  -10.2125   20.3044 C   0  0  0  0  0  0
  -21.6852   -6.0745   22.5283 C   0  0  0  0  0  0
  -21.4014   -6.5646   23.8221 C   0  0  0  0  0  0
  -21.3656   -5.6798   24.9177 C   0  0  0  0  0  0
  -21.6047   -4.3061   24.7227 C   0  0  0  0  0  0
  -21.8816   -3.8153   23.4346 C   0  0  0  0  0  0
  -21.9189   -4.6971   22.3405 C   0  0  0  0  0  0
  -22.7852  -13.5224   21.1846 C   0  0  0  0  0  0
  -22.1653   -4.2161   21.0982 F   0  0  0  0  0  0
  -21.5628   -3.4545   25.7737 F   0  0  0  0  0  0
  -30.0356  -13.2912   20.4439 N   0  0  0  0  0  0
  -26.3021  -12.9332   20.3366 N   0  0  0  0  0  0
  -25.9311  -11.6486   20.5740 N   0  0  0  0  0  0
  -22.0503  -12.8206   22.0404 N   0  0  0  0  0  0
  -25.4302  -15.1890   20.4175 N   0  0  0  0  0  0
  -31.8369  -14.6516   20.1275 O   0  0  0  0  0  0
  -21.6633   -6.8881   21.4245 O   0  0  0  0  0  0
  -22.3521  -14.5524   20.6701 O   0  0  0  0  0  0
  -24.6145  -31.8669   23.2132 C   0  0  0  0  0  0
  -25.9036  -32.4814   23.8405 C   0  0  1  0  0  0
  -27.2267  -27.4319   20.0791 C   0  0  0  0  0  0
  -25.5900  -33.8620   24.2337 N   0  0  0  0  0  0
  -23.4014  -30.4950   21.5534 C   0  0  2  0  0  0
  -24.8414  -28.9658   20.1120 C   0  0  0  0  0  0
  -22.7409  -29.4657   22.4994 C   0  0  0  0  0  0
  -18.0275  -28.1380   22.8478 C   0  0  0  0  0  0
  -24.1486  -36.7316   23.2638 C   0  0  0  0  0  0
  -25.9321  -30.8291   21.3698 C   0  0  0  0  0  0
  -26.0015  -29.4657   20.7127 C   0  0  0  0  0  0
  -27.1888  -28.7004   20.7044 C   0  0  0  0  0  0
  -26.0389  -26.9475   19.4778 C   0  0  0  0  0  0
  -24.8545  -27.7041   19.5006 C   0  0  0  0  0  0
  -23.6048  -29.8328   20.1648 C   0  0  0  0  0  0
  -25.4104  -36.3115   24.0345 C   0  0  1  0  0  0
  -20.5860  -28.3652   23.1324 C   0  0  2  0  0  0
  -20.6772  -26.9394   22.5426 C   0  0  0  0  0  0
  -19.5748  -26.6380   21.5228 C   0  0  0  0  0  0
  -18.1921  -26.7934   22.1617 C   0  0  0  0  0  0
  -19.1522  -28.8835   23.2896 C   0  0  0  0  0  0
  -18.9456  -30.1443   23.8908 C   0  0  0  0  0  0
  -17.6459  -30.6586   24.0557 C   0  0  0  0  0  0
  -25.9044  -34.9478   23.5142 C   0  0  0  0  0  0
  -16.5342  -29.9090   23.6332 C   0  0  0  0  0  0
  -16.7263  -28.6508   23.0344 C   0  0  0  0  0  0
  -26.4473  -31.6597   25.0730 C   0  0  0  0  0  0
  -25.3759  -31.3703   26.1492 C   0  0  0  0  0  0
  -27.0301  -30.3034   24.6119 C   0  0  0  0  0  0
  -27.6049  -32.4311   25.7487 C   0  0  0  0  0  0
  -27.5581  -37.1810   24.8464 C   0  0  0  0  0  0
  -21.4137  -29.3021   22.3726 N   0  0  0  0  0  0
  -26.4289  -37.3800   23.9417 N   0  0  0  0  0  0
  -24.6678  -31.0785   22.1020 N   0  0  0  0  0  0
  -23.4176  -28.8200   23.3037 O   0  0  0  0  0  0
  -28.4191  -26.7313   20.1151 O   0  0  0  0  0  0
  -26.5592  -34.8923   22.4693 O   0  0  0  0  0  0
  -23.5341  -32.1407   23.7532 O   0  0  0  0  0  0
  -29.9108  -19.1979   20.9021 C   0  0  0  0  0  0
  -29.5826  -17.8356   20.7251 C   0  0  0  0  0  0
  -31.5333  -17.1962   22.0266 C   0  0  0  0  0  0
  -31.0338  -19.5778   21.6736 C   0  0  0  0  0  0
  -31.8554  -18.5585   22.2256 C   0  0  0  0  0  0
  -30.3917  -16.8239   21.2857 C   0  0  0  0  0  0
  -29.5011  -22.6862   21.9627 C   0  0  0  0  0  0
  -28.7656  -23.8776   21.3164 C   0  0  0  0  0  0
  -30.0525  -23.4350   19.2239 C   0  0  0  0  0  0
  -31.0373  -22.5490   20.0019 C   0  0  0  0  0  0
  -29.5061  -24.5402   20.1356 C   0  0  1  0  0  0
  -33.0894  -18.9039   23.0467 C   0  0  0  0  0  0
  -31.3677  -21.0549   21.9457 C   0  0  0  0  0  0
  -28.5981  -25.5226   19.3636 C   0  0  0  0  0  0
  -30.5272  -22.0873   21.3036 N   0  0  0  0  0  0
  -30.0040  -15.4586   21.1631 N   0  0  0  0  0  0
  -29.1146  -22.3084   23.0726 O   0  0  0  0  0  0
  -31.4705  -12.4151   19.1206 H   0  0  0  0  0  0
  -30.3291  -11.2998   19.8142 H   0  0  0  0  0  0
  -29.7387  -11.7934   17.4239 H   0  0  0  0  0  0
  -29.6641  -13.5028   17.7718 H   0  0  0  0  0  0
  -27.8206  -11.3175   18.7979 H   0  0  0  0  0  0
  -27.3695  -12.6604   17.7822 H   0  0  0  0  0  0
  -27.7051  -14.2575   19.5851 H   0  0  0  0  0  0
  -28.6816  -11.9409   21.3229 H   0  0  0  0  0  0
  -28.4613  -13.5700   21.8789 H   0  0  0  0  0  0
  -25.2771   -9.5685   22.4733 H   0  0  0  0  0  0
  -24.0015   -7.4633   22.7459 H   0  0  0  0  0  0
  -21.0849   -8.8748   19.8943 H   0  0  0  0  0  0
  -22.3690  -10.9655   19.6149 H   0  0  0  0  0  0
  -21.2010   -7.6154   23.9730 H   0  0  0  0  0  0
  -21.1481   -6.0525   25.9081 H   0  0  0  0  0  0
  -22.0600   -2.7622   23.2840 H   0  0  0  0  0  0
  -22.4110  -11.9859   22.4790 H   0  0  0  0  0  0
  -21.1113  -13.1211   22.2623 H   0  0  0  0  0  0
  -24.6689  -15.8468   20.5458 H   0  0  0  0  0  0
  -26.2889  -15.6336   20.1181 H   0  0  0  0  0  0
  -26.7085  -32.5518   23.1147 H   0  0  0  0  0  0
  -25.0083  -33.9780   25.0504 H   0  0  0  0  0  0
  -22.6909  -31.3123   21.4175 H   0  0  0  0  0  0
  -23.3754  -35.9645   23.3317 H   0  0  0  0  0  0
  -24.3586  -36.8924   22.2050 H   0  0  0  0  0  0
  -23.7237  -37.6532   23.6631 H   0  0  0  0  0  0
  -26.0550  -31.5989   20.6070 H   0  0  0  0  0  0
  -26.8182  -30.8717   21.9930 H   0  0  0  0  0  0
  -28.0841  -29.0814   21.1762 H   0  0  0  0  0  0
  -25.9712  -25.9898   18.9892 H   0  0  0  0  0  0
  -23.9595  -27.3078   19.0396 H   0  0  0  0  0  0
  -23.7084  -30.6088   19.4055 H   0  0  0  0  0  0
  -22.7271  -29.2541   19.8713 H   0  0  0  0  0  0
  -25.1283  -36.1982   25.0840 H   0  0  0  0  0  0
  -20.9941  -28.3206   24.1444 H   0  0  0  0  0  0
  -20.5712  -26.2249   23.3600 H   0  0  0  0  0  0
  -21.6635  -26.7457   22.1189 H   0  0  0  0  0  0
  -19.6921  -25.6311   21.1219 H   0  0  0  0  0  0
  -19.6702  -27.3216   20.6779 H   0  0  0  0  0  0
  -17.4202  -26.6681   21.4000 H   0  0  0  0  0  0
  -18.0290  -26.0092   22.9020 H   0  0  0  0  0  0
  -19.7935  -30.7250   24.2268 H   0  0  0  0  0  0
  -17.5021  -31.6268   24.5146 H   0  0  0  0  0  0
  -15.5348  -30.2983   23.7685 H   0  0  0  0  0  0
  -15.8657  -28.0837   22.7041 H   0  0  0  0  0  0
  -24.5907  -30.7074   25.7846 H   0  0  0  0  0  0
  -24.8978  -32.2863   26.4965 H   0  0  0  0  0  0
  -25.8123  -30.8849   27.0230 H   0  0  0  0  0  0
  -26.2839  -29.6794   24.1184 H   0  0  0  0  0  0
  -27.4093  -29.7265   25.4572 H   0  0  0  0  0  0
  -27.8672  -30.4372   23.9262 H   0  0  0  0  0  0
  -27.2661  -33.3591   26.2097 H   0  0  0  0  0  0
  -28.3831  -32.6899   25.0296 H   0  0  0  0  0  0
  -28.0743  -31.8417   26.5380 H   0  0  0  0  0  0
  -28.2599  -38.0107   24.7516 H   0  0  0  0  0  0
  -28.1076  -36.2639   24.6274 H   0  0  0  0  0  0
  -27.2298  -37.1452   25.8868 H   0  0  0  0  0  0
  -20.9285  -29.8743   21.6959 H   0  0  0  0  0  0
  -26.0189  -38.2883   24.1422 H   0  0  0  0  0  0
  -29.2780  -19.9484   20.4497 H   0  0  0  0  0  0
  -28.7058  -17.5765   20.1475 H   0  0  0  0  0  0
  -32.1551  -16.4293   22.4672 H   0  0  0  0  0  0
  -28.5574  -24.6255   22.0820 H   0  0  0  0  0  0
  -27.7973  -23.5083   20.9778 H   0  0  0  0  0  0
  -29.2346  -22.8231   18.8401 H   0  0  0  0  0  0
  -30.5508  -23.8630   18.3542 H   0  0  0  0  0  0
  -31.9515  -23.1156   20.1843 H   0  0  0  0  0  0
  -31.3194  -21.6898   19.3943 H   0  0  0  0  0  0
  -30.3554  -25.1054   20.5238 H   0  0  0  0  0  0
  -33.5587  -18.0070   23.4532 H   0  0  0  0  0  0
  -32.8337  -19.5479   23.8879 H   0  0  0  0  0  0
  -33.8292  -19.4180   22.4320 H   0  0  0  0  0  0
  -32.4045  -21.2291   21.6541 H   0  0  0  0  0  0
  -31.3626  -21.2007   23.0269 H   0  0  0  0  0  0
  -27.6902  -24.9846   19.1132 H   0  0  0  0  0  0
  -29.0625  -25.7992   18.4167 H   0  0  0  0  0  0
  -29.0467  -15.2339   21.3885 H   0  0  0  0  0  0
  1 25  1  0  0  0
  1 30  2  0  0  0
  1 86  1  0  0  0
  2  3  1  0  0  0
  2 25  1  0  0  0
  2 88  1  0  0  0
  2 89  1  0  0  0
  3  4  1  0  0  0
  3 90  1  0  0  0
  3 91  1  0  0  0
  4  5  1  0  0  0
  4 92  1  0  0  0
  4 93  1  0  0  0
  5  6  1  0  0  0
  5 26  1  0  0  0
  5 94  1  0  0  0
  6 25  1  0  0  0
  6 95  1  0  0  0
  6 96  1  0  0  0
  7  8  2  0  0  0
  7 26  1  0  0  0
  7 29  1  0  0  0
  8  9  1  0  0  0
  8 22  1  0  0  0
  9 10  1  0  0  0
  9 27  2  0  0  0
 10 11  2  0  0  0
 10 15  1  0  0  0
 11 12  1  0  0  0
 11 97  1  0  0  0
 12 13  2  0  0  0
 12 98  1  0  0  0
 13 14  1  0  0  0
 13 31  1  0  0  0
 14 15  2  0  0  0
 14 99  1  0  0  0
 15100  1  0  0  0
 16 17  2  0  0  0
 16 21  1  0  0  0
 16 31  1  0  0  0
 17 18  1  0  0  0
 17101  1  0  0  0
 18 19  2  0  0  0
 18102  1  0  0  0
 19 20  1  0  0  0
 19 24  1  0  0  0
 20 21  2  0  0  0
 20103  1  0  0  0
 21 23  1  0  0  0
 22 28  1  0  0  0
 22 32  2  0  0  0
 26 27  1  0  0  0
 28104  1  0  0  0
 28105  1  0  0  0
 29106  1  0  0  0
 29107  1  0  0  0
 33 34  1  0  0  0
 33 66  1  0  0  0
 33 70  2  0  0  0
 34 36  1  0  0  0
 34 59  1  0  0  0
 34108  1  0  0  0
 35 44  2  0  0  0
 35 45  1  0  0  0
 35 68  1  0  0  0
 36 56  1  0  0  0
 36109  1  0  0  0
 37 39  1  0  0  0
 37 47  1  0  0  0
 37 66  1  0  0  0
 37110  1  0  0  0
 38 43  2  0  0  0
 38 46  1  0  0  0
 38 47  1  0  0  0
 39 64  1  0  0  0
 39 67  2  0  0  0
 40 52  1  0  0  0
 40 53  2  0  0  0
 40 58  1  0  0  0
 41111  1  0  0  0
 41112  1  0  0  0
 41113  1  0  0  0
 41 48  1  0  0  0
 42 43  1  0  0  0
 42 66  1  0  0  0
 42114  1  0  0  0
 42115  1  0  0  0
 43 44  1  0  0  0
 44116  1  0  0  0
 45 46  2  0  0  0
 45117  1  0  0  0
 46118  1  0  0  0
 47119  1  0  0  0
 47120  1  0  0  0
 48 56  1  0  0  0
 48 65  1  0  0  0
 48121  1  0  0  0
 49 50  1  0  0  0
 49 53  1  0  0  0
 49 64  1  0  0  0
 49122  1  0  0  0
 50 51  1  0  0  0
 50123  1  0  0  0
 50124  1  0  0  0
 51 52  1  0  0  0
 51125  1  0  0  0
 51126  1  0  0  0
 52127  1  0  0  0
 52128  1  0  0  0
 53 54  1  0  0  0
 54 55  2  0  0  0
 54129  1  0  0  0
 55 57  1  0  0  0
 55130  1  0  0  0
 56 69  2  0  0  0
 57 58  2  0  0  0
 57131  1  0  0  0
 58132  1  0  0  0
 59 60  1  0  0  0
 59 61  1  0  0  0
 59 62  1  0  0  0
 60133  1  0  0  0
 60134  1  0  0  0
 60135  1  0  0  0
 61136  1  0  0  0
 61137  1  0  0  0
 61138  1  0  0  0
 62139  1  0  0  0
 62140  1  0  0  0
 62141  1  0  0  0
 63 65  1  0  0  0
 63142  1  0  0  0
 63143  1  0  0  0
 63144  1  0  0  0
 64145  1  0  0  0
 65146  1  0  0  0
 68 84  1  0  0  0
 71 72  2  0  0  0
 71 74  1  0  0  0
 71147  1  0  0  0
 72 76  1  0  0  0
 72148  1  0  0  0
 73 75  1  0  0  0
 73 76  2  0  0  0
 73149  1  0  0  0
 74 75  2  0  0  0
 74 83  1  0  0  0
 75 82  1  0  0  0
 76 86  1  0  0  0
 77 78  1  0  0  0
 77 85  1  0  0  0
 77 87  2  0  0  0
 78 81  1  0  0  0
 78150  1  0  0  0
 78151  1  0  0  0
 79 80  1  0  0  0
 79 81  1  0  0  0
 79152  1  0  0  0
 79153  1  0  0  0
 80 85  1  0  0  0
 80154  1  0  0  0
 80155  1  0  0  0
 81 84  1  0  0  0
 81156  1  0  0  0
 82157  1  0  0  0
 82158  1  0  0  0
 82159  1  0  0  0
 83 85  1  0  0  0
 83160  1  0  0  0
 83161  1  0  0  0
 84162  1  0  0  0
 84163  1  0  0  0
 86164  1  0  0  0
M  ISO  4   1 100  68 101  84 101  86 100
M  END
> <chiral flag>
0

> <version>
0

> <s_m_source_file>
/data/baiqing/PycharmProjects/Reinvent-master-3.2/result/LINK_invent/BTK/process_docking_weight1_custom_product_contain_oxygen_bond_distance_aromatic_linkinvent_7_9_3/rearranged_h_0057.sdf

> <i_m_source_file_index>
75

> <r_mmod_Potential_Energy-OPLS-2005>
-43.9675598144531

> <r_mmod_Stretch_Energy-OPLS-2005>
39.4512634277344

> <r_mmod_Bend_Energy-OPLS-2005>
110.577415466309

> <r_mmod_Torsional_Energy-OPLS-2005>
237.706619262695

> <r_mmod_Improper_Torsional_Energy-OPLS-2005>
3.79059600830078

> <r_mmod_Van_der_Waal_Energy-OPLS-2005>
168.959182739258

> <r_mmod_Electrostatic_Energy-OPLS-2005>
-387.002990722656

> <r_mmod_Solvation_Energy-OPLS-2005>
-230.420486450195

> <b_mmod_Minimization_Converged-OPLS-2005>
0

> <r_mmod_RMS_Derivative-OPLS-2005>
2.50771951675415

$$$$
76
                    3D
 Structure written by MMmdl.
163171  0  0  1  0            999 V2000
  -29.4860  -16.0183   21.0198 C   0  0  0  0  0  0
  -30.2545  -13.5276   19.8354 C   0  0  0  0  0  0
  -29.5723  -12.8963   18.5509 C   0  0  0  0  0  0
  -28.1756  -12.3464   18.8588 C   0  0  0  0  0  0
  -27.5145  -13.2998   19.8665 C   0  0  2  0  0  0
  -28.3458  -13.6073   21.1166 C   0  0  0  0  0  0
  -25.1794  -13.8178   20.5608 C   0  0  0  0  0  0
  -24.1306  -13.0318   20.9284 C   0  0  0  0  0  0
  -24.6041  -11.6834   20.8735 C   0  0  0  0  0  0
  -23.8878  -10.4215   21.0419 C   0  0  0  0  0  0
  -24.3526   -9.4184   21.9185 C   0  0  0  0  0  0
  -23.6255   -8.2187   22.0735 C   0  0  0  0  0  0
  -22.4237   -8.0197   21.3513 C   0  0  0  0  0  0
  -21.9833   -9.0156   20.4617 C   0  0  0  0  0  0
  -22.7096  -10.2044   20.3038 C   0  0  0  0  0  0
  -21.6855   -6.0699   22.5292 C   0  0  0  0  0  0
  -21.4000   -6.5623   23.8221 C   0  0  0  0  0  0
  -21.3655   -5.6776   24.9194 C   0  0  0  0  0  0
  -21.6051   -4.3044   24.7239 C   0  0  0  0  0  0
  -21.8830   -3.8129   23.4371 C   0  0  0  0  0  0
  -21.9182   -4.6927   22.3425 C   0  0  0  0  0  0
  -22.7407  -13.5121   21.2009 C   0  0  0  0  0  0
  -22.1675   -4.2129   21.0997 F   0  0  0  0  0  0
  -21.5641   -3.4541   25.7761 F   0  0  0  0  0  0
  -29.3562  -14.5494   20.6585 N   0  0  0  0  0  0
  -26.2015  -12.9383   20.2845 N   0  0  0  0  0  0
  -25.8883  -11.6502   20.5496 N   0  0  0  0  0  0
  -22.0110  -12.8121   22.0592 N   0  0  0  0  0  0
  -25.3543  -15.1937   20.4088 N   0  0  0  0  0  0
  -30.7337  -16.1379   20.7703 O   0  0  0  0  0  0
  -21.6591   -6.8820   21.4248 O   0  0  0  0  0  0
  -22.3152  -14.5442   20.6832 O   0  0  0  0  0  0
  -24.8235  -31.8043   23.2893 C   0  0  0  0  0  0
  -26.0334  -32.5155   23.9183 C   0  0  1  0  0  0
  -25.8741  -27.4125   20.1845 C   0  0  0  0  0  0
  -25.6478  -33.8878   24.2670 N   0  0  0  0  0  0
  -24.0843  -30.0141   21.7943 C   0  0  2  0  0  0
  -25.2373  -29.7279   19.6159 C   0  0  0  0  0  0
  -24.0730  -28.3056   22.5146 C   0  0  0  0  0  0
  -18.1913  -27.7810   22.7668 C   0  0  0  0  0  0
  -24.1492  -36.7403   23.2513 C   0  0  0  0  0  0
  -26.3645  -30.7625   21.6087 C   0  0  0  0  0  0
  -26.2797  -29.6795   20.5455 C   0  0  0  0  0  0
  -26.7282  -28.3917   20.7910 C   0  0  0  0  0  0
  -25.9096  -27.5255   18.8325 C   0  0  0  0  0  0
  -25.1539  -28.7040   18.6097 C   0  0  0  0  0  0
  -24.1116  -30.4645   20.2417 C   0  0  0  0  0  0
  -25.4089  -36.3266   24.0296 C   0  0  1  0  0  0
  -20.9622  -26.9894   22.6546 C   0  0  2  0  0  0
  -20.4893  -26.0220   21.7058 C   0  0  0  0  0  0
  -19.2455  -26.4565   21.0073 C   0  0  0  0  0  0
  -18.0655  -26.5445   21.9620 C   0  0  0  0  0  0
  -19.5327  -28.0890   23.2061 C   0  0  0  0  0  0
  -19.3633  -29.3317   24.0255 C   0  0  0  0  0  0
  -18.1779  -30.1607   24.1445 C   0  0  0  0  0  0
  -25.9126  -34.9590   23.5124 C   0  0  0  0  0  0
  -16.9472  -29.7442   23.6286 C   0  0  0  0  0  0
  -16.9716  -28.5139   22.9750 C   0  0  0  0  0  0
  -26.5311  -31.7003   25.1650 C   0  0  0  0  0  0
  -25.4016  -31.3894   26.1787 C   0  0  0  0  0  0
  -27.1883  -30.3535   24.7716 C   0  0  0  0  0  0
  -27.6427  -32.4930   25.8790 C   0  0  0  0  0  0
  -27.5573  -37.1907   24.8484 C   0  0  0  0  0  0
  -22.8811  -27.1031   22.3438 N   0  0  0  0  0  0
  -26.4280  -37.3949   23.9462 N   0  0  0  0  0  0
  -25.0981  -30.8523   22.3655 N   0  0  0  0  0  0
  -24.7947  -28.2605   23.4576 O   0  0  0  0  0  0
  -24.3715  -27.3502   20.2890 O   0  0  0  0  0  0
  -26.5493  -34.9032   22.4575 O   0  0  0  0  0  0
  -23.6769  -32.0546   23.7052 O   0  0  0  0  0  0
  -27.0702  -21.6702   21.5080 C   0  0  0  0  0  0
  -26.7765  -23.0881   21.5004 C   0  0  0  0  0  0
  -25.6177  -21.8093   23.4058 C   0  0  0  0  0  0
  -25.0717  -23.4785   23.4203 C   0  0  0  0  0  0
  -26.6685  -20.7362   22.5006 C   0  0  0  0  0  0
  -25.9618  -23.9122   22.3887 C   0  0  0  0  0  0
  -22.3596  -27.9528   24.5114 C   0  0  0  0  0  0
  -23.9723  -24.9253   24.3733 C   0  0  0  0  0  0
  -26.2111  -25.3854   22.3073 C   0  0  0  0  0  0
  -27.6986  -18.8979   22.3939 C   0  0  0  0  0  0
  -22.6929  -28.3740   20.4481 C   0  0  0  0  0  0
  -21.8322  -29.1719   22.4689 C   0  0  1  0  0  0
  -23.0964  -26.4563   24.7257 N   0  0  0  0  0  0
  -28.3516  -17.2156   21.5081 N   0  0  0  0  0  0
  -23.8311  -24.3610   25.5226 N   0  3  0  0  0  0
  -20.7654  -30.0854   21.9436 N   0  3  0  0  0  0
  -31.1777  -14.0272   19.5374 H   0  0  0  0  0  0
  -30.6137  -12.7348   20.4905 H   0  0  0  0  0  0
  -30.1936  -12.1090   18.1268 H   0  0  0  0  0  0
  -29.4982  -13.6810   17.7925 H   0  0  0  0  0  0
  -28.2754  -11.3541   19.2903 H   0  0  0  0  0  0
  -27.5854  -12.2448   17.9495 H   0  0  0  0  0  0
  -27.3951  -14.2240   19.2971 H   0  0  0  0  0  0
  -28.7266  -12.7092   21.6063 H   0  0  0  0  0  0
  -27.7247  -14.1102   21.8637 H   0  0  0  0  0  0
  -25.2665   -9.5732   22.4745 H   0  0  0  0  0  0
  -23.9972   -7.4600   22.7452 H   0  0  0  0  0  0
  -21.0783   -8.8656   19.8946 H   0  0  0  0  0  0
  -22.3538  -10.9563   19.6146 H   0  0  0  0  0  0
  -21.1996   -7.6127   23.9751 H   0  0  0  0  0  0
  -21.1462   -6.0487   25.9094 H   0  0  0  0  0  0
  -22.0596   -2.7581   23.2886 H   0  0  0  0  0  0
  -22.3756  -11.9758   22.4933 H   0  0  0  0  0  0
  -21.0726  -13.1105   22.2872 H   0  0  0  0  0  0
  -24.5411  -15.7971   20.4401 H   0  0  0  0  0  0
  -26.1004  -15.5806   19.8504 H   0  0  0  0  0  0
  -26.8804  -32.5841   23.2417 H   0  0  0  0  0  0
  -25.1399  -34.0180   25.1267 H   0  0  0  0  0  0
  -23.2719  -30.7416   21.7764 H   0  0  0  0  0  0
  -23.3815  -35.9651   23.3193 H   0  0  0  0  0  0
  -24.3617  -36.8993   22.1916 H   0  0  0  0  0  0
  -23.7225  -37.6626   23.6479 H   0  0  0  0  0  0
  -26.5516  -31.7171   21.1130 H   0  0  0  0  0  0
  -27.2424  -30.5535   22.2181 H   0  0  0  0  0  0
  -27.3026  -28.1654   21.6845 H   0  0  0  0  0  0
  -25.6140  -26.7206   18.1834 H   0  0  0  0  0  0
  -24.3989  -28.7476   17.8308 H   0  0  0  0  0  0
  -24.3957  -31.5221   20.2047 H   0  0  0  0  0  0
  -23.1723  -30.6235   19.7182 H   0  0  0  0  0  0
  -25.1191  -36.2102   25.0751 H   0  0  0  0  0  0
  -20.8846  -26.3113   23.5114 H   0  0  0  0  0  0
  -20.2666  -25.0579   22.1734 H   0  0  0  0  0  0
  -21.2560  -25.7651   20.9757 H   0  0  0  0  0  0
  -19.0096  -25.7104   20.2468 H   0  0  0  0  0  0
  -19.3918  -27.3906   20.4688 H   0  0  0  0  0  0
  -17.1355  -26.5589   21.3887 H   0  0  0  0  0  0
  -18.0119  -25.6702   22.6166 H   0  0  0  0  0  0
  -20.2216  -29.7295   24.5493 H   0  0  0  0  0  0
  -18.2242  -31.0856   24.7063 H   0  0  0  0  0  0
  -16.0465  -30.3308   23.7505 H   0  0  0  0  0  0
  -16.0361  -28.1446   22.5805 H   0  0  0  0  0  0
  -24.6559  -30.7072   25.7767 H   0  0  0  0  0  0
  -24.8891  -32.3011   26.4823 H   0  0  0  0  0  0
  -25.8005  -30.9180   27.0774 H   0  0  0  0  0  0
  -26.5215  -29.6837   24.2559 H   0  0  0  0  0  0
  -27.5220  -29.8158   25.6603 H   0  0  0  0  0  0
  -28.0862  -30.5016   24.1734 H   0  0  0  0  0  0
  -27.2721  -33.4233   26.3123 H   0  0  0  0  0  0
  -28.4632  -32.7441   25.2048 H   0  0  0  0  0  0
  -28.0815  -31.9281   26.7058 H   0  0  0  0  0  0
  -28.2544  -38.0249   24.7549 H   0  0  0  0  0  0
  -28.1092  -36.2759   24.6247 H   0  0  0  0  0  0
  -27.2247  -37.1518   25.8873 H   0  0  0  0  0  0
  -23.2614  -26.2861   22.8126 H   0  0  0  0  0  0
  -26.0164  -38.2992   24.1569 H   0  0  0  0  0  0
  -27.7537  -21.3001   20.7469 H   0  0  0  0  0  0
  -27.3249  -23.6238   20.7323 H   0  0  0  0  0  0
  -25.1993  -21.2905   24.2604 H   0  0  0  0  0  0
  -22.0220  -28.4976   25.3937 H   0  0  0  0  0  0
  -27.0446  -25.5990   21.6385 H   0  0  0  0  0  0
  -26.4715  -25.7909   23.2847 H   0  0  0  0  0  0
  -25.2944  -25.8467   21.9699 H   0  0  0  0  0  0
  -27.2133  -18.4291   23.2496 H   0  0  0  0  0  0
  -28.6587  -19.2237   22.8057 H   0  0  0  0  0  0
  -22.4206  -28.8795   19.5328 H   0  0  0  0  0  0
  -21.9901  -27.5975   20.1642 H   0  0  0  0  0  0
  -22.1058  -30.0802   22.9975 H   0  0  0  0  0  0
  -27.4883  -16.6954   21.4128 H   0  0  0  0  0  0
  -24.2225  -23.4468   25.7558 H   0  0  0  0  0  0
  -23.3463  -24.8189   26.2907 H   0  0  0  0  0  0
  -19.9439  -29.9977   22.5255 H   0  0  0  0  0  0
  -20.4744  -29.8282   21.0093 H   0  0  0  0  0  0
  -21.0636  -31.0427   21.9061 H   0  0  0  0  0  0
  1 25  1  0  0  0
  1 30  2  0  0  0
  1 84  1  0  0  0
  2  3  1  0  0  0
  2 25  1  0  0  0
  2 87  1  0  0  0
  2 88  1  0  0  0
  3  4  1  0  0  0
  3 89  1  0  0  0
  3 90  1  0  0  0
  4  5  1  0  0  0
  4 91  1  0  0  0
  4 92  1  0  0  0
  5  6  1  0  0  0
  5 26  1  0  0  0
  5 93  1  0  0  0
  6 25  1  0  0  0
  6 94  1  0  0  0
  6 95  1  0  0  0
  7  8  2  0  0  0
  7 26  1  0  0  0
  7 29  1  0  0  0
  8  9  1  0  0  0
  8 22  1  0  0  0
  9 10  1  0  0  0
  9 27  2  0  0  0
 10 11  2  0  0  0
 10 15  1  0  0  0
 11 12  1  0  0  0
 11 96  1  0  0  0
 12 13  2  0  0  0
 12 97  1  0  0  0
 13 14  1  0  0  0
 13 31  1  0  0  0
 14 15  2  0  0  0
 14 98  1  0  0  0
 15 99  1  0  0  0
 16 17  2  0  0  0
 16 21  1  0  0  0
 16 31  1  0  0  0
 17 18  1  0  0  0
 17100  1  0  0  0
 18 19  2  0  0  0
 18101  1  0  0  0
 19 20  1  0  0  0
 19 24  1  0  0  0
 20 21  2  0  0  0
 20102  1  0  0  0
 21 23  1  0  0  0
 22 28  1  0  0  0
 22 32  2  0  0  0
 26 27  1  0  0  0
 28103  1  0  0  0
 28104  1  0  0  0
 29105  1  0  0  0
 29106  1  0  0  0
 33 34  1  0  0  0
 33 66  1  0  0  0
 33 70  2  0  0  0
 34 36  1  0  0  0
 34 59  1  0  0  0
 34107  1  0  0  0
 35 44  2  0  0  0
 35 45  1  0  0  0
 35 68  1  0  0  0
 36 56  1  0  0  0
 36108  1  0  0  0
 37 39  1  0  0  0
 37 47  1  0  0  0
 37 66  1  0  0  0
 37109  1  0  0  0
 38 43  2  0  0  0
 38 46  1  0  0  0
 38 47  1  0  0  0
 39 64  1  0  0  0
 39 67  2  0  0  0
 40 52  1  0  0  0
 40 53  2  0  0  0
 40 58  1  0  0  0
 41110  1  0  0  0
 41111  1  0  0  0
 41112  1  0  0  0
 41 48  1  0  0  0
 42 43  1  0  0  0
 42 66  1  0  0  0
 42113  1  0  0  0
 42114  1  0  0  0
 43 44  1  0  0  0
 44115  1  0  0  0
 45 46  2  0  0  0
 45116  1  0  0  0
 46117  1  0  0  0
 47118  1  0  0  0
 47119  1  0  0  0
 48 56  1  0  0  0
 48 65  1  0  0  0
 48120  1  0  0  0
 49 50  1  0  0  0
 49 53  1  0  0  0
 49 64  1  0  0  0
 49121  1  0  0  0
 50 51  1  0  0  0
 50122  1  0  0  0
 50123  1  0  0  0
 51 52  1  0  0  0
 51124  1  0  0  0
 51125  1  0  0  0
 52126  1  0  0  0
 52127  1  0  0  0
 53 54  1  0  0  0
 54 55  2  0  0  0
 54128  1  0  0  0
 55 57  1  0  0  0
 55129  1  0  0  0
 56 69  2  0  0  0
 57 58  2  0  0  0
 57130  1  0  0  0
 58131  1  0  0  0
 59 60  1  0  0  0
 59 61  1  0  0  0
 59 62  1  0  0  0
 60132  1  0  0  0
 60133  1  0  0  0
 60134  1  0  0  0
 61135  1  0  0  0
 61136  1  0  0  0
 61137  1  0  0  0
 62138  1  0  0  0
 62139  1  0  0  0
 62140  1  0  0  0
 63 65  1  0  0  0
 63141  1  0  0  0
 63142  1  0  0  0
 63143  1  0  0  0
 64144  1  0  0  0
 65145  1  0  0  0
 68 81  1  0  0  0
 71 72  2  0  0  0
 71 75  1  0  0  0
 71146  1  0  0  0
 72 76  1  0  0  0
 72147  1  0  0  0
 73 74  1  0  0  0
 73 75  2  0  0  0
 73148  1  0  0  0
 74 76  2  0  0  0
 74 78  1  0  0  0
 75 80  1  0  0  0
 76 79  1  0  0  0
 77 82  1  0  0  0
 77 83  2  0  0  0
 77149  1  0  0  0
 78 83  1  0  0  0
 78 85  2  0  0  0
 79150  1  0  0  0
 79151  1  0  0  0
 79152  1  0  0  0
 80 84  1  0  0  0
 80153  1  0  0  0
 80154  1  0  0  0
 81 82  1  0  0  0
 81155  1  0  0  0
 81156  1  0  0  0
 82 86  1  0  0  0
 82157  1  0  0  0
 84158  1  0  0  0
 85159  1  0  0  0
 85160  1  0  0  0
 86161  1  0  0  0
 86162  1  0  0  0
 86163  1  0  0  0
M  CHG  2  85   1  86   1
M  ISO  4   1 100  68 101  81 101  84 100
M  END
> <chiral flag>
0

> <version>
0

> <s_m_source_file>
/data/baiqing/PycharmProjects/Reinvent-master-3.2/result/LINK_invent/BTK/process_docking_weight1_custom_product_contain_oxygen_bond_distance_aromatic_linkinvent_7_9_3/rearranged_h_0057.sdf

> <i_m_source_file_index>
76

> <r_mmod_Potential_Energy-OPLS-2005>
15924.6513671875

> <r_mmod_Stretch_Energy-OPLS-2005>
6316.10107421875

> <r_mmod_Bend_Energy-OPLS-2005>
2069.33056640625

> <r_mmod_Torsional_Energy-OPLS-2005>
605.201904296875

> <r_mmod_Improper_Torsional_Energy-OPLS-2005>
79.5062408447266

> <r_mmod_Van_der_Waal_Energy-OPLS-2005>
1925.09252929688

> <r_mmod_Electrostatic_Energy-OPLS-2005>
-9.63963222503662

> <r_mmod_Solvation_Energy-OPLS-2005>
-860.324035644531

> <b_mmod_Minimization_Converged-OPLS-2005>
0

> <r_mmod_RMS_Derivative-OPLS-2005>
18.0639381408691

$$$$
77
                    3D
 Structure written by MMmdl.
156164  0  0  1  0            999 V2000
  -30.6701  -14.5210   20.4869 C   0  0  0  0  0  0
  -30.4237  -12.3054   19.4375 C   0  0  0  0  0  0
  -29.5007  -12.4853   18.2108 C   0  0  0  0  0  0
  -28.0181  -12.3460   18.6143 C   0  0  0  0  0  0
  -27.6537  -13.2012   19.8552 C   0  0  2  0  0  0
  -28.6983  -13.0083   20.9794 C   0  0  0  0  0  0
  -25.2565  -13.8114   20.5623 C   0  0  0  0  0  0
  -24.1825  -13.0403   20.9145 C   0  0  0  0  0  0
  -24.6377  -11.6864   20.8715 C   0  0  0  0  0  0
  -23.9033  -10.4263   21.0414 C   0  0  0  0  0  0
  -24.3603   -9.4186   21.9193 C   0  0  0  0  0  0
  -23.6281   -8.2223   22.0773 C   0  0  0  0  0  0
  -22.4267   -8.0262   21.3549 C   0  0  0  0  0  0
  -21.9883   -9.0229   20.4657 C   0  0  0  0  0  0
  -22.7203  -10.2108   20.3065 C   0  0  0  0  0  0
  -21.6842   -6.0724   22.5284 C   0  0  0  0  0  0
  -21.4007   -6.5636   23.8213 C   0  0  0  0  0  0
  -21.3663   -5.6791   24.9171 C   0  0  0  0  0  0
  -21.6049   -4.3054   24.7233 C   0  0  0  0  0  0
  -21.8815   -3.8145   23.4355 C   0  0  0  0  0  0
  -21.9191   -4.6953   22.3408 C   0  0  0  0  0  0
  -22.7857  -13.5222   21.1825 C   0  0  0  0  0  0
  -22.1670   -4.2136   21.0986 F   0  0  0  0  0  0
  -21.5618   -3.4550   25.7750 F   0  0  0  0  0  0
  -30.0295  -13.3158   20.4329 N   0  0  0  0  0  0
  -26.2985  -12.9277   20.3244 N   0  0  0  0  0  0
  -25.9302  -11.6448   20.5720 N   0  0  0  0  0  0
  -22.0492  -12.8243   22.0393 N   0  0  0  0  0  0
  -25.4277  -15.1830   20.4059 N   0  0  0  0  0  0
  -31.8529  -14.6381   20.1561 O   0  0  0  0  0  0
  -21.6632   -6.8860   21.4247 O   0  0  0  0  0  0
  -22.3555  -14.5540   20.6673 O   0  0  0  0  0  0
  -24.6154  -31.8669   23.2076 C   0  0  0  0  0  0
  -25.9047  -32.4818   23.8371 C   0  0  1  0  0  0
  -27.2462  -27.4209   20.0910 C   0  0  0  0  0  0
  -25.5896  -33.8617   24.2301 N   0  0  0  0  0  0
  -23.4037  -30.4867   21.5500 C   0  0  2  0  0  0
  -24.8504  -28.9467   20.1197 C   0  0  0  0  0  0
  -22.7411  -29.4644   22.5006 C   0  0  0  0  0  0
  -18.0261  -28.1379   22.8482 C   0  0  0  0  0  0
  -24.1484  -36.7310   23.2637 C   0  0  0  0  0  0
  -25.9328  -30.8275   21.3595 C   0  0  0  0  0  0
  -26.0101  -29.4583   20.7108 C   0  0  0  0  0  0
  -27.2062  -28.7029   20.6921 C   0  0  0  0  0  0
  -26.0556  -26.9173   19.5131 C   0  0  0  0  0  0
  -24.8676  -27.6752   19.5222 C   0  0  0  0  0  0
  -23.6123  -29.8139   20.1666 C   0  0  0  0  0  0
  -25.4105  -36.3109   24.0329 C   0  0  1  0  0  0
  -20.5847  -28.3667   23.1329 C   0  0  2  0  0  0
  -20.6760  -26.9401   22.5438 C   0  0  0  0  0  0
  -19.5755  -26.6380   21.5224 C   0  0  0  0  0  0
  -18.1919  -26.7924   22.1612 C   0  0  0  0  0  0
  -19.1507  -28.8841   23.2896 C   0  0  0  0  0  0
  -18.9442  -30.1449   23.8902 C   0  0  0  0  0  0
  -17.6441  -30.6585   24.0555 C   0  0  0  0  0  0
  -25.9037  -34.9476   23.5117 C   0  0  0  0  0  0
  -16.5331  -29.9085   23.6315 C   0  0  0  0  0  0
  -16.7247  -28.6500   23.0337 C   0  0  0  0  0  0
  -26.4466  -31.6599   25.0707 C   0  0  0  0  0  0
  -25.3721  -31.3724   26.1454 C   0  0  0  0  0  0
  -27.0298  -30.3041   24.6090 C   0  0  0  0  0  0
  -27.6039  -32.4317   25.7471 C   0  0  0  0  0  0
  -27.5577  -37.1816   24.8469 C   0  0  0  0  0  0
  -21.4136  -29.3038   22.3748 N   0  0  0  0  0  0
  -26.4293  -37.3790   23.9406 N   0  0  0  0  0  0
  -24.6692  -31.0749   22.0983 N   0  0  0  0  0  0
  -23.4180  -28.8193   23.3061 O   0  0  0  0  0  0
  -28.4551  -26.7422   20.0991 O   0  0  0  0  0  0
  -26.5602  -34.8936   22.4680 O   0  0  0  0  0  0
  -23.5348  -32.1424   23.7466 O   0  0  0  0  0  0
  -27.9719  -17.9981   20.0289 C   0  0  0  0  0  0
  -27.0954  -19.0942   19.9910 C   0  0  0  0  0  0
  -29.7665  -19.4603   20.7518 C   0  0  0  0  0  0
  -29.3188  -18.1546   20.4156 C   0  0  0  0  0  0
  -27.5348  -20.3831   20.3499 C   0  0  0  0  0  0
  -28.8921  -20.5864   20.7182 C   0  0  0  0  0  0
  -30.2102  -16.9622   20.4535 C   0  0  0  0  0  0
  -29.7936  -15.6881   20.6732 C   0  0  0  0  0  0
  -28.7310  -24.3368   20.6417 C   0  0  0  0  0  0
  -26.5090  -21.5049   20.3544 C   0  0  0  0  0  0
  -29.4131  -21.9665   21.1608 C   0  0  0  0  0  0
  -28.6104  -25.4184   19.5417 C   0  0  0  0  0  0
  -29.1165  -23.0992   20.2643 N   0  0  0  0  0  0
  -28.5080  -24.6232   21.8215 O   0  0  0  0  0  0
  -31.4703  -12.3897   19.1422 H   0  0  0  0  0  0
  -30.3130  -11.3027   19.8554 H   0  0  0  0  0  0
  -29.7455  -11.7517   17.4414 H   0  0  0  0  0  0
  -29.6686  -13.4652   17.7618 H   0  0  0  0  0  0
  -27.8291  -11.2928   18.8233 H   0  0  0  0  0  0
  -27.3738  -12.6039   17.7737 H   0  0  0  0  0  0
  -27.6790  -14.2375   19.5238 H   0  0  0  0  0  0
  -28.6750  -11.9766   21.3310 H   0  0  0  0  0  0
  -28.4690  -13.6141   21.8561 H   0  0  0  0  0  0
  -25.2742   -9.5670   22.4765 H   0  0  0  0  0  0
  -23.9980   -7.4624   22.7512 H   0  0  0  0  0  0
  -21.0800   -8.8730   19.8989 H   0  0  0  0  0  0
  -22.3641  -10.9643   19.6180 H   0  0  0  0  0  0
  -21.2000   -7.6146   23.9697 H   0  0  0  0  0  0
  -21.1492   -6.0541   25.9063 H   0  0  0  0  0  0
  -22.0595   -2.7615   23.2862 H   0  0  0  0  0  0
  -22.4109  -11.9894   22.4762 H   0  0  0  0  0  0
  -21.1130  -13.1314   22.2623 H   0  0  0  0  0  0
  -24.6641  -15.8409   20.5147 H   0  0  0  0  0  0
  -26.2827  -15.6152   20.0869 H   0  0  0  0  0  0
  -26.7123  -32.5524   23.1142 H   0  0  0  0  0  0
  -25.0061  -33.9773   25.0461 H   0  0  0  0  0  0
  -22.6929  -31.3033   21.4080 H   0  0  0  0  0  0
  -23.3742  -35.9652   23.3320 H   0  0  0  0  0  0
  -24.3584  -36.8908   22.2053 H   0  0  0  0  0  0
  -23.7249  -37.6526   23.6638 H   0  0  0  0  0  0
  -26.0409  -31.5901   20.5867 H   0  0  0  0  0  0
  -26.8227  -30.8861   21.9738 H   0  0  0  0  0  0
  -28.1049  -29.1043   21.1396 H   0  0  0  0  0  0
  -26.0029  -25.9429   19.0552 H   0  0  0  0  0  0
  -23.9708  -27.2703   19.0738 H   0  0  0  0  0  0
  -23.7190  -30.5855   19.4028 H   0  0  0  0  0  0
  -22.7374  -29.2307   19.8744 H   0  0  0  0  0  0
  -25.1287  -36.1968   25.0820 H   0  0  0  0  0  0
  -20.9911  -28.3243   24.1462 H   0  0  0  0  0  0
  -20.5652  -26.2280   23.3627 H   0  0  0  0  0  0
  -21.6640  -26.7447   22.1245 H   0  0  0  0  0  0
  -19.6927  -25.6285   21.1269 H   0  0  0  0  0  0
  -19.6729  -27.3185   20.6756 H   0  0  0  0  0  0
  -17.4214  -26.6652   21.3993 H   0  0  0  0  0  0
  -18.0317  -26.0065   22.9011 H   0  0  0  0  0  0
  -19.7916  -30.7259   24.2286 H   0  0  0  0  0  0
  -17.4984  -31.6266   24.5165 H   0  0  0  0  0  0
  -15.5327  -30.2997   23.7622 H   0  0  0  0  0  0
  -15.8638  -28.0822   22.7066 H   0  0  0  0  0  0
  -24.5880  -30.7089   25.7795 H   0  0  0  0  0  0
  -24.8926  -32.2891   26.4893 H   0  0  0  0  0  0
  -25.8059  -30.8896   27.0216 H   0  0  0  0  0  0
  -26.2852  -29.6816   24.1119 H   0  0  0  0  0  0
  -27.4050  -29.7267   25.4548 H   0  0  0  0  0  0
  -27.8682  -30.4370   23.9249 H   0  0  0  0  0  0
  -27.2654  -33.3603   26.2077 H   0  0  0  0  0  0
  -28.3829  -32.6906   25.0287 H   0  0  0  0  0  0
  -28.0724  -31.8425   26.5363 H   0  0  0  0  0  0
  -28.2614  -38.0096   24.7496 H   0  0  0  0  0  0
  -28.1053  -36.2632   24.6308 H   0  0  0  0  0  0
  -27.2302  -37.1480   25.8876 H   0  0  0  0  0  0
  -20.9303  -29.8759   21.6962 H   0  0  0  0  0  0
  -26.0184  -38.2872   24.1388 H   0  0  0  0  0  0
  -27.5949  -17.0326   19.7297 H   0  0  0  0  0  0
  -26.0661  -18.9340   19.6976 H   0  0  0  0  0  0
  -30.7964  -19.5944   21.0538 H   0  0  0  0  0  0
  -31.2499  -17.1438   20.2161 H   0  0  0  0  0  0
  -28.7628  -15.5546   20.9496 H   0  0  0  0  0  0
  -25.4911  -21.1140   20.3218 H   0  0  0  0  0  0
  -26.6397  -22.1447   19.4821 H   0  0  0  0  0  0
  -26.5896  -22.1140   21.2549 H   0  0  0  0  0  0
  -30.4950  -21.9163   21.2900 H   0  0  0  0  0  0
  -29.0075  -22.1491   22.1572 H   0  0  0  0  0  0
  -27.8668  -25.1364   18.8015 H   0  0  0  0  0  0
  -29.5558  -25.4271   18.9973 H   0  0  0  0  0  0
  -29.2802  -22.9482   19.2781 H   0  0  0  0  0  0
  1 25  1  0  0  0
  1 30  2  0  0  0
  1 78  1  0  0  0
  2  3  1  0  0  0
  2 25  1  0  0  0
  2 85  1  0  0  0
  2 86  1  0  0  0
  3  4  1  0  0  0
  3 87  1  0  0  0
  3 88  1  0  0  0
  4  5  1  0  0  0
  4 89  1  0  0  0
  4 90  1  0  0  0
  5  6  1  0  0  0
  5 26  1  0  0  0
  5 91  1  0  0  0
  6 25  1  0  0  0
  6 92  1  0  0  0
  6 93  1  0  0  0
  7  8  2  0  0  0
  7 26  1  0  0  0
  7 29  1  0  0  0
  8  9  1  0  0  0
  8 22  1  0  0  0
  9 10  1  0  0  0
  9 27  2  0  0  0
 10 11  2  0  0  0
 10 15  1  0  0  0
 11 12  1  0  0  0
 11 94  1  0  0  0
 12 13  2  0  0  0
 12 95  1  0  0  0
 13 14  1  0  0  0
 13 31  1  0  0  0
 14 15  2  0  0  0
 14 96  1  0  0  0
 15 97  1  0  0  0
 16 17  2  0  0  0
 16 21  1  0  0  0
 16 31  1  0  0  0
 17 18  1  0  0  0
 17 98  1  0  0  0
 18 19  2  0  0  0
 18 99  1  0  0  0
 19 20  1  0  0  0
 19 24  1  0  0  0
 20 21  2  0  0  0
 20100  1  0  0  0
 21 23  1  0  0  0
 22 28  1  0  0  0
 22 32  2  0  0  0
 26 27  1  0  0  0
 28101  1  0  0  0
 28102  1  0  0  0
 29103  1  0  0  0
 29104  1  0  0  0
 33 34  1  0  0  0
 33 66  1  0  0  0
 33 70  2  0  0  0
 34 36  1  0  0  0
 34 59  1  0  0  0
 34105  1  0  0  0
 35 44  2  0  0  0
 35 45  1  0  0  0
 35 68  1  0  0  0
 36 56  1  0  0  0
 36106  1  0  0  0
 37 39  1  0  0  0
 37 47  1  0  0  0
 37 66  1  0  0  0
 37107  1  0  0  0
 38 43  2  0  0  0
 38 46  1  0  0  0
 38 47  1  0  0  0
 39 64  1  0  0  0
 39 67  2  0  0  0
 40 52  1  0  0  0
 40 53  2  0  0  0
 40 58  1  0  0  0
 41108  1  0  0  0
 41109  1  0  0  0
 41110  1  0  0  0
 41 48  1  0  0  0
 42 43  1  0  0  0
 42 66  1  0  0  0
 42111  1  0  0  0
 42112  1  0  0  0
 43 44  1  0  0  0
 44113  1  0  0  0
 45 46  2  0  0  0
 45114  1  0  0  0
 46115  1  0  0  0
 47116  1  0  0  0
 47117  1  0  0  0
 48 56  1  0  0  0
 48 65  1  0  0  0
 48118  1  0  0  0
 49 50  1  0  0  0
 49 53  1  0  0  0
 49 64  1  0  0  0
 49119  1  0  0  0
 50 51  1  0  0  0
 50120  1  0  0  0
 50121  1  0  0  0
 51 52  1  0  0  0
 51122  1  0  0  0
 51123  1  0  0  0
 52124  1  0  0  0
 52125  1  0  0  0
 53 54  1  0  0  0
 54 55  2  0  0  0
 54126  1  0  0  0
 55 57  1  0  0  0
 55127  1  0  0  0
 56 69  2  0  0  0
 57 58  2  0  0  0
 57128  1  0  0  0
 58129  1  0  0  0
 59 60  1  0  0  0
 59 61  1  0  0  0
 59 62  1  0  0  0
 60130  1  0  0  0
 60131  1  0  0  0
 60132  1  0  0  0
 61133  1  0  0  0
 61134  1  0  0  0
 61135  1  0  0  0
 62136  1  0  0  0
 62137  1  0  0  0
 62138  1  0  0  0
 63 65  1  0  0  0
 63139  1  0  0  0
 63140  1  0  0  0
 63141  1  0  0  0
 64142  1  0  0  0
 65143  1  0  0  0
 68 82  1  0  0  0
 71 72  2  0  0  0
 71 74  1  0  0  0
 71144  1  0  0  0
 72 75  1  0  0  0
 72145  1  0  0  0
 73 74  2  0  0  0
 73 76  1  0  0  0
 73146  1  0  0  0
 74 77  1  0  0  0
 75 76  2  0  0  0
 75 80  1  0  0  0
 76 81  1  0  0  0
 77 78  2  0  0  0
 77147  1  0  0  0
 78148  1  0  0  0
 79 82  1  0  0  0
 79 83  1  0  0  0
 79 84  2  0  0  0
 80149  1  0  0  0
 80150  1  0  0  0
 80151  1  0  0  0
 81 83  1  0  0  0
 81152  1  0  0  0
 81153  1  0  0  0
 82154  1  0  0  0
 82155  1  0  0  0
 83156  1  0  0  0
M  ISO  4   1 100  68 101  78 100  82 101
M  END
> <chiral flag>
0

> <version>
0

> <s_m_source_file>
/data/baiqing/PycharmProjects/Reinvent-master-3.2/result/LINK_invent/BTK/process_docking_weight1_custom_product_contain_oxygen_bond_distance_aromatic_linkinvent_7_9_3/rearranged_h_0057.sdf

> <i_m_source_file_index>
77

> <r_mmod_Potential_Energy-OPLS-2005>
-81.6138534545898

> <r_mmod_Stretch_Energy-OPLS-2005>
43.3562355041504

> <r_mmod_Bend_Energy-OPLS-2005>
108.464965820312

> <r_mmod_Torsional_Energy-OPLS-2005>
185.387359619141

> <r_mmod_Improper_Torsional_Energy-OPLS-2005>
7.83156299591064

> <r_mmod_Van_der_Waal_Energy-OPLS-2005>
156.88232421875

> <r_mmod_Electrostatic_Energy-OPLS-2005>
-373.016418457031

> <r_mmod_Solvation_Energy-OPLS-2005>
-230.573471069336

> <b_mmod_Minimization_Converged-OPLS-2005>
0

> <r_mmod_RMS_Derivative-OPLS-2005>
2.15741205215454

$$$$
78
                    3D
 Structure written by MMmdl.
157165  0  0  1  0            999 V2000
  -30.7066  -14.4714   20.5451 C   0  0  0  0  0  0
  -30.4222  -12.2927   19.4406 C   0  0  0  0  0  0
  -29.5023  -12.4920   18.2160 C   0  0  0  0  0  0
  -28.0185  -12.3815   18.6158 C   0  0  0  0  0  0
  -27.6657  -13.2143   19.8779 C   0  0  2  0  0  0
  -28.7054  -13.0030   21.0046 C   0  0  0  0  0  0
  -25.2594  -13.8182   20.5664 C   0  0  0  0  0  0
  -24.1838  -13.0470   20.9175 C   0  0  0  0  0  0
  -24.6395  -11.6932   20.8734 C   0  0  0  0  0  0
  -23.9053  -10.4318   21.0400 C   0  0  0  0  0  0
  -24.3617   -9.4237   21.9167 C   0  0  0  0  0  0
  -23.6311   -8.2259   22.0726 C   0  0  0  0  0  0
  -22.4302   -8.0272   21.3513 C   0  0  0  0  0  0
  -21.9935   -9.0253   20.4627 C   0  0  0  0  0  0
  -22.7238  -10.2152   20.3039 C   0  0  0  0  0  0
  -21.6867   -6.0734   22.5252 C   0  0  0  0  0  0
  -21.4027   -6.5631   23.8190 C   0  0  0  0  0  0
  -21.3663   -5.6783   24.9153 C   0  0  0  0  0  0
  -21.6050   -4.3044   24.7213 C   0  0  0  0  0  0
  -21.8815   -3.8144   23.4325 C   0  0  0  0  0  0
  -21.9201   -4.6962   22.3389 C   0  0  0  0  0  0
  -22.7849  -13.5249   21.1828 C   0  0  0  0  0  0
  -22.1655   -4.2140   21.0971 F   0  0  0  0  0  0
  -21.5643   -3.4522   25.7729 F   0  0  0  0  0  0
  -30.0418  -13.2880   20.4552 N   0  0  0  0  0  0
  -26.3034  -12.9362   20.3359 N   0  0  0  0  0  0
  -25.9326  -11.6519   20.5762 N   0  0  0  0  0  0
  -22.0490  -12.8230   22.0379 N   0  0  0  0  0  0
  -25.4360  -15.1880   20.4037 N   0  0  0  0  0  0
  -31.8410  -14.6388   20.0880 O   0  0  0  0  0  0
  -21.6640   -6.8879   21.4221 O   0  0  0  0  0  0
  -22.3510  -14.5561   20.6695 O   0  0  0  0  0  0
  -24.6142  -31.8686   23.2112 C   0  0  0  0  0  0
  -25.9042  -32.4821   23.8394 C   0  0  1  0  0  0
  -27.2086  -27.4075   20.1007 C   0  0  0  0  0  0
  -25.5910  -33.8621   24.2319 N   0  0  0  0  0  0
  -23.4008  -30.5010   21.5520 C   0  0  2  0  0  0
  -24.8437  -28.9743   20.1096 C   0  0  0  0  0  0
  -22.7385  -29.4689   22.4943 C   0  0  0  0  0  0
  -18.0278  -28.1339   22.8503 C   0  0  0  0  0  0
  -24.1492  -36.7313   23.2638 C   0  0  0  0  0  0
  -25.9358  -30.8292   21.3705 C   0  0  0  0  0  0
  -26.0101  -29.4670   20.7082 C   0  0  0  0  0  0
  -27.1987  -28.6926   20.6996 C   0  0  0  0  0  0
  -26.0223  -26.9541   19.4736 C   0  0  0  0  0  0
  -24.8465  -27.7186   19.4880 C   0  0  0  0  0  0
  -23.6086  -29.8437   20.1627 C   0  0  0  0  0  0
  -25.4110  -36.3100   24.0336 C   0  0  1  0  0  0
  -20.5869  -28.3640   23.1284 C   0  0  2  0  0  0
  -20.6753  -26.9368   22.5393 C   0  0  0  0  0  0
  -19.5737  -26.6352   21.5184 C   0  0  0  0  0  0
  -18.1920  -26.7894   22.1619 C   0  0  0  0  0  0
  -19.1525  -28.8804   23.2909 C   0  0  0  0  0  0
  -18.9463  -30.1411   23.8916 C   0  0  0  0  0  0
  -17.6470  -30.6565   24.0547 C   0  0  0  0  0  0
  -25.9036  -34.9470   23.5115 C   0  0  0  0  0  0
  -16.5356  -29.9060   23.6317 C   0  0  0  0  0  0
  -16.7274  -28.6460   23.0371 C   0  0  0  0  0  0
  -26.4469  -31.6605   25.0727 C   0  0  0  0  0  0
  -25.3750  -31.3747   26.1496 C   0  0  0  0  0  0
  -27.0299  -30.3035   24.6131 C   0  0  0  0  0  0
  -27.6020  -32.4348   25.7514 C   0  0  0  0  0  0
  -27.5579  -37.1808   24.8462 C   0  0  0  0  0  0
  -21.4110  -29.3042   22.3689 N   0  0  0  0  0  0
  -26.4286  -37.3783   23.9404 N   0  0  0  0  0  0
  -24.6689  -31.0785   22.1021 N   0  0  0  0  0  0
  -23.4162  -28.8195   23.2951 O   0  0  0  0  0  0
  -28.3293  -26.5918   20.1674 O   0  0  0  0  0  0
  -26.5595  -34.8921   22.4673 O   0  0  0  0  0  0
  -23.5337  -32.1452   23.7513 O   0  0  0  0  0  0
  -30.1419  -18.3718   18.5893 C   0  0  0  0  0  0
  -29.7785  -19.4535   19.4119 C   0  0  0  0  0  0
  -30.2441  -17.0765   19.1246 C   0  0  0  0  0  0
  -29.6190  -17.9358   21.3153 C   0  0  0  0  0  0
  -29.5323  -19.2487   20.7868 C   0  0  0  0  0  0
  -29.9841  -16.8369   20.4963 C   0  0  0  0  0  0
  -28.6714  -22.8027   21.1228 C   0  0  0  0  0  0
  -30.9970  -21.9543   21.0713 C   0  0  0  0  0  0
  -29.1412  -20.4182   21.7024 C   0  0  0  0  0  0
  -29.1708  -24.2263   20.7406 C   0  0  0  0  0  0
  -28.0092  -25.1966   20.4042 C   0  0  0  0  0  0
  -29.9991  -15.5102   21.0353 N   0  0  0  0  0  0
  -29.5537  -21.7769   21.2659 N   0  0  0  0  0  0
  -27.4603  -22.6312   21.3047 O   0  0  0  0  0  0
  -31.4674  -12.3799   19.1423 H   0  0  0  0  0  0
  -30.3101  -11.2852   19.8456 H   0  0  0  0  0  0
  -29.7452  -11.7566   17.4487 H   0  0  0  0  0  0
  -29.6884  -13.4696   17.7681 H   0  0  0  0  0  0
  -27.7971  -11.3281   18.7853 H   0  0  0  0  0  0
  -27.3888  -12.6855   17.7800 H   0  0  0  0  0  0
  -27.7144  -14.2627   19.5859 H   0  0  0  0  0  0
  -28.6703  -11.9752   21.3657 H   0  0  0  0  0  0
  -28.4693  -13.6249   21.8698 H   0  0  0  0  0  0
  -25.2766   -9.5726   22.4730 H   0  0  0  0  0  0
  -24.0022   -7.4667   22.7453 H   0  0  0  0  0  0
  -21.0849   -8.8754   19.8972 H   0  0  0  0  0  0
  -22.3652  -10.9669   19.6141 H   0  0  0  0  0  0
  -21.1998   -7.6148   23.9689 H   0  0  0  0  0  0
  -21.1495   -6.0517   25.9055 H   0  0  0  0  0  0
  -22.0605   -2.7606   23.2823 H   0  0  0  0  0  0
  -22.4134  -11.9933   22.4823 H   0  0  0  0  0  0
  -21.1099  -13.1252   22.2556 H   0  0  0  0  0  0
  -24.6823  -15.8551   20.5162 H   0  0  0  0  0  0
  -26.2980  -15.6192   20.0912 H   0  0  0  0  0  0
  -26.7104  -32.5524   23.1147 H   0  0  0  0  0  0
  -25.0057  -33.9788   25.0464 H   0  0  0  0  0  0
  -22.6908  -31.3204   21.4187 H   0  0  0  0  0  0
  -23.3738  -35.9659   23.3307 H   0  0  0  0  0  0
  -24.3589  -36.8915   22.2047 H   0  0  0  0  0  0
  -23.7251  -37.6528   23.6651 H   0  0  0  0  0  0
  -26.0598  -31.6030   20.6118 H   0  0  0  0  0  0
  -26.8178  -30.8706   21.9964 H   0  0  0  0  0  0
  -28.0929  -29.0585   21.1855 H   0  0  0  0  0  0
  -25.9654  -26.0030   18.9688 H   0  0  0  0  0  0
  -23.9500  -27.3345   19.0209 H   0  0  0  0  0  0
  -23.7150  -30.6235   19.4080 H   0  0  0  0  0  0
  -22.7294  -29.2705   19.8670 H   0  0  0  0  0  0
  -25.1284  -36.1953   25.0824 H   0  0  0  0  0  0
  -21.0019  -28.3204   24.1387 H   0  0  0  0  0  0
  -20.5590  -26.2262   23.3587 H   0  0  0  0  0  0
  -21.6625  -26.7360   22.1225 H   0  0  0  0  0  0
  -19.6885  -25.6254   21.1217 H   0  0  0  0  0  0
  -19.6666  -27.3144   20.6695 H   0  0  0  0  0  0
  -17.4181  -26.6644   21.4028 H   0  0  0  0  0  0
  -18.0346  -26.0009   22.8991 H   0  0  0  0  0  0
  -19.7949  -30.7201   24.2290 H   0  0  0  0  0  0
  -17.5040  -31.6266   24.5116 H   0  0  0  0  0  0
  -15.5352  -30.2974   23.7623 H   0  0  0  0  0  0
  -15.8680  -28.0766   22.7106 H   0  0  0  0  0  0
  -24.5863  -30.7162   25.7844 H   0  0  0  0  0  0
  -24.9035  -32.2944   26.4980 H   0  0  0  0  0  0
  -25.8112  -30.8875   27.0229 H   0  0  0  0  0  0
  -26.2854  -29.6811   24.1160 H   0  0  0  0  0  0
  -27.4019  -29.7254   25.4600 H   0  0  0  0  0  0
  -27.8716  -30.4321   23.9320 H   0  0  0  0  0  0
  -27.2578  -33.3604   26.2148 H   0  0  0  0  0  0
  -28.3817  -32.6995   25.0360 H   0  0  0  0  0  0
  -28.0719  -31.8462   26.5405 H   0  0  0  0  0  0
  -28.2590  -38.0111   24.7500 H   0  0  0  0  0  0
  -28.1080  -36.2636   24.6293 H   0  0  0  0  0  0
  -27.2313  -37.1468   25.8872 H   0  0  0  0  0  0
  -20.9208  -29.8848   21.7023 H   0  0  0  0  0  0
  -26.0176  -38.2860   24.1405 H   0  0  0  0  0  0
  -30.3315  -18.5367   17.5387 H   0  0  0  0  0  0
  -29.6917  -20.4362   18.9712 H   0  0  0  0  0  0
  -30.5080  -16.2691   18.4567 H   0  0  0  0  0  0
  -29.4106  -17.7724   22.3637 H   0  0  0  0  0  0
  -31.3588  -22.8620   21.5526 H   0  0  0  0  0  0
  -31.2341  -22.0049   20.0066 H   0  0  0  0  0  0
  -31.5658  -21.1267   21.4966 H   0  0  0  0  0  0
  -29.5716  -20.2456   22.6903 H   0  0  0  0  0  0
  -28.0622  -20.3474   21.8501 H   0  0  0  0  0  0
  -29.8316  -24.1513   19.8776 H   0  0  0  0  0  0
  -29.7560  -24.6241   21.5700 H   0  0  0  0  0  0
  -27.2861  -25.1572   21.2233 H   0  0  0  0  0  0
  -27.5191  -24.7753   19.5266 H   0  0  0  0  0  0
  -29.2126  -15.2637   21.6166 H   0  0  0  0  0  0
  1 25  1  0  0  0
  1 30  2  0  0  0
  1 82  1  0  0  0
  2  3  1  0  0  0
  2 25  1  0  0  0
  2 85  1  0  0  0
  2 86  1  0  0  0
  3  4  1  0  0  0
  3 87  1  0  0  0
  3 88  1  0  0  0
  4  5  1  0  0  0
  4 89  1  0  0  0
  4 90  1  0  0  0
  5  6  1  0  0  0
  5 26  1  0  0  0
  5 91  1  0  0  0
  6 25  1  0  0  0
  6 92  1  0  0  0
  6 93  1  0  0  0
  7  8  2  0  0  0
  7 26  1  0  0  0
  7 29  1  0  0  0
  8  9  1  0  0  0
  8 22  1  0  0  0
  9 10  1  0  0  0
  9 27  2  0  0  0
 10 11  2  0  0  0
 10 15  1  0  0  0
 11 12  1  0  0  0
 11 94  1  0  0  0
 12 13  2  0  0  0
 12 95  1  0  0  0
 13 14  1  0  0  0
 13 31  1  0  0  0
 14 15  2  0  0  0
 14 96  1  0  0  0
 15 97  1  0  0  0
 16 17  2  0  0  0
 16 21  1  0  0  0
 16 31  1  0  0  0
 17 18  1  0  0  0
 17 98  1  0  0  0
 18 19  2  0  0  0
 18 99  1  0  0  0
 19 20  1  0  0  0
 19 24  1  0  0  0
 20 21  2  0  0  0
 20100  1  0  0  0
 21 23  1  0  0  0
 22 28  1  0  0  0
 22 32  2  0  0  0
 26 27  1  0  0  0
 28101  1  0  0  0
 28102  1  0  0  0
 29103  1  0  0  0
 29104  1  0  0  0
 33 34  1  0  0  0
 33 66  1  0  0  0
 33 70  2  0  0  0
 34 36  1  0  0  0
 34 59  1  0  0  0
 34105  1  0  0  0
 35 44  2  0  0  0
 35 45  1  0  0  0
 35 68  1  0  0  0
 36 56  1  0  0  0
 36106  1  0  0  0
 37 39  1  0  0  0
 37 47  1  0  0  0
 37 66  1  0  0  0
 37107  1  0  0  0
 38 43  2  0  0  0
 38 46  1  0  0  0
 38 47  1  0  0  0
 39 64  1  0  0  0
 39 67  2  0  0  0
 40 52  1  0  0  0
 40 53  2  0  0  0
 40 58  1  0  0  0
 41108  1  0  0  0
 41109  1  0  0  0
 41110  1  0  0  0
 41 48  1  0  0  0
 42 43  1  0  0  0
 42 66  1  0  0  0
 42111  1  0  0  0
 42112  1  0  0  0
 43 44  1  0  0  0
 44113  1  0  0  0
 45 46  2  0  0  0
 45114  1  0  0  0
 46115  1  0  0  0
 47116  1  0  0  0
 47117  1  0  0  0
 48 56  1  0  0  0
 48 65  1  0  0  0
 48118  1  0  0  0
 49 50  1  0  0  0
 49 53  1  0  0  0
 49 64  1  0  0  0
 49119  1  0  0  0
 50 51  1  0  0  0
 50120  1  0  0  0
 50121  1  0  0  0
 51 52  1  0  0  0
 51122  1  0  0  0
 51123  1  0  0  0
 52124  1  0  0  0
 52125  1  0  0  0
 53 54  1  0  0  0
 54 55  2  0  0  0
 54126  1  0  0  0
 55 57  1  0  0  0
 55127  1  0  0  0
 56 69  2  0  0  0
 57 58  2  0  0  0
 57128  1  0  0  0
 58129  1  0  0  0
 59 60  1  0  0  0
 59 61  1  0  0  0
 59 62  1  0  0  0
 60130  1  0  0  0
 60131  1  0  0  0
 60132  1  0  0  0
 61133  1  0  0  0
 61134  1  0  0  0
 61135  1  0  0  0
 62136  1  0  0  0
 62137  1  0  0  0
 62138  1  0  0  0
 63 65  1  0  0  0
 63139  1  0  0  0
 63140  1  0  0  0
 63141  1  0  0  0
 64142  1  0  0  0
 65143  1  0  0  0
 68 81  1  0  0  0
 71 72  2  0  0  0
 71 73  1  0  0  0
 71144  1  0  0  0
 72 75  1  0  0  0
 72145  1  0  0  0
 73 76  2  0  0  0
 73146  1  0  0  0
 74 75  2  0  0  0
 74 76  1  0  0  0
 74147  1  0  0  0
 75 79  1  0  0  0
 76 82  1  0  0  0
 77 80  1  0  0  0
 77 83  1  0  0  0
 77 84  2  0  0  0
 78 83  1  0  0  0
 78148  1  0  0  0
 78149  1  0  0  0
 78150  1  0  0  0
 79 83  1  0  0  0
 79151  1  0  0  0
 79152  1  0  0  0
 80 81  1  0  0  0
 80153  1  0  0  0
 80154  1  0  0  0
 81155  1  0  0  0
 81156  1  0  0  0
 82157  1  0  0  0
M  ISO  4   1 100  68 101  81 101  82 100
M  END
> <chiral flag>
0

> <version>
0

> <s_m_source_file>
/data/baiqing/PycharmProjects/Reinvent-master-3.2/result/LINK_invent/BTK/process_docking_weight1_custom_product_contain_oxygen_bond_distance_aromatic_linkinvent_7_9_3/rearranged_h_0057.sdf

> <i_m_source_file_index>
78

> <r_mmod_Potential_Energy-OPLS-2005>
-38.1307678222656

> <r_mmod_Stretch_Energy-OPLS-2005>
43.8576850891113

> <r_mmod_Bend_Energy-OPLS-2005>
95.3992691040039

> <r_mmod_Torsional_Energy-OPLS-2005>
245.196868896484

> <r_mmod_Improper_Torsional_Energy-OPLS-2005>
4.75518465042114

> <r_mmod_Van_der_Waal_Energy-OPLS-2005>
173.766723632812

> <r_mmod_Electrostatic_Energy-OPLS-2005>
-392.342407226562

> <r_mmod_Solvation_Energy-OPLS-2005>
-227.919067382812

> <b_mmod_Minimization_Converged-OPLS-2005>
0

> <r_mmod_RMS_Derivative-OPLS-2005>
3.65159678459167

$$$$
79
                    3D
 Structure written by MMmdl.
174183  0  0  1  0            999 V2000
  -30.6718  -14.4655   20.6183 C   0  0  0  0  0  0
  -30.4328  -12.3161   19.4045 C   0  0  0  0  0  0
  -29.4955  -12.5170   18.1952 C   0  0  0  0  0  0
  -28.0156  -12.3684   18.6086 C   0  0  0  0  0  0
  -27.6614  -13.1959   19.8733 C   0  0  2  0  0  0
  -28.7022  -12.9422   20.9864 C   0  0  0  0  0  0
  -25.2595  -13.8129   20.5659 C   0  0  0  0  0  0
  -24.1842  -13.0421   20.9161 C   0  0  0  0  0  0
  -24.6377  -11.6888   20.8717 C   0  0  0  0  0  0
  -23.9047  -10.4284   21.0400 C   0  0  0  0  0  0
  -24.3607   -9.4202   21.9177 C   0  0  0  0  0  0
  -23.6285   -8.2239   22.0749 C   0  0  0  0  0  0
  -22.4269   -8.0278   21.3539 C   0  0  0  0  0  0
  -21.9904   -9.0247   20.4640 C   0  0  0  0  0  0
  -22.7224  -10.2123   20.3046 C   0  0  0  0  0  0
  -21.6851   -6.0731   22.5278 C   0  0  0  0  0  0
  -21.4010   -6.5635   23.8211 C   0  0  0  0  0  0
  -21.3657   -5.6786   24.9172 C   0  0  0  0  0  0
  -21.6048   -4.3053   24.7221 C   0  0  0  0  0  0
  -21.8821   -3.8144   23.4345 C   0  0  0  0  0  0
  -21.9193   -4.6961   22.3401 C   0  0  0  0  0  0
  -22.7865  -13.5230   21.1839 C   0  0  0  0  0  0
  -22.1662   -4.2147   21.0979 F   0  0  0  0  0  0
  -21.5632   -3.4536   25.7734 F   0  0  0  0  0  0
  -30.0295  -13.2799   20.4387 N   0  0  0  0  0  0
  -26.3016  -12.9274   20.3334 N   0  0  0  0  0  0
  -25.9299  -11.6445   20.5735 N   0  0  0  0  0  0
  -22.0511  -12.8212   22.0393 N   0  0  0  0  0  0
  -25.4329  -15.1851   20.4083 N   0  0  0  0  0  0
  -31.7943  -14.7071   20.1614 O   0  0  0  0  0  0
  -21.6633   -6.8874   21.4240 O   0  0  0  0  0  0
  -22.3556  -14.5547   20.6711 O   0  0  0  0  0  0
  -24.6153  -31.8687   23.2063 C   0  0  0  0  0  0
  -25.9042  -32.4823   23.8365 C   0  0  1  0  0  0
  -27.2548  -27.4216   20.1034 C   0  0  0  0  0  0
  -25.5893  -33.8618   24.2313 N   0  0  0  0  0  0
  -23.4046  -30.4862   21.5496 C   0  0  2  0  0  0
  -24.8545  -28.9438   20.1233 C   0  0  0  0  0  0
  -22.7410  -29.4671   22.5027 C   0  0  0  0  0  0
  -18.0273  -28.1404   22.8508 C   0  0  0  0  0  0
  -24.1472  -36.7277   23.2643 C   0  0  0  0  0  0
  -25.9323  -30.8321   21.3587 C   0  0  0  0  0  0
  -26.0127  -29.4613   20.7126 C   0  0  0  0  0  0
  -27.2097  -28.7097   20.6954 C   0  0  0  0  0  0
  -26.0676  -26.9144   19.5229 C   0  0  0  0  0  0
  -24.8775  -27.6700   19.5283 C   0  0  0  0  0  0
  -23.6133  -29.8067   20.1692 C   0  0  0  0  0  0
  -25.4102  -36.3113   24.0351 C   0  0  1  0  0  0
  -20.5866  -28.3700   23.1337 C   0  0  2  0  0  0
  -20.6764  -26.9435   22.5434 C   0  0  0  0  0  0
  -19.5734  -26.6427   21.5227 C   0  0  0  0  0  0
  -18.1915  -26.7958   22.1638 C   0  0  0  0  0  0
  -19.1526  -28.8862   23.2927 C   0  0  0  0  0  0
  -18.9448  -30.1463   23.8948 C   0  0  0  0  0  0
  -17.6453  -30.6604   24.0578 C   0  0  0  0  0  0
  -25.9045  -34.9477   23.5144 C   0  0  0  0  0  0
  -16.5341  -29.9114   23.6336 C   0  0  0  0  0  0
  -16.7269  -28.6528   23.0372 C   0  0  0  0  0  0
  -26.4487  -31.6584   25.0668 C   0  0  0  0  0  0
  -25.3746  -31.3652   26.1396 C   0  0  0  0  0  0
  -27.0303  -30.3024   24.6022 C   0  0  0  0  0  0
  -27.6093  -32.4277   25.7424 C   0  0  0  0  0  0
  -27.5583  -37.1791   24.8480 C   0  0  0  0  0  0
  -21.4142  -29.3049   22.3730 N   0  0  0  0  0  0
  -26.4294  -37.3786   23.9441 N   0  0  0  0  0  0
  -24.6682  -31.0772   22.0970 N   0  0  0  0  0  0
  -23.4177  -28.8271   23.3106 O   0  0  0  0  0  0
  -28.4655  -26.7456   20.1240 O   0  0  0  0  0  0
  -26.5619  -34.8945   22.4707 O   0  0  0  0  0  0
  -23.5350  -32.1440   23.7465 O   0  0  0  0  0  0
  -30.4416  -17.4544   24.2169 C   0  0  0  0  0  0
  -30.1912  -16.3639   23.3693 C   0  0  0  0  0  0
  -30.5903  -17.7895   21.4309 C   0  0  0  0  0  0
  -30.7782  -18.7180   23.6890 C   0  0  0  0  0  0
  -30.8705  -18.8973   22.2793 C   0  0  0  0  0  0
  -30.2772  -16.5173   21.9737 C   0  0  0  0  0  0
  -32.5285  -20.7479   21.9586 C   0  0  0  0  0  0
  -34.7480  -17.9440   22.8470 C   0  0  0  0  0  0
  -33.8473  -18.6587   22.1499 C   0  0  0  0  0  0
  -33.7130  -20.1111   22.2118 C   0  0  0  0  0  0
  -28.7586  -24.3701   20.7874 C   0  0  0  0  0  0
  -32.4300  -22.2788   21.9652 C   0  0  0  0  0  0
  -31.0556  -22.8069   22.4136 C   0  0  0  0  0  0
  -30.2367  -20.8533   20.9673 C   0  0  0  0  0  0
  -29.8841  -22.2495   21.5761 C   0  0  2  0  0  0
  -31.0141  -19.8555   24.6722 C   0  0  0  0  0  0
  -34.9865  -20.9197   22.4391 C   0  0  0  0  0  0
  -28.6303  -25.3958   19.6334 C   0  0  0  0  0  0
  -31.2835  -20.1339   21.7223 N   0  0  0  0  0  0
  -29.8901  -15.4117   21.1729 N   0  0  0  0  0  0
  -29.4773  -23.2477   20.5627 N   0  0  0  0  0  0
  -28.2443  -24.6057   21.8850 O   0  0  0  0  0  0
  -31.4757  -12.4380   19.1082 H   0  0  0  0  0  0
  -30.3461  -11.2989   19.7890 H   0  0  0  0  0  0
  -29.7374  -11.8031   17.4065 H   0  0  0  0  0  0
  -29.6568  -13.5084   17.7677 H   0  0  0  0  0  0
  -27.8295  -11.3102   18.7979 H   0  0  0  0  0  0
  -27.3624  -12.6461   17.7804 H   0  0  0  0  0  0
  -27.7124  -14.2473   19.5895 H   0  0  0  0  0  0
  -28.6868  -11.8930   21.2850 H   0  0  0  0  0  0
  -28.4567  -13.4950   21.8939 H   0  0  0  0  0  0
  -25.2759   -9.5680   22.4738 H   0  0  0  0  0  0
  -24.0000   -7.4631   22.7467 H   0  0  0  0  0  0
  -21.0835   -8.8760   19.8940 H   0  0  0  0  0  0
  -22.3693  -10.9658   19.6146 H   0  0  0  0  0  0
  -21.2003   -7.6142   23.9716 H   0  0  0  0  0  0
  -21.1475   -6.0515   25.9076 H   0  0  0  0  0  0
  -22.0606   -2.7606   23.2844 H   0  0  0  0  0  0
  -22.4128  -11.9859   22.4753 H   0  0  0  0  0  0
  -21.1123  -13.1220   22.2606 H   0  0  0  0  0  0
  -24.6681  -15.8408   20.5277 H   0  0  0  0  0  0
  -26.2834  -15.6264   20.0818 H   0  0  0  0  0  0
  -26.7112  -32.5553   23.1135 H   0  0  0  0  0  0
  -24.9981  -33.9759   25.0423 H   0  0  0  0  0  0
  -22.6928  -31.3036   21.4048 H   0  0  0  0  0  0
  -23.3771  -35.9573   23.3315 H   0  0  0  0  0  0
  -24.3539  -36.8853   22.2046 H   0  0  0  0  0  0
  -23.7181  -37.6470   23.6637 H   0  0  0  0  0  0
  -26.0336  -31.5950   20.5855 H   0  0  0  0  0  0
  -26.8238  -30.8957   21.9700 H   0  0  0  0  0  0
  -28.1078  -29.1150   21.1419 H   0  0  0  0  0  0
  -26.0228  -25.9397   19.0647 H   0  0  0  0  0  0
  -23.9833  -27.2597   19.0818 H   0  0  0  0  0  0
  -23.7174  -30.5750   19.4020 H   0  0  0  0  0  0
  -22.7388  -29.2216   19.8797 H   0  0  0  0  0  0
  -25.1273  -36.1973   25.0842 H   0  0  0  0  0  0
  -20.9953  -28.3283   24.1462 H   0  0  0  0  0  0
  -20.5669  -26.2309   23.3622 H   0  0  0  0  0  0
  -21.6639  -26.7485   22.1214 H   0  0  0  0  0  0
  -19.6886  -25.6353   21.1218 H   0  0  0  0  0  0
  -19.6666  -27.3288   20.6788 H   0  0  0  0  0  0
  -17.4174  -26.6743   21.4043 H   0  0  0  0  0  0
  -18.0313  -26.0089   22.9018 H   0  0  0  0  0  0
  -19.7923  -30.7269   24.2363 H   0  0  0  0  0  0
  -17.5002  -31.6289   24.5191 H   0  0  0  0  0  0
  -15.5339  -30.3031   23.7646 H   0  0  0  0  0  0
  -15.8664  -28.0850   22.7097 H   0  0  0  0  0  0
  -24.5973  -30.6952   25.7707 H   0  0  0  0  0  0
  -24.8870  -32.2767   26.4853 H   0  0  0  0  0  0
  -25.8082  -30.8809   27.0149 H   0  0  0  0  0  0
  -26.2809  -29.6767   24.1141 H   0  0  0  0  0  0
  -27.4153  -29.7276   25.4461 H   0  0  0  0  0  0
  -27.8620  -30.4343   23.9092 H   0  0  0  0  0  0
  -27.2771  -33.3597   26.2016 H   0  0  0  0  0  0
  -28.3887  -32.6788   25.0215 H   0  0  0  0  0  0
  -28.0772  -31.8355   26.5296 H   0  0  0  0  0  0
  -28.2635  -38.0067   24.7537 H   0  0  0  0  0  0
  -28.1045  -36.2598   24.6303 H   0  0  0  0  0  0
  -27.2285  -37.1424   25.8879 H   0  0  0  0  0  0
  -20.9344  -29.8634   21.6808 H   0  0  0  0  0  0
  -26.0188  -38.2863   24.1457 H   0  0  0  0  0  0
  -30.3644  -17.3125   25.2867 H   0  0  0  0  0  0
  -29.9182  -15.4100   23.7996 H   0  0  0  0  0  0
  -30.6476  -17.9118   20.3595 H   0  0  0  0  0  0
  -34.8048  -16.8684   22.7399 H   0  0  0  0  0  0
  -35.4376  -18.4067   23.5392 H   0  0  0  0  0  0
  -33.2078  -18.1075   21.4782 H   0  0  0  0  0  0
  -32.6818  -22.6572   20.9735 H   0  0  0  0  0  0
  -33.1578  -22.7010   22.6574 H   0  0  0  0  0  0
  -31.0610  -23.8972   22.4213 H   0  0  0  0  0  0
  -30.9049  -22.5221   23.4534 H   0  0  0  0  0  0
  -30.6183  -20.9809   19.9545 H   0  0  0  0  0  0
  -29.3298  -20.2541   20.8718 H   0  0  0  0  0  0
  -29.0411  -22.1018   22.2557 H   0  0  0  0  0  0
  -30.9759  -19.5042   25.7032 H   0  0  0  0  0  0
  -30.2438  -20.6172   24.5608 H   0  0  0  0  0  0
  -31.9906  -20.3167   24.5315 H   0  0  0  0  0  0
  -35.0606  -21.7451   21.7325 H   0  0  0  0  0  0
  -35.8830  -20.3184   22.2907 H   0  0  0  0  0  0
  -35.0127  -21.3186   23.4539 H   0  0  0  0  0  0
  -27.8869  -25.0708   18.9113 H   0  0  0  0  0  0
  -29.5774  -25.3910   19.0933 H   0  0  0  0  0  0
  -28.9727  -15.0511   21.3830 H   0  0  0  0  0  0
  -29.8467  -23.1272   19.6277 H   0  0  0  0  0  0
  1 25  1  0  0  0
  1 30  2  0  0  0
  1 90  1  0  0  0
  2  3  1  0  0  0
  2 25  1  0  0  0
  2 93  1  0  0  0
  2 94  1  0  0  0
  3  4  1  0  0  0
  3 95  1  0  0  0
  3 96  1  0  0  0
  4  5  1  0  0  0
  4 97  1  0  0  0
  4 98  1  0  0  0
  5  6  1  0  0  0
  5 26  1  0  0  0
  5 99  1  0  0  0
  6 25  1  0  0  0
  6100  1  0  0  0
  6101  1  0  0  0
  7  8  2  0  0  0
  7 26  1  0  0  0
  7 29  1  0  0  0
  8  9  1  0  0  0
  8 22  1  0  0  0
  9 10  1  0  0  0
  9 27  2  0  0  0
 10 11  2  0  0  0
 10 15  1  0  0  0
 11 12  1  0  0  0
 11102  1  0  0  0
 12 13  2  0  0  0
 12103  1  0  0  0
 13 14  1  0  0  0
 13 31  1  0  0  0
 14 15  2  0  0  0
 14104  1  0  0  0
 15105  1  0  0  0
 16 17  2  0  0  0
 16 21  1  0  0  0
 16 31  1  0  0  0
 17 18  1  0  0  0
 17106  1  0  0  0
 18 19  2  0  0  0
 18107  1  0  0  0
 19 20  1  0  0  0
 19 24  1  0  0  0
 20 21  2  0  0  0
 20108  1  0  0  0
 21 23  1  0  0  0
 22 28  1  0  0  0
 22 32  2  0  0  0
 26 27  1  0  0  0
 28109  1  0  0  0
 28110  1  0  0  0
 29111  1  0  0  0
 29112  1  0  0  0
 33 34  1  0  0  0
 33 66  1  0  0  0
 33 70  2  0  0  0
 34 36  1  0  0  0
 34 59  1  0  0  0
 34113  1  0  0  0
 35 44  2  0  0  0
 35 45  1  0  0  0
 35 68  1  0  0  0
 36 56  1  0  0  0
 36114  1  0  0  0
 37 39  1  0  0  0
 37 47  1  0  0  0
 37 66  1  0  0  0
 37115  1  0  0  0
 38 43  2  0  0  0
 38 46  1  0  0  0
 38 47  1  0  0  0
 39 64  1  0  0  0
 39 67  2  0  0  0
 40 52  1  0  0  0
 40 53  2  0  0  0
 40 58  1  0  0  0
 41116  1  0  0  0
 41117  1  0  0  0
 41118  1  0  0  0
 41 48  1  0  0  0
 42 43  1  0  0  0
 42 66  1  0  0  0
 42119  1  0  0  0
 42120  1  0  0  0
 43 44  1  0  0  0
 44121  1  0  0  0
 45 46  2  0  0  0
 45122  1  0  0  0
 46123  1  0  0  0
 47124  1  0  0  0
 47125  1  0  0  0
 48 56  1  0  0  0
 48 65  1  0  0  0
 48126  1  0  0  0
 49 50  1  0  0  0
 49 53  1  0  0  0
 49 64  1  0  0  0
 49127  1  0  0  0
 50 51  1  0  0  0
 50128  1  0  0  0
 50129  1  0  0  0
 51 52  1  0  0  0
 51130  1  0  0  0
 51131  1  0  0  0
 52132  1  0  0  0
 52133  1  0  0  0
 53 54  1  0  0  0
 54 55  2  0  0  0
 54134  1  0  0  0
 55 57  1  0  0  0
 55135  1  0  0  0
 56 69  2  0  0  0
 57 58  2  0  0  0
 57136  1  0  0  0
 58137  1  0  0  0
 59 60  1  0  0  0
 59 61  1  0  0  0
 59 62  1  0  0  0
 60138  1  0  0  0
 60139  1  0  0  0
 60140  1  0  0  0
 61141  1  0  0  0
 61142  1  0  0  0
 61143  1  0  0  0
 62144  1  0  0  0
 62145  1  0  0  0
 62146  1  0  0  0
 63 65  1  0  0  0
 63147  1  0  0  0
 63148  1  0  0  0
 63149  1  0  0  0
 64150  1  0  0  0
 65151  1  0  0  0
 68 88  1  0  0  0
 71 72  2  0  0  0
 71 74  1  0  0  0
 71152  1  0  0  0
 72 76  1  0  0  0
 72153  1  0  0  0
 73 75  1  0  0  0
 73 76  2  0  0  0
 73154  1  0  0  0
 74 75  2  0  0  0
 74 86  1  0  0  0
 75 89  1  0  0  0
 76 90  1  0  0  0
 77 80  2  0  0  0
 77 82  1  0  0  0
 77 89  1  0  0  0
 78 79  2  0  0  0
 78155  1  0  0  0
 78156  1  0  0  0
 79 80  1  0  0  0
 79157  1  0  0  0
 80 87  1  0  0  0
 81 88  1  0  0  0
 81 91  1  0  0  0
 81 92  2  0  0  0
 82 83  1  0  0  0
 82158  1  0  0  0
 82159  1  0  0  0
 83 85  1  0  0  0
 83160  1  0  0  0
 83161  1  0  0  0
 84 85  1  0  0  0
 84 89  1  0  0  0
 84162  1  0  0  0
 84163  1  0  0  0
 85 91  1  0  0  0
 85164  1  0  0  0
 86165  1  0  0  0
 86166  1  0  0  0
 86167  1  0  0  0
 87168  1  0  0  0
 87169  1  0  0  0
 87170  1  0  0  0
 88171  1  0  0  0
 88172  1  0  0  0
 90173  1  0  0  0
 91174  1  0  0  0
M  ISO  4   1 100  68 101  88 101  90 100
M  END
> <chiral flag>
0

> <version>
0

> <s_m_source_file>
/data/baiqing/PycharmProjects/Reinvent-master-3.2/result/LINK_invent/BTK/process_docking_weight1_custom_product_contain_oxygen_bond_distance_aromatic_linkinvent_7_9_3/rearranged_h_0057.sdf

> <i_m_source_file_index>
79

> <r_mmod_Potential_Energy-OPLS-2005>
-26.994026184082

> <r_mmod_Stretch_Energy-OPLS-2005>
48.7095718383789

> <r_mmod_Bend_Energy-OPLS-2005>
128.086853027344

> <r_mmod_Torsional_Energy-OPLS-2005>
282.811706542969

> <r_mmod_Improper_Torsional_Energy-OPLS-2005>
7.22465753555298

> <r_mmod_Van_der_Waal_Energy-OPLS-2005>
172.609985351562

> <r_mmod_Electrostatic_Energy-OPLS-2005>
-439.541961669922

> <r_mmod_Solvation_Energy-OPLS-2005>
-240.718933105469

> <b_mmod_Minimization_Converged-OPLS-2005>
0

> <r_mmod_RMS_Derivative-OPLS-2005>
2.85824871063232

$$$$
80
                    3D
 Structure written by MMmdl.
169178  0  0  1  0            999 V2000
  -30.5293  -14.9130   20.4280 C   0  0  0  0  0  0
  -30.4470  -12.5606   19.4991 C   0  0  0  0  0  0
  -29.5281  -12.5391   18.2549 C   0  0  0  0  0  0
  -28.0584  -12.3211   18.6665 C   0  0  0  0  0  0
  -27.6359  -13.2420   19.8424 C   0  0  2  0  0  0
  -28.6770  -13.2346   20.9835 C   0  0  0  0  0  0
  -25.2486  -13.8196   20.5681 C   0  0  0  0  0  0
  -24.1792  -13.0430   20.9200 C   0  0  0  0  0  0
  -24.6405  -11.6919   20.8734 C   0  0  0  0  0  0
  -23.9085  -10.4291   21.0390 C   0  0  0  0  0  0
  -24.3644   -9.4204   21.9166 C   0  0  0  0  0  0
  -23.6306   -8.2249   22.0744 C   0  0  0  0  0  0
  -22.4281   -8.0288   21.3540 C   0  0  0  0  0  0
  -21.9927   -9.0259   20.4641 C   0  0  0  0  0  0
  -22.7264  -10.2134   20.3035 C   0  0  0  0  0  0
  -21.6857   -6.0735   22.5279 C   0  0  0  0  0  0
  -21.4024   -6.5632   23.8217 C   0  0  0  0  0  0
  -21.3663   -5.6783   24.9176 C   0  0  0  0  0  0
  -21.6046   -4.3048   24.7220 C   0  0  0  0  0  0
  -21.8819   -3.8142   23.4339 C   0  0  0  0  0  0
  -21.9193   -4.6960   22.3400 C   0  0  0  0  0  0
  -22.7808  -13.5208   21.1862 C   0  0  0  0  0  0
  -22.1651   -4.2151   21.0972 F   0  0  0  0  0  0
  -21.5638   -3.4531   25.7726 F   0  0  0  0  0  0
  -29.9641  -13.6415   20.4014 N   0  0  0  0  0  0
  -26.2918  -12.9427   20.3228 N   0  0  0  0  0  0
  -25.9336  -11.6564   20.5716 N   0  0  0  0  0  0
  -22.0449  -12.8210   22.0427 N   0  0  0  0  0  0
  -25.4125  -15.1926   20.4087 N   0  0  0  0  0  0
  -31.7188  -15.0245   20.1111 O   0  0  0  0  0  0
  -21.6644   -6.8881   21.4243 O   0  0  0  0  0  0
  -22.3487  -14.5512   20.6691 O   0  0  0  0  0  0
  -24.6423  -31.8472   23.1923 C   0  0  0  0  0  0
  -25.9207  -32.4708   23.8301 C   0  0  1  0  0  0
  -27.2142  -27.1539   20.1348 C   0  0  0  0  0  0
  -25.5981  -33.8518   24.2217 N   0  0  0  0  0  0
  -23.4442  -30.4699   21.5372 C   0  0  2  0  0  0
  -24.8908  -28.9036   20.1075 C   0  0  0  0  0  0
  -22.7563  -29.4570   22.4864 C   0  0  0  0  0  0
  -18.0306  -28.1393   22.8474 C   0  0  0  0  0  0
  -24.1496  -36.7267   23.2634 C   0  0  0  0  0  0
  -25.9992  -30.7245   21.3907 C   0  0  0  0  0  0
  -26.0675  -29.3385   20.7300 C   0  0  0  0  0  0
  -27.2256  -28.4763   20.7337 C   0  0  0  0  0  0
  -26.0161  -26.8308   19.4546 C   0  0  0  0  0  0
  -24.8780  -27.6633   19.4567 C   0  0  0  0  0  0
  -23.6691  -29.8060   20.1535 C   0  0  0  0  0  0
  -25.4130  -36.3046   24.0310 C   0  0  1  0  0  0
  -20.5920  -28.3733   23.1235 C   0  0  2  0  0  0
  -20.6800  -26.9441   22.5409 C   0  0  0  0  0  0
  -19.5771  -26.6382   21.5220 C   0  0  0  0  0  0
  -18.1946  -26.7937   22.1617 C   0  0  0  0  0  0
  -19.1560  -28.8880   23.2848 C   0  0  0  0  0  0
  -18.9473  -30.1478   23.8873 C   0  0  0  0  0  0
  -17.6467  -30.6589   24.0572 C   0  0  0  0  0  0
  -25.9084  -34.9416   23.5063 C   0  0  0  0  0  0
  -16.5359  -29.9084   23.6338 C   0  0  0  0  0  0
  -16.7288  -28.6505   23.0351 C   0  0  0  0  0  0
  -26.4536  -31.6566   25.0740 C   0  0  0  0  0  0
  -25.3705  -31.3760   26.1425 C   0  0  0  0  0  0
  -27.0387  -30.2948   24.6325 C   0  0  0  0  0  0
  -27.6063  -32.4328   25.7525 C   0  0  0  0  0  0
  -27.5586  -37.1797   24.8460 C   0  0  0  0  0  0
  -21.4258  -29.3063   22.3611 N   0  0  0  0  0  0
  -26.4295  -37.3764   23.9403 N   0  0  0  0  0  0
  -24.7146  -31.0350   22.0949 N   0  0  0  0  0  0
  -23.4213  -28.8106   23.3006 O   0  0  0  0  0  0
  -28.2713  -26.1781   20.2452 O   0  0  0  0  0  0
  -26.5660  -34.8906   22.4637 O   0  0  0  0  0  0
  -23.5550  -32.1342   23.7160 O   0  0  0  0  0  0
  -29.1777  -18.1710   19.2821 C   0  0  0  0  0  0
  -30.0337  -18.5257   21.4419 C   0  0  0  0  0  0
  -28.9901  -19.6015   19.1146 C   0  0  0  0  0  0
  -29.8636  -19.9701   21.2958 C   0  0  0  0  0  0
  -29.3528  -20.6029   20.0991 C   0  0  0  0  0  0
  -29.7340  -17.5406   20.4382 C   0  0  0  0  0  0
  -30.1547  -22.5634   18.8044 C   0  0  0  0  0  0
  -31.9185  -22.6748   22.9220 C   0  0  0  0  0  0
  -30.0954  -24.0353   18.3425 C   0  0  0  0  0  0
  -28.6731  -24.6191   18.3722 C   0  0  0  0  0  0
  -28.6993  -23.3190   20.5926 C   0  0  0  0  0  0
  -28.1472  -24.6931   19.8084 C   0  0  1  0  0  0
  -28.3427  -20.0405   17.8096 C   0  0  0  0  0  0
  -30.2604  -20.8408   22.4792 C   0  0  0  0  0  0
  -29.3237  -22.1226   19.7944 N   0  0  0  0  0  0
  -33.0358  -23.2825   22.5404 N   0  0  0  0  0  0
  -31.2589  -23.1488   23.9791 N   0  3  0  0  0  0
  -29.6940  -16.0304   20.6639 N   0  0  0  0  0  0
  -31.4800  -21.6168   22.2265 N   0  0  0  0  0  0
  -30.9910  -21.8388   18.2548 O   0  0  0  0  0  0
  -31.4841  -12.7189   19.1970 H   0  0  0  0  0  0
  -30.4291  -11.5975   20.0105 H   0  0  0  0  0  0
  -29.8483  -11.7613   17.5611 H   0  0  0  0  0  0
  -29.6219  -13.4846   17.7186 H   0  0  0  0  0  0
  -27.9520  -11.2758   18.9597 H   0  0  0  0  0  0
  -27.3991  -12.4658   17.8100 H   0  0  0  0  0  0
  -27.6091  -14.2507   19.4306 H   0  0  0  0  0  0
  -28.7525  -12.2466   21.4396 H   0  0  0  0  0  0
  -28.3799  -13.9217   21.7784 H   0  0  0  0  0  0
  -25.2787   -9.5694   22.4745 H   0  0  0  0  0  0
  -24.0015   -7.4644   22.7469 H   0  0  0  0  0  0
  -21.0856   -8.8780   19.8946 H   0  0  0  0  0  0
  -22.3712  -10.9673   19.6148 H   0  0  0  0  0  0
  -21.2011   -7.6138   23.9730 H   0  0  0  0  0  0
  -21.1488   -6.0500   25.9083 H   0  0  0  0  0  0
  -22.0592   -2.7602   23.2835 H   0  0  0  0  0  0
  -22.4062  -11.9905   22.4878 H   0  0  0  0  0  0
  -21.1055  -13.1234   22.2586 H   0  0  0  0  0  0
  -24.6391  -15.8397   20.5160 H   0  0  0  0  0  0
  -26.2506  -15.6406   20.0615 H   0  0  0  0  0  0
  -26.7282  -32.5313   23.1038 H   0  0  0  0  0  0
  -25.0139  -33.9652   25.0370 H   0  0  0  0  0  0
  -22.7458  -31.2952   21.3885 H   0  0  0  0  0  0
  -23.3773  -35.9583   23.3262 H   0  0  0  0  0  0
  -24.3588  -36.8939   22.2057 H   0  0  0  0  0  0
  -23.7229  -37.6445   23.6692 H   0  0  0  0  0  0
  -26.1574  -31.4814   20.6215 H   0  0  0  0  0  0
  -26.8692  -30.7700   22.0341 H   0  0  0  0  0  0
  -28.1175  -28.8006   21.2511 H   0  0  0  0  0  0
  -25.9053  -25.9025   18.9175 H   0  0  0  0  0  0
  -23.9814  -27.3330   18.9495 H   0  0  0  0  0  0
  -23.8089  -30.5846   19.4035 H   0  0  0  0  0  0
  -22.7822  -29.2533   19.8389 H   0  0  0  0  0  0
  -25.1318  -36.1876   25.0805 H   0  0  0  0  0  0
  -21.0014  -28.3325   24.1354 H   0  0  0  0  0  0
  -20.5706  -26.2353   23.3631 H   0  0  0  0  0  0
  -21.6663  -26.7458   22.1193 H   0  0  0  0  0  0
  -19.6942  -25.6282   21.1272 H   0  0  0  0  0  0
  -19.6708  -27.3170   20.6728 H   0  0  0  0  0  0
  -17.4236  -26.6695   21.4005 H   0  0  0  0  0  0
  -18.0332  -26.0072   22.8999 H   0  0  0  0  0  0
  -19.7948  -30.7308   24.2218 H   0  0  0  0  0  0
  -17.5018  -31.6257   24.5195 H   0  0  0  0  0  0
  -15.5360  -30.2976   23.7675 H   0  0  0  0  0  0
  -15.8689  -28.0817   22.7073 H   0  0  0  0  0  0
  -24.5897  -30.7104   25.7742 H   0  0  0  0  0  0
  -24.8886  -32.2942   26.4779 H   0  0  0  0  0  0
  -25.7972  -30.8977   27.0245 H   0  0  0  0  0  0
  -26.2993  -29.6672   24.1344 H   0  0  0  0  0  0
  -27.3995  -29.7262   25.4907 H   0  0  0  0  0  0
  -27.8910  -30.4173   23.9638 H   0  0  0  0  0  0
  -27.2653  -33.3642   26.2056 H   0  0  0  0  0  0
  -28.3898  -32.6868   25.0372 H   0  0  0  0  0  0
  -28.0705  -31.8486   26.5484 H   0  0  0  0  0  0
  -28.2587  -38.0113   24.7535 H   0  0  0  0  0  0
  -28.1102  -36.2646   24.6245 H   0  0  0  0  0  0
  -27.2313  -37.1394   25.8866 H   0  0  0  0  0  0
  -20.9468  -29.8776   21.6787 H   0  0  0  0  0  0
  -26.0159  -38.2831   24.1412 H   0  0  0  0  0  0
  -28.8488  -17.5210   18.4822 H   0  0  0  0  0  0
  -30.3941  -18.1549   22.3908 H   0  0  0  0  0  0
  -30.4856  -24.1021   17.3260 H   0  0  0  0  0  0
  -30.7635  -24.6290   18.9670 H   0  0  0  0  0  0
  -28.0183  -23.9828   17.7742 H   0  0  0  0  0  0
  -28.6478  -25.5997   17.8957 H   0  0  0  0  0  0
  -27.8910  -22.9203   21.2051 H   0  0  0  0  0  0
  -29.4600  -23.6384   21.3043 H   0  0  0  0  0  0
  -27.0829  -24.4827   19.7610 H   0  0  0  0  0  0
  -27.7145  -19.2515   17.3961 H   0  0  0  0  0  0
  -29.1053  -20.2779   17.0678 H   0  0  0  0  0  0
  -27.7060  -20.9150   17.9532 H   0  0  0  0  0  0
  -30.4141  -20.2314   23.3700 H   0  0  0  0  0  0
  -29.4360  -21.5151   22.7097 H   0  0  0  0  0  0
  -33.4167  -24.0781   23.0326 H   0  0  0  0  0  0
  -33.5580  -22.9670   21.7342 H   0  0  0  0  0  0
  -31.5853  -23.9570   24.4904 H   0  0  0  0  0  0
  -30.4232  -22.7075   24.3337 H   0  0  0  0  0  0
  -28.7745  -15.7130   20.9317 H   0  0  0  0  0  0
  -32.0458  -21.2599   21.4700 H   0  0  0  0  0  0
  1 25  1  0  0  0
  1 30  2  0  0  0
  1 88  1  0  0  0
  2  3  1  0  0  0
  2 25  1  0  0  0
  2 91  1  0  0  0
  2 92  1  0  0  0
  3  4  1  0  0  0
  3 93  1  0  0  0
  3 94  1  0  0  0
  4  5  1  0  0  0
  4 95  1  0  0  0
  4 96  1  0  0  0
  5  6  1  0  0  0
  5 26  1  0  0  0
  5 97  1  0  0  0
  6 25  1  0  0  0
  6 98  1  0  0  0
  6 99  1  0  0  0
  7  8  2  0  0  0
  7 26  1  0  0  0
  7 29  1  0  0  0
  8  9  1  0  0  0
  8 22  1  0  0  0
  9 10  1  0  0  0
  9 27  2  0  0  0
 10 11  2  0  0  0
 10 15  1  0  0  0
 11 12  1  0  0  0
 11100  1  0  0  0
 12 13  2  0  0  0
 12101  1  0  0  0
 13 14  1  0  0  0
 13 31  1  0  0  0
 14 15  2  0  0  0
 14102  1  0  0  0
 15103  1  0  0  0
 16 17  2  0  0  0
 16 21  1  0  0  0
 16 31  1  0  0  0
 17 18  1  0  0  0
 17104  1  0  0  0
 18 19  2  0  0  0
 18105  1  0  0  0
 19 20  1  0  0  0
 19 24  1  0  0  0
 20 21  2  0  0  0
 20106  1  0  0  0
 21 23  1  0  0  0
 22 28  1  0  0  0
 22 32  2  0  0  0
 26 27  1  0  0  0
 28107  1  0  0  0
 28108  1  0  0  0
 29109  1  0  0  0
 29110  1  0  0  0
 33 34  1  0  0  0
 33 66  1  0  0  0
 33 70  2  0  0  0
 34 36  1  0  0  0
 34 59  1  0  0  0
 34111  1  0  0  0
 35 44  2  0  0  0
 35 45  1  0  0  0
 35 68  1  0  0  0
 36 56  1  0  0  0
 36112  1  0  0  0
 37 39  1  0  0  0
 37 47  1  0  0  0
 37 66  1  0  0  0
 37113  1  0  0  0
 38 43  2  0  0  0
 38 46  1  0  0  0
 38 47  1  0  0  0
 39 64  1  0  0  0
 39 67  2  0  0  0
 40 52  1  0  0  0
 40 53  2  0  0  0
 40 58  1  0  0  0
 41114  1  0  0  0
 41115  1  0  0  0
 41116  1  0  0  0
 41 48  1  0  0  0
 42 43  1  0  0  0
 42 66  1  0  0  0
 42117  1  0  0  0
 42118  1  0  0  0
 43 44  1  0  0  0
 44119  1  0  0  0
 45 46  2  0  0  0
 45120  1  0  0  0
 46121  1  0  0  0
 47122  1  0  0  0
 47123  1  0  0  0
 48 56  1  0  0  0
 48 65  1  0  0  0
 48124  1  0  0  0
 49 50  1  0  0  0
 49 53  1  0  0  0
 49 64  1  0  0  0
 49125  1  0  0  0
 50 51  1  0  0  0
 50126  1  0  0  0
 50127  1  0  0  0
 51 52  1  0  0  0
 51128  1  0  0  0
 51129  1  0  0  0
 52130  1  0  0  0
 52131  1  0  0  0
 53 54  1  0  0  0
 54 55  2  0  0  0
 54132  1  0  0  0
 55 57  1  0  0  0
 55133  1  0  0  0
 56 69  2  0  0  0
 57 58  2  0  0  0
 57134  1  0  0  0
 58135  1  0  0  0
 59 60  1  0  0  0
 59 61  1  0  0  0
 59 62  1  0  0  0
 60136  1  0  0  0
 60137  1  0  0  0
 60138  1  0  0  0
 61139  1  0  0  0
 61140  1  0  0  0
 61141  1  0  0  0
 62142  1  0  0  0
 62143  1  0  0  0
 62144  1  0  0  0
 63 65  1  0  0  0
 63145  1  0  0  0
 63146  1  0  0  0
 63147  1  0  0  0
 64148  1  0  0  0
 65149  1  0  0  0
 68 82  1  0  0  0
 71 73  2  0  0  0
 71 76  1  0  0  0
 71150  1  0  0  0
 72 74  1  0  0  0
 72 76  2  0  0  0
 72151  1  0  0  0
 73 75  1  0  0  0
 73 83  1  0  0  0
 74 75  2  0  0  0
 74 84  1  0  0  0
 75 85  1  0  0  0
 76 88  1  0  0  0
 77 79  1  0  0  0
 77 85  1  0  0  0
 77 90  2  0  0  0
 78 86  1  0  0  0
 78 87  2  0  0  0
 78 89  1  0  0  0
 79 80  1  0  0  0
 79152  1  0  0  0
 79153  1  0  0  0
 80 82  1  0  0  0
 80154  1  0  0  0
 80155  1  0  0  0
 81 82  1  0  0  0
 81 85  1  0  0  0
 81156  1  0  0  0
 81157  1  0  0  0
 82158  1  0  0  0
 83159  1  0  0  0
 83160  1  0  0  0
 83161  1  0  0  0
 84 89  1  0  0  0
 84162  1  0  0  0
 84163  1  0  0  0
 86164  1  0  0  0
 86165  1  0  0  0
 87166  1  0  0  0
 87167  1  0  0  0
 88168  1  0  0  0
 89169  1  0  0  0
M  CHG  1  87   1
M  ISO  4   1 100  68 101  82 101  88 100
M  END
> <chiral flag>
0

> <version>
0

> <s_m_source_file>
/data/baiqing/PycharmProjects/Reinvent-master-3.2/result/LINK_invent/BTK/process_docking_weight1_custom_product_contain_oxygen_bond_distance_aromatic_linkinvent_7_9_3/rearranged_h_0057.sdf

> <i_m_source_file_index>
80

> <r_mmod_Potential_Energy-OPLS-2005>
208.722900390625

> <r_mmod_Stretch_Energy-OPLS-2005>
229.7412109375

> <r_mmod_Bend_Energy-OPLS-2005>
250.761840820312

> <r_mmod_Torsional_Energy-OPLS-2005>
330.841003417969

> <r_mmod_Improper_Torsional_Energy-OPLS-2005>
6.92776393890381

> <r_mmod_Van_der_Waal_Energy-OPLS-2005>
141.332015991211

> <r_mmod_Electrostatic_Energy-OPLS-2005>
-442.274017333984

> <r_mmod_Solvation_Energy-OPLS-2005>
-482.641784667969

> <b_mmod_Minimization_Converged-OPLS-2005>
0

> <r_mmod_RMS_Derivative-OPLS-2005>
2.01026010513306

$$$$
81
                    3D
 Structure written by MMmdl.
154162  0  0  1  0            999 V2000
  -29.9282  -14.5462   20.9354 C   0  0  0  0  0  0
  -30.4914  -12.5681   19.4031 C   0  0  0  0  0  0
  -29.6007  -12.6555   18.1199 C   0  0  0  0  0  0
  -28.0688  -12.5157   18.3455 C   0  0  0  0  0  0
  -27.6375  -13.3063   19.6402 C   0  0  2  0  0  0
  -28.5921  -12.6388   20.7468 C   0  0  0  0  0  0
  -24.9950  -14.7168   21.1792 C   0  0  0  0  0  0
  -24.3693  -14.2215   21.2535 C   0  0  0  0  0  0
  -25.3045  -12.3770   20.4236 C   0  0  0  0  0  0
  -24.5153  -10.6794   20.4939 C   0  0  0  0  0  0
  -24.7488   -9.6528   21.5414 C   0  0  0  0  0  0
  -23.9182   -8.4970   21.9089 C   0  0  0  0  0  0
  -22.6749   -8.2073   21.2828 C   0  0  0  0  0  0
  -22.3553   -9.1566   20.2915 C   0  0  0  0  0  0
  -23.2194  -10.2605   19.9270 C   0  0  0  0  0  0
  -21.8130   -6.1888   22.5131 C   0  0  0  0  0  0
  -21.4954   -6.6327   23.8166 C   0  0  0  0  0  0
  -21.3957   -5.7209   24.8937 C   0  0  0  0  0  0
  -21.6041   -4.3441   24.6837 C   0  0  0  0  0  0
  -21.8792   -3.8789   23.3866 C   0  0  0  0  0  0
  -21.9658   -4.7876   22.3092 C   0  0  0  0  0  0
  -22.7677  -14.5949   21.6922 C   0  0  0  0  0  0
  -22.1864   -4.2956   21.0660 F   0  0  0  0  0  0
  -21.5446   -3.4738   25.7223 F   0  0  0  0  0  0
  -29.8218  -13.2633   20.5252 N   0  0  0  0  0  0
  -26.1394  -13.4240   20.1768 N   0  0  0  0  0  0
  -26.2529  -12.1552   20.0350 N   0  0  0  0  0  0
  -21.9560  -13.7614   22.3958 N   0  0  0  0  0  0
  -24.9134  -16.0463   21.7540 N   0  0  0  0  0  0
  -31.0168  -15.0945   20.6142 O   0  0  0  0  0  0
  -21.8408   -7.0737   21.4342 O   0  0  0  0  0  0
  -22.1553  -15.3335   20.9379 O   0  0  0  0  0  0
  -24.7525  -31.7104   23.1019 C   0  0  0  0  0  0
  -25.9794  -32.4027   23.7760 C   0  0  1  0  0  0
  -26.7077  -25.8128   20.1887 C   0  0  0  0  0  0
  -25.6107  -33.7921   24.1540 N   0  0  0  0  0  0
  -23.5698  -30.3255   21.4852 C   0  0  2  0  0  0
  -24.9105  -28.5157   20.0922 C   0  0  0  0  0  0
  -22.7901  -29.3913   22.4533 C   0  0  0  0  0  0
  -18.0326  -28.1437   22.8412 C   0  0  0  0  0  0
  -24.1472  -36.6967   23.2662 C   0  0  0  0  0  0
  -26.1586  -30.1140   21.4852 C   0  0  0  0  0  0
  -26.1007  -28.6052   20.8126 C   0  0  0  0  0  0
  -26.9849  -27.2983   20.8128 C   0  0  0  0  0  0
  -25.6045  -26.1766   19.3661 C   0  0  0  0  0  0
  -24.7620  -27.3447   19.3360 C   0  0  0  0  0  0
  -23.8201  -29.6224   20.1170 C   0  0  0  0  0  0
  -25.4154  -36.2657   24.0224 C   0  0  1  0  0  0
  -20.5979  -28.3800   23.1035 C   0  0  2  0  0  0
  -20.6772  -26.9408   22.5416 C   0  0  0  0  0  0
  -19.5775  -26.6327   21.5212 C   0  0  0  0  0  0
  -18.1942  -26.7953   22.1581 C   0  0  0  0  0  0
  -19.1608  -28.8950   23.2696 C   0  0  0  0  0  0
  -18.9520  -30.1517   23.8775 C   0  0  0  0  0  0
  -17.6511  -30.6618   24.0528 C   0  0  0  0  0  0
  -25.9212  -34.9068   23.4756 C   0  0  0  0  0  0
  -16.5387  -29.9098   23.6364 C   0  0  0  0  0  0
  -16.7306  -28.6519   23.0378 C   0  0  0  0  0  0
  -26.4736  -31.6481   25.0741 C   0  0  0  0  0  0
  -25.3632  -31.4068   26.1265 C   0  0  0  0  0  0
  -27.0828  -30.2763   24.7248 C   0  0  0  0  0  0
  -27.6002  -32.4583   25.7606 C   0  0  0  0  0  0
  -27.5553  -37.1621   24.8441 C   0  0  0  0  0  0
  -21.4513  -29.2947   22.3301 N   0  0  0  0  0  0
  -26.4196  -37.3526   23.9464 N   0  0  0  0  0  0
  -24.8712  -30.7741   22.0726 N   0  0  0  0  0  0
  -23.4089  -28.7515   23.3063 O   0  0  0  0  0  0
  -27.2262  -24.1294   20.1010 O   0  0  0  0  0  0
  -26.5921  -34.8791   22.4422 O   0  0  0  0  0  0
  -23.6444  -32.0630   23.5551 O   0  0  0  0  0  0
  -23.2967  -13.0260   19.8379 C   0  0  0  0  0  0
  -24.5556  -14.6705   18.9492 C   0  0  0  0  0  0
  -24.0585  -12.3410   22.2000 C   0  0  0  0  0  0
  -26.2940  -15.8701   19.7703 C   0  0  0  0  0  0
  -26.0469  -13.2921   22.6198 C   0  0  0  0  0  0
  -27.1742  -14.9147   21.5476 C   0  0  0  0  0  0
  -26.5017  -18.0724   19.5471 C   0  0  0  0  0  0
  -26.6621  -19.8656   19.5598 C   0  0  0  0  0  0
  -26.7465  -12.7528   23.8444 C   0  0  0  0  0  0
  -26.8727  -20.2981   18.1039 C   0  0  0  0  0  0
  -26.7398  -22.0170   20.2717 C   0  0  0  0  0  0
  -28.7503  -15.1288   21.6032 N   0  0  0  0  0  0
  -31.4701  -13.0113   19.2109 H   0  0  0  0  0  0
  -30.6820  -11.5283   19.6705 H   0  0  0  0  0  0
  -29.9341  -11.9182   17.3919 H   0  0  0  0  0  0
  -29.7849  -13.6209   17.6474 H   0  0  0  0  0  0
  -27.8571  -11.4470   18.3962 H   0  0  0  0  0  0
  -27.5219  -12.8884   17.4789 H   0  0  0  0  0  0
  -27.9593  -14.2832   19.2947 H   0  0  0  0  0  0
  -28.6666  -11.5587   20.6007 H   0  0  0  0  0  0
  -28.3101  -12.6974   21.7891 H   0  0  0  0  0  0
  -25.6481   -9.7910   22.1259 H   0  0  0  0  0  0
  -24.2827   -7.8188   22.6692 H   0  0  0  0  0  0
  -21.4555   -8.9982   19.7166 H   0  0  0  0  0  0
  -22.8558  -10.7927   19.0675 H   0  0  0  0  0  0
  -21.3306   -7.6856   23.9921 H   0  0  0  0  0  0
  -21.1704   -6.0835   25.8871 H   0  0  0  0  0  0
  -22.0207   -2.8227   23.2130 H   0  0  0  0  0  0
  -22.3627  -12.9788   22.8824 H   0  0  0  0  0  0
  -20.9663  -13.9356   22.4797 H   0  0  0  0  0  0
  -24.0740  -16.4701   22.1176 H   0  0  0  0  0  0
  -25.6555  -16.7169   21.5958 H   0  0  0  0  0  0
  -26.7986  -32.4284   23.0553 H   0  0  0  0  0  0
  -25.0177  -33.8868   24.9654 H   0  0  0  0  0  0
  -22.9399  -31.1955   21.2855 H   0  0  0  0  0  0
  -23.3834  -35.9192   23.3126 H   0  0  0  0  0  0
  -24.3525  -36.8888   22.2124 H   0  0  0  0  0  0
  -23.7117  -37.5996   23.6941 H   0  0  0  0  0  0
  -26.4930  -30.7825   20.6885 H   0  0  0  0  0  0
  -26.9772  -30.1187   22.1902 H   0  0  0  0  0  0
  -27.8699  -27.3698   21.4277 H   0  0  0  0  0  0
  -25.2533  -25.3763   18.7307 H   0  0  0  0  0  0
  -23.8917  -27.2798   18.6959 H   0  0  0  0  0  0
  -24.1129  -30.3762   19.3852 H   0  0  0  0  0  0
  -22.8804  -29.2125   19.7405 H   0  0  0  0  0  0
  -25.1391  -36.1307   25.0709 H   0  0  0  0  0  0
  -21.0035  -28.3480   24.1167 H   0  0  0  0  0  0
  -20.5575  -26.2430   23.3724 H   0  0  0  0  0  0
  -21.6629  -26.7275   22.1261 H   0  0  0  0  0  0
  -19.6929  -25.6197   21.1337 H   0  0  0  0  0  0
  -19.6768  -27.3054   20.6685 H   0  0  0  0  0  0
  -17.4221  -26.6673   21.3974 H   0  0  0  0  0  0
  -18.0308  -26.0129   22.9007 H   0  0  0  0  0  0
  -19.8002  -30.7349   24.2100 H   0  0  0  0  0  0
  -17.5075  -31.6298   24.5141 H   0  0  0  0  0  0
  -15.5388  -30.2979   23.7789 H   0  0  0  0  0  0
  -15.8685  -28.0825   22.7183 H   0  0  0  0  0  0
  -24.5792  -30.7425   25.7635 H   0  0  0  0  0  0
  -24.8878  -32.3398   26.4298 H   0  0  0  0  0  0
  -25.7667  -30.9516   27.0317 H   0  0  0  0  0  0
  -26.3612  -29.6013   24.2651 H   0  0  0  0  0  0
  -27.4333  -29.7700   25.6260 H   0  0  0  0  0  0
  -27.9559  -30.3762   24.0795 H   0  0  0  0  0  0
  -27.2367  -33.4000   26.1744 H   0  0  0  0  0  0
  -28.4039  -32.6996   25.0637 H   0  0  0  0  0  0
  -28.0447  -31.9077   26.5917 H   0  0  0  0  0  0
  -28.2390  -38.0083   24.7667 H   0  0  0  0  0  0
  -28.1219  -36.2619   24.6030 H   0  0  0  0  0  0
  -27.2314  -37.0957   25.8835 H   0  0  0  0  0  0
  -20.9900  -29.8643   21.6346 H   0  0  0  0  0  0
  -25.9958  -38.2510   24.1607 H   0  0  0  0  0  0
  -22.3625  -12.7274   19.3859 H   0  0  0  0  0  0
  -24.1081  -15.1156   18.0680 H   0  0  0  0  0  0
  -23.5854  -11.6092   22.8432 H   0  0  0  0  0  0
  -26.5637  -17.9310   18.4830 H   0  0  0  0  0  0
  -26.9383  -11.6846   23.7350 H   0  0  0  0  0  0
  -26.1361  -12.9206   24.7341 H   0  0  0  0  0  0
  -27.7046  -13.2587   23.9772 H   0  0  0  0  0  0
  -26.9409  -19.5157   17.3484 H   0  0  0  0  0  0
  -27.7939  -20.8800   18.0209 H   0  0  0  0  0  0
  -26.0404  -20.9330   17.7959 H   0  0  0  0  0  0
  -27.3496  -21.8181   21.1518 H   0  0  0  0  0  0
  -25.7323  -22.0997   20.6805 H   0  0  0  0  0  0
  -28.9759  -16.0677   21.8977 H   0  0  0  0  0  0
  1 25  1  0  0  0
  1 30  2  0  0  0
  1 82  1  0  0  0
  2  3  1  0  0  0
  2 25  1  0  0  0
  2 83  1  0  0  0
  2 84  1  0  0  0
  3  4  1  0  0  0
  3 85  1  0  0  0
  3 86  1  0  0  0
  4  5  1  0  0  0
  4 87  1  0  0  0
  4 88  1  0  0  0
  5  6  1  0  0  0
  5 26  1  0  0  0
  5 89  1  0  0  0
  6 25  1  0  0  0
  6 90  1  0  0  0
  6 91  1  0  0  0
  7  8  2  0  0  0
  7 26  1  0  0  0
  7 29  1  0  0  0
  8  9  1  0  0  0
  8 22  1  0  0  0
  9 10  1  0  0  0
  9 27  2  0  0  0
 10 11  2  0  0  0
 10 15  1  0  0  0
 11 12  1  0  0  0
 11 92  1  0  0  0
 12 13  2  0  0  0
 12 93  1  0  0  0
 13 14  1  0  0  0
 13 31  1  0  0  0
 14 15  2  0  0  0
 14 94  1  0  0  0
 15 95  1  0  0  0
 16 17  2  0  0  0
 16 21  1  0  0  0
 16 31  1  0  0  0
 17 18  1  0  0  0
 17 96  1  0  0  0
 18 19  2  0  0  0
 18 97  1  0  0  0
 19 20  1  0  0  0
 19 24  1  0  0  0
 20 21  2  0  0  0
 20 98  1  0  0  0
 21 23  1  0  0  0
 22 28  1  0  0  0
 22 32  2  0  0  0
 26 27  1  0  0  0
 28 99  1  0  0  0
 28100  1  0  0  0
 29101  1  0  0  0
 29102  1  0  0  0
 33 34  1  0  0  0
 33 66  1  0  0  0
 33 70  2  0  0  0
 34 36  1  0  0  0
 34 59  1  0  0  0
 34103  1  0  0  0
 35 44  2  0  0  0
 35 45  1  0  0  0
 35 68  1  0  0  0
 36 56  1  0  0  0
 36104  1  0  0  0
 37 39  1  0  0  0
 37 47  1  0  0  0
 37 66  1  0  0  0
 37105  1  0  0  0
 38 43  2  0  0  0
 38 46  1  0  0  0
 38 47  1  0  0  0
 39 64  1  0  0  0
 39 67  2  0  0  0
 40 52  1  0  0  0
 40 53  2  0  0  0
 40 58  1  0  0  0
 41106  1  0  0  0
 41107  1  0  0  0
 41108  1  0  0  0
 41 48  1  0  0  0
 42 43  1  0  0  0
 42 66  1  0  0  0
 42109  1  0  0  0
 42110  1  0  0  0
 43 44  1  0  0  0
 44111  1  0  0  0
 45 46  2  0  0  0
 45112  1  0  0  0
 46113  1  0  0  0
 47114  1  0  0  0
 47115  1  0  0  0
 48 56  1  0  0  0
 48 65  1  0  0  0
 48116  1  0  0  0
 49 50  1  0  0  0
 49 53  1  0  0  0
 49 64  1  0  0  0
 49117  1  0  0  0
 50 51  1  0  0  0
 50118  1  0  0  0
 50119  1  0  0  0
 51 52  1  0  0  0
 51120  1  0  0  0
 51121  1  0  0  0
 52122  1  0  0  0
 52123  1  0  0  0
 53 54  1  0  0  0
 54 55  2  0  0  0
 54124  1  0  0  0
 55 57  1  0  0  0
 55125  1  0  0  0
 56 69  2  0  0  0
 57 58  2  0  0  0
 57126  1  0  0  0
 58127  1  0  0  0
 59 60  1  0  0  0
 59 61  1  0  0  0
 59 62  1  0  0  0
 60128  1  0  0  0
 60129  1  0  0  0
 60130  1  0  0  0
 61131  1  0  0  0
 61132  1  0  0  0
 61133  1  0  0  0
 62134  1  0  0  0
 62135  1  0  0  0
 62136  1  0  0  0
 63 65  1  0  0  0
 63137  1  0  0  0
 63138  1  0  0  0
 63139  1  0  0  0
 64140  1  0  0  0
 65141  1  0  0  0
 68 81  1  0  0  0
 71 72  2  0  0  0
 71 73  1  0  0  0
 71142  1  0  0  0
 72 74  1  0  0  0
 72143  1  0  0  0
 73 75  2  0  0  0
 73144  1  0  0  0
 74 76  2  0  0  0
 74 77  1  0  0  0
 75 76  1  0  0  0
 75 79  1  0  0  0
 76 82  1  0  0  0
 77 78  2  0  0  0
 77145  1  0  0  0
 78 80  1  0  0  0
 78 81  1  0  0  0
 79146  1  0  0  0
 79147  1  0  0  0
 79148  1  0  0  0
 80149  1  0  0  0
 80150  1  0  0  0
 80151  1  0  0  0
 81152  1  0  0  0
 81153  1  0  0  0
 82154  1  0  0  0
M  ISO  4   1 100  68 101  81 101  82 100
M  END
> <chiral flag>
0

> <version>
0

> <s_m_source_file>
/data/baiqing/PycharmProjects/Reinvent-master-3.2/result/LINK_invent/BTK/process_docking_weight1_custom_product_contain_oxygen_bond_distance_aromatic_linkinvent_7_9_3/rearranged_h_0057.sdf

> <i_m_source_file_index>
81

> <r_mmod_Potential_Energy-OPLS-2005>
26047.53125

> <r_mmod_Stretch_Energy-OPLS-2005>
16381.697265625

> <r_mmod_Bend_Energy-OPLS-2005>
1874.70251464844

> <r_mmod_Torsional_Energy-OPLS-2005>
445.908538818359

> <r_mmod_Improper_Torsional_Energy-OPLS-2005>
52.120433807373

> <r_mmod_Van_der_Waal_Energy-OPLS-2005>
4658.66650390625

> <r_mmod_Electrostatic_Energy-OPLS-2005>
-389.5126953125

> <r_mmod_Solvation_Energy-OPLS-2005>
-197.718811035156

> <b_mmod_Minimization_Converged-OPLS-2005>
0

> <r_mmod_RMS_Derivative-OPLS-2005>
8.84685897827148

$$$$
82
                    3D
 Structure written by MMmdl.
159167  0  0  1  0            999 V2000
  -30.6009  -14.7312   20.4571 C   0  0  0  0  0  0
  -30.4382  -12.4356   19.4874 C   0  0  0  0  0  0
  -29.5174  -12.5039   18.2474 C   0  0  0  0  0  0
  -28.0406  -12.3292   18.6548 C   0  0  0  0  0  0
  -27.6480  -13.2283   19.8551 C   0  0  2  0  0  0
  -28.6889  -13.1419   20.9950 C   0  0  0  0  0  0
  -25.2550  -13.8196   20.5676 C   0  0  0  0  0  0
  -24.1824  -13.0411   20.9197 C   0  0  0  0  0  0
  -24.6410  -11.6898   20.8728 C   0  0  0  0  0  0
  -23.9071  -10.4267   21.0404 C   0  0  0  0  0  0
  -24.3630   -9.4176   21.9188 C   0  0  0  0  0  0
  -23.6287   -8.2212   22.0744 C   0  0  0  0  0  0
  -22.4262   -8.0261   21.3538 C   0  0  0  0  0  0
  -21.9903   -9.0228   20.4643 C   0  0  0  0  0  0
  -22.7236  -10.2106   20.3062 C   0  0  0  0  0  0
  -21.6835   -6.0733   22.5278 C   0  0  0  0  0  0
  -21.4014   -6.5641   23.8214 C   0  0  0  0  0  0
  -21.3659   -5.6808   24.9169 C   0  0  0  0  0  0
  -21.6042   -4.3057   24.7236 C   0  0  0  0  0  0
  -21.8816   -3.8136   23.4366 C   0  0  0  0  0  0
  -21.9180   -4.6959   22.3411 C   0  0  0  0  0  0
  -22.7847  -13.5187   21.1860 C   0  0  0  0  0  0
  -22.1655   -4.2135   21.0992 F   0  0  0  0  0  0
  -21.5616   -3.4543   25.7758 F   0  0  0  0  0  0
  -29.9989  -13.4917   20.4311 N   0  0  0  0  0  0
  -26.2978  -12.9383   20.3299 N   0  0  0  0  0  0
  -25.9346  -11.6518   20.5763 N   0  0  0  0  0  0
  -22.0512  -12.8174   22.0447 N   0  0  0  0  0  0
  -25.4261  -15.1908   20.4108 N   0  0  0  0  0  0
  -31.7692  -14.8554   20.0801 O   0  0  0  0  0  0
  -21.6620   -6.8865   21.4233 O   0  0  0  0  0  0
  -22.3521  -14.5469   20.6691 O   0  0  0  0  0  0
  -24.6345  -31.8543   23.1997 C   0  0  0  0  0  0
  -25.9171  -32.4729   23.8342 C   0  0  1  0  0  0
  -27.2134  -27.2588   20.1412 C   0  0  0  0  0  0
  -25.5970  -33.8546   24.2253 N   0  0  0  0  0  0
  -23.4307  -30.4810   21.5437 C   0  0  2  0  0  0
  -24.8734  -28.9275   20.1190 C   0  0  0  0  0  0
  -22.7509  -29.4623   22.4906 C   0  0  0  0  0  0
  -18.0303  -28.1418   22.8463 C   0  0  0  0  0  0
  -24.1510  -36.7254   23.2628 C   0  0  0  0  0  0
  -25.9775  -30.7694   21.3798 C   0  0  0  0  0  0
  -26.0495  -29.3939   20.7172 C   0  0  0  0  0  0
  -27.2240  -28.5766   20.7104 C   0  0  0  0  0  0
  -26.0055  -26.8505   19.5282 C   0  0  0  0  0  0
  -24.8521  -27.6587   19.5229 C   0  0  0  0  0  0
  -23.6515  -29.8217   20.1591 C   0  0  0  0  0  0
  -25.4135  -36.3035   24.0306 C   0  0  1  0  0  0
  -20.5906  -28.3732   23.1267 C   0  0  2  0  0  0
  -20.6815  -26.9455   22.5428 C   0  0  0  0  0  0
  -19.5787  -26.6402   21.5232 C   0  0  0  0  0  0
  -18.1955  -26.7952   22.1617 C   0  0  0  0  0  0
  -19.1556  -28.8892   23.2850 C   0  0  0  0  0  0
  -18.9463  -30.1481   23.8895 C   0  0  0  0  0  0
  -17.6464  -30.6608   24.0584 C   0  0  0  0  0  0
  -25.9076  -34.9412   23.5060 C   0  0  0  0  0  0
  -16.5356  -29.9113   23.6339 C   0  0  0  0  0  0
  -16.7281  -28.6536   23.0336 C   0  0  0  0  0  0
  -26.4541  -31.6559   25.0731 C   0  0  0  0  0  0
  -25.3765  -31.3734   26.1442 C   0  0  0  0  0  0
  -27.0414  -30.2966   24.6273 C   0  0  0  0  0  0
  -27.6092  -32.4300   25.7510 C   0  0  0  0  0  0
  -27.5579  -37.1790   24.8458 C   0  0  0  0  0  0
  -21.4219  -29.3039   22.3633 N   0  0  0  0  0  0
  -26.4288  -37.3745   23.9390 N   0  0  0  0  0  0
  -24.7002  -31.0543   22.0963 N   0  0  0  0  0  0
  -23.4182  -28.8164   23.3023 O   0  0  0  0  0  0
  -28.3053  -26.3638   20.2128 O   0  0  0  0  0  0
  -26.5635  -34.8870   22.4619 O   0  0  0  0  0  0
  -23.5488  -32.1387   23.7257 O   0  0  0  0  0  0
  -29.5753  -18.5306   18.1529 C   0  0  0  0  0  0
  -29.4517  -19.7320   18.8751 C   0  0  0  0  0  0
  -29.7623  -17.2982   18.8023 C   0  0  0  0  0  0
  -29.5421  -19.7687   20.2824 C   0  0  0  0  0  0
  -29.7404  -18.4667   20.9478 C   0  0  0  0  0  0
  -29.8236  -17.2060   20.2097 C   0  0  0  0  0  0
  -29.6100  -21.1921   20.9384 C   0  0  0  0  0  0
  -29.5720  -24.1320   22.1189 C   0  0  0  0  0  0
  -29.9109  -18.3882   22.4599 C   0  0  0  0  0  0
  -30.9062  -24.8415   22.3014 C   0  0  0  0  0  0
  -28.0369  -24.8790   20.1894 C   0  0  0  0  0  0
  -29.1498  -23.8080   20.6767 C   0  0  2  0  0  0
  -29.8354  -15.8392   20.7925 N   0  0  0  0  0  0
  -28.9413  -22.2954   20.4140 N   0  0  0  0  0  0
  -30.3614  -21.3296   21.9012 O   0  0  0  0  0  0
  -28.8905  -23.8453   23.1084 O   0  0  0  0  0  0
  -30.3858  -11.4506   19.9606 H   0  0  0  0  0  0
  -31.4776  -12.5647   19.1842 H   0  0  0  0  0  0
  -29.7942  -11.7310   17.5318 H   0  0  0  0  0  0
  -29.6522  -13.4573   17.7338 H   0  0  0  0  0  0
  -27.8961  -11.2816   18.9225 H   0  0  0  0  0  0
  -27.3837  -12.5194   17.8056 H   0  0  0  0  0  0
  -27.6475  -14.2518   19.4787 H   0  0  0  0  0  0
  -28.4243  -13.8096   21.8171 H   0  0  0  0  0  0
  -28.7160  -12.1377   21.4210 H   0  0  0  0  0  0
  -25.2777   -9.5623   22.4764 H   0  0  0  0  0  0
  -23.9959   -7.4607   22.7481 H   0  0  0  0  0  0
  -21.0813   -8.8756   19.8979 H   0  0  0  0  0  0
  -22.3682  -10.9646   19.6169 H   0  0  0  0  0  0
  -21.2013   -7.6150   23.9718 H   0  0  0  0  0  0
  -21.1488   -6.0535   25.9086 H   0  0  0  0  0  0
  -22.0600   -2.7597   23.2877 H   0  0  0  0  0  0
  -22.4134  -11.9811   22.4790 H   0  0  0  0  0  0
  -21.1159  -13.1216   22.2724 H   0  0  0  0  0  0
  -24.6596  -15.8450   20.5245 H   0  0  0  0  0  0
  -26.2748  -15.6284   20.0727 H   0  0  0  0  0  0
  -26.7235  -32.5375   23.1080 H   0  0  0  0  0  0
  -25.0203  -33.9706   25.0449 H   0  0  0  0  0  0
  -22.7237  -31.3008   21.4006 H   0  0  0  0  0  0
  -23.3764  -35.9595   23.3285 H   0  0  0  0  0  0
  -24.3622  -36.8904   22.2054 H   0  0  0  0  0  0
  -23.7289  -37.6451   23.6672 H   0  0  0  0  0  0
  -26.1285  -31.5334   20.6157 H   0  0  0  0  0  0
  -26.8452  -30.8057   22.0267 H   0  0  0  0  0  0
  -28.1245  -28.9304   21.1938 H   0  0  0  0  0  0
  -25.9091  -25.8770   19.0751 H   0  0  0  0  0  0
  -23.9418  -27.2873   19.0736 H   0  0  0  0  0  0
  -23.7886  -30.6012   19.4081 H   0  0  0  0  0  0
  -22.7681  -29.2660   19.8456 H   0  0  0  0  0  0
  -25.1342  -36.1880   25.0806 H   0  0  0  0  0  0
  -20.9981  -28.3319   24.1387 H   0  0  0  0  0  0
  -20.5803  -26.2323   23.3630 H   0  0  0  0  0  0
  -21.6680  -26.7548   22.1177 H   0  0  0  0  0  0
  -19.6986  -25.6311   21.1270 H   0  0  0  0  0  0
  -19.6746  -27.3205   20.6759 H   0  0  0  0  0  0
  -17.4254  -26.6676   21.3998 H   0  0  0  0  0  0
  -18.0345  -26.0124   22.9047 H   0  0  0  0  0  0
  -19.7945  -30.7305   24.2245 H   0  0  0  0  0  0
  -17.5028  -31.6287   24.5192 H   0  0  0  0  0  0
  -15.5360  -30.3024   23.7690 H   0  0  0  0  0  0
  -15.8665  -28.0890   22.7019 H   0  0  0  0  0  0
  -24.5899  -30.7149   25.7729 H   0  0  0  0  0  0
  -24.9022  -32.2940   26.4855 H   0  0  0  0  0  0
  -25.8065  -30.8877   27.0222 H   0  0  0  0  0  0
  -26.3039  -29.6667   24.1282 H   0  0  0  0  0  0
  -27.4067  -29.7267   25.4832 H   0  0  0  0  0  0
  -27.8920  -30.4184   23.9561 H   0  0  0  0  0  0
  -27.2680  -33.3566   26.2122 H   0  0  0  0  0  0
  -28.3886  -32.6927   25.0346 H   0  0  0  0  0  0
  -28.0786  -31.8431   26.5417 H   0  0  0  0  0  0
  -28.2584  -38.0090   24.7503 H   0  0  0  0  0  0
  -28.1100  -36.2640   24.6306 H   0  0  0  0  0  0
  -27.2300  -37.1449   25.8854 H   0  0  0  0  0  0
  -20.9413  -29.8723   21.6812 H   0  0  0  0  0  0
  -26.0162  -38.2805   24.1420 H   0  0  0  0  0  0
  -29.5194  -18.5576   17.0747 H   0  0  0  0  0  0
  -29.3485  -20.6530   18.3166 H   0  0  0  0  0  0
  -29.8320  -16.4090   18.1956 H   0  0  0  0  0  0
  -30.6438  -19.1132   22.8123 H   0  0  0  0  0  0
  -28.9612  -18.5670   22.9635 H   0  0  0  0  0  0
  -30.2902  -17.4161   22.7774 H   0  0  0  0  0  0
  -30.8309  -25.6212   23.0560 H   0  0  0  0  0  0
  -31.2299  -25.3095   21.3715 H   0  0  0  0  0  0
  -31.6550  -24.1105   22.6015 H   0  0  0  0  0  0
  -27.7977  -24.6285   19.1590 H   0  0  0  0  0  0
  -27.1231  -24.6929   20.7571 H   0  0  0  0  0  0
  -30.0094  -24.0392   20.0486 H   0  0  0  0  0  0
  -28.9813  -15.5956   21.2742 H   0  0  0  0  0  0
  -28.2920  -22.0840   19.6691 H   0  0  0  0  0  0
  1 25  1  0  0  0
  1 30  2  0  0  0
  1 83  1  0  0  0
  2  3  1  0  0  0
  2 25  1  0  0  0
  2 87  1  0  0  0
  2 88  1  0  0  0
  3  4  1  0  0  0
  3 89  1  0  0  0
  3 90  1  0  0  0
  4  5  1  0  0  0
  4 91  1  0  0  0
  4 92  1  0  0  0
  5  6  1  0  0  0
  5 26  1  0  0  0
  5 93  1  0  0  0
  6 25  1  0  0  0
  6 94  1  0  0  0
  6 95  1  0  0  0
  7  8  2  0  0  0
  7 26  1  0  0  0
  7 29  1  0  0  0
  8  9  1  0  0  0
  8 22  1  0  0  0
  9 10  1  0  0  0
  9 27  2  0  0  0
 10 11  2  0  0  0
 10 15  1  0  0  0
 11 12  1  0  0  0
 11 96  1  0  0  0
 12 13  2  0  0  0
 12 97  1  0  0  0
 13 14  1  0  0  0
 13 31  1  0  0  0
 14 15  2  0  0  0
 14 98  1  0  0  0
 15 99  1  0  0  0
 16 17  2  0  0  0
 16 21  1  0  0  0
 16 31  1  0  0  0
 17 18  1  0  0  0
 17100  1  0  0  0
 18 19  2  0  0  0
 18101  1  0  0  0
 19 20  1  0  0  0
 19 24  1  0  0  0
 20 21  2  0  0  0
 20102  1  0  0  0
 21 23  1  0  0  0
 22 28  1  0  0  0
 22 32  2  0  0  0
 26 27  1  0  0  0
 28103  1  0  0  0
 28104  1  0  0  0
 29105  1  0  0  0
 29106  1  0  0  0
 33 34  1  0  0  0
 33 66  1  0  0  0
 33 70  2  0  0  0
 34 36  1  0  0  0
 34 59  1  0  0  0
 34107  1  0  0  0
 35 44  2  0  0  0
 35 45  1  0  0  0
 35 68  1  0  0  0
 36 56  1  0  0  0
 36108  1  0  0  0
 37 39  1  0  0  0
 37 47  1  0  0  0
 37 66  1  0  0  0
 37109  1  0  0  0
 38 43  2  0  0  0
 38 46  1  0  0  0
 38 47  1  0  0  0
 39 64  1  0  0  0
 39 67  2  0  0  0
 40 52  1  0  0  0
 40 53  2  0  0  0
 40 58  1  0  0  0
 41110  1  0  0  0
 41111  1  0  0  0
 41112  1  0  0  0
 41 48  1  0  0  0
 42 43  1  0  0  0
 42 66  1  0  0  0
 42113  1  0  0  0
 42114  1  0  0  0
 43 44  1  0  0  0
 44115  1  0  0  0
 45 46  2  0  0  0
 45116  1  0  0  0
 46117  1  0  0  0
 47118  1  0  0  0
 47119  1  0  0  0
 48 56  1  0  0  0
 48 65  1  0  0  0
 48120  1  0  0  0
 49 50  1  0  0  0
 49 53  1  0  0  0
 49 64  1  0  0  0
 49121  1  0  0  0
 50 51  1  0  0  0
 50122  1  0  0  0
 50123  1  0  0  0
 51 52  1  0  0  0
 51124  1  0  0  0
 51125  1  0  0  0
 52126  1  0  0  0
 52127  1  0  0  0
 53 54  1  0  0  0
 54 55  2  0  0  0
 54128  1  0  0  0
 55 57  1  0  0  0
 55129  1  0  0  0
 56 69  2  0  0  0
 57 58  2  0  0  0
 57130  1  0  0  0
 58131  1  0  0  0
 59 60  1  0  0  0
 59 61  1  0  0  0
 59 62  1  0  0  0
 60132  1  0  0  0
 60133  1  0  0  0
 60134  1  0  0  0
 61135  1  0  0  0
 61136  1  0  0  0
 61137  1  0  0  0
 62138  1  0  0  0
 62139  1  0  0  0
 62140  1  0  0  0
 63 65  1  0  0  0
 63141  1  0  0  0
 63142  1  0  0  0
 63143  1  0  0  0
 64144  1  0  0  0
 65145  1  0  0  0
 68 81  1  0  0  0
 71 72  2  0  0  0
 71 73  1  0  0  0
 71146  1  0  0  0
 72 74  1  0  0  0
 72147  1  0  0  0
 73 76  2  0  0  0
 73148  1  0  0  0
 74 75  2  0  0  0
 74 77  1  0  0  0
 75 76  1  0  0  0
 75 79  1  0  0  0
 76 83  1  0  0  0
 77 84  1  0  0  0
 77 85  2  0  0  0
 78 80  1  0  0  0
 78 82  1  0  0  0
 78 86  2  0  0  0
 79149  1  0  0  0
 79150  1  0  0  0
 79151  1  0  0  0
 80152  1  0  0  0
 80153  1  0  0  0
 80154  1  0  0  0
 81155  1  0  0  0
 81156  1  0  0  0
 81 82  1  0  0  0
 82 84  1  0  0  0
 82157  1  0  0  0
 83158  1  0  0  0
 84159  1  0  0  0
M  ISO  4   1 100  68 101  81 101  83 100
M  END
> <chiral flag>
0

> <version>
0

> <s_m_source_file>
/data/baiqing/PycharmProjects/Reinvent-master-3.2/result/LINK_invent/BTK/process_docking_weight1_custom_product_contain_oxygen_bond_distance_aromatic_linkinvent_7_9_3/rearranged_h_0057.sdf

> <i_m_source_file_index>
82

> <r_mmod_Potential_Energy-OPLS-2005>
32.8424644470215

> <r_mmod_Stretch_Energy-OPLS-2005>
132.288482666016

> <r_mmod_Bend_Energy-OPLS-2005>
165.074096679688

> <r_mmod_Torsional_Energy-OPLS-2005>
250.747833251953

> <r_mmod_Improper_Torsional_Energy-OPLS-2005>
6.36944341659546

> <r_mmod_Van_der_Waal_Energy-OPLS-2005>
148.377212524414

> <r_mmod_Electrostatic_Energy-OPLS-2005>
-498.823669433594

> <r_mmod_Solvation_Energy-OPLS-2005>
-255.179077148438

> <b_mmod_Minimization_Converged-OPLS-2005>
0

> <r_mmod_RMS_Derivative-OPLS-2005>
5.41152763366699

$$$$
83
                    3D
 Structure written by MMmdl.
162170  0  0  1  0            999 V2000
  -30.7105  -14.4602   20.5566 C   0  0  0  0  0  0
  -30.4146  -12.2951   19.4288 C   0  0  0  0  0  0
  -29.4954  -12.5130   18.2106 C   0  0  0  0  0  0
  -28.0148  -12.3832   18.6146 C   0  0  0  0  0  0
  -27.6641  -13.2119   19.8792 C   0  0  2  0  0  0
  -28.7035  -12.9968   21.0033 C   0  0  0  0  0  0
  -25.2613  -13.8168   20.5681 C   0  0  0  0  0  0
  -24.1861  -13.0428   20.9162 C   0  0  0  0  0  0
  -24.6423  -11.6904   20.8712 C   0  0  0  0  0  0
  -23.9083  -10.4294   21.0385 C   0  0  0  0  0  0
  -24.3636   -9.4212   21.9168 C   0  0  0  0  0  0
  -23.6303   -8.2245   22.0745 C   0  0  0  0  0  0
  -22.4285   -8.0275   21.3527 C   0  0  0  0  0  0
  -21.9920   -9.0254   20.4632 C   0  0  0  0  0  0
  -22.7247  -10.2138   20.3041 C   0  0  0  0  0  0
  -21.6865   -6.0729   22.5278 C   0  0  0  0  0  0
  -21.4023   -6.5633   23.8211 C   0  0  0  0  0  0
  -21.3664   -5.6787   24.9173 C   0  0  0  0  0  0
  -21.6043   -4.3044   24.7221 C   0  0  0  0  0  0
  -21.8823   -3.8138   23.4344 C   0  0  0  0  0  0
  -21.9206   -4.6958   22.3404 C   0  0  0  0  0  0
  -22.7886  -13.5225   21.1843 C   0  0  0  0  0  0
  -22.1669   -4.2152   21.0974 F   0  0  0  0  0  0
  -21.5638   -3.4519   25.7727 F   0  0  0  0  0  0
  -30.0381  -13.2824   20.4539 N   0  0  0  0  0  0
  -26.3057  -12.9344   20.3394 N   0  0  0  0  0  0
  -25.9354  -11.6491   20.5753 N   0  0  0  0  0  0
  -22.0549  -12.8189   22.0392 N   0  0  0  0  0  0
  -25.4340  -15.1878   20.4132 N   0  0  0  0  0  0
  -31.8377  -14.6254   20.0812 O   0  0  0  0  0  0
  -21.6653   -6.8861   21.4230 O   0  0  0  0  0  0
  -22.3563  -14.5523   20.6691 O   0  0  0  0  0  0
  -24.6130  -31.8679   23.2068 C   0  0  0  0  0  0
  -25.9010  -32.4828   23.8383 C   0  0  1  0  0  0
  -27.2490  -27.4412   20.0608 C   0  0  0  0  0  0
  -25.5849  -33.8631   24.2287 N   0  0  0  0  0  0
  -23.4033  -30.4906   21.5487 C   0  0  2  0  0  0
  -24.8500  -28.9566   20.1168 C   0  0  0  0  0  0
  -22.7402  -29.4658   22.4970 C   0  0  0  0  0  0
  -18.0268  -28.1388   22.8503 C   0  0  0  0  0  0
  -24.1486  -36.7329   23.2645 C   0  0  0  0  0  0
  -25.9362  -30.8263   21.3687 C   0  0  0  0  0  0
  -26.0124  -29.4643   20.7091 C   0  0  0  0  0  0
  -27.2093  -28.7123   20.6820 C   0  0  0  0  0  0
  -26.0509  -26.9366   19.4991 C   0  0  0  0  0  0
  -24.8638  -27.6883   19.5177 C   0  0  0  0  0  0
  -23.6116  -29.8194   20.1664 C   0  0  0  0  0  0
  -25.4114  -36.3118   24.0324 C   0  0  1  0  0  0
  -20.5850  -28.3675   23.1320 C   0  0  2  0  0  0
  -20.6740  -26.9407   22.5419 C   0  0  0  0  0  0
  -19.5731  -26.6390   21.5208 C   0  0  0  0  0  0
  -18.1909  -26.7927   22.1628 C   0  0  0  0  0  0
  -19.1513  -28.8847   23.2915 C   0  0  0  0  0  0
  -18.9447  -30.1453   23.8922 C   0  0  0  0  0  0
  -17.6449  -30.6588   24.0589 C   0  0  0  0  0  0
  -25.9042  -34.9487   23.5110 C   0  0  0  0  0  0
  -16.5338  -29.9101   23.6336 C   0  0  0  0  0  0
  -16.7254  -28.6520   23.0337 C   0  0  0  0  0  0
  -26.4443  -31.6633   25.0724 C   0  0  0  0  0  0
  -25.3708  -31.3728   26.1480 C   0  0  0  0  0  0
  -27.0305  -30.3071   24.6159 C   0  0  0  0  0  0
  -27.6003  -32.4406   25.7475 C   0  0  0  0  0  0
  -27.5584  -37.1801   24.8451 C   0  0  0  0  0  0
  -21.4125  -29.3048   22.3725 N   0  0  0  0  0  0
  -26.4300  -37.3802   23.9389 N   0  0  0  0  0  0
  -24.6690  -31.0757   22.0986 N   0  0  0  0  0  0
  -23.4177  -28.8183   23.3002 O   0  0  0  0  0  0
  -28.4485  -26.7453   20.0681 O   0  0  0  0  0  0
  -26.5632  -34.8927   22.4692 O   0  0  0  0  0  0
  -23.5307  -32.1444   23.7442 O   0  0  0  0  0  0
  -30.6364  -18.6080   19.0802 C   0  0  0  0  0  0
  -30.4825  -17.2525   19.4182 C   0  0  0  0  0  0
  -30.0321  -17.8845   21.7181 C   0  0  0  0  0  0
  -30.5029  -19.6283   20.0490 C   0  0  0  0  0  0
  -30.1963  -19.2575   21.3899 C   0  0  0  0  0  0
  -30.1975  -16.8672   20.7472 C   0  0  0  0  0  0
  -30.6916  -21.0153   19.5739 C   0  0  0  0  0  0
  -30.0646  -20.2838   22.5076 C   0  0  0  0  0  0
  -29.5917  -26.2433   18.0121 C   0  0  0  0  0  0
  -29.3493  -24.4866   19.9075 C   0  0  0  0  0  0
  -29.5968  -23.2440   19.0206 C   0  0  0  0  0  0
  -28.7096  -25.6771   19.1402 C   0  0  1  0  0  0
  -31.7938  -21.3121   18.8860 N   0  0  0  0  0  0
  -30.0278  -15.4901   21.0960 N   0  0  0  0  0  0
  -29.7554  -21.9650   19.7622 N   0  3  0  0  0  0
  -31.4601  -12.3842   19.1279 H   0  0  0  0  0  0
  -30.3011  -11.2824   19.8204 H   0  0  0  0  0  0
  -29.7338  -11.7969   17.4231 H   0  0  0  0  0  0
  -29.6763  -13.5017   17.7852 H   0  0  0  0  0  0
  -27.8089  -11.3273   18.7897 H   0  0  0  0  0  0
  -27.3746  -12.6848   17.7851 H   0  0  0  0  0  0
  -27.7071  -14.2606   19.5863 H   0  0  0  0  0  0
  -28.6695  -11.9679   21.3623 H   0  0  0  0  0  0
  -28.4683  -13.6154   21.8702 H   0  0  0  0  0  0
  -25.2792   -9.5665   22.4735 H   0  0  0  0  0  0
  -24.0012   -7.4625   22.7458 H   0  0  0  0  0  0
  -21.0855   -8.8754   19.8939 H   0  0  0  0  0  0
  -22.3701  -10.9661   19.6136 H   0  0  0  0  0  0
  -21.2007   -7.6139   23.9695 H   0  0  0  0  0  0
  -21.1491   -6.0528   25.9073 H   0  0  0  0  0  0
  -22.0609   -2.7603   23.2843 H   0  0  0  0  0  0
  -22.4212  -11.9837   22.4726 H   0  0  0  0  0  0
  -21.1167  -13.1175   22.2619 H   0  0  0  0  0  0
  -24.6672  -15.8419   20.5165 H   0  0  0  0  0  0
  -26.2891  -15.6285   20.0987 H   0  0  0  0  0  0
  -26.7063  -32.5530   23.1129 H   0  0  0  0  0  0
  -24.9910  -33.9823   25.0370 H   0  0  0  0  0  0
  -22.6948  -31.3079   21.4031 H   0  0  0  0  0  0
  -23.3744  -35.9661   23.3319 H   0  0  0  0  0  0
  -24.3565  -36.8958   22.2056 H   0  0  0  0  0  0
  -23.7249  -37.6529   23.6682 H   0  0  0  0  0  0
  -26.0586  -31.5943   20.6049 H   0  0  0  0  0  0
  -26.8204  -30.8700   21.9926 H   0  0  0  0  0  0
  -28.1105  -29.1076   21.1320 H   0  0  0  0  0  0
  -25.9810  -25.9571   19.0561 H   0  0  0  0  0  0
  -23.9657  -27.2752   19.0806 H   0  0  0  0  0  0
  -23.7182  -30.5908   19.4036 H   0  0  0  0  0  0
  -22.7382  -29.2342   19.8718 H   0  0  0  0  0  0
  -25.1297  -36.1976   25.0811 H   0  0  0  0  0  0
  -20.9963  -28.3226   24.1438 H   0  0  0  0  0  0
  -20.5622  -26.2287   23.3615 H   0  0  0  0  0  0
  -21.6613  -26.7433   22.1232 H   0  0  0  0  0  0
  -19.6906  -25.6311   21.1229 H   0  0  0  0  0  0
  -19.6652  -27.3211   20.6743 H   0  0  0  0  0  0
  -17.4168  -26.6670   21.4040 H   0  0  0  0  0  0
  -18.0343  -26.0059   22.9023 H   0  0  0  0  0  0
  -19.7918  -30.7284   24.2280 H   0  0  0  0  0  0
  -17.4997  -31.6273   24.5197 H   0  0  0  0  0  0
  -15.5346  -30.3020   23.7651 H   0  0  0  0  0  0
  -15.8651  -28.0885   22.7006 H   0  0  0  0  0  0
  -24.5802  -30.7191   25.7773 H   0  0  0  0  0  0
  -24.9003  -32.2894   26.5055 H   0  0  0  0  0  0
  -25.8054  -30.8756   27.0168 H   0  0  0  0  0  0
  -26.2863  -29.6787   24.1247 H   0  0  0  0  0  0
  -27.4072  -29.7361   25.4658 H   0  0  0  0  0  0
  -27.8706  -30.4369   23.9329 H   0  0  0  0  0  0
  -27.2567  -33.3650   26.2142 H   0  0  0  0  0  0
  -28.3743  -32.7096   25.0269 H   0  0  0  0  0  0
  -28.0777  -31.8516   26.5318 H   0  0  0  0  0  0
  -28.2601  -38.0106   24.7542 H   0  0  0  0  0  0
  -28.1092  -36.2639   24.6251 H   0  0  0  0  0  0
  -27.2311  -37.1437   25.8860 H   0  0  0  0  0  0
  -20.9260  -29.8843   21.7023 H   0  0  0  0  0  0
  -26.0191  -38.2875   24.1398 H   0  0  0  0  0  0
  -30.8493  -18.8623   18.0513 H   0  0  0  0  0  0
  -30.5782  -16.5115   18.6353 H   0  0  0  0  0  0
  -29.7990  -17.6083   22.7365 H   0  0  0  0  0  0
  -30.2315  -19.8228   23.4822 H   0  0  0  0  0  0
  -29.0656  -20.7196   22.5148 H   0  0  0  0  0  0
  -30.7973  -21.0857   22.4054 H   0  0  0  0  0  0
  -30.5708  -26.5548   18.3765 H   0  0  0  0  0  0
  -29.1216  -27.1119   17.5462 H   0  0  0  0  0  0
  -29.7467  -25.5085   17.2221 H   0  0  0  0  0  0
  -30.2924  -24.8087   20.3477 H   0  0  0  0  0  0
  -28.7054  -24.2167   20.7446 H   0  0  0  0  0  0
  -30.4457  -23.4270   18.3609 H   0  0  0  0  0  0
  -28.7392  -23.1126   18.3596 H   0  0  0  0  0  0
  -27.8182  -25.2859   18.6619 H   0  0  0  0  0  0
  -32.5029  -20.6013   18.7746 H   0  0  0  0  0  0
  -32.0127  -22.2483   18.5920 H   0  0  0  0  0  0
  -29.2102  -15.2566   21.6370 H   0  0  0  0  0  0
  -28.9462  -21.6596   20.2883 H   0  0  0  0  0  0
  1 25  1  0  0  0
  1 30  2  0  0  0
  1 84  1  0  0  0
  2  3  1  0  0  0
  2 25  1  0  0  0
  2 86  1  0  0  0
  2 87  1  0  0  0
  3  4  1  0  0  0
  3 88  1  0  0  0
  3 89  1  0  0  0
  4  5  1  0  0  0
  4 90  1  0  0  0
  4 91  1  0  0  0
  5  6  1  0  0  0
  5 26  1  0  0  0
  5 92  1  0  0  0
  6 25  1  0  0  0
  6 93  1  0  0  0
  6 94  1  0  0  0
  7  8  2  0  0  0
  7 26  1  0  0  0
  7 29  1  0  0  0
  8  9  1  0  0  0
  8 22  1  0  0  0
  9 10  1  0  0  0
  9 27  2  0  0  0
 10 11  2  0  0  0
 10 15  1  0  0  0
 11 12  1  0  0  0
 11 95  1  0  0  0
 12 13  2  0  0  0
 12 96  1  0  0  0
 13 14  1  0  0  0
 13 31  1  0  0  0
 14 15  2  0  0  0
 14 97  1  0  0  0
 15 98  1  0  0  0
 16 17  2  0  0  0
 16 21  1  0  0  0
 16 31  1  0  0  0
 17 18  1  0  0  0
 17 99  1  0  0  0
 18 19  2  0  0  0
 18100  1  0  0  0
 19 20  1  0  0  0
 19 24  1  0  0  0
 20 21  2  0  0  0
 20101  1  0  0  0
 21 23  1  0  0  0
 22 28  1  0  0  0
 22 32  2  0  0  0
 26 27  1  0  0  0
 28102  1  0  0  0
 28103  1  0  0  0
 29104  1  0  0  0
 29105  1  0  0  0
 33 34  1  0  0  0
 33 66  1  0  0  0
 33 70  2  0  0  0
 34 36  1  0  0  0
 34 59  1  0  0  0
 34106  1  0  0  0
 35 44  2  0  0  0
 35 45  1  0  0  0
 35 68  1  0  0  0
 36 56  1  0  0  0
 36107  1  0  0  0
 37 39  1  0  0  0
 37 47  1  0  0  0
 37 66  1  0  0  0
 37108  1  0  0  0
 38 43  2  0  0  0
 38 46  1  0  0  0
 38 47  1  0  0  0
 39 64  1  0  0  0
 39 67  2  0  0  0
 40 52  1  0  0  0
 40 53  2  0  0  0
 40 58  1  0  0  0
 41109  1  0  0  0
 41110  1  0  0  0
 41111  1  0  0  0
 41 48  1  0  0  0
 42 43  1  0  0  0
 42 66  1  0  0  0
 42112  1  0  0  0
 42113  1  0  0  0
 43 44  1  0  0  0
 44114  1  0  0  0
 45 46  2  0  0  0
 45115  1  0  0  0
 46116  1  0  0  0
 47117  1  0  0  0
 47118  1  0  0  0
 48 56  1  0  0  0
 48 65  1  0  0  0
 48119  1  0  0  0
 49 50  1  0  0  0
 49 53  1  0  0  0
 49 64  1  0  0  0
 49120  1  0  0  0
 50 51  1  0  0  0
 50121  1  0  0  0
 50122  1  0  0  0
 51 52  1  0  0  0
 51123  1  0  0  0
 51124  1  0  0  0
 52125  1  0  0  0
 52126  1  0  0  0
 53 54  1  0  0  0
 54 55  2  0  0  0
 54127  1  0  0  0
 55 57  1  0  0  0
 55128  1  0  0  0
 56 69  2  0  0  0
 57 58  2  0  0  0
 57129  1  0  0  0
 58130  1  0  0  0
 59 60  1  0  0  0
 59 61  1  0  0  0
 59 62  1  0  0  0
 60131  1  0  0  0
 60132  1  0  0  0
 60133  1  0  0  0
 61134  1  0  0  0
 61135  1  0  0  0
 61136  1  0  0  0
 62137  1  0  0  0
 62138  1  0  0  0
 62139  1  0  0  0
 63 65  1  0  0  0
 63140  1  0  0  0
 63141  1  0  0  0
 63142  1  0  0  0
 64143  1  0  0  0
 65144  1  0  0  0
 68 82  1  0  0  0
 71 72  2  0  0  0
 71 74  1  0  0  0
 71145  1  0  0  0
 72 76  1  0  0  0
 72146  1  0  0  0
 73 75  1  0  0  0
 73 76  2  0  0  0
 73147  1  0  0  0
 74 75  2  0  0  0
 74 77  1  0  0  0
 75 78  1  0  0  0
 76 84  1  0  0  0
 77 83  1  0  0  0
 77 85  2  0  0  0
 78148  1  0  0  0
 78149  1  0  0  0
 78150  1  0  0  0
 79151  1  0  0  0
 79152  1  0  0  0
 79153  1  0  0  0
 79 82  1  0  0  0
 80 81  1  0  0  0
 80 82  1  0  0  0
 80154  1  0  0  0
 80155  1  0  0  0
 81 85  1  0  0  0
 81156  1  0  0  0
 81157  1  0  0  0
 82158  1  0  0  0
 83159  1  0  0  0
 83160  1  0  0  0
 84161  1  0  0  0
 85162  1  0  0  0
M  CHG  1  85   1
M  ISO  4   1 100  68 101  82 101  84 100
M  END
> <chiral flag>
0

> <version>
0

> <s_m_source_file>
/data/baiqing/PycharmProjects/Reinvent-master-3.2/result/LINK_invent/BTK/process_docking_weight1_custom_product_contain_oxygen_bond_distance_aromatic_linkinvent_7_9_3/rearranged_h_0057.sdf

> <i_m_source_file_index>
83

> <r_mmod_Potential_Energy-OPLS-2005>
-187.037536621094

> <r_mmod_Stretch_Energy-OPLS-2005>
39.6467819213867

> <r_mmod_Bend_Energy-OPLS-2005>
109.01016998291

> <r_mmod_Torsional_Energy-OPLS-2005>
237.076766967773

> <r_mmod_Improper_Torsional_Energy-OPLS-2005>
4.66810512542725

> <r_mmod_Van_der_Waal_Energy-OPLS-2005>
161.821701049805

> <r_mmod_Electrostatic_Energy-OPLS-2005>
-347.037353515625

> <r_mmod_Solvation_Energy-OPLS-2005>
-404.615631103516

> <b_mmod_Minimization_Converged-OPLS-2005>
0

> <r_mmod_RMS_Derivative-OPLS-2005>
2.57988142967224

$$$$
84
                    3D
 Structure written by MMmdl.
152160  0  0  1  0            999 V2000
  -30.7156  -14.5183   20.5484 C   0  0  0  0  0  0
  -30.4152  -12.3307   19.4372 C   0  0  0  0  0  0
  -29.4932  -12.4970   18.2130 C   0  0  0  0  0  0
  -28.0167  -12.3532   18.6279 C   0  0  0  0  0  0
  -27.6547  -13.2163   19.8667 C   0  0  2  0  0  0
  -28.6990  -13.0535   20.9947 C   0  0  0  0  0  0
  -25.2559  -13.8183   20.5687 C   0  0  0  0  0  0
  -24.1825  -13.0448   20.9192 C   0  0  0  0  0  0
  -24.6393  -11.6919   20.8745 C   0  0  0  0  0  0
  -23.9065  -10.4301   21.0407 C   0  0  0  0  0  0
  -24.3616   -9.4213   21.9183 C   0  0  0  0  0  0
  -23.6292   -8.2246   22.0753 C   0  0  0  0  0  0
  -22.4273   -8.0284   21.3545 C   0  0  0  0  0  0
  -21.9909   -9.0258   20.4646 C   0  0  0  0  0  0
  -22.7238  -10.2139   20.3056 C   0  0  0  0  0  0
  -21.6853   -6.0736   22.5279 C   0  0  0  0  0  0
  -21.4013   -6.5639   23.8213 C   0  0  0  0  0  0
  -21.3659   -5.6793   24.9175 C   0  0  0  0  0  0
  -21.6044   -4.3056   24.7227 C   0  0  0  0  0  0
  -21.8819   -3.8147   23.4347 C   0  0  0  0  0  0
  -21.9192   -4.6964   22.3401 C   0  0  0  0  0  0
  -22.7846  -13.5237   21.1853 C   0  0  0  0  0  0
  -22.1661   -4.2150   21.0979 F   0  0  0  0  0  0
  -21.5629   -3.4539   25.7738 F   0  0  0  0  0  0
  -30.0226  -13.3497   20.4269 N   0  0  0  0  0  0
  -26.2994  -12.9368   20.3348 N   0  0  0  0  0  0
  -25.9323  -11.6520   20.5778 N   0  0  0  0  0  0
  -22.0486  -12.8229   22.0407 N   0  0  0  0  0  0
  -25.4267  -15.1901   20.4078 N   0  0  0  0  0  0
  -31.8625  -14.6345   20.1082 O   0  0  0  0  0  0
  -21.6639   -6.8880   21.4241 O   0  0  0  0  0  0
  -22.3532  -14.5545   20.6703 O   0  0  0  0  0  0
  -24.6187  -31.8657   23.2087 C   0  0  0  0  0  0
  -25.9067  -32.4809   23.8389 C   0  0  1  0  0  0
  -27.2239  -27.3965   20.1059 C   0  0  0  0  0  0
  -25.5911  -33.8610   24.2317 N   0  0  0  0  0  0
  -23.4087  -30.4899   21.5498 C   0  0  2  0  0  0
  -24.8558  -28.9571   20.1097 C   0  0  0  0  0  0
  -22.7434  -29.4646   22.4973 C   0  0  0  0  0  0
  -18.0273  -28.1376   22.8483 C   0  0  0  0  0  0
  -24.1489  -36.7308   23.2639 C   0  0  0  0  0  0
  -25.9425  -30.8206   21.3686 C   0  0  0  0  0  0
  -26.0199  -29.4543   20.7109 C   0  0  0  0  0  0
  -27.2112  -28.6832   20.7035 C   0  0  0  0  0  0
  -26.0475  -26.9363   19.4754 C   0  0  0  0  0  0
  -24.8666  -27.6995   19.4850 C   0  0  0  0  0  0
  -23.6194  -29.8270   20.1627 C   0  0  0  0  0  0
  -25.4110  -36.3104   24.0334 C   0  0  1  0  0  0
  -20.5868  -28.3669   23.1303 C   0  0  2  0  0  0
  -20.6767  -26.9403   22.5413 C   0  0  0  0  0  0
  -19.5746  -26.6383   21.5206 C   0  0  0  0  0  0
  -18.1922  -26.7917   22.1620 C   0  0  0  0  0  0
  -19.1523  -28.8839   23.2888 C   0  0  0  0  0  0
  -18.9454  -30.1446   23.8903 C   0  0  0  0  0  0
  -17.6458  -30.6585   24.0563 C   0  0  0  0  0  0
  -25.9039  -34.9469   23.5121 C   0  0  0  0  0  0
  -16.5348  -29.9087   23.6331 C   0  0  0  0  0  0
  -16.7264  -28.6502   23.0349 C   0  0  0  0  0  0
  -26.4481  -31.6596   25.0728 C   0  0  0  0  0  0
  -25.3738  -31.3713   26.1473 C   0  0  0  0  0  0
  -27.0311  -30.3033   24.6122 C   0  0  0  0  0  0
  -27.6055  -32.4318   25.7489 C   0  0  0  0  0  0
  -27.5581  -37.1808   24.8465 C   0  0  0  0  0  0
  -21.4158  -29.3034   22.3715 N   0  0  0  0  0  0
  -26.4294  -37.3791   23.9409 N   0  0  0  0  0  0
  -24.6751  -31.0730   22.1004 N   0  0  0  0  0  0
  -23.4191  -28.8183   23.3024 O   0  0  0  0  0  0
  -28.3367  -26.5716   20.1475 O   0  0  0  0  0  0
  -26.5606  -34.8927   22.4685 O   0  0  0  0  0  0
  -23.5372  -32.1427   23.7460 O   0  0  0  0  0  0
  -32.3678  -18.3905   21.9799 C   0  0  0  0  0  0
  -31.6099  -19.5334   21.6736 C   0  0  0  0  0  0
  -31.8456  -17.1063   21.7531 C   0  0  0  0  0  0
  -29.7795  -18.1055   20.9275 C   0  0  0  0  0  0
  -30.3067  -19.4204   21.1314 C   0  0  0  0  0  0
  -30.5508  -16.9339   21.2097 C   0  0  0  0  0  0
  -28.8785  -22.8832   20.6996 C   0  0  0  0  0  0
  -29.1425  -24.2192   20.6644 C   0  0  0  0  0  0
  -29.9359  -21.8697   20.6081 C   0  0  0  0  0  0
  -28.0903  -25.3219   20.8467 C   0  0  0  0  0  0
  -29.5131  -20.6023   20.8693 N   0  0  0  0  0  0
  -30.0296  -15.6021   20.9977 N   0  0  0  0  0  0
  -31.1017  -22.1349   20.3022 O   0  0  0  0  0  0
  -31.4606  -12.4139   19.1350 H   0  0  0  0  0  0
  -30.3107  -11.3325   19.8650 H   0  0  0  0  0  0
  -29.7403  -11.7569   17.4508 H   0  0  0  0  0  0
  -29.6555  -13.4743   17.7556 H   0  0  0  0  0  0
  -27.8384  -11.3000   18.8468 H   0  0  0  0  0  0
  -27.3637  -12.6032   17.7910 H   0  0  0  0  0  0
  -27.6822  -14.2556   19.5385 H   0  0  0  0  0  0
  -28.6846  -12.0355   21.3866 H   0  0  0  0  0  0
  -28.4625  -13.7005   21.8407 H   0  0  0  0  0  0
  -25.2761   -9.5688   22.4763 H   0  0  0  0  0  0
  -24.0003   -7.4635   22.7473 H   0  0  0  0  0  0
  -21.0842   -8.8777   19.8950 H   0  0  0  0  0  0
  -22.3695  -10.9678   19.6167 H   0  0  0  0  0  0
  -21.2007   -7.6150   23.9717 H   0  0  0  0  0  0
  -21.1481   -6.0523   25.9078 H   0  0  0  0  0  0
  -22.0598   -2.7610   23.2846 H   0  0  0  0  0  0
  -22.4098  -11.9889   22.4796 H   0  0  0  0  0  0
  -21.1104  -13.1256   22.2613 H   0  0  0  0  0  0
  -24.6583  -15.8443   20.5102 H   0  0  0  0  0  0
  -26.2743  -15.6272   20.0691 H   0  0  0  0  0  0
  -26.7139  -32.5514   23.1154 H   0  0  0  0  0  0
  -25.0072  -33.9769   25.0468 H   0  0  0  0  0  0
  -22.6986  -31.3077   21.4110 H   0  0  0  0  0  0
  -23.3750  -35.9644   23.3309 H   0  0  0  0  0  0
  -24.3583  -36.8916   22.2052 H   0  0  0  0  0  0
  -23.7240  -37.6514   23.6648 H   0  0  0  0  0  0
  -26.0612  -31.5879   20.6022 H   0  0  0  0  0  0
  -26.8274  -30.8708   21.9911 H   0  0  0  0  0  0
  -28.1057  -29.0548   21.1843 H   0  0  0  0  0  0
  -26.0344  -25.9741   18.9829 H   0  0  0  0  0  0
  -23.9751  -27.3140   19.0099 H   0  0  0  0  0  0
  -23.7298  -30.6047   19.4058 H   0  0  0  0  0  0
  -22.7420  -29.2499   19.8652 H   0  0  0  0  0  0
  -25.1284  -36.1973   25.0827 H   0  0  0  0  0  0
  -20.9954  -28.3239   24.1427 H   0  0  0  0  0  0
  -20.5669  -26.2279   23.3602 H   0  0  0  0  0  0
  -21.6638  -26.7448   22.1204 H   0  0  0  0  0  0
  -19.6915  -25.6297   21.1232 H   0  0  0  0  0  0
  -19.6688  -27.3201   20.6739 H   0  0  0  0  0  0
  -17.4191  -26.6663   21.4023 H   0  0  0  0  0  0
  -18.0329  -26.0058   22.9015 H   0  0  0  0  0  0
  -19.7935  -30.7250   24.2282 H   0  0  0  0  0  0
  -17.5018  -31.6267   24.5159 H   0  0  0  0  0  0
  -15.5348  -30.2994   23.7653 H   0  0  0  0  0  0
  -15.8658  -28.0829   22.7063 H   0  0  0  0  0  0
  -24.5904  -30.7070   25.7807 H   0  0  0  0  0  0
  -24.8942  -32.2875   26.4932 H   0  0  0  0  0  0
  -25.8086  -30.8871   27.0226 H   0  0  0  0  0  0
  -26.2860  -29.6797   24.1170 H   0  0  0  0  0  0
  -27.4063  -29.7273   25.4590 H   0  0  0  0  0  0
  -27.8707  -30.4340   23.9290 H   0  0  0  0  0  0
  -27.2673  -33.3616   26.2081 H   0  0  0  0  0  0
  -28.3858  -32.6884   25.0307 H   0  0  0  0  0  0
  -28.0730  -31.8430   26.5395 H   0  0  0  0  0  0
  -28.2602  -38.0105   24.7513 H   0  0  0  0  0  0
  -28.1072  -36.2633   24.6286 H   0  0  0  0  0  0
  -27.2299  -37.1455   25.8870 H   0  0  0  0  0  0
  -20.9326  -29.8766   21.6942 H   0  0  0  0  0  0
  -26.0186  -38.2870   24.1412 H   0  0  0  0  0  0
  -33.3578  -18.4998   22.4001 H   0  0  0  0  0  0
  -32.0478  -20.4976   21.8872 H   0  0  0  0  0  0
  -32.4576  -16.2530   22.0109 H   0  0  0  0  0  0
  -28.7797  -17.9948   20.5322 H   0  0  0  0  0  0
  -27.8540  -22.5611   20.8227 H   0  0  0  0  0  0
  -30.1605  -24.5629   20.5431 H   0  0  0  0  0  0
  -28.0527  -25.5552   21.9119 H   0  0  0  0  0  0
  -27.1213  -24.8860   20.6036 H   0  0  0  0  0  0
  -28.5116  -20.4856   20.9369 H   0  0  0  0  0  0
  -29.0422  -15.4649   21.1519 H   0  0  0  0  0  0
  1 25  1  0  0  0
  1 30  2  0  0  0
  1 82  1  0  0  0
  2  3  1  0  0  0
  2 25  1  0  0  0
  2 84  1  0  0  0
  2 85  1  0  0  0
  3  4  1  0  0  0
  3 86  1  0  0  0
  3 87  1  0  0  0
  4  5  1  0  0  0
  4 88  1  0  0  0
  4 89  1  0  0  0
  5  6  1  0  0  0
  5 26  1  0  0  0
  5 90  1  0  0  0
  6 25  1  0  0  0
  6 91  1  0  0  0
  6 92  1  0  0  0
  7  8  2  0  0  0
  7 26  1  0  0  0
  7 29  1  0  0  0
  8  9  1  0  0  0
  8 22  1  0  0  0
  9 10  1  0  0  0
  9 27  2  0  0  0
 10 11  2  0  0  0
 10 15  1  0  0  0
 11 12  1  0  0  0
 11 93  1  0  0  0
 12 13  2  0  0  0
 12 94  1  0  0  0
 13 14  1  0  0  0
 13 31  1  0  0  0
 14 15  2  0  0  0
 14 95  1  0  0  0
 15 96  1  0  0  0
 16 17  2  0  0  0
 16 21  1  0  0  0
 16 31  1  0  0  0
 17 18  1  0  0  0
 17 97  1  0  0  0
 18 19  2  0  0  0
 18 98  1  0  0  0
 19 20  1  0  0  0
 19 24  1  0  0  0
 20 21  2  0  0  0
 20 99  1  0  0  0
 21 23  1  0  0  0
 22 28  1  0  0  0
 22 32  2  0  0  0
 26 27  1  0  0  0
 28100  1  0  0  0
 28101  1  0  0  0
 29102  1  0  0  0
 29103  1  0  0  0
 33 34  1  0  0  0
 33 66  1  0  0  0
 33 70  2  0  0  0
 34 36  1  0  0  0
 34 59  1  0  0  0
 34104  1  0  0  0
 35 44  2  0  0  0
 35 45  1  0  0  0
 35 68  1  0  0  0
 36 56  1  0  0  0
 36105  1  0  0  0
 37 39  1  0  0  0
 37 47  1  0  0  0
 37 66  1  0  0  0
 37106  1  0  0  0
 38 43  2  0  0  0
 38 46  1  0  0  0
 38 47  1  0  0  0
 39 64  1  0  0  0
 39 67  2  0  0  0
 40 52  1  0  0  0
 40 53  2  0  0  0
 40 58  1  0  0  0
 41107  1  0  0  0
 41108  1  0  0  0
 41109  1  0  0  0
 41 48  1  0  0  0
 42 43  1  0  0  0
 42 66  1  0  0  0
 42110  1  0  0  0
 42111  1  0  0  0
 43 44  1  0  0  0
 44112  1  0  0  0
 45 46  2  0  0  0
 45113  1  0  0  0
 46114  1  0  0  0
 47115  1  0  0  0
 47116  1  0  0  0
 48 56  1  0  0  0
 48 65  1  0  0  0
 48117  1  0  0  0
 49 50  1  0  0  0
 49 53  1  0  0  0
 49 64  1  0  0  0
 49118  1  0  0  0
 50 51  1  0  0  0
 50119  1  0  0  0
 50120  1  0  0  0
 51 52  1  0  0  0
 51121  1  0  0  0
 51122  1  0  0  0
 52123  1  0  0  0
 52124  1  0  0  0
 53 54  1  0  0  0
 54 55  2  0  0  0
 54125  1  0  0  0
 55 57  1  0  0  0
 55126  1  0  0  0
 56 69  2  0  0  0
 57 58  2  0  0  0
 57127  1  0  0  0
 58128  1  0  0  0
 59 60  1  0  0  0
 59 61  1  0  0  0
 59 62  1  0  0  0
 60129  1  0  0  0
 60130  1  0  0  0
 60131  1  0  0  0
 61132  1  0  0  0
 61133  1  0  0  0
 61134  1  0  0  0
 62135  1  0  0  0
 62136  1  0  0  0
 62137  1  0  0  0
 63 65  1  0  0  0
 63138  1  0  0  0
 63139  1  0  0  0
 63140  1  0  0  0
 64141  1  0  0  0
 65142  1  0  0  0
 68 80  1  0  0  0
 71 72  2  0  0  0
 71 73  1  0  0  0
 71143  1  0  0  0
 72 75  1  0  0  0
 72144  1  0  0  0
 73 76  2  0  0  0
 73145  1  0  0  0
 74 75  2  0  0  0
 74 76  1  0  0  0
 74146  1  0  0  0
 75 81  1  0  0  0
 76 82  1  0  0  0
 77 78  2  0  0  0
 77 79  1  0  0  0
 77147  1  0  0  0
 78 80  1  0  0  0
 78148  1  0  0  0
 79 81  1  0  0  0
 79 83  2  0  0  0
 80149  1  0  0  0
 80150  1  0  0  0
 81151  1  0  0  0
 82152  1  0  0  0
M  ISO  4   1 100  68 101  80 101  82 100
M  END
> <chiral flag>
0

> <version>
0

> <s_m_source_file>
/data/baiqing/PycharmProjects/Reinvent-master-3.2/result/LINK_invent/BTK/process_docking_weight1_custom_product_contain_oxygen_bond_distance_aromatic_linkinvent_7_9_3/rearranged_h_0057.sdf

> <i_m_source_file_index>
84

> <r_mmod_Potential_Energy-OPLS-2005>
-49.5611343383789

> <r_mmod_Stretch_Energy-OPLS-2005>
49.6872673034668

> <r_mmod_Bend_Energy-OPLS-2005>
97.8554916381836

> <r_mmod_Torsional_Energy-OPLS-2005>
250.232345581055

> <r_mmod_Improper_Torsional_Energy-OPLS-2005>
4.59473848342896

> <r_mmod_Van_der_Waal_Energy-OPLS-2005>
160.846084594727

> <r_mmod_Electrostatic_Energy-OPLS-2005>
-399.101959228516

> <r_mmod_Solvation_Energy-OPLS-2005>
-237.277526855469

> <b_mmod_Minimization_Converged-OPLS-2005>
0

> <r_mmod_RMS_Derivative-OPLS-2005>
0.667279124259949

$$$$
85
                    3D
 Structure written by MMmdl.
165174  0  0  1  0            999 V2000
  -30.6216  -14.6229   20.5127 C   0  0  0  0  0  0
  -30.4384  -12.3836   19.4506 C   0  0  0  0  0  0
  -29.5064  -12.5113   18.2238 C   0  0  0  0  0  0
  -28.0291  -12.3500   18.6353 C   0  0  0  0  0  0
  -27.6562  -13.2143   19.8692 C   0  0  2  0  0  0
  -28.6999  -13.0484   20.9976 C   0  0  0  0  0  0
  -25.2571  -13.8169   20.5694 C   0  0  0  0  0  0
  -24.1829  -13.0440   20.9190 C   0  0  0  0  0  0
  -24.6392  -11.6908   20.8737 C   0  0  0  0  0  0
  -23.9061  -10.4294   21.0404 C   0  0  0  0  0  0
  -24.3614   -9.4205   21.9180 C   0  0  0  0  0  0
  -23.6290   -8.2240   22.0750 C   0  0  0  0  0  0
  -22.4269   -8.0281   21.3545 C   0  0  0  0  0  0
  -21.9906   -9.0254   20.4646 C   0  0  0  0  0  0
  -22.7232  -10.2134   20.3053 C   0  0  0  0  0  0
  -21.6850   -6.0734   22.5281 C   0  0  0  0  0  0
  -21.4009   -6.5638   23.8214 C   0  0  0  0  0  0
  -21.3658   -5.6791   24.9176 C   0  0  0  0  0  0
  -21.6044   -4.3054   24.7224 C   0  0  0  0  0  0
  -21.8820   -3.8149   23.4344 C   0  0  0  0  0  0
  -21.9191   -4.6964   22.3403 C   0  0  0  0  0  0
  -22.7852  -13.5234   21.1854 C   0  0  0  0  0  0
  -22.1662   -4.2150   21.0979 F   0  0  0  0  0  0
  -21.5631   -3.4535   25.7736 F   0  0  0  0  0  0
  -30.0189  -13.3941   20.4419 N   0  0  0  0  0  0
  -26.3002  -12.9348   20.3343 N   0  0  0  0  0  0
  -25.9324  -11.6504   20.5757 N   0  0  0  0  0  0
  -22.0495  -12.8223   22.0411 N   0  0  0  0  0  0
  -25.4295  -15.1889   20.4130 N   0  0  0  0  0  0
  -31.7680  -14.8002   20.0882 O   0  0  0  0  0  0
  -21.6639   -6.8875   21.4240 O   0  0  0  0  0  0
  -22.3538  -14.5540   20.6703 O   0  0  0  0  0  0
  -24.6232  -31.8606   23.2024 C   0  0  0  0  0  0
  -25.9088  -32.4786   23.8354 C   0  0  1  0  0  0
  -27.2302  -27.3380   20.1274 C   0  0  0  0  0  0
  -25.5925  -33.8580   24.2295 N   0  0  0  0  0  0
  -23.4175  -30.4815   21.5447 C   0  0  2  0  0  0
  -24.8665  -28.9336   20.1160 C   0  0  0  0  0  0
  -22.7467  -29.4617   22.4955 C   0  0  0  0  0  0
  -18.0290  -28.1371   22.8491 C   0  0  0  0  0  0
  -24.1485  -36.7273   23.2638 C   0  0  0  0  0  0
  -25.9546  -30.7993   21.3689 C   0  0  0  0  0  0
  -26.0326  -29.4253   20.7173 C   0  0  0  0  0  0
  -27.2204  -28.6398   20.7099 C   0  0  0  0  0  0
  -26.0458  -26.8900   19.5047 C   0  0  0  0  0  0
  -24.8732  -27.6713   19.5009 C   0  0  0  0  0  0
  -23.6326  -29.8113   20.1619 C   0  0  0  0  0  0
  -25.4109  -36.3079   24.0338 C   0  0  1  0  0  0
  -20.5888  -28.3660   23.1296 C   0  0  2  0  0  0
  -20.6773  -26.9386   22.5417 C   0  0  0  0  0  0
  -19.5752  -26.6377   21.5210 C   0  0  0  0  0  0
  -18.1932  -26.7916   22.1626 C   0  0  0  0  0  0
  -19.1542  -28.8833   23.2891 C   0  0  0  0  0  0
  -18.9464  -30.1444   23.8897 C   0  0  0  0  0  0
  -17.6464  -30.6581   24.0560 C   0  0  0  0  0  0
  -25.9050  -34.9450   23.5113 C   0  0  0  0  0  0
  -16.5351  -29.9077   23.6334 C   0  0  0  0  0  0
  -16.7282  -28.6493   23.0357 C   0  0  0  0  0  0
  -26.4494  -31.6586   25.0703 C   0  0  0  0  0  0
  -25.3742  -31.3720   26.1443 C   0  0  0  0  0  0
  -27.0322  -30.3021   24.6113 C   0  0  0  0  0  0
  -27.6073  -32.4300   25.7470 C   0  0  0  0  0  0
  -27.5582  -37.1787   24.8466 C   0  0  0  0  0  0
  -21.4182  -29.3024   22.3700 N   0  0  0  0  0  0
  -26.4282  -37.3778   23.9427 N   0  0  0  0  0  0
  -24.6836  -31.0633   22.0966 N   0  0  0  0  0  0
  -23.4196  -28.8161   23.3027 O   0  0  0  0  0  0
  -28.3555  -26.5117   20.1381 O   0  0  0  0  0  0
  -26.5597  -34.8911   22.4669 O   0  0  0  0  0  0
  -23.5401  -32.1402   23.7362 O   0  0  0  0  0  0
  -30.5573  -19.1639   19.5815 C   0  0  0  0  0  0
  -30.6938  -17.7672   19.8294 C   0  0  0  0  0  0
  -28.8757  -17.9029   21.3851 C   0  0  0  0  0  0
  -29.5635  -19.9879   20.1920 C   0  0  0  0  0  0
  -28.7363  -19.3116   21.1464 C   0  0  0  0  0  0
  -29.8358  -17.0883   20.7272 C   0  0  0  0  0  0
  -25.5959  -21.1899   21.9107 C   0  0  0  0  0  0
  -26.5336  -20.2789   21.2337 C   0  0  0  0  0  0
  -27.9839  -20.3300   23.1729 C   0  0  0  0  0  0
  -24.3798  -21.3989   21.3707 C   0  0  0  0  0  0
  -29.0760  -22.5896   20.4344 C   0  0  0  0  0  0
  -29.4365  -21.4525   19.7374 C   0  0  0  0  0  0
  -28.9875  -24.0176   19.8818 C   0  0  0  0  0  0
  -26.0154  -21.8893   23.1877 C   0  0  0  0  0  0
  -26.8984  -20.9776   24.0321 C   0  0  0  0  0  0
  -28.1713  -25.1319   20.6375 C   0  0  0  0  0  0
  -27.7170  -20.0107   21.8722 N   0  0  0  0  0  0
  -29.8350  -15.6451   20.9701 N   0  0  0  0  0  0
  -26.2806  -19.7806   20.1275 O   0  0  0  0  0  0
  -29.0813  -20.1231   23.7061 O   0  0  0  0  0  0
  -29.5647  -24.3599   18.8439 O   0  0  0  0  0  0
  -29.6739  -21.5474   18.4202 O   0  0  0  0  0  0
  -31.4797  -12.5086   19.1488 H   0  0  0  0  0  0
  -30.3719  -11.3828   19.8808 H   0  0  0  0  0  0
  -29.7682  -11.7658   17.4715 H   0  0  0  0  0  0
  -29.6499  -13.4835   17.7503 H   0  0  0  0  0  0
  -27.8636  -11.2959   18.8608 H   0  0  0  0  0  0
  -27.3738  -12.5853   17.7960 H   0  0  0  0  0  0
  -27.6807  -14.2534   19.5404 H   0  0  0  0  0  0
  -28.7075  -12.0189   21.3600 H   0  0  0  0  0  0
  -28.4432  -13.6614   21.8635 H   0  0  0  0  0  0
  -25.2760   -9.5681   22.4747 H   0  0  0  0  0  0
  -24.0004   -7.4629   22.7466 H   0  0  0  0  0  0
  -21.0838   -8.8767   19.8952 H   0  0  0  0  0  0
  -22.3689  -10.9668   19.6159 H   0  0  0  0  0  0
  -21.1998   -7.6145   23.9713 H   0  0  0  0  0  0
  -21.1479   -6.0522   25.9077 H   0  0  0  0  0  0
  -22.0599   -2.7608   23.2841 H   0  0  0  0  0  0
  -22.4108  -11.9883   22.4798 H   0  0  0  0  0  0
  -21.1112  -13.1245   22.2620 H   0  0  0  0  0  0
  -24.6593  -15.8412   20.5127 H   0  0  0  0  0  0
  -26.2778  -15.6271   20.0770 H   0  0  0  0  0  0
  -26.7145  -32.5469   23.1101 H   0  0  0  0  0  0
  -25.0118  -33.9731   25.0469 H   0  0  0  0  0  0
  -22.7109  -31.3012   21.3996 H   0  0  0  0  0  0
  -23.3764  -35.9587   23.3285 H   0  0  0  0  0  0
  -24.3594  -36.8901   22.2058 H   0  0  0  0  0  0
  -23.7208  -37.6461   23.6656 H   0  0  0  0  0  0
  -26.0789  -31.5628   20.5993 H   0  0  0  0  0  0
  -26.8375  -30.8541   21.9943 H   0  0  0  0  0  0
  -28.1183  -29.0151   21.1810 H   0  0  0  0  0  0
  -26.0215  -25.9247   19.0190 H   0  0  0  0  0  0
  -23.9791  -27.2921   19.0247 H   0  0  0  0  0  0
  -23.7493  -30.5843   19.4014 H   0  0  0  0  0  0
  -22.7547  -29.2362   19.8632 H   0  0  0  0  0  0
  -25.1291  -36.1931   25.0830 H   0  0  0  0  0  0
  -20.9990  -28.3216   24.1414 H   0  0  0  0  0  0
  -20.5671  -26.2261   23.3611 H   0  0  0  0  0  0
  -21.6641  -26.7424   22.1205 H   0  0  0  0  0  0
  -19.6910  -25.6294   21.1234 H   0  0  0  0  0  0
  -19.6687  -27.3192   20.6744 H   0  0  0  0  0  0
  -17.4208  -26.6675   21.4020 H   0  0  0  0  0  0
  -18.0331  -26.0061   22.9026 H   0  0  0  0  0  0
  -19.7938  -30.7265   24.2258 H   0  0  0  0  0  0
  -17.5018  -31.6266   24.5155 H   0  0  0  0  0  0
  -15.5350  -30.2975   23.7657 H   0  0  0  0  0  0
  -15.8688  -28.0815   22.7061 H   0  0  0  0  0  0
  -24.5907  -30.7077   25.7782 H   0  0  0  0  0  0
  -24.8932  -32.2876   26.4883 H   0  0  0  0  0  0
  -25.8078  -30.8892   27.0210 H   0  0  0  0  0  0
  -26.2867  -29.6770   24.1170 H   0  0  0  0  0  0
  -27.4099  -29.7273   25.4583 H   0  0  0  0  0  0
  -27.8712  -30.4342   23.9272 H   0  0  0  0  0  0
  -27.2731  -33.3628   26.2020 H   0  0  0  0  0  0
  -28.3903  -32.6801   25.0296 H   0  0  0  0  0  0
  -28.0710  -31.8416   26.5404 H   0  0  0  0  0  0
  -28.2586  -38.0099   24.7552 H   0  0  0  0  0  0
  -28.1095  -36.2637   24.6248 H   0  0  0  0  0  0
  -27.2308  -37.1380   25.8868 H   0  0  0  0  0  0
  -20.9353  -29.8754   21.6924 H   0  0  0  0  0  0
  -26.0167  -38.2848   24.1452 H   0  0  0  0  0  0
  -31.2457  -19.6007   18.8720 H   0  0  0  0  0  0
  -31.4563  -17.2230   19.2908 H   0  0  0  0  0  0
  -28.2039  -17.4311   22.0890 H   0  0  0  0  0  0
  -24.0632  -20.9156   20.4566 H   0  0  0  0  0  0
  -23.6723  -22.0686   21.8366 H   0  0  0  0  0  0
  -28.8456  -22.5012   21.4838 H   0  0  0  0  0  0
  -25.1410  -22.2020   23.7602 H   0  0  0  0  0  0
  -26.5620  -22.7959   22.9237 H   0  0  0  0  0  0
  -27.3529  -21.5377   24.8505 H   0  0  0  0  0  0
  -26.3052  -20.1817   24.4838 H   0  0  0  0  0  0
  -28.4747  -25.1161   21.6843 H   0  0  0  0  0  0
  -27.1217  -24.8402   20.6265 H   0  0  0  0  0  0
  -29.0041  -15.3050   21.4291 H   0  0  0  0  0  0
  -29.8287  -20.6684   18.0981 H   0  0  0  0  0  0
  1 25  1  0  0  0
  1 30  2  0  0  0
  1 88  1  0  0  0
  2  3  1  0  0  0
  2 25  1  0  0  0
  2 93  1  0  0  0
  2 94  1  0  0  0
  3  4  1  0  0  0
  3 95  1  0  0  0
  3 96  1  0  0  0
  4  5  1  0  0  0
  4 97  1  0  0  0
  4 98  1  0  0  0
  5  6  1  0  0  0
  5 26  1  0  0  0
  5 99  1  0  0  0
  6 25  1  0  0  0
  6100  1  0  0  0
  6101  1  0  0  0
  7  8  2  0  0  0
  7 26  1  0  0  0
  7 29  1  0  0  0
  8  9  1  0  0  0
  8 22  1  0  0  0
  9 10  1  0  0  0
  9 27  2  0  0  0
 10 11  2  0  0  0
 10 15  1  0  0  0
 11 12  1  0  0  0
 11102  1  0  0  0
 12 13  2  0  0  0
 12103  1  0  0  0
 13 14  1  0  0  0
 13 31  1  0  0  0
 14 15  2  0  0  0
 14104  1  0  0  0
 15105  1  0  0  0
 16 17  2  0  0  0
 16 21  1  0  0  0
 16 31  1  0  0  0
 17 18  1  0  0  0
 17106  1  0  0  0
 18 19  2  0  0  0
 18107  1  0  0  0
 19 20  1  0  0  0
 19 24  1  0  0  0
 20 21  2  0  0  0
 20108  1  0  0  0
 21 23  1  0  0  0
 22 28  1  0  0  0
 22 32  2  0  0  0
 26 27  1  0  0  0
 28109  1  0  0  0
 28110  1  0  0  0
 29111  1  0  0  0
 29112  1  0  0  0
 33 34  1  0  0  0
 33 66  1  0  0  0
 33 70  2  0  0  0
 34 36  1  0  0  0
 34 59  1  0  0  0
 34113  1  0  0  0
 35 44  2  0  0  0
 35 45  1  0  0  0
 35 68  1  0  0  0
 36 56  1  0  0  0
 36114  1  0  0  0
 37 39  1  0  0  0
 37 47  1  0  0  0
 37 66  1  0  0  0
 37115  1  0  0  0
 38 43  2  0  0  0
 38 46  1  0  0  0
 38 47  1  0  0  0
 39 64  1  0  0  0
 39 67  2  0  0  0
 40 52  1  0  0  0
 40 53  2  0  0  0
 40 58  1  0  0  0
 41116  1  0  0  0
 41117  1  0  0  0
 41118  1  0  0  0
 41 48  1  0  0  0
 42 43  1  0  0  0
 42 66  1  0  0  0
 42119  1  0  0  0
 42120  1  0  0  0
 43 44  1  0  0  0
 44121  1  0  0  0
 45 46  2  0  0  0
 45122  1  0  0  0
 46123  1  0  0  0
 47124  1  0  0  0
 47125  1  0  0  0
 48 56  1  0  0  0
 48 65  1  0  0  0
 48126  1  0  0  0
 49 50  1  0  0  0
 49 53  1  0  0  0
 49 64  1  0  0  0
 49127  1  0  0  0
 50 51  1  0  0  0
 50128  1  0  0  0
 50129  1  0  0  0
 51 52  1  0  0  0
 51130  1  0  0  0
 51131  1  0  0  0
 52132  1  0  0  0
 52133  1  0  0  0
 53 54  1  0  0  0
 54 55  2  0  0  0
 54134  1  0  0  0
 55 57  1  0  0  0
 55135  1  0  0  0
 56 69  2  0  0  0
 57 58  2  0  0  0
 57136  1  0  0  0
 58137  1  0  0  0
 59 60  1  0  0  0
 59 61  1  0  0  0
 59 62  1  0  0  0
 60138  1  0  0  0
 60139  1  0  0  0
 60140  1  0  0  0
 61141  1  0  0  0
 61142  1  0  0  0
 61143  1  0  0  0
 62144  1  0  0  0
 62145  1  0  0  0
 62146  1  0  0  0
 63 65  1  0  0  0
 63147  1  0  0  0
 63148  1  0  0  0
 63149  1  0  0  0
 64150  1  0  0  0
 65151  1  0  0  0
 68 86  1  0  0  0
 71 72  2  0  0  0
 71 74  1  0  0  0
 71152  1  0  0  0
 72 76  1  0  0  0
 72153  1  0  0  0
 73 75  1  0  0  0
 73 76  2  0  0  0
 73154  1  0  0  0
 74 75  2  0  0  0
 74 82  1  0  0  0
 75 87  1  0  0  0
 76 88  1  0  0  0
 77 78  1  0  0  0
 77 80  2  0  0  0
 77 84  1  0  0  0
 78 87  1  0  0  0
 78 89  2  0  0  0
 79 85  1  0  0  0
 79 87  1  0  0  0
 79 90  2  0  0  0
 80155  1  0  0  0
 80156  1  0  0  0
 81 82  2  0  0  0
 81 83  1  0  0  0
 81157  1  0  0  0
 82 92  1  0  0  0
 83 86  1  0  0  0
 83 91  2  0  0  0
 84 85  1  0  0  0
 84158  1  0  0  0
 84159  1  0  0  0
 85160  1  0  0  0
 85161  1  0  0  0
 86162  1  0  0  0
 86163  1  0  0  0
 88164  1  0  0  0
 92165  1  0  0  0
M  ISO  4   1 100  68 101  86 101  88 100
M  END
> <chiral flag>
0

> <version>
0

> <s_m_source_file>
/data/baiqing/PycharmProjects/Reinvent-master-3.2/result/LINK_invent/BTK/process_docking_weight1_custom_product_contain_oxygen_bond_distance_aromatic_linkinvent_7_9_3/rearranged_h_0057.sdf

> <i_m_source_file_index>
85

> <r_mmod_Potential_Energy-OPLS-2005>
137.13151550293

> <r_mmod_Stretch_Energy-OPLS-2005>
89.0699615478516

> <r_mmod_Bend_Energy-OPLS-2005>
143.91520690918

> <r_mmod_Torsional_Energy-OPLS-2005>
296.745666503906

> <r_mmod_Improper_Torsional_Energy-OPLS-2005>
3.99245476722717

> <r_mmod_Van_der_Waal_Energy-OPLS-2005>
170.208221435547

> <r_mmod_Electrostatic_Energy-OPLS-2005>
-329.991943359375

> <r_mmod_Solvation_Energy-OPLS-2005>
-277.189819335938

> <b_mmod_Minimization_Converged-OPLS-2005>
0

> <r_mmod_RMS_Derivative-OPLS-2005>
1.30387437343597

$$$$
86
                    3D
 Structure written by MMmdl.
153161  0  0  1  0            999 V2000
  -30.6737  -14.6274   20.5011 C   0  0  0  0  0  0
  -30.4220  -12.3863   19.4591 C   0  0  0  0  0  0
  -29.5012  -12.4955   18.2260 C   0  0  0  0  0  0
  -28.0261  -12.3378   18.6408 C   0  0  0  0  0  0
  -27.6481  -13.2244   19.8578 C   0  0  2  0  0  0
  -28.6933  -13.1160   20.9911 C   0  0  0  0  0  0
  -25.2534  -13.8192   20.5694 C   0  0  0  0  0  0
  -24.1815  -13.0444   20.9203 C   0  0  0  0  0  0
  -24.6396  -11.6918   20.8753 C   0  0  0  0  0  0
  -23.9072  -10.4292   21.0412 C   0  0  0  0  0  0
  -24.3620   -9.4206   21.9190 C   0  0  0  0  0  0
  -23.6293   -8.2242   22.0759 C   0  0  0  0  0  0
  -22.4277   -8.0280   21.3547 C   0  0  0  0  0  0
  -21.9914   -9.0255   20.4649 C   0  0  0  0  0  0
  -22.7246  -10.2134   20.3060 C   0  0  0  0  0  0
  -21.6851   -6.0738   22.5280 C   0  0  0  0  0  0
  -21.4010   -6.5642   23.8212 C   0  0  0  0  0  0
  -21.3658   -5.6794   24.9173 C   0  0  0  0  0  0
  -21.6045   -4.3057   24.7221 C   0  0  0  0  0  0
  -21.8821   -3.8151   23.4341 C   0  0  0  0  0  0
  -21.9192   -4.6968   22.3400 C   0  0  0  0  0  0
  -22.7833  -13.5228   21.1852 C   0  0  0  0  0  0
  -22.1662   -4.2153   21.0978 F   0  0  0  0  0  0
  -21.5629   -3.4541   25.7734 F   0  0  0  0  0  0
  -30.0063  -13.4339   20.4149 N   0  0  0  0  0  0
  -26.2967  -12.9390   20.3318 N   0  0  0  0  0  0
  -25.9327  -11.6540   20.5780 N   0  0  0  0  0  0
  -22.0477  -12.8218   22.0409 N   0  0  0  0  0  0
  -25.4235  -15.1912   20.4089 N   0  0  0  0  0  0
  -31.8458  -14.7062   20.1253 O   0  0  0  0  0  0
  -21.6640   -6.8880   21.4241 O   0  0  0  0  0  0
  -22.3519  -14.5535   20.6702 O   0  0  0  0  0  0
  -24.6255  -31.8604   23.2036 C   0  0  0  0  0  0
  -25.9108  -32.4784   23.8358 C   0  0  1  0  0  0
  -27.2219  -27.3269   20.1136 C   0  0  0  0  0  0
  -25.5923  -33.8582   24.2287 N   0  0  0  0  0  0
  -23.4178  -30.4852   21.5461 C   0  0  2  0  0  0
  -24.8631  -28.9431   20.1080 C   0  0  0  0  0  0
  -22.7467  -29.4629   22.4938 C   0  0  0  0  0  0
  -18.0280  -28.1381   22.8486 C   0  0  0  0  0  0
  -24.1483  -36.7286   23.2643 C   0  0  0  0  0  0
  -25.9581  -30.7933   21.3738 C   0  0  0  0  0  0
  -26.0304  -29.4219   20.7149 C   0  0  0  0  0  0
  -27.2113  -28.6243   20.7100 C   0  0  0  0  0  0
  -26.0338  -26.9030   19.4746 C   0  0  0  0  0  0
  -24.8665  -27.6888   19.4791 C   0  0  0  0  0  0
  -23.6308  -29.8221   20.1601 C   0  0  0  0  0  0
  -25.4109  -36.3086   24.0336 C   0  0  1  0  0  0
  -20.5882  -28.3681   23.1285 C   0  0  2  0  0  0
  -20.6770  -26.9404   22.5409 C   0  0  0  0  0  0
  -19.5746  -26.6382   21.5211 C   0  0  0  0  0  0
  -18.1924  -26.7928   22.1619 C   0  0  0  0  0  0
  -19.1535  -28.8846   23.2883 C   0  0  0  0  0  0
  -18.9463  -30.1451   23.8895 C   0  0  0  0  0  0
  -17.6465  -30.6587   24.0563 C   0  0  0  0  0  0
  -25.9048  -34.9455   23.5110 C   0  0  0  0  0  0
  -16.5352  -29.9086   23.6336 C   0  0  0  0  0  0
  -16.7268  -28.6502   23.0355 C   0  0  0  0  0  0
  -26.4492  -31.6592   25.0724 C   0  0  0  0  0  0
  -25.3733  -31.3716   26.1458 C   0  0  0  0  0  0
  -27.0342  -30.3024   24.6163 C   0  0  0  0  0  0
  -27.6054  -32.4327   25.7489 C   0  0  0  0  0  0
  -27.5574  -37.1799   24.8470 C   0  0  0  0  0  0
  -21.4182  -29.3039   22.3684 N   0  0  0  0  0  0
  -26.4285  -37.3784   23.9416 N   0  0  0  0  0  0
  -24.6859  -31.0626   22.0980 N   0  0  0  0  0  0
  -23.4197  -28.8174   23.3016 O   0  0  0  0  0  0
  -28.3443  -26.4886   20.1807 O   0  0  0  0  0  0
  -26.5616  -34.8922   22.4677 O   0  0  0  0  0  0
  -23.5423  -32.1392   23.7376 O   0  0  0  0  0  0
  -32.1569  -18.8182   21.2821 C   0  0  0  0  0  0
  -31.7228  -17.4839   21.1567 C   0  0  0  0  0  0
  -31.2533  -19.8890   21.1485 C   0  0  0  0  0  0
  -29.4591  -18.2745   20.7479 C   0  0  0  0  0  0
  -30.3700  -17.1607   20.8787 C   0  0  0  0  0  0
  -29.8955  -19.6441   20.8712 C   0  0  0  0  0  0
  -29.2709  -24.0715   20.5375 C   0  0  0  0  0  0
  -28.1809  -25.0407   19.9250 C   0  0  0  0  0  0
  -29.4780  -22.5966   19.9572 C   0  0  0  0  0  0
  -29.9430  -15.7549   20.8009 N   0  0  0  0  0  0
  -27.5172  -20.7318   20.1957 O   0  0  0  0  0  0
  -28.6308  -21.5327   22.3071 O   0  0  0  0  0  0
  -28.7537  -21.1155   20.8992 S   0  0  0  0  0  0
  -31.4663  -12.4814   19.1575 H   0  0  0  0  0  0
  -30.3368  -11.4005   19.9191 H   0  0  0  0  0  0
  -29.7649  -11.7346   17.4902 H   0  0  0  0  0  0
  -29.6468  -13.4598   17.7368 H   0  0  0  0  0  0
  -27.8667  -11.2873   18.8873 H   0  0  0  0  0  0
  -27.3700  -12.5544   17.7968 H   0  0  0  0  0  0
  -27.6576  -14.2534   19.4980 H   0  0  0  0  0  0
  -28.7025  -12.1106   21.4148 H   0  0  0  0  0  0
  -28.4460  -13.7888   21.8137 H   0  0  0  0  0  0
  -25.2764   -9.5682   22.4764 H   0  0  0  0  0  0
  -24.0003   -7.4635   22.7479 H   0  0  0  0  0  0
  -21.0849   -8.8773   19.8951 H   0  0  0  0  0  0
  -22.3708  -10.9671   19.6165 H   0  0  0  0  0  0
  -21.2001   -7.6150   23.9715 H   0  0  0  0  0  0
  -21.1478   -6.0524   25.9075 H   0  0  0  0  0  0
  -22.0602   -2.7614   23.2841 H   0  0  0  0  0  0
  -22.4089  -11.9874   22.4791 H   0  0  0  0  0  0
  -21.1095  -13.1244   22.2615 H   0  0  0  0  0  0
  -24.6535  -15.8435   20.5101 H   0  0  0  0  0  0
  -26.2675  -15.6289   20.0625 H   0  0  0  0  0  0
  -26.7177  -32.5453   23.1109 H   0  0  0  0  0  0
  -25.0071  -33.9723   25.0432 H   0  0  0  0  0  0
  -22.7113  -31.3061   21.4059 H   0  0  0  0  0  0
  -23.3753  -35.9611   23.3310 H   0  0  0  0  0  0
  -24.3575  -36.8897   22.2058 H   0  0  0  0  0  0
  -23.7222  -37.6485   23.6656 H   0  0  0  0  0  0
  -26.0893  -31.5572   20.6066 H   0  0  0  0  0  0
  -26.8393  -30.8399   22.0021 H   0  0  0  0  0  0
  -28.1054  -28.9853   21.1982 H   0  0  0  0  0  0
  -25.9777  -25.9487   18.9726 H   0  0  0  0  0  0
  -23.9734  -27.3183   18.9954 H   0  0  0  0  0  0
  -23.7474  -30.5998   19.4047 H   0  0  0  0  0  0
  -22.7510  -29.2517   19.8572 H   0  0  0  0  0  0
  -25.1291  -36.1939   25.0831 H   0  0  0  0  0  0
  -20.9967  -28.3248   24.1409 H   0  0  0  0  0  0
  -20.5671  -26.2283   23.3604 H   0  0  0  0  0  0
  -21.6637  -26.7437   22.1198 H   0  0  0  0  0  0
  -19.6903  -25.6296   21.1229 H   0  0  0  0  0  0
  -19.6687  -27.3203   20.6755 H   0  0  0  0  0  0
  -17.4194  -26.6679   21.4019 H   0  0  0  0  0  0
  -18.0321  -26.0067   22.9011 H   0  0  0  0  0  0
  -19.7945  -30.7264   24.2254 H   0  0  0  0  0  0
  -17.5026  -31.6268   24.5167 H   0  0  0  0  0  0
  -15.5354  -30.2988   23.7671 H   0  0  0  0  0  0
  -15.8664  -28.0825   22.7074 H   0  0  0  0  0  0
  -24.5916  -30.7050   25.7793 H   0  0  0  0  0  0
  -24.8911  -32.2872   26.4891 H   0  0  0  0  0  0
  -25.8071  -30.8895   27.0228 H   0  0  0  0  0  0
  -26.2908  -29.6768   24.1205 H   0  0  0  0  0  0
  -27.4079  -29.7282   25.4653 H   0  0  0  0  0  0
  -27.8758  -30.4333   23.9358 H   0  0  0  0  0  0
  -27.2672  -33.3635   26.2054 H   0  0  0  0  0  0
  -28.3865  -32.6872   25.0312 H   0  0  0  0  0  0
  -28.0719  -31.8456   26.5411 H   0  0  0  0  0  0
  -28.2603  -38.0088   24.7520 H   0  0  0  0  0  0
  -28.1056  -36.2618   24.6293 H   0  0  0  0  0  0
  -27.2288  -37.1450   25.8873 H   0  0  0  0  0  0
  -20.9353  -29.8756   21.6894 H   0  0  0  0  0  0
  -26.0165  -38.2857   24.1428 H   0  0  0  0  0  0
  -33.1940  -19.0212   21.5104 H   0  0  0  0  0  0
  -32.4634  -16.7127   21.3080 H   0  0  0  0  0  0
  -31.5986  -20.9020   21.2930 H   0  0  0  0  0  0
  -28.4078  -18.0936   20.5778 H   0  0  0  0  0  0
  -29.1482  -24.0295   21.6197 H   0  0  0  0  0  0
  -30.2229  -24.5837   20.3944 H   0  0  0  0  0  0
  -27.2184  -24.6964   20.3052 H   0  0  0  0  0  0
  -28.1584  -24.9040   18.8432 H   0  0  0  0  0  0
  -30.5495  -22.4095   19.9294 H   0  0  0  0  0  0
  -29.1587  -22.5209   18.9192 H   0  0  0  0  0  0
  -28.9598  -15.5840   20.9484 H   0  0  0  0  0  0
  1 25  1  0  0  0
  1 30  2  0  0  0
  1 80  1  0  0  0
  2  3  1  0  0  0
  2 25  1  0  0  0
  2 84  1  0  0  0
  2 85  1  0  0  0
  3  4  1  0  0  0
  3 86  1  0  0  0
  3 87  1  0  0  0
  4  5  1  0  0  0
  4 88  1  0  0  0
  4 89  1  0  0  0
  5  6  1  0  0  0
  5 26  1  0  0  0
  5 90  1  0  0  0
  6 25  1  0  0  0
  6 91  1  0  0  0
  6 92  1  0  0  0
  7  8  2  0  0  0
  7 26  1  0  0  0
  7 29  1  0  0  0
  8  9  1  0  0  0
  8 22  1  0  0  0
  9 10  1  0  0  0
  9 27  2  0  0  0
 10 11  2  0  0  0
 10 15  1  0  0  0
 11 12  1  0  0  0
 11 93  1  0  0  0
 12 13  2  0  0  0
 12 94  1  0  0  0
 13 14  1  0  0  0
 13 31  1  0  0  0
 14 15  2  0  0  0
 14 95  1  0  0  0
 15 96  1  0  0  0
 16 17  2  0  0  0
 16 21  1  0  0  0
 16 31  1  0  0  0
 17 18  1  0  0  0
 17 97  1  0  0  0
 18 19  2  0  0  0
 18 98  1  0  0  0
 19 20  1  0  0  0
 19 24  1  0  0  0
 20 21  2  0  0  0
 20 99  1  0  0  0
 21 23  1  0  0  0
 22 28  1  0  0  0
 22 32  2  0  0  0
 26 27  1  0  0  0
 28100  1  0  0  0
 28101  1  0  0  0
 29102  1  0  0  0
 29103  1  0  0  0
 33 34  1  0  0  0
 33 66  1  0  0  0
 33 70  2  0  0  0
 34 36  1  0  0  0
 34 59  1  0  0  0
 34104  1  0  0  0
 35 44  2  0  0  0
 35 45  1  0  0  0
 35 68  1  0  0  0
 36 56  1  0  0  0
 36105  1  0  0  0
 37 39  1  0  0  0
 37 47  1  0  0  0
 37 66  1  0  0  0
 37106  1  0  0  0
 38 43  2  0  0  0
 38 46  1  0  0  0
 38 47  1  0  0  0
 39 64  1  0  0  0
 39 67  2  0  0  0
 40 52  1  0  0  0
 40 53  2  0  0  0
 40 58  1  0  0  0
 41107  1  0  0  0
 41108  1  0  0  0
 41109  1  0  0  0
 41 48  1  0  0  0
 42 43  1  0  0  0
 42 66  1  0  0  0
 42110  1  0  0  0
 42111  1  0  0  0
 43 44  1  0  0  0
 44112  1  0  0  0
 45 46  2  0  0  0
 45113  1  0  0  0
 46114  1  0  0  0
 47115  1  0  0  0
 47116  1  0  0  0
 48 56  1  0  0  0
 48 65  1  0  0  0
 48117  1  0  0  0
 49 50  1  0  0  0
 49 53  1  0  0  0
 49 64  1  0  0  0
 49118  1  0  0  0
 50 51  1  0  0  0
 50119  1  0  0  0
 50120  1  0  0  0
 51 52  1  0  0  0
 51121  1  0  0  0
 51122  1  0  0  0
 52123  1  0  0  0
 52124  1  0  0  0
 53 54  1  0  0  0
 54 55  2  0  0  0
 54125  1  0  0  0
 55 57  1  0  0  0
 55126  1  0  0  0
 56 69  2  0  0  0
 57 58  2  0  0  0
 57127  1  0  0  0
 58128  1  0  0  0
 59 60  1  0  0  0
 59 61  1  0  0  0
 59 62  1  0  0  0
 60129  1  0  0  0
 60130  1  0  0  0
 60131  1  0  0  0
 61132  1  0  0  0
 61133  1  0  0  0
 61134  1  0  0  0
 62135  1  0  0  0
 62136  1  0  0  0
 62137  1  0  0  0
 63 65  1  0  0  0
 63138  1  0  0  0
 63139  1  0  0  0
 63140  1  0  0  0
 64141  1  0  0  0
 65142  1  0  0  0
 68 78  1  0  0  0
 71 72  2  0  0  0
 71 73  1  0  0  0
 71143  1  0  0  0
 72 75  1  0  0  0
 72144  1  0  0  0
 73 76  2  0  0  0
 73145  1  0  0  0
 74 75  2  0  0  0
 74 76  1  0  0  0
 74146  1  0  0  0
 75 80  1  0  0  0
 76 83  1  0  0  0
 77 78  1  0  0  0
 77 79  1  0  0  0
 77147  1  0  0  0
 77148  1  0  0  0
 78149  1  0  0  0
 78150  1  0  0  0
 79151  1  0  0  0
 79152  1  0  0  0
 79 83  1  0  0  0
 80153  1  0  0  0
 81 83  2  0  0  0
 82 83  2  0  0  0
M  ISO  4   1 100  68 101  78 101  80 100
M  END
> <chiral flag>
0

> <version>
0

> <s_m_source_file>
/data/baiqing/PycharmProjects/Reinvent-master-3.2/result/LINK_invent/BTK/process_docking_weight1_custom_product_contain_oxygen_bond_distance_aromatic_linkinvent_7_9_3/rearranged_h_0057.sdf

> <i_m_source_file_index>
86

> <r_mmod_Potential_Energy-OPLS-2005>
-90.0507431030273

> <r_mmod_Stretch_Energy-OPLS-2005>
79.8510437011719

> <r_mmod_Bend_Energy-OPLS-2005>
136.772766113281

> <r_mmod_Torsional_Energy-OPLS-2005>
224.874588012695

> <r_mmod_Improper_Torsional_Energy-OPLS-2005>
5.57812690734863

> <r_mmod_Van_der_Waal_Energy-OPLS-2005>
144.55403137207

> <r_mmod_Electrostatic_Energy-OPLS-2005>
-470.195343017578

> <r_mmod_Solvation_Energy-OPLS-2005>
-258.241760253906

> <b_mmod_Minimization_Converged-OPLS-2005>
0

> <r_mmod_RMS_Derivative-OPLS-2005>
0.739000976085663

$$$$
87
                    3D
 Structure written by MMmdl.
173182  0  0  1  0            999 V2000
  -30.5891  -14.6029   20.4557 C   0  0  0  0  0  0
  -30.4517  -12.3632   19.4324 C   0  0  0  0  0  0
  -29.4977  -12.4718   18.2174 C   0  0  0  0  0  0
  -28.0138  -12.3627   18.6426 C   0  0  0  0  0  0
  -27.6602  -13.1672   19.9250 C   0  0  2  0  0  0
  -28.7275  -12.9966   21.0217 C   0  0  0  0  0  0
  -25.2605  -13.8037   20.5974 C   0  0  0  0  0  0
  -24.1786  -13.0307   20.9267 C   0  0  0  0  0  0
  -24.6330  -11.6796   20.8834 C   0  0  0  0  0  0
  -23.9024  -10.4198   21.0442 C   0  0  0  0  0  0
  -24.3583   -9.4119   21.9237 C   0  0  0  0  0  0
  -23.6244   -8.2171   22.0804 C   0  0  0  0  0  0
  -22.4275   -8.0230   21.3536 C   0  0  0  0  0  0
  -21.9888   -9.0223   20.4686 C   0  0  0  0  0  0
  -22.7210  -10.2093   20.3082 C   0  0  0  0  0  0
  -21.6797   -6.0721   22.5280 C   0  0  0  0  0  0
  -21.3983   -6.5633   23.8208 C   0  0  0  0  0  0
  -21.3660   -5.6808   24.9185 C   0  0  0  0  0  0
  -21.6034   -4.3067   24.7244 C   0  0  0  0  0  0
  -21.8807   -3.8150   23.4370 C   0  0  0  0  0  0
  -21.9190   -4.6957   22.3416 C   0  0  0  0  0  0
  -22.7850  -13.5204   21.1833 C   0  0  0  0  0  0
  -22.1671   -4.2129   21.0992 F   0  0  0  0  0  0
  -21.5634   -3.4554   25.7754 F   0  0  0  0  0  0
  -30.0269  -13.3594   20.4283 N   0  0  0  0  0  0
  -26.3025  -12.9108   20.3796 N   0  0  0  0  0  0
  -25.9243  -11.6291   20.5961 N   0  0  0  0  0  0
  -22.0462  -12.8182   22.0376 N   0  0  0  0  0  0
  -25.4283  -15.1781   20.4569 N   0  0  0  0  0  0
  -31.7531  -14.8112   20.0952 O   0  0  0  0  0  0
  -21.6609   -6.8857   21.4242 O   0  0  0  0  0  0
  -22.3579  -14.5524   20.6707 O   0  0  0  0  0  0
  -24.6129  -31.8703   23.2080 C   0  0  0  0  0  0
  -25.9054  -32.4778   23.8361 C   0  0  1  0  0  0
  -27.2387  -27.4565   20.1166 C   0  0  0  0  0  0
  -25.5945  -33.8560   24.2310 N   0  0  0  0  0  0
  -23.3951  -30.4928   21.5540 C   0  0  2  0  0  0
  -24.8434  -28.9514   20.1200 C   0  0  0  0  0  0
  -22.7334  -29.4699   22.5046 C   0  0  0  0  0  0
  -18.0275  -28.1359   22.8503 C   0  0  0  0  0  0
  -24.1505  -36.7240   23.2617 C   0  0  0  0  0  0
  -25.9176  -30.8435   21.3568 C   0  0  0  0  0  0
  -25.9973  -29.4790   20.7070 C   0  0  0  0  0  0
  -27.1990  -28.7425   20.6966 C   0  0  0  0  0  0
  -26.0710  -26.9405   19.5066 C   0  0  0  0  0  0
  -24.8731  -27.6823   19.5153 C   0  0  0  0  0  0
  -23.5992  -29.8111   20.1725 C   0  0  0  0  0  0
  -25.4098  -36.3033   24.0346 C   0  0  1  0  0  0
  -20.5873  -28.3625   23.1392 C   0  0  2  0  0  0
  -20.6741  -26.9339   22.5537 C   0  0  0  0  0  0
  -19.5755  -26.6324   21.5293 C   0  0  0  0  0  0
  -18.1904  -26.7932   22.1598 C   0  0  0  0  0  0
  -19.1518  -28.8794   23.2963 C   0  0  0  0  0  0
  -18.9449  -30.1425   23.8951 C   0  0  0  0  0  0
  -17.6435  -30.6529   24.0613 C   0  0  0  0  0  0
  -25.9014  -34.9429   23.5099 C   0  0  0  0  0  0
  -16.5334  -29.9039   23.6338 C   0  0  0  0  0  0
  -16.7258  -28.6484   23.0318 C   0  0  0  0  0  0
  -26.4512  -31.6566   25.0690 C   0  0  0  0  0  0
  -25.3732  -31.3717   26.1420 C   0  0  0  0  0  0
  -27.0406  -30.3036   24.6068 C   0  0  0  0  0  0
  -27.6085  -32.4297   25.7450 C   0  0  0  0  0  0
  -27.5582  -37.1782   24.8476 C   0  0  0  0  0  0
  -21.4063  -29.3009   22.3768 N   0  0  0  0  0  0
  -26.4283  -37.3711   23.9417 N   0  0  0  0  0  0
  -24.6599  -31.0816   22.0966 N   0  0  0  0  0  0
  -23.4111  -28.8227   23.3088 O   0  0  0  0  0  0
  -28.4388  -26.7777   20.1077 O   0  0  0  0  0  0
  -26.5503  -34.8873   22.4612 O   0  0  0  0  0  0
  -23.5353  -32.1453   23.7534 O   0  0  0  0  0  0
  -29.8337  -19.3544   20.4839 C   0  0  0  0  0  0
  -29.0068  -19.6097   19.3729 C   0  0  0  0  0  0
  -30.0834  -18.0299   20.9037 C   0  0  0  0  0  0
  -27.0831  -23.4196   18.7755 C   0  0  0  0  0  0
  -27.1476  -22.4025   17.8115 C   0  0  0  0  0  0
  -25.8242  -21.9294   20.2177 C   0  0  0  0  0  0
  -28.4032  -18.5444   18.6727 C   0  0  0  0  0  0
  -25.8482  -20.9176   19.2296 C   0  0  0  0  0  0
  -28.7527  -17.2091   19.0378 C   0  0  0  0  0  0
  -26.5068  -23.1560   20.0380 C   0  0  0  0  0  0
  -26.6085  -21.1180   18.0427 C   0  0  0  0  0  0
  -29.5758  -16.9274   20.1767 C   0  0  0  0  0  0
  -26.0523  -21.0179   15.0004 C   0  0  0  0  0  0
  -26.9405  -20.3176   15.7211 C   0  0  0  0  0  0
  -27.4312  -24.9600   21.5675 C   0  0  0  0  0  0
  -25.0320  -19.6552   19.4640 C   0  0  0  0  0  0
  -28.2053  -16.0893   18.1819 C   0  0  0  0  0  0
  -27.3312  -18.7679   17.5737 C   0  0  0  0  0  0
  -28.5914  -25.4536   20.6704 C   0  0  0  0  0  0
  -26.5222  -24.0548   21.1454 N   0  0  0  0  0  0
  -29.7077  -15.5999   20.7411 N   0  0  0  0  0  0
  -26.9083  -20.1033   17.1016 N   0  0  0  0  0  0
  -27.3655  -25.3878   22.7217 O   0  0  0  0  0  0
  -31.4816  -12.5239   19.1072 H   0  0  0  0  0  0
  -30.4397  -11.3675   19.8716 H   0  0  0  0  0  0
  -29.7100  -11.6928   17.4854 H   0  0  0  0  0  0
  -29.6828  -13.4048   17.6871 H   0  0  0  0  0  0
  -27.8035  -11.3063   18.8103 H   0  0  0  0  0  0
  -27.3682  -12.6749   17.8222 H   0  0  0  0  0  0
  -27.6625  -14.2110   19.6863 H   0  0  0  0  0  0
  -28.7611  -11.9723   21.3895 H   0  0  0  0  0  0
  -28.4916  -13.6096   21.8921 H   0  0  0  0  0  0
  -25.2723   -9.5544   22.4834 H   0  0  0  0  0  0
  -23.9917   -7.4535   22.7503 H   0  0  0  0  0  0
  -21.0823   -8.8750   19.8969 H   0  0  0  0  0  0
  -22.3708  -10.9666   19.6206 H   0  0  0  0  0  0
  -21.1966   -7.6143   23.9670 H   0  0  0  0  0  0
  -21.1503   -6.0584   25.9079 H   0  0  0  0  0  0
  -22.0599   -2.7616   23.2878 H   0  0  0  0  0  0
  -22.4075  -11.9811   22.4689 H   0  0  0  0  0  0
  -21.1103  -13.1250   22.2588 H   0  0  0  0  0  0
  -24.6539  -15.8270   20.5566 H   0  0  0  0  0  0
  -26.2983  -15.6404   20.2359 H   0  0  0  0  0  0
  -26.7097  -32.5587   23.1113 H   0  0  0  0  0  0
  -25.0346  -33.9689   25.0642 H   0  0  0  0  0  0
  -22.6885  -31.3154   21.4091 H   0  0  0  0  0  0
  -23.3736  -35.9612   23.3271 H   0  0  0  0  0  0
  -24.3627  -36.8819   22.2033 H   0  0  0  0  0  0
  -23.7292  -37.6459   23.6599 H   0  0  0  0  0  0
  -26.0270  -31.6112   20.5909 H   0  0  0  0  0  0
  -26.8056  -30.9024   21.9757 H   0  0  0  0  0  0
  -28.0920  -29.1570   21.1416 H   0  0  0  0  0  0
  -26.0818  -25.9728   19.0295 H   0  0  0  0  0  0
  -23.9890  -27.2709   19.0470 H   0  0  0  0  0  0
  -22.7262  -29.2127   19.9039 H   0  0  0  0  0  0
  -23.6852  -30.5760   19.4011 H   0  0  0  0  0  0
  -25.1297  -36.1845   25.0836 H   0  0  0  0  0  0
  -21.0036  -28.3250   24.1471 H   0  0  0  0  0  0
  -20.5495  -26.2272   23.3741 H   0  0  0  0  0  0
  -21.6630  -26.7258   22.1435 H   0  0  0  0  0  0
  -19.6845  -25.6164   21.1454 H   0  0  0  0  0  0
  -19.6794  -27.3053   20.6768 H   0  0  0  0  0  0
  -17.4231  -26.6759   21.3902 H   0  0  0  0  0  0
  -18.0187  -26.0060   22.8953 H   0  0  0  0  0  0
  -19.7940  -30.7275   24.2240 H   0  0  0  0  0  0
  -17.4970  -31.6196   24.5200 H   0  0  0  0  0  0
  -15.5309  -30.2923   23.7543 H   0  0  0  0  0  0
  -15.8676  -28.0832   22.6947 H   0  0  0  0  0  0
  -24.5869  -30.7114   25.7730 H   0  0  0  0  0  0
  -24.8981  -32.2926   26.4833 H   0  0  0  0  0  0
  -25.8066  -30.8876   27.0195 H   0  0  0  0  0  0
  -26.3023  -29.6729   24.1097 H   0  0  0  0  0  0
  -27.4217  -29.7323   25.4549 H   0  0  0  0  0  0
  -27.8785  -30.4400   23.9213 H   0  0  0  0  0  0
  -27.2683  -33.3563   26.2085 H   0  0  0  0  0  0
  -28.3876  -32.6915   25.0267 H   0  0  0  0  0  0
  -28.0778  -31.8389   26.5336 H   0  0  0  0  0  0
  -28.2619  -38.0056   24.7505 H   0  0  0  0  0  0
  -28.1077  -36.2609   24.6337 H   0  0  0  0  0  0
  -27.2309  -37.1466   25.8876 H   0  0  0  0  0  0
  -20.9069  -29.8682   21.7061 H   0  0  0  0  0  0
  -26.0163  -38.2803   24.1325 H   0  0  0  0  0  0
  -30.2286  -20.1917   21.0464 H   0  0  0  0  0  0
  -28.8217  -20.6378   19.1029 H   0  0  0  0  0  0
  -30.6480  -17.8644   21.8112 H   0  0  0  0  0  0
  -27.5207  -24.3654   18.4936 H   0  0  0  0  0  0
  -27.6857  -22.6160   16.8993 H   0  0  0  0  0  0
  -25.3016  -21.7405   21.1478 H   0  0  0  0  0  0
  -26.1549  -21.1084   13.9243 H   0  0  0  0  0  0
  -25.2055  -21.5020   15.4678 H   0  0  0  0  0  0
  -27.7836  -19.8479   15.2270 H   0  0  0  0  0  0
  -25.6704  -18.8484   19.8270 H   0  0  0  0  0  0
  -24.5441  -19.3386   18.5397 H   0  0  0  0  0  0
  -24.2387  -19.8110   20.1982 H   0  0  0  0  0  0
  -28.2274  -16.3061   17.1177 H   0  0  0  0  0  0
  -27.1765  -15.8724   18.4670 H   0  0  0  0  0  0
  -28.8359  -15.2208   18.2864 H   0  0  0  0  0  0
  -26.4423  -18.2009   17.8434 H   0  0  0  0  0  0
  -27.6899  -18.2484   16.6860 H   0  0  0  0  0  0
  -28.9044  -24.7216   19.9345 H   0  0  0  0  0  0
  -29.4666  -25.5278   21.3175 H   0  0  0  0  0  0
  -25.8140  -23.8682   21.8401 H   0  0  0  0  0  0
  -28.8496  -15.2326   21.1234 H   0  0  0  0  0  0
  1 25  1  0  0  0
  1 30  2  0  0  0
  1 91  1  0  0  0
  2  3  1  0  0  0
  2 25  1  0  0  0
  2 94  1  0  0  0
  2 95  1  0  0  0
  3  4  1  0  0  0
  3 96  1  0  0  0
  3 97  1  0  0  0
  4  5  1  0  0  0
  4 98  1  0  0  0
  4 99  1  0  0  0
  5  6  1  0  0  0
  5 26  1  0  0  0
  5100  1  0  0  0
  6 25  1  0  0  0
  6101  1  0  0  0
  6102  1  0  0  0
  7  8  2  0  0  0
  7 26  1  0  0  0
  7 29  1  0  0  0
  8  9  1  0  0  0
  8 22  1  0  0  0
  9 10  1  0  0  0
  9 27  2  0  0  0
 10 11  2  0  0  0
 10 15  1  0  0  0
 11 12  1  0  0  0
 11103  1  0  0  0
 12 13  2  0  0  0
 12104  1  0  0  0
 13 14  1  0  0  0
 13 31  1  0  0  0
 14 15  2  0  0  0
 14105  1  0  0  0
 15106  1  0  0  0
 16 17  2  0  0  0
 16 21  1  0  0  0
 16 31  1  0  0  0
 17 18  1  0  0  0
 17107  1  0  0  0
 18 19  2  0  0  0
 18108  1  0  0  0
 19 20  1  0  0  0
 19 24  1  0  0  0
 20 21  2  0  0  0
 20109  1  0  0  0
 21 23  1  0  0  0
 22 28  1  0  0  0
 22 32  2  0  0  0
 26 27  1  0  0  0
 28110  1  0  0  0
 28111  1  0  0  0
 29112  1  0  0  0
 29113  1  0  0  0
 33 34  1  0  0  0
 33 66  1  0  0  0
 33 70  2  0  0  0
 34 36  1  0  0  0
 34 59  1  0  0  0
 34114  1  0  0  0
 35 44  2  0  0  0
 35 45  1  0  0  0
 35 68  1  0  0  0
 36 56  1  0  0  0
 36115  1  0  0  0
 37 39  1  0  0  0
 37 47  1  0  0  0
 37 66  1  0  0  0
 37116  1  0  0  0
 38 43  2  0  0  0
 38 46  1  0  0  0
 38 47  1  0  0  0
 39 64  1  0  0  0
 39 67  2  0  0  0
 40 52  1  0  0  0
 40 53  2  0  0  0
 40 58  1  0  0  0
 41117  1  0  0  0
 41118  1  0  0  0
 41119  1  0  0  0
 41 48  1  0  0  0
 42 43  1  0  0  0
 42 66  1  0  0  0
 42120  1  0  0  0
 42121  1  0  0  0
 43 44  1  0  0  0
 44122  1  0  0  0
 45 46  2  0  0  0
 45123  1  0  0  0
 46124  1  0  0  0
 47125  1  0  0  0
 47126  1  0  0  0
 48 56  1  0  0  0
 48 65  1  0  0  0
 48127  1  0  0  0
 49 50  1  0  0  0
 49 53  1  0  0  0
 49 64  1  0  0  0
 49128  1  0  0  0
 50 51  1  0  0  0
 50129  1  0  0  0
 50130  1  0  0  0
 51 52  1  0  0  0
 51131  1  0  0  0
 51132  1  0  0  0
 52133  1  0  0  0
 52134  1  0  0  0
 53 54  1  0  0  0
 54 55  2  0  0  0
 54135  1  0  0  0
 55 57  1  0  0  0
 55136  1  0  0  0
 56 69  2  0  0  0
 57 58  2  0  0  0
 57137  1  0  0  0
 58138  1  0  0  0
 59 60  1  0  0  0
 59 61  1  0  0  0
 59 62  1  0  0  0
 60139  1  0  0  0
 60140  1  0  0  0
 60141  1  0  0  0
 61142  1  0  0  0
 61143  1  0  0  0
 61144  1  0  0  0
 62145  1  0  0  0
 62146  1  0  0  0
 62147  1  0  0  0
 63 65  1  0  0  0
 63148  1  0  0  0
 63149  1  0  0  0
 63150  1  0  0  0
 64151  1  0  0  0
 65152  1  0  0  0
 68 89  1  0  0  0
 71 72  2  0  0  0
 71 73  1  0  0  0
 71153  1  0  0  0
 72 77  1  0  0  0
 72154  1  0  0  0
 73 82  2  0  0  0
 73155  1  0  0  0
 74 75  2  0  0  0
 74 80  1  0  0  0
 74156  1  0  0  0
 75 81  1  0  0  0
 75157  1  0  0  0
 76 78  1  0  0  0
 76 80  2  0  0  0
 76158  1  0  0  0
 77 79  2  0  0  0
 77 88  1  0  0  0
 78 81  2  0  0  0
 78 86  1  0  0  0
 79 82  1  0  0  0
 79 87  1  0  0  0
 80 90  1  0  0  0
 81 92  1  0  0  0
 82 91  1  0  0  0
 83 84  2  0  0  0
 83159  1  0  0  0
 83160  1  0  0  0
 84 92  1  0  0  0
 84161  1  0  0  0
 85 89  1  0  0  0
 85 90  1  0  0  0
 85 93  2  0  0  0
 86162  1  0  0  0
 86163  1  0  0  0
 86164  1  0  0  0
 87165  1  0  0  0
 87166  1  0  0  0
 87167  1  0  0  0
 88 92  1  0  0  0
 88168  1  0  0  0
 88169  1  0  0  0
 89170  1  0  0  0
 89171  1  0  0  0
 90172  1  0  0  0
 91173  1  0  0  0
M  ISO  4   1 100  68 101  89 101  91 100
M  END
> <chiral flag>
0

> <version>
0

> <s_m_source_file>
/data/baiqing/PycharmProjects/Reinvent-master-3.2/result/LINK_invent/BTK/process_docking_weight1_custom_product_contain_oxygen_bond_distance_aromatic_linkinvent_7_9_3/rearranged_h_0057.sdf

> <i_m_source_file_index>
87

> <r_mmod_Potential_Energy-OPLS-2005>
113.689117431641

> <r_mmod_Stretch_Energy-OPLS-2005>
51.0385856628418

> <r_mmod_Bend_Energy-OPLS-2005>
166.184860229492

> <r_mmod_Torsional_Energy-OPLS-2005>
328.552124023438

> <r_mmod_Improper_Torsional_Energy-OPLS-2005>
7.78997087478638

> <r_mmod_Van_der_Waal_Energy-OPLS-2005>
195.281890869141

> <r_mmod_Electrostatic_Energy-OPLS-2005>
-433.884643554688

> <r_mmod_Solvation_Energy-OPLS-2005>
-230.347442626953

> <b_mmod_Minimization_Converged-OPLS-2005>
0

> <r_mmod_RMS_Derivative-OPLS-2005>
8.0341329574585

$$$$
88
                    3D
 Structure written by MMmdl.
156164  0  0  1  0            999 V2000
  -30.7421  -14.4828   20.4896 C   0  0  0  0  0  0
  -30.4211  -12.3024   19.4295 C   0  0  0  0  0  0
  -29.4886  -12.4424   18.2088 C   0  0  0  0  0  0
  -28.0202  -12.2879   18.6523 C   0  0  0  0  0  0
  -27.6536  -13.2030   19.8522 C   0  0  2  0  0  0
  -28.7009  -13.0760   20.9825 C   0  0  0  0  0  0
  -25.2545  -13.8109   20.5682 C   0  0  0  0  0  0
  -24.1773  -13.0435   20.9196 C   0  0  0  0  0  0
  -24.6312  -11.6893   20.8739 C   0  0  0  0  0  0
  -23.9008  -10.4283   21.0419 C   0  0  0  0  0  0
  -24.3551   -9.4216   21.9220 C   0  0  0  0  0  0
  -23.6250   -8.2233   22.0753 C   0  0  0  0  0  0
  -22.4242   -8.0253   21.3538 C   0  0  0  0  0  0
  -21.9885   -9.0224   20.4647 C   0  0  0  0  0  0
  -22.7178  -10.2122   20.3093 C   0  0  0  0  0  0
  -21.6827   -6.0704   22.5273 C   0  0  0  0  0  0
  -21.4009   -6.5615   23.8212 C   0  0  0  0  0  0
  -21.3668   -5.6766   24.9184 C   0  0  0  0  0  0
  -21.6037   -4.3029   24.7235 C   0  0  0  0  0  0
  -21.8819   -3.8117   23.4364 C   0  0  0  0  0  0
  -21.9189   -4.6928   22.3414 C   0  0  0  0  0  0
  -22.7811  -13.5238   21.1861 C   0  0  0  0  0  0
  -22.1654   -4.2102   21.0994 F   0  0  0  0  0  0
  -21.5638   -3.4555   25.7759 F   0  0  0  0  0  0
  -30.0345  -13.3250   20.4108 N   0  0  0  0  0  0
  -26.2976  -12.9281   20.3298 N   0  0  0  0  0  0
  -25.9257  -11.6444   20.5785 N   0  0  0  0  0  0
  -22.0424  -12.8281   22.0408 N   0  0  0  0  0  0
  -25.4317  -15.1824   20.4073 N   0  0  0  0  0  0
  -31.9278  -14.5531   20.1556 O   0  0  0  0  0  0
  -21.6611   -6.8844   21.4231 O   0  0  0  0  0  0
  -22.3587  -14.5550   20.6667 O   0  0  0  0  0  0
  -24.6122  -31.8711   23.2101 C   0  0  0  0  0  0
  -25.9004  -32.4808   23.8417 C   0  0  1  0  0  0
  -27.2502  -27.4463   20.0862 C   0  0  0  0  0  0
  -25.5943  -33.8615   24.2404 N   0  0  0  0  0  0
  -23.4072  -30.4876   21.5465 C   0  0  2  0  0  0
  -24.8565  -28.9514   20.1183 C   0  0  0  0  0  0
  -22.7426  -29.4651   22.4958 C   0  0  0  0  0  0
  -18.0274  -28.1337   22.8493 C   0  0  0  0  0  0
  -24.1518  -36.7305   23.2615 C   0  0  0  0  0  0
  -25.9344  -30.8241   21.3794 C   0  0  0  0  0  0
  -26.0118  -29.4595   20.7289 C   0  0  0  0  0  0
  -27.2090  -28.7098   20.7169 C   0  0  0  0  0  0
  -26.0852  -26.9642   19.4475 C   0  0  0  0  0  0
  -24.8837  -27.6995   19.4801 C   0  0  0  0  0  0
  -23.6206  -29.8192   20.1656 C   0  0  0  0  0  0
  -25.4148  -36.3112   24.0331 C   0  0  1  0  0  0
  -20.5874  -28.3698   23.1279 C   0  0  2  0  0  0
  -20.6781  -26.9429   22.5373 C   0  0  0  0  0  0
  -19.5729  -26.6403   21.5188 C   0  0  0  0  0  0
  -18.1922  -26.7882   22.1631 C   0  0  0  0  0  0
  -19.1520  -28.8838   23.2885 C   0  0  0  0  0  0
  -18.9448  -30.1439   23.8910 C   0  0  0  0  0  0
  -17.6437  -30.6530   24.0601 C   0  0  0  0  0  0
  -25.9016  -34.9472   23.5148 C   0  0  0  0  0  0
  -16.5325  -29.9057   23.6306 C   0  0  0  0  0  0
  -16.7273  -28.6473   23.0340 C   0  0  0  0  0  0
  -26.4444  -31.6491   25.0701 C   0  0  0  0  0  0
  -25.3725  -31.3536   26.1448 C   0  0  0  0  0  0
  -27.0303  -30.2978   24.6024 C   0  0  0  0  0  0
  -27.6101  -32.4128   25.7415 C   0  0  0  0  0  0
  -27.5616  -37.1834   24.8468 C   0  0  0  0  0  0
  -21.4177  -29.3090   22.3741 N   0  0  0  0  0  0
  -26.4369  -37.3790   23.9380 N   0  0  0  0  0  0
  -24.6668  -31.0799   22.1006 N   0  0  0  0  0  0
  -23.4208  -28.8078   23.2884 O   0  0  0  0  0  0
  -28.4419  -26.7518   20.1128 O   0  0  0  0  0  0
  -26.5520  -34.8912   22.4673 O   0  0  0  0  0  0
  -23.5361  -32.1481   23.7514 O   0  0  0  0  0  0
  -29.2416  -19.9217   21.4284 C   0  0  0  0  0  0
  -30.8712  -20.2893   19.6693 C   0  0  0  0  0  0
  -30.0401  -18.0103   20.1106 C   0  0  0  0  0  0
  -29.2275  -18.5356   21.1550 C   0  0  0  0  0  0
  -30.0268  -20.8126   20.6711 C   0  0  0  0  0  0
  -30.8834  -18.9088   19.3953 C   0  0  0  0  0  0
  -29.9987  -16.5570   19.6828 C   0  0  0  0  0  0
  -29.6512  -23.1397   19.9888 C   0  0  0  0  0  0
  -28.2822  -17.6692   21.9744 C   0  0  0  0  0  0
  -29.6092  -24.6158   20.4104 C   0  0  0  0  0  0
  -28.4349  -25.3673   19.7522 C   0  0  0  0  0  0
  -29.9487  -22.2109   20.9230 N   0  0  0  0  0  0
  -30.0322  -15.6096   20.6437 N   0  0  0  0  0  0
  -29.9614  -16.2752   18.4785 O   0  0  0  0  0  0
  -29.3987  -22.8379   18.8183 O   0  0  0  0  0  0
  -31.7244  -18.4644   18.4300 F   0  0  0  0  0  0
  -31.4583  -12.4014   19.1029 H   0  0  0  0  0  0
  -30.3464  -11.3066   19.8691 H   0  0  0  0  0  0
  -29.7384  -11.6865   17.4606 H   0  0  0  0  0  0
  -29.6306  -13.4100   17.7247 H   0  0  0  0  0  0
  -27.8960  -11.2432   18.9414 H   0  0  0  0  0  0
  -27.3461  -12.4536   17.8099 H   0  0  0  0  0  0
  -27.6740  -14.2300   19.4793 H   0  0  0  0  0  0
  -28.6680  -12.0802   21.4288 H   0  0  0  0  0  0
  -28.4771  -13.7874   21.7790 H   0  0  0  0  0  0
  -25.2698   -9.5677   22.4820 H   0  0  0  0  0  0
  -23.9929   -7.4633   22.7497 H   0  0  0  0  0  0
  -21.0820   -8.8730   19.8982 H   0  0  0  0  0  0
  -22.3625  -10.9642   19.6194 H   0  0  0  0  0  0
  -21.1989   -7.6137   23.9689 H   0  0  0  0  0  0
  -21.1495   -6.0532   25.9077 H   0  0  0  0  0  0
  -22.0590   -2.7590   23.2888 H   0  0  0  0  0  0
  -22.4021  -11.9982   22.4854 H   0  0  0  0  0  0
  -21.1050  -13.1358   22.2526 H   0  0  0  0  0  0
  -24.6634  -15.8381   20.5085 H   0  0  0  0  0  0
  -26.2864  -15.6168   20.0825 H   0  0  0  0  0  0
  -26.7049  -32.5574   23.1170 H   0  0  0  0  0  0
  -25.0404  -33.9772   25.0783 H   0  0  0  0  0  0
  -22.6985  -31.3010   21.3808 H   0  0  0  0  0  0
  -23.3808  -35.9601   23.3295 H   0  0  0  0  0  0
  -24.3543  -36.8940   22.2010 H   0  0  0  0  0  0
  -23.7265  -37.6542   23.6586 H   0  0  0  0  0  0
  -26.0752  -31.6019   20.6215 H   0  0  0  0  0  0
  -26.8068  -30.8614   22.0182 H   0  0  0  0  0  0
  -28.1063  -29.0969   21.1846 H   0  0  0  0  0  0
  -26.0908  -26.0335   18.8950 H   0  0  0  0  0  0
  -23.9969  -27.3174   18.9934 H   0  0  0  0  0  0
  -23.7243  -30.5915   19.3995 H   0  0  0  0  0  0
  -22.7433  -29.2374   19.8795 H   0  0  0  0  0  0
  -25.1327  -36.1981   25.0828 H   0  0  0  0  0  0
  -20.9947  -28.3170   24.1401 H   0  0  0  0  0  0
  -20.5702  -26.2321   23.3558 H   0  0  0  0  0  0
  -21.6654  -26.7431   22.1156 H   0  0  0  0  0  0
  -19.6907  -25.6336   21.1177 H   0  0  0  0  0  0
  -19.6575  -27.3264   20.6729 H   0  0  0  0  0  0
  -17.4187  -26.6623   21.4017 H   0  0  0  0  0  0
  -18.0343  -26.0011   22.9018 H   0  0  0  0  0  0
  -19.7929  -30.7287   24.2235 H   0  0  0  0  0  0
  -17.4973  -31.6192   24.5229 H   0  0  0  0  0  0
  -15.5322  -30.2975   23.7590 H   0  0  0  0  0  0
  -15.8693  -28.0800   22.7031 H   0  0  0  0  0  0
  -24.5845  -30.6951   25.7724 H   0  0  0  0  0  0
  -24.8977  -32.2706   26.4963 H   0  0  0  0  0  0
  -25.8101  -30.8595   27.0158 H   0  0  0  0  0  0
  -26.2964  -29.6743   24.0923 H   0  0  0  0  0  0
  -27.4023  -29.7140   25.4446 H   0  0  0  0  0  0
  -27.8793  -30.4338   23.9335 H   0  0  0  0  0  0
  -27.2758  -33.3422   26.2034 H   0  0  0  0  0  0
  -28.3830  -32.6716   25.0129 H   0  0  0  0  0  0
  -28.0835  -31.8215   26.5293 H   0  0  0  0  0  0
  -28.2664  -38.0113   24.7531 H   0  0  0  0  0  0
  -28.1099  -36.2666   24.6293 H   0  0  0  0  0  0
  -27.2274  -37.1458   25.8855 H   0  0  0  0  0  0
  -20.9355  -29.8910   21.7029 H   0  0  0  0  0  0
  -26.0279  -38.2891   24.1388 H   0  0  0  0  0  0
  -28.5949  -20.3158   22.1960 H   0  0  0  0  0  0
  -31.4937  -20.9450   19.0741 H   0  0  0  0  0  0
  -27.6768  -17.0205   21.3395 H   0  0  0  0  0  0
  -28.8351  -17.0563   22.6868 H   0  0  0  0  0  0
  -27.5914  -18.2914   22.5416 H   0  0  0  0  0  0
  -30.5538  -25.0637   20.1130 H   0  0  0  0  0  0
  -29.5440  -24.7033   21.4964 H   0  0  0  0  0  0
  -27.5128  -24.8731   20.0744 H   0  0  0  0  0  0
  -28.5025  -25.2945   18.6664 H   0  0  0  0  0  0
  -30.0122  -22.5111   21.8875 H   0  0  0  0  0  0
  -29.9293  -15.9373   21.5903 H   0  0  0  0  0  0
  1 25  1  0  0  0
  1 30  2  0  0  0
  1 83  1  0  0  0
  2  3  1  0  0  0
  2 25  1  0  0  0
  2 87  1  0  0  0
  2 88  1  0  0  0
  3  4  1  0  0  0
  3 89  1  0  0  0
  3 90  1  0  0  0
  4  5  1  0  0  0
  4 91  1  0  0  0
  4 92  1  0  0  0
  5  6  1  0  0  0
  5 26  1  0  0  0
  5 93  1  0  0  0
  6 25  1  0  0  0
  6 94  1  0  0  0
  6 95  1  0  0  0
  7  8  2  0  0  0
  7 26  1  0  0  0
  7 29  1  0  0  0
  8  9  1  0  0  0
  8 22  1  0  0  0
  9 10  1  0  0  0
  9 27  2  0  0  0
 10 11  2  0  0  0
 10 15  1  0  0  0
 11 12  1  0  0  0
 11 96  1  0  0  0
 12 13  2  0  0  0
 12 97  1  0  0  0
 13 14  1  0  0  0
 13 31  1  0  0  0
 14 15  2  0  0  0
 14 98  1  0  0  0
 15 99  1  0  0  0
 16 17  2  0  0  0
 16 21  1  0  0  0
 16 31  1  0  0  0
 17 18  1  0  0  0
 17100  1  0  0  0
 18 19  2  0  0  0
 18101  1  0  0  0
 19 20  1  0  0  0
 19 24  1  0  0  0
 20 21  2  0  0  0
 20102  1  0  0  0
 21 23  1  0  0  0
 22 28  1  0  0  0
 22 32  2  0  0  0
 26 27  1  0  0  0
 28103  1  0  0  0
 28104  1  0  0  0
 29105  1  0  0  0
 29106  1  0  0  0
 33 34  1  0  0  0
 33 66  1  0  0  0
 33 70  2  0  0  0
 34 36  1  0  0  0
 34 59  1  0  0  0
 34107  1  0  0  0
 35 44  2  0  0  0
 35 45  1  0  0  0
 35 68  1  0  0  0
 36 56  1  0  0  0
 36108  1  0  0  0
 37 39  1  0  0  0
 37 47  1  0  0  0
 37 66  1  0  0  0
 37109  1  0  0  0
 38 43  2  0  0  0
 38 46  1  0  0  0
 38 47  1  0  0  0
 39 64  1  0  0  0
 39 67  2  0  0  0
 40 52  1  0  0  0
 40 53  2  0  0  0
 40 58  1  0  0  0
 41110  1  0  0  0
 41111  1  0  0  0
 41112  1  0  0  0
 41 48  1  0  0  0
 42 43  1  0  0  0
 42 66  1  0  0  0
 42113  1  0  0  0
 42114  1  0  0  0
 43 44  1  0  0  0
 44115  1  0  0  0
 45 46  2  0  0  0
 45116  1  0  0  0
 46117  1  0  0  0
 47118  1  0  0  0
 47119  1  0  0  0
 48 56  1  0  0  0
 48 65  1  0  0  0
 48120  1  0  0  0
 49 50  1  0  0  0
 49 53  1  0  0  0
 49 64  1  0  0  0
 49121  1  0  0  0
 50 51  1  0  0  0
 50122  1  0  0  0
 50123  1  0  0  0
 51 52  1  0  0  0
 51124  1  0  0  0
 51125  1  0  0  0
 52126  1  0  0  0
 52127  1  0  0  0
 53 54  1  0  0  0
 54 55  2  0  0  0
 54128  1  0  0  0
 55 57  1  0  0  0
 55129  1  0  0  0
 56 69  2  0  0  0
 57 58  2  0  0  0
 57130  1  0  0  0
 58131  1  0  0  0
 59 60  1  0  0  0
 59 61  1  0  0  0
 59 62  1  0  0  0
 60132  1  0  0  0
 60133  1  0  0  0
 60134  1  0  0  0
 61135  1  0  0  0
 61136  1  0  0  0
 61137  1  0  0  0
 62138  1  0  0  0
 62139  1  0  0  0
 62140  1  0  0  0
 63 65  1  0  0  0
 63141  1  0  0  0
 63142  1  0  0  0
 63143  1  0  0  0
 64144  1  0  0  0
 65145  1  0  0  0
 68 81  1  0  0  0
 71 74  2  0  0  0
 71 75  1  0  0  0
 71146  1  0  0  0
 72 75  2  0  0  0
 72 76  1  0  0  0
 72147  1  0  0  0
 73 74  1  0  0  0
 73 76  2  0  0  0
 73 77  1  0  0  0
 74 79  1  0  0  0
 75 82  1  0  0  0
 76 86  1  0  0  0
 77 83  1  0  0  0
 77 84  2  0  0  0
 78 80  1  0  0  0
 78 82  1  0  0  0
 78 85  2  0  0  0
 79148  1  0  0  0
 79149  1  0  0  0
 79150  1  0  0  0
 80 81  1  0  0  0
 80151  1  0  0  0
 80152  1  0  0  0
 81153  1  0  0  0
 81154  1  0  0  0
 82155  1  0  0  0
 83156  1  0  0  0
M  ISO  4   1 100  68 101  81 101  83 100
M  END
> <chiral flag>
0

> <version>
0

> <s_m_source_file>
/data/baiqing/PycharmProjects/Reinvent-master-3.2/result/LINK_invent/BTK/process_docking_weight1_custom_product_contain_oxygen_bond_distance_aromatic_linkinvent_7_9_3/rearranged_h_0057.sdf

> <i_m_source_file_index>
88

> <r_mmod_Potential_Energy-OPLS-2005>
11.2882394790649

> <r_mmod_Stretch_Energy-OPLS-2005>
36.5059089660645

> <r_mmod_Bend_Energy-OPLS-2005>
96.1449966430664

> <r_mmod_Torsional_Energy-OPLS-2005>
330.499603271484

> <r_mmod_Improper_Torsional_Energy-OPLS-2005>
10.0699405670166

> <r_mmod_Van_der_Waal_Energy-OPLS-2005>
165.533813476562

> <r_mmod_Electrostatic_Energy-OPLS-2005>
-407.697967529297

> <r_mmod_Solvation_Energy-OPLS-2005>
-243.403228759766

> <b_mmod_Minimization_Converged-OPLS-2005>
0

> <r_mmod_RMS_Derivative-OPLS-2005>
8.13125324249268

$$$$
89
                    3D
 Structure written by MMmdl.
155163  0  0  1  0            999 V2000
  -30.7621  -14.3966   20.6296 C   0  0  0  0  0  0
  -30.4140  -12.2857   19.4074 C   0  0  0  0  0  0
  -29.4833  -12.5009   18.1991 C   0  0  0  0  0  0
  -28.0089  -12.3596   18.6209 C   0  0  0  0  0  0
  -27.6632  -13.2020   19.8772 C   0  0  2  0  0  0
  -28.7046  -12.9778   20.9958 C   0  0  0  0  0  0
  -25.2605  -13.8151   20.5692 C   0  0  0  0  0  0
  -24.1841  -13.0435   20.9165 C   0  0  0  0  0  0
  -24.6385  -11.6901   20.8727 C   0  0  0  0  0  0
  -23.9041  -10.4291   21.0400 C   0  0  0  0  0  0
  -24.3599   -9.4209   21.9180 C   0  0  0  0  0  0
  -23.6286   -8.2242   22.0759 C   0  0  0  0  0  0
  -22.4269   -8.0269   21.3549 C   0  0  0  0  0  0
  -21.9890   -9.0238   20.4653 C   0  0  0  0  0  0
  -22.7210  -10.2125   20.3058 C   0  0  0  0  0  0
  -21.6852   -6.0722   22.5279 C   0  0  0  0  0  0
  -21.4016   -6.5634   23.8208 C   0  0  0  0  0  0
  -21.3657   -5.6795   24.9174 C   0  0  0  0  0  0
  -21.6041   -4.3056   24.7233 C   0  0  0  0  0  0
  -21.8822   -3.8141   23.4359 C   0  0  0  0  0  0
  -21.9199   -4.6952   22.3408 C   0  0  0  0  0  0
  -22.7865  -13.5238   21.1827 C   0  0  0  0  0  0
  -22.1665   -4.2131   21.0985 F   0  0  0  0  0  0
  -21.5627   -3.4541   25.7748 F   0  0  0  0  0  0
  -30.0398  -13.2630   20.4408 N   0  0  0  0  0  0
  -26.3033  -12.9312   20.3392 N   0  0  0  0  0  0
  -25.9313  -11.6473   20.5780 N   0  0  0  0  0  0
  -22.0521  -12.8237   22.0395 N   0  0  0  0  0  0
  -25.4364  -15.1864   20.4113 N   0  0  0  0  0  0
  -31.8702  -14.5764   20.1197 O   0  0  0  0  0  0
  -21.6647   -6.8859   21.4240 O   0  0  0  0  0  0
  -22.3555  -14.5551   20.6686 O   0  0  0  0  0  0
  -24.6098  -31.8717   23.2136 C   0  0  0  0  0  0
  -25.9005  -32.4841   23.8426 C   0  0  1  0  0  0
  -27.2397  -27.4746   20.0937 C   0  0  0  0  0  0
  -25.5879  -33.8637   24.2350 N   0  0  0  0  0  0
  -23.3980  -30.4927   21.5533 C   0  0  2  0  0  0
  -24.8472  -28.9593   20.1215 C   0  0  0  0  0  0
  -22.7389  -29.4664   22.5027 C   0  0  0  0  0  0
  -18.0258  -28.1371   22.8491 C   0  0  0  0  0  0
  -24.1490  -36.7333   23.2632 C   0  0  0  0  0  0
  -25.9215  -30.8451   21.3635 C   0  0  0  0  0  0
  -26.0018  -29.4777   20.7228 C   0  0  0  0  0  0
  -27.2028  -28.7368   20.7207 C   0  0  0  0  0  0
  -26.0777  -26.9619   19.4858 C   0  0  0  0  0  0
  -24.8759  -27.6959   19.5039 C   0  0  0  0  0  0
  -23.6063  -29.8224   20.1681 C   0  0  0  0  0  0
  -25.4102  -36.3126   24.0345 C   0  0  1  0  0  0
  -20.5854  -28.3652   23.1336 C   0  0  2  0  0  0
  -20.6747  -26.9392   22.5429 C   0  0  0  0  0  0
  -19.5738  -26.6388   21.5207 C   0  0  0  0  0  0
  -18.1906  -26.7922   22.1607 C   0  0  0  0  0  0
  -19.1511  -28.8829   23.2907 C   0  0  0  0  0  0
  -18.9443  -30.1436   23.8916 C   0  0  0  0  0  0
  -17.6448  -30.6585   24.0566 C   0  0  0  0  0  0
  -25.9025  -34.9483   23.5141 C   0  0  0  0  0  0
  -16.5339  -29.9087   23.6330 C   0  0  0  0  0  0
  -16.7250  -28.6504   23.0350 C   0  0  0  0  0  0
  -26.4445  -31.6604   25.0734 C   0  0  0  0  0  0
  -25.3725  -31.3715   26.1501 C   0  0  0  0  0  0
  -27.0242  -30.3045   24.6073 C   0  0  0  0  0  0
  -27.6047  -32.4309   25.7470 C   0  0  0  0  0  0
  -27.5589  -37.1797   24.8456 C   0  0  0  0  0  0
  -21.4121  -29.3026   22.3756 N   0  0  0  0  0  0
  -26.4292  -37.3806   23.9420 N   0  0  0  0  0  0
  -24.6609  -31.0848   22.1020 N   0  0  0  0  0  0
  -23.4167  -28.8199   23.3062 O   0  0  0  0  0  0
  -28.3980  -26.7520   20.0002 O   0  0  0  0  0  0
  -26.5598  -34.8922   22.4703 O   0  0  0  0  0  0
  -23.5307  -32.1457   23.7559 O   0  0  0  0  0  0
  -31.0248  -18.7476   18.5964 C   0  0  0  0  0  0
  -31.0706  -17.6463   19.4685 C   0  0  0  0  0  0
  -30.5817  -19.9959   19.0635 C   0  0  0  0  0  0
  -30.2046  -19.0319   21.2745 C   0  0  0  0  0  0
  -30.6664  -17.7761   20.8160 C   0  0  0  0  0  0
  -30.1793  -20.1488   20.4097 C   0  0  0  0  0  0
  -29.3660  -23.6816   21.0928 C   0  0  0  0  0  0
  -29.6995  -24.9641   20.8512 C   0  0  0  0  0  0
  -30.2236  -22.6053   20.6282 C   0  0  0  0  0  0
  -30.7916  -16.6063   21.7940 C   0  0  0  0  0  0
  -28.8521  -26.1651   21.2092 C   0  0  0  0  0  0
  -29.7030  -21.3960   20.8934 N   0  0  0  0  0  0
  -30.1742  -15.3497   21.3642 N   0  0  0  0  0  0
  -31.3090  -22.7651   20.0597 O   0  0  0  0  0  0
  -31.4576  -12.3725   19.0991 H   0  0  0  0  0  0
  -30.3065  -11.2731   19.7992 H   0  0  0  0  0  0
  -29.7156  -11.7818   17.4126 H   0  0  0  0  0  0
  -29.6521  -13.4903   17.7711 H   0  0  0  0  0  0
  -27.8232  -11.3037   18.8225 H   0  0  0  0  0  0
  -27.3510  -12.6299   17.7942 H   0  0  0  0  0  0
  -27.7128  -14.2500   19.5819 H   0  0  0  0  0  0
  -28.6720  -11.9447   21.3439 H   0  0  0  0  0  0
  -28.4653  -13.5823   21.8714 H   0  0  0  0  0  0
  -25.2745   -9.5692   22.4752 H   0  0  0  0  0  0
  -23.9996   -7.4638   22.7484 H   0  0  0  0  0  0
  -21.0816   -8.8747   19.8967 H   0  0  0  0  0  0
  -22.3651  -10.9661   19.6170 H   0  0  0  0  0  0
  -21.2012   -7.6141   23.9702 H   0  0  0  0  0  0
  -21.1472   -6.0529   25.9071 H   0  0  0  0  0  0
  -22.0606   -2.7600   23.2869 H   0  0  0  0  0  0
  -22.4136  -11.9883   22.4759 H   0  0  0  0  0  0
  -21.1151  -13.1274   22.2643 H   0  0  0  0  0  0
  -24.6769  -15.8495   20.5225 H   0  0  0  0  0  0
  -26.3011  -15.6205   20.1131 H   0  0  0  0  0  0
  -26.7081  -32.5580   23.1208 H   0  0  0  0  0  0
  -25.0058  -33.9818   25.0516 H   0  0  0  0  0  0
  -22.6847  -31.3079   21.4129 H   0  0  0  0  0  0
  -23.3750  -35.9668   23.3282 H   0  0  0  0  0  0
  -24.3592  -36.8961   22.2050 H   0  0  0  0  0  0
  -23.7241  -37.6532   23.6649 H   0  0  0  0  0  0
  -26.0243  -31.6052   20.5876 H   0  0  0  0  0  0
  -26.8122  -30.9079   21.9756 H   0  0  0  0  0  0
  -28.0985  -29.1369   21.1754 H   0  0  0  0  0  0
  -26.1090  -26.0002   18.9937 H   0  0  0  0  0  0
  -23.9912  -27.2919   19.0318 H   0  0  0  0  0  0
  -23.7101  -30.5955   19.4053 H   0  0  0  0  0  0
  -22.7320  -29.2382   19.8774 H   0  0  0  0  0  0
  -25.1266  -36.2003   25.0842 H   0  0  0  0  0  0
  -20.9928  -28.3205   24.1466 H   0  0  0  0  0  0
  -20.5643  -26.2255   23.3610 H   0  0  0  0  0  0
  -21.6622  -26.7446   22.1229 H   0  0  0  0  0  0
  -19.6908  -25.6300   21.1232 H   0  0  0  0  0  0
  -19.6694  -27.3206   20.6744 H   0  0  0  0  0  0
  -17.4190  -26.6696   21.3988 H   0  0  0  0  0  0
  -18.0284  -26.0058   22.8999 H   0  0  0  0  0  0
  -19.7929  -30.7234   24.2300 H   0  0  0  0  0  0
  -17.5014  -31.6267   24.5161 H   0  0  0  0  0  0
  -15.5337  -30.2986   23.7660 H   0  0  0  0  0  0
  -15.8651  -28.0824   22.7052 H   0  0  0  0  0  0
  -24.5964  -30.6957   25.7888 H   0  0  0  0  0  0
  -24.8824  -32.2855   26.4874 H   0  0  0  0  0  0
  -25.8118  -30.9004   27.0306 H   0  0  0  0  0  0
  -26.2763  -29.6835   24.1133 H   0  0  0  0  0  0
  -27.4014  -29.7255   25.4508 H   0  0  0  0  0  0
  -27.8595  -30.4358   23.9192 H   0  0  0  0  0  0
  -27.2710  -33.3635   26.2033 H   0  0  0  0  0  0
  -28.3845  -32.6826   25.0267 H   0  0  0  0  0  0
  -28.0710  -31.8432   26.5387 H   0  0  0  0  0  0
  -28.2598  -38.0102   24.7525 H   0  0  0  0  0  0
  -28.1089  -36.2638   24.6241 H   0  0  0  0  0  0
  -27.2317  -37.1410   25.8859 H   0  0  0  0  0  0
  -20.9275  -29.8754   21.6985 H   0  0  0  0  0  0
  -26.0190  -38.2885   24.1436 H   0  0  0  0  0  0
  -31.3409  -18.6369   17.5683 H   0  0  0  0  0  0
  -31.4428  -16.7107   19.0840 H   0  0  0  0  0  0
  -30.5543  -20.8305   18.3771 H   0  0  0  0  0  0
  -29.8972  -19.1445   22.3046 H   0  0  0  0  0  0
  -28.4443  -23.4600   21.6123 H   0  0  0  0  0  0
  -30.6223  -25.1964   20.3374 H   0  0  0  0  0  0
  -30.3485  -16.8806   22.7520 H   0  0  0  0  0  0
  -31.8515  -16.4443   22.0014 H   0  0  0  0  0  0
  -29.4516  -26.8820   21.7721 H   0  0  0  0  0  0
  -28.0174  -25.8599   21.8434 H   0  0  0  0  0  0
  -28.8948  -21.3725   21.4990 H   0  0  0  0  0  0
  -29.2544  -15.1454   21.7231 H   0  0  0  0  0  0
  1 25  1  0  0  0
  1 30  2  0  0  0
  1 83  1  0  0  0
  2  3  1  0  0  0
  2 25  1  0  0  0
  2 85  1  0  0  0
  2 86  1  0  0  0
  3  4  1  0  0  0
  3 87  1  0  0  0
  3 88  1  0  0  0
  4  5  1  0  0  0
  4 89  1  0  0  0
  4 90  1  0  0  0
  5  6  1  0  0  0
  5 26  1  0  0  0
  5 91  1  0  0  0
  6 25  1  0  0  0
  6 92  1  0  0  0
  6 93  1  0  0  0
  7  8  2  0  0  0
  7 26  1  0  0  0
  7 29  1  0  0  0
  8  9  1  0  0  0
  8 22  1  0  0  0
  9 10  1  0  0  0
  9 27  2  0  0  0
 10 11  2  0  0  0
 10 15  1  0  0  0
 11 12  1  0  0  0
 11 94  1  0  0  0
 12 13  2  0  0  0
 12 95  1  0  0  0
 13 14  1  0  0  0
 13 31  1  0  0  0
 14 15  2  0  0  0
 14 96  1  0  0  0
 15 97  1  0  0  0
 16 17  2  0  0  0
 16 21  1  0  0  0
 16 31  1  0  0  0
 17 18  1  0  0  0
 17 98  1  0  0  0
 18 19  2  0  0  0
 18 99  1  0  0  0
 19 20  1  0  0  0
 19 24  1  0  0  0
 20 21  2  0  0  0
 20100  1  0  0  0
 21 23  1  0  0  0
 22 28  1  0  0  0
 22 32  2  0  0  0
 26 27  1  0  0  0
 28101  1  0  0  0
 28102  1  0  0  0
 29103  1  0  0  0
 29104  1  0  0  0
 33 34  1  0  0  0
 33 66  1  0  0  0
 33 70  2  0  0  0
 34 36  1  0  0  0
 34 59  1  0  0  0
 34105  1  0  0  0
 35 44  2  0  0  0
 35 45  1  0  0  0
 35 68  1  0  0  0
 36 56  1  0  0  0
 36106  1  0  0  0
 37 39  1  0  0  0
 37 47  1  0  0  0
 37 66  1  0  0  0
 37107  1  0  0  0
 38 43  2  0  0  0
 38 46  1  0  0  0
 38 47  1  0  0  0
 39 64  1  0  0  0
 39 67  2  0  0  0
 40 52  1  0  0  0
 40 53  2  0  0  0
 40 58  1  0  0  0
 41108  1  0  0  0
 41109  1  0  0  0
 41110  1  0  0  0
 41 48  1  0  0  0
 42 43  1  0  0  0
 42 66  1  0  0  0
 42111  1  0  0  0
 42112  1  0  0  0
 43 44  1  0  0  0
 44113  1  0  0  0
 45 46  2  0  0  0
 45114  1  0  0  0
 46115  1  0  0  0
 47116  1  0  0  0
 47117  1  0  0  0
 48 56  1  0  0  0
 48 65  1  0  0  0
 48118  1  0  0  0
 49 50  1  0  0  0
 49 53  1  0  0  0
 49 64  1  0  0  0
 49119  1  0  0  0
 50 51  1  0  0  0
 50120  1  0  0  0
 50121  1  0  0  0
 51 52  1  0  0  0
 51122  1  0  0  0
 51123  1  0  0  0
 52124  1  0  0  0
 52125  1  0  0  0
 53 54  1  0  0  0
 54 55  2  0  0  0
 54126  1  0  0  0
 55 57  1  0  0  0
 55127  1  0  0  0
 56 69  2  0  0  0
 57 58  2  0  0  0
 57128  1  0  0  0
 58129  1  0  0  0
 59 60  1  0  0  0
 59 61  1  0  0  0
 59 62  1  0  0  0
 60130  1  0  0  0
 60131  1  0  0  0
 60132  1  0  0  0
 61133  1  0  0  0
 61134  1  0  0  0
 61135  1  0  0  0
 62136  1  0  0  0
 62137  1  0  0  0
 62138  1  0  0  0
 63 65  1  0  0  0
 63139  1  0  0  0
 63140  1  0  0  0
 63141  1  0  0  0
 64142  1  0  0  0
 65143  1  0  0  0
 68 81  1  0  0  0
 71 72  2  0  0  0
 71 73  1  0  0  0
 71144  1  0  0  0
 72 75  1  0  0  0
 72145  1  0  0  0
 73 76  2  0  0  0
 73146  1  0  0  0
 74 75  2  0  0  0
 74 76  1  0  0  0
 74147  1  0  0  0
 75 80  1  0  0  0
 76 82  1  0  0  0
 77 78  2  0  0  0
 77 79  1  0  0  0
 77148  1  0  0  0
 78 81  1  0  0  0
 78149  1  0  0  0
 79 82  1  0  0  0
 79 84  2  0  0  0
 80 83  1  0  0  0
 80150  1  0  0  0
 80151  1  0  0  0
 81152  1  0  0  0
 81153  1  0  0  0
 82154  1  0  0  0
 83155  1  0  0  0
M  ISO  4   1 100  68 101  81 101  83 100
M  END
> <chiral flag>
0

> <version>
0

> <s_m_source_file>
/data/baiqing/PycharmProjects/Reinvent-master-3.2/result/LINK_invent/BTK/process_docking_weight1_custom_product_contain_oxygen_bond_distance_aromatic_linkinvent_7_9_3/rearranged_h_0057.sdf

> <i_m_source_file_index>
89

> <r_mmod_Potential_Energy-OPLS-2005>
-179.337783813477

> <r_mmod_Stretch_Energy-OPLS-2005>
31.2980823516846

> <r_mmod_Bend_Energy-OPLS-2005>
87.1129989624023

> <r_mmod_Torsional_Energy-OPLS-2005>
233.487548828125

> <r_mmod_Improper_Torsional_Energy-OPLS-2005>
2.34584498405457

> <r_mmod_Van_der_Waal_Energy-OPLS-2005>
158.989379882812

> <r_mmod_Electrostatic_Energy-OPLS-2005>
-465.929809570312

> <r_mmod_Solvation_Energy-OPLS-2005>
-235.495239257812

> <b_mmod_Minimization_Converged-OPLS-2005>
0

> <r_mmod_RMS_Derivative-OPLS-2005>
1.63739442825317

$$$$
90
                    3D
 Structure written by MMmdl.
163171  0  0  1  0            999 V2000
  -30.7097  -14.5201   20.5220 C   0  0  0  0  0  0
  -30.4159  -12.3247   19.4361 C   0  0  0  0  0  0
  -29.4900  -12.4913   18.2145 C   0  0  0  0  0  0
  -28.0133  -12.3576   18.6297 C   0  0  0  0  0  0
  -27.6550  -13.2178   19.8713 C   0  0  2  0  0  0
  -28.7027  -13.0495   20.9960 C   0  0  0  0  0  0
  -25.2529  -13.8174   20.5676 C   0  0  0  0  0  0
  -24.1816  -13.0438   20.9218 C   0  0  0  0  0  0
  -24.6396  -11.6912   20.8777 C   0  0  0  0  0  0
  -23.9066  -10.4289   21.0424 C   0  0  0  0  0  0
  -24.3617   -9.4199   21.9199 C   0  0  0  0  0  0
  -23.6294   -8.2232   22.0755 C   0  0  0  0  0  0
  -22.4279   -8.0277   21.3537 C   0  0  0  0  0  0
  -21.9916   -9.0255   20.4642 C   0  0  0  0  0  0
  -22.7241  -10.2137   20.3064 C   0  0  0  0  0  0
  -21.6854   -6.0736   22.5275 C   0  0  0  0  0  0
  -21.4011   -6.5638   23.8213 C   0  0  0  0  0  0
  -21.3660   -5.6788   24.9175 C   0  0  0  0  0  0
  -21.6044   -4.3050   24.7220 C   0  0  0  0  0  0
  -21.8823   -3.8144   23.4344 C   0  0  0  0  0  0
  -21.9192   -4.6964   22.3399 C   0  0  0  0  0  0
  -22.7829  -13.5214   21.1867 C   0  0  0  0  0  0
  -22.1663   -4.2143   21.0977 F   0  0  0  0  0  0
  -21.5631   -3.4538   25.7739 F   0  0  0  0  0  0
  -30.0258  -13.3440   20.4258 N   0  0  0  0  0  0
  -26.2996  -12.9376   20.3383 N   0  0  0  0  0  0
  -25.9330  -11.6529   20.5820 N   0  0  0  0  0  0
  -22.0477  -12.8204   22.0424 N   0  0  0  0  0  0
  -25.4189  -15.1879   20.3993 N   0  0  0  0  0  0
  -31.8649  -14.6263   20.1047 O   0  0  0  0  0  0
  -21.6639   -6.8877   21.4236 O   0  0  0  0  0  0
  -22.3518  -14.5523   20.6708 O   0  0  0  0  0  0
  -24.6173  -31.8662   23.2096 C   0  0  0  0  0  0
  -25.9061  -32.4817   23.8397 C   0  0  1  0  0  0
  -27.2276  -27.4063   20.1092 C   0  0  0  0  0  0
  -25.5910  -33.8618   24.2323 N   0  0  0  0  0  0
  -23.4064  -30.4892   21.5507 C   0  0  2  0  0  0
  -24.8553  -28.9554   20.1089 C   0  0  0  0  0  0
  -22.7438  -29.4642   22.5006 C   0  0  0  0  0  0
  -18.0278  -28.1356   22.8487 C   0  0  0  0  0  0
  -24.1491  -36.7308   23.2640 C   0  0  0  0  0  0
  -25.9386  -30.8254   21.3661 C   0  0  0  0  0  0
  -26.0187  -29.4594   20.7081 C   0  0  0  0  0  0
  -27.2123  -28.6928   20.7048 C   0  0  0  0  0  0
  -26.0534  -26.9290   19.4905 C   0  0  0  0  0  0
  -24.8697  -27.6914   19.4927 C   0  0  0  0  0  0
  -23.6155  -29.8235   20.1640 C   0  0  0  0  0  0
  -25.4106  -36.3111   24.0335 C   0  0  1  0  0  0
  -20.5866  -28.3642   23.1320 C   0  0  2  0  0  0
  -20.6766  -26.9380   22.5419 C   0  0  0  0  0  0
  -19.5753  -26.6361   21.5211 C   0  0  0  0  0  0
  -18.1924  -26.7902   22.1614 C   0  0  0  0  0  0
  -19.1524  -28.8822   23.2889 C   0  0  0  0  0  0
  -18.9456  -30.1428   23.8896 C   0  0  0  0  0  0
  -17.6466  -30.6572   24.0555 C   0  0  0  0  0  0
  -25.9030  -34.9477   23.5125 C   0  0  0  0  0  0
  -16.5359  -29.9056   23.6330 C   0  0  0  0  0  0
  -16.7270  -28.6471   23.0350 C   0  0  0  0  0  0
  -26.4470  -31.6602   25.0730 C   0  0  0  0  0  0
  -25.3718  -31.3718   26.1468 C   0  0  0  0  0  0
  -27.0311  -30.3051   24.6110 C   0  0  0  0  0  0
  -27.6051  -32.4327   25.7489 C   0  0  0  0  0  0
  -27.5581  -37.1807   24.8461 C   0  0  0  0  0  0
  -21.4166  -29.3005   22.3740 N   0  0  0  0  0  0
  -26.4294  -37.3788   23.9404 N   0  0  0  0  0  0
  -24.6721  -31.0739   22.1001 N   0  0  0  0  0  0
  -23.4208  -28.8193   23.3063 O   0  0  0  0  0  0
  -28.3372  -26.5829   20.1556 O   0  0  0  0  0  0
  -26.5614  -34.8935   22.4701 O   0  0  0  0  0  0
  -23.5354  -32.1446   23.7456 O   0  0  0  0  0  0
  -32.2012  -18.6518   21.1955 C   0  0  0  0  0  0
  -31.3336  -19.6825   20.8034 C   0  0  0  0  0  0
  -31.7470  -17.3250   21.2456 C   0  0  0  0  0  0
  -29.9807  -19.4223   20.4858 C   0  0  0  0  0  0
  -29.5160  -18.0577   20.5525 C   0  0  0  0  0  0
  -30.4179  -16.9928   20.8946 C   0  0  0  0  0  0
  -29.1235  -20.5979   20.0196 C   0  0  0  0  0  0
  -28.0594  -17.7169   20.2475 C   0  0  0  0  0  0
  -30.5201  -24.7354   20.4779 C   0  0  0  0  0  0
  -29.4597  -23.9011   22.5807 C   0  0  0  0  0  0
  -28.6067  -23.0524   20.3579 C   0  0  0  0  0  0
  -28.1826  -25.5221   21.1306 C   0  0  0  0  0  0
  -29.1849  -24.3053   21.1101 C   0  0  0  0  0  0
  -29.9967  -15.6079   20.9154 N   0  0  0  0  0  0
  -29.3553  -21.7963   20.5971 N   0  0  0  0  0  0
  -28.2535  -20.4547   19.1580 O   0  0  0  0  0  0
  -31.4595  -12.4098   19.1285 H   0  0  0  0  0  0
  -30.3164  -11.3268   19.8659 H   0  0  0  0  0  0
  -29.7309  -11.7474   17.4547 H   0  0  0  0  0  0
  -29.6556  -13.4659   17.7531 H   0  0  0  0  0  0
  -27.8246  -11.3048   18.8424 H   0  0  0  0  0  0
  -27.3620  -12.6182   17.7950 H   0  0  0  0  0  0
  -27.6837  -14.2577   19.5465 H   0  0  0  0  0  0
  -28.6874  -12.0290   21.3836 H   0  0  0  0  0  0
  -28.4722  -13.6947   21.8458 H   0  0  0  0  0  0
  -25.2765   -9.5671   22.4774 H   0  0  0  0  0  0
  -24.0000   -7.4622   22.7475 H   0  0  0  0  0  0
  -21.0849   -8.8776   19.8948 H   0  0  0  0  0  0
  -22.3705  -10.9681   19.6174 H   0  0  0  0  0  0
  -21.2007   -7.6148   23.9709 H   0  0  0  0  0  0
  -21.1480   -6.0524   25.9076 H   0  0  0  0  0  0
  -22.0605   -2.7603   23.2846 H   0  0  0  0  0  0
  -22.4101  -11.9858   22.4794 H   0  0  0  0  0  0
  -21.1101  -13.1215   22.2650 H   0  0  0  0  0  0
  -24.6405  -15.8325   20.4823 H   0  0  0  0  0  0
  -26.2411  -15.6106   19.9917 H   0  0  0  0  0  0
  -26.7135  -32.5525   23.1161 H   0  0  0  0  0  0
  -25.0068  -33.9776   25.0472 H   0  0  0  0  0  0
  -22.6946  -31.3064   21.4124 H   0  0  0  0  0  0
  -23.3763  -35.9630   23.3304 H   0  0  0  0  0  0
  -24.3594  -36.8917   22.2058 H   0  0  0  0  0  0
  -23.7237  -37.6503   23.6662 H   0  0  0  0  0  0
  -26.0553  -31.5947   20.6008 H   0  0  0  0  0  0
  -26.8234  -30.8758   21.9886 H   0  0  0  0  0  0
  -28.1068  -29.0669   21.1848 H   0  0  0  0  0  0
  -26.0455  -25.9508   19.0303 H   0  0  0  0  0  0
  -23.9749  -27.2980   19.0283 H   0  0  0  0  0  0
  -23.7250  -30.6027   19.4069 H   0  0  0  0  0  0
  -22.7386  -29.2438   19.8674 H   0  0  0  0  0  0
  -25.1290  -36.1988   25.0826 H   0  0  0  0  0  0
  -20.9945  -28.3206   24.1447 H   0  0  0  0  0  0
  -20.5669  -26.2254   23.3604 H   0  0  0  0  0  0
  -21.6635  -26.7430   22.1215 H   0  0  0  0  0  0
  -19.6920  -25.6273   21.1238 H   0  0  0  0  0  0
  -19.6690  -27.3178   20.6744 H   0  0  0  0  0  0
  -17.4197  -26.6661   21.4009 H   0  0  0  0  0  0
  -18.0308  -26.0028   22.8998 H   0  0  0  0  0  0
  -19.7937  -30.7223   24.2274 H   0  0  0  0  0  0
  -17.5025  -31.6259   24.5148 H   0  0  0  0  0  0
  -15.5353  -30.2967   23.7646 H   0  0  0  0  0  0
  -15.8663  -28.0796   22.7068 H   0  0  0  0  0  0
  -24.5887  -30.7072   25.7804 H   0  0  0  0  0  0
  -24.8904  -32.2876   26.4926 H   0  0  0  0  0  0
  -25.8043  -30.8889   27.0237 H   0  0  0  0  0  0
  -26.2860  -29.6807   24.1156 H   0  0  0  0  0  0
  -27.4092  -29.7302   25.4569 H   0  0  0  0  0  0
  -27.8696  -30.4383   23.9257 H   0  0  0  0  0  0
  -27.2676  -33.3632   26.2080 H   0  0  0  0  0  0
  -28.3850  -32.6877   25.0295 H   0  0  0  0  0  0
  -28.0727  -31.8434   26.5390 H   0  0  0  0  0  0
  -28.2602  -38.0107   24.7530 H   0  0  0  0  0  0
  -28.1085  -36.2645   24.6270 H   0  0  0  0  0  0
  -27.2314  -37.1428   25.8869 H   0  0  0  0  0  0
  -20.9350  -29.8733   21.6952 H   0  0  0  0  0  0
  -26.0203  -38.2869   24.1408 H   0  0  0  0  0  0
  -33.2293  -18.8775   21.4451 H   0  0  0  0  0  0
  -31.7303  -20.6864   20.7369 H   0  0  0  0  0  0
  -32.4516  -16.5635   21.5488 H   0  0  0  0  0  0
  -27.3833  -18.4780   20.6368 H   0  0  0  0  0  0
  -27.7470  -16.7812   20.7060 H   0  0  0  0  0  0
  -27.9059  -17.6367   19.1708 H   0  0  0  0  0  0
  -31.2546  -23.9307   20.4953 H   0  0  0  0  0  0
  -30.9509  -25.5831   21.0111 H   0  0  0  0  0  0
  -30.3863  -25.0361   19.4384 H   0  0  0  0  0  0
  -30.2257  -23.1303   22.6661 H   0  0  0  0  0  0
  -28.5571  -23.5217   23.0625 H   0  0  0  0  0  0
  -29.8122  -24.7485   23.1712 H   0  0  0  0  0  0
  -28.5588  -23.2532   19.2867 H   0  0  0  0  0  0
  -27.5771  -22.8759   20.6747 H   0  0  0  0  0  0
  -28.2690  -26.0298   22.0923 H   0  0  0  0  0  0
  -27.1645  -25.1292   21.1281 H   0  0  0  0  0  0
  -29.0229  -15.4332   21.1059 H   0  0  0  0  0  0
  -30.0704  -21.8239   21.3098 H   0  0  0  0  0  0
  1 25  1  0  0  0
  1 30  2  0  0  0
  1 84  1  0  0  0
  2  3  1  0  0  0
  2 25  1  0  0  0
  2 87  1  0  0  0
  2 88  1  0  0  0
  3  4  1  0  0  0
  3 89  1  0  0  0
  3 90  1  0  0  0
  4  5  1  0  0  0
  4 91  1  0  0  0
  4 92  1  0  0  0
  5  6  1  0  0  0
  5 26  1  0  0  0
  5 93  1  0  0  0
  6 25  1  0  0  0
  6 94  1  0  0  0
  6 95  1  0  0  0
  7  8  2  0  0  0
  7 26  1  0  0  0
  7 29  1  0  0  0
  8  9  1  0  0  0
  8 22  1  0  0  0
  9 10  1  0  0  0
  9 27  2  0  0  0
 10 11  2  0  0  0
 10 15  1  0  0  0
 11 12  1  0  0  0
 11 96  1  0  0  0
 12 13  2  0  0  0
 12 97  1  0  0  0
 13 14  1  0  0  0
 13 31  1  0  0  0
 14 15  2  0  0  0
 14 98  1  0  0  0
 15 99  1  0  0  0
 16 17  2  0  0  0
 16 21  1  0  0  0
 16 31  1  0  0  0
 17 18  1  0  0  0
 17100  1  0  0  0
 18 19  2  0  0  0
 18101  1  0  0  0
 19 20  1  0  0  0
 19 24  1  0  0  0
 20 21  2  0  0  0
 20102  1  0  0  0
 21 23  1  0  0  0
 22 28  1  0  0  0
 22 32  2  0  0  0
 26 27  1  0  0  0
 28103  1  0  0  0
 28104  1  0  0  0
 29105  1  0  0  0
 29106  1  0  0  0
 33 34  1  0  0  0
 33 66  1  0  0  0
 33 70  2  0  0  0
 34 36  1  0  0  0
 34 59  1  0  0  0
 34107  1  0  0  0
 35 44  2  0  0  0
 35 45  1  0  0  0
 35 68  1  0  0  0
 36 56  1  0  0  0
 36108  1  0  0  0
 37 39  1  0  0  0
 37 47  1  0  0  0
 37 66  1  0  0  0
 37109  1  0  0  0
 38 43  2  0  0  0
 38 46  1  0  0  0
 38 47  1  0  0  0
 39 64  1  0  0  0
 39 67  2  0  0  0
 40 52  1  0  0  0
 40 53  2  0  0  0
 40 58  1  0  0  0
 41110  1  0  0  0
 41111  1  0  0  0
 41112  1  0  0  0
 41 48  1  0  0  0
 42 43  1  0  0  0
 42 66  1  0  0  0
 42113  1  0  0  0
 42114  1  0  0  0
 43 44  1  0  0  0
 44115  1  0  0  0
 45 46  2  0  0  0
 45116  1  0  0  0
 46117  1  0  0  0
 47118  1  0  0  0
 47119  1  0  0  0
 48 56  1  0  0  0
 48 65  1  0  0  0
 48120  1  0  0  0
 49 50  1  0  0  0
 49 53  1  0  0  0
 49 64  1  0  0  0
 49121  1  0  0  0
 50 51  1  0  0  0
 50122  1  0  0  0
 50123  1  0  0  0
 51 52  1  0  0  0
 51124  1  0  0  0
 51125  1  0  0  0
 52126  1  0  0  0
 52127  1  0  0  0
 53 54  1  0  0  0
 54 55  2  0  0  0
 54128  1  0  0  0
 55 57  1  0  0  0
 55129  1  0  0  0
 56 69  2  0  0  0
 57 58  2  0  0  0
 57130  1  0  0  0
 58131  1  0  0  0
 59 60  1  0  0  0
 59 61  1  0  0  0
 59 62  1  0  0  0
 60132  1  0  0  0
 60133  1  0  0  0
 60134  1  0  0  0
 61135  1  0  0  0
 61136  1  0  0  0
 61137  1  0  0  0
 62138  1  0  0  0
 62139  1  0  0  0
 62140  1  0  0  0
 63 65  1  0  0  0
 63141  1  0  0  0
 63142  1  0  0  0
 63143  1  0  0  0
 64144  1  0  0  0
 65145  1  0  0  0
 68 82  1  0  0  0
 71 72  2  0  0  0
 71 73  1  0  0  0
 71146  1  0  0  0
 72 74  1  0  0  0
 72147  1  0  0  0
 73 76  2  0  0  0
 73148  1  0  0  0
 74 75  2  0  0  0
 74 77  1  0  0  0
 75 76  1  0  0  0
 75 78  1  0  0  0
 76 84  1  0  0  0
 77 85  1  0  0  0
 77 86  2  0  0  0
 78149  1  0  0  0
 78150  1  0  0  0
 78151  1  0  0  0
 79152  1  0  0  0
 79153  1  0  0  0
 79154  1  0  0  0
 79 83  1  0  0  0
 80 83  1  0  0  0
 80155  1  0  0  0
 80156  1  0  0  0
 80157  1  0  0  0
 81 83  1  0  0  0
 81 85  1  0  0  0
 81158  1  0  0  0
 81159  1  0  0  0
 82 83  1  0  0  0
 82160  1  0  0  0
 82161  1  0  0  0
 84162  1  0  0  0
 85163  1  0  0  0
M  ISO  4   1 100  68 101  82 101  84 100
M  END
> <chiral flag>
0

> <version>
0

> <s_m_source_file>
/data/baiqing/PycharmProjects/Reinvent-master-3.2/result/LINK_invent/BTK/process_docking_weight1_custom_product_contain_oxygen_bond_distance_aromatic_linkinvent_7_9_3/rearranged_h_0057.sdf

> <i_m_source_file_index>
90

> <r_mmod_Potential_Energy-OPLS-2005>
-44.6789360046387

> <r_mmod_Stretch_Energy-OPLS-2005>
54.0990409851074

> <r_mmod_Bend_Energy-OPLS-2005>
107.111877441406

> <r_mmod_Torsional_Energy-OPLS-2005>
276.693328857422

> <r_mmod_Improper_Torsional_Energy-OPLS-2005>
5.09297895431519

> <r_mmod_Van_der_Waal_Energy-OPLS-2005>
162.135803222656

> <r_mmod_Electrostatic_Energy-OPLS-2005>
-457.528411865234

> <r_mmod_Solvation_Energy-OPLS-2005>
-215.537307739258

> <b_mmod_Minimization_Converged-OPLS-2005>
0

> <r_mmod_RMS_Derivative-OPLS-2005>
2.16113972663879

$$$$
91
                    3D
 Structure written by MMmdl.
160169  0  0  1  0            999 V2000
  -30.5315  -14.9326   20.3886 C   0  0  0  0  0  0
  -30.4499  -12.5673   19.4772 C   0  0  0  0  0  0
  -29.5272  -12.5443   18.2379 C   0  0  0  0  0  0
  -28.0531  -12.3350   18.6483 C   0  0  0  0  0  0
  -27.6349  -13.2450   19.8336 C   0  0  2  0  0  0
  -28.6897  -13.2424   20.9626 C   0  0  0  0  0  0
  -25.2465  -13.8139   20.5712 C   0  0  0  0  0  0
  -24.1791  -13.0358   20.9242 C   0  0  0  0  0  0
  -24.6445  -11.6853   20.8723 C   0  0  0  0  0  0
  -23.9136  -10.4241   21.0378 C   0  0  0  0  0  0
  -24.3682   -9.4160   21.9164 C   0  0  0  0  0  0
  -23.6327   -8.2210   22.0738 C   0  0  0  0  0  0
  -22.4292   -8.0268   21.3551 C   0  0  0  0  0  0
  -21.9950   -9.0236   20.4648 C   0  0  0  0  0  0
  -22.7300  -10.2098   20.3037 C   0  0  0  0  0  0
  -21.6867   -6.0754   22.5282 C   0  0  0  0  0  0
  -21.4025   -6.5645   23.8226 C   0  0  0  0  0  0
  -21.3650   -5.6782   24.9173 C   0  0  0  0  0  0
  -21.6041   -4.3042   24.7231 C   0  0  0  0  0  0
  -21.8818   -3.8157   23.4344 C   0  0  0  0  0  0
  -21.9197   -4.6980   22.3413 C   0  0  0  0  0  0
  -22.7813  -13.5138   21.1885 C   0  0  0  0  0  0
  -22.1651   -4.2169   21.0989 F   0  0  0  0  0  0
  -21.5625   -3.4522   25.7747 F   0  0  0  0  0  0
  -29.9688  -13.6578   20.3670 N   0  0  0  0  0  0
  -26.2934  -12.9406   20.3221 N   0  0  0  0  0  0
  -25.9383  -11.6529   20.5719 N   0  0  0  0  0  0
  -22.0455  -12.8143   22.0441 N   0  0  0  0  0  0
  -25.3957  -15.1865   20.4113 N   0  0  0  0  0  0
  -31.7376  -15.0352   20.1373 O   0  0  0  0  0  0
  -21.6635   -6.8882   21.4241 O   0  0  0  0  0  0
  -22.3481  -14.5431   20.6689 O   0  0  0  0  0  0
  -24.6423  -31.8454   23.1912 C   0  0  0  0  0  0
  -25.9212  -32.4692   23.8286 C   0  0  1  0  0  0
  -27.2280  -27.1422   20.1362 C   0  0  0  0  0  0
  -25.5974  -33.8502   24.2196 N   0  0  0  0  0  0
  -23.4447  -30.4665   21.5339 C   0  0  2  0  0  0
  -24.8982  -28.8949   20.1084 C   0  0  0  0  0  0
  -22.7548  -29.4561   22.4835 C   0  0  0  0  0  0
  -18.0311  -28.1383   22.8492 C   0  0  0  0  0  0
  -24.1488  -36.7241   23.2629 C   0  0  0  0  0  0
  -26.0013  -30.7171   21.3951 C   0  0  0  0  0  0
  -26.0713  -29.3303   20.7331 C   0  0  0  0  0  0
  -27.2306  -28.4655   20.7393 C   0  0  0  0  0  0
  -26.0294  -26.8206   19.4555 C   0  0  0  0  0  0
  -24.8888  -27.6528   19.4576 C   0  0  0  0  0  0
  -23.6745  -29.7979   20.1508 C   0  0  0  0  0  0
  -25.4137  -36.3029   24.0302 C   0  0  1  0  0  0
  -20.5925  -28.3723   23.1234 C   0  0  2  0  0  0
  -20.6799  -26.9430   22.5412 C   0  0  0  0  0  0
  -19.5773  -26.6381   21.5213 C   0  0  0  0  0  0
  -18.1949  -26.7932   22.1613 C   0  0  0  0  0  0
  -19.1568  -28.8869   23.2855 C   0  0  0  0  0  0
  -18.9478  -30.1458   23.8892 C   0  0  0  0  0  0
  -17.6474  -30.6588   24.0556 C   0  0  0  0  0  0
  -25.9099  -34.9407   23.5070 C   0  0  0  0  0  0
  -16.5367  -29.9082   23.6325 C   0  0  0  0  0  0
  -16.7293  -28.6489   23.0370 C   0  0  0  0  0  0
  -26.4552  -31.6550   25.0711 C   0  0  0  0  0  0
  -25.3705  -31.3766   26.1375 C   0  0  0  0  0  0
  -27.0419  -30.2934   24.6311 C   0  0  0  0  0  0
  -27.6063  -32.4317   25.7525 C   0  0  0  0  0  0
  -27.5590  -37.1786   24.8461 C   0  0  0  0  0  0
  -21.4239  -29.3053   22.3590 N   0  0  0  0  0  0
  -26.4292  -37.3751   23.9405 N   0  0  0  0  0  0
  -24.7150  -31.0315   22.0942 N   0  0  0  0  0  0
  -23.4200  -28.8101   23.2974 O   0  0  0  0  0  0
  -28.2972  -26.1739   20.2441 O   0  0  0  0  0  0
  -26.5668  -34.8910   22.4640 O   0  0  0  0  0  0
  -23.5539  -32.1327   23.7144 O   0  0  0  0  0  0
  -30.6015  -19.9541   20.6357 C   0  0  0  0  0  0
  -30.7038  -18.5016   20.7436 C   0  0  0  0  0  0
  -28.4733  -19.7616   19.6660 C   0  0  0  0  0  0
  -28.5692  -18.3110   19.7529 C   0  0  0  0  0  0
  -29.4817  -20.6836   20.0851 C   0  0  0  0  0  0
  -29.6914  -17.5813   20.3034 C   0  0  0  0  0  0
  -30.4049  -22.6090   18.7866 C   0  0  0  0  0  0
  -31.2074  -21.8126   18.0526 C   0  0  0  0  0  0
  -30.4459  -24.1177   18.5290 C   0  0  0  0  0  0
  -29.0449  -24.7351   18.3886 C   0  0  0  0  0  0
  -28.7347  -23.2832   20.5053 C   0  0  0  0  0  0
  -28.2793  -24.7030   19.7172 C   0  0  1  0  0  0
  -27.3872  -17.5495   19.1855 C   0  0  0  0  0  0
  -29.4872  -22.1415   19.7505 N   0  0  0  0  0  0
  -29.6637  -16.0521   20.4717 N   0  0  0  0  0  0
  -31.4849  -12.7230   19.1692 H   0  0  0  0  0  0
  -30.4305  -11.6061   19.9937 H   0  0  0  0  0  0
  -29.8398  -11.7612   17.5432 H   0  0  0  0  0  0
  -29.6273  -13.4863   17.6959 H   0  0  0  0  0  0
  -27.9327  -11.2864   18.9207 H   0  0  0  0  0  0
  -27.3999  -12.5059   17.7923 H   0  0  0  0  0  0
  -27.5985  -14.2549   19.4278 H   0  0  0  0  0  0
  -28.7750  -12.2507   21.4092 H   0  0  0  0  0  0
  -28.4044  -13.9219   21.7673 H   0  0  0  0  0  0
  -25.2827   -9.5635   22.4726 H   0  0  0  0  0  0
  -24.0031   -7.4621   22.7457 H   0  0  0  0  0  0
  -21.0880   -8.8776   19.8979 H   0  0  0  0  0  0
  -22.3758  -10.9642   19.6147 H   0  0  0  0  0  0
  -21.1994   -7.6146   23.9754 H   0  0  0  0  0  0
  -21.1471   -6.0495   25.9087 H   0  0  0  0  0  0
  -22.0601   -2.7619   23.2854 H   0  0  0  0  0  0
  -22.4093  -11.9854   22.4908 H   0  0  0  0  0  0
  -21.1046  -13.1142   22.2606 H   0  0  0  0  0  0
  -24.6011  -15.8102   20.5139 H   0  0  0  0  0  0
  -26.2161  -15.6426   20.0404 H   0  0  0  0  0  0
  -26.7260  -32.5308   23.0994 H   0  0  0  0  0  0
  -25.0113  -33.9634   25.0340 H   0  0  0  0  0  0
  -22.7470  -31.2934   21.3806 H   0  0  0  0  0  0
  -23.3774  -35.9542   23.3268 H   0  0  0  0  0  0
  -24.3562  -36.8903   22.2043 H   0  0  0  0  0  0
  -23.7220  -37.6417   23.6698 H   0  0  0  0  0  0
  -26.1624  -31.4760   20.6284 H   0  0  0  0  0  0
  -26.8687  -30.7615   22.0406 H   0  0  0  0  0  0
  -28.1178  -28.7936   21.2605 H   0  0  0  0  0  0
  -25.9172  -25.8910   18.9237 H   0  0  0  0  0  0
  -23.9960  -27.3212   18.9465 H   0  0  0  0  0  0
  -23.8110  -30.5755   19.3975 H   0  0  0  0  0  0
  -22.7881  -29.2429   19.8375 H   0  0  0  0  0  0
  -25.1329  -36.1838   25.0794 H   0  0  0  0  0  0
  -21.0027  -28.3313   24.1340 H   0  0  0  0  0  0
  -20.5665  -26.2348   23.3631 H   0  0  0  0  0  0
  -21.6661  -26.7423   22.1219 H   0  0  0  0  0  0
  -19.6942  -25.6272   21.1268 H   0  0  0  0  0  0
  -19.6716  -27.3162   20.6718 H   0  0  0  0  0  0
  -17.4230  -26.6687   21.4001 H   0  0  0  0  0  0
  -18.0340  -26.0055   22.8990 H   0  0  0  0  0  0
  -19.7957  -30.7277   24.2257 H   0  0  0  0  0  0
  -17.5033  -31.6277   24.5145 H   0  0  0  0  0  0
  -15.5370  -30.2989   23.7657 H   0  0  0  0  0  0
  -15.8685  -28.0801   22.7112 H   0  0  0  0  0  0
  -24.5852  -30.7179   25.7666 H   0  0  0  0  0  0
  -24.8942  -32.2968   26.4755 H   0  0  0  0  0  0
  -25.7920  -30.8920   27.0180 H   0  0  0  0  0  0
  -26.3050  -29.6645   24.1289 H   0  0  0  0  0  0
  -27.3998  -29.7248   25.4910 H   0  0  0  0  0  0
  -27.8986  -30.4176   23.9672 H   0  0  0  0  0  0
  -27.2620  -33.3589   26.2122 H   0  0  0  0  0  0
  -28.3881  -32.6914   25.0373 H   0  0  0  0  0  0
  -28.0725  -31.8425   26.5427 H   0  0  0  0  0  0
  -28.2578  -38.0109   24.7535 H   0  0  0  0  0  0
  -28.1118  -36.2645   24.6256 H   0  0  0  0  0  0
  -27.2314  -37.1386   25.8862 H   0  0  0  0  0  0
  -20.9430  -29.8742   21.6765 H   0  0  0  0  0  0
  -26.0150  -38.2807   24.1434 H   0  0  0  0  0  0
  -31.4577  -20.5309   20.9518 H   0  0  0  0  0  0
  -31.6009  -18.0989   21.1919 H   0  0  0  0  0  0
  -27.5963  -20.1807   19.1947 H   0  0  0  0  0  0
  -31.8782  -22.2340   17.3154 H   0  0  0  0  0  0
  -31.2229  -20.7380   18.1462 H   0  0  0  0  0  0
  -30.9986  -24.3124   17.6071 H   0  0  0  0  0  0
  -31.0136  -24.6045   19.3235 H   0  0  0  0  0  0
  -28.4954  -24.1619   17.6404 H   0  0  0  0  0  0
  -29.1085  -25.7512   18.0014 H   0  0  0  0  0  0
  -27.8508  -22.8523   20.9762 H   0  0  0  0  0  0
  -29.3809  -23.5671   21.3371 H   0  0  0  0  0  0
  -27.2494  -24.4790   19.4595 H   0  0  0  0  0  0
  -27.0257  -18.0330   18.2776 H   0  0  0  0  0  0
  -26.5748  -17.5481   19.9121 H   0  0  0  0  0  0
  -27.6385  -16.5259   18.9154 H   0  0  0  0  0  0
  -28.7213  -15.7109   20.5739 H   0  0  0  0  0  0
  1 25  1  0  0  0
  1 30  2  0  0  0
  1 85  1  0  0  0
  2  3  1  0  0  0
  2 25  1  0  0  0
  2 86  1  0  0  0
  2 87  1  0  0  0
  3  4  1  0  0  0
  3 88  1  0  0  0
  3 89  1  0  0  0
  4  5  1  0  0  0
  4 90  1  0  0  0
  4 91  1  0  0  0
  5  6  1  0  0  0
  5 26  1  0  0  0
  5 92  1  0  0  0
  6 25  1  0  0  0
  6 93  1  0  0  0
  6 94  1  0  0  0
  7  8  2  0  0  0
  7 26  1  0  0  0
  7 29  1  0  0  0
  8  9  1  0  0  0
  8 22  1  0  0  0
  9 10  1  0  0  0
  9 27  2  0  0  0
 10 11  2  0  0  0
 10 15  1  0  0  0
 11 12  1  0  0  0
 11 95  1  0  0  0
 12 13  2  0  0  0
 12 96  1  0  0  0
 13 14  1  0  0  0
 13 31  1  0  0  0
 14 15  2  0  0  0
 14 97  1  0  0  0
 15 98  1  0  0  0
 16 17  2  0  0  0
 16 21  1  0  0  0
 16 31  1  0  0  0
 17 18  1  0  0  0
 17 99  1  0  0  0
 18 19  2  0  0  0
 18100  1  0  0  0
 19 20  1  0  0  0
 19 24  1  0  0  0
 20 21  2  0  0  0
 20101  1  0  0  0
 21 23  1  0  0  0
 22 28  1  0  0  0
 22 32  2  0  0  0
 26 27  1  0  0  0
 28102  1  0  0  0
 28103  1  0  0  0
 29104  1  0  0  0
 29105  1  0  0  0
 33 34  1  0  0  0
 33 66  1  0  0  0
 33 70  2  0  0  0
 34 36  1  0  0  0
 34 59  1  0  0  0
 34106  1  0  0  0
 35 44  2  0  0  0
 35 45  1  0  0  0
 35 68  1  0  0  0
 36 56  1  0  0  0
 36107  1  0  0  0
 37 39  1  0  0  0
 37 47  1  0  0  0
 37 66  1  0  0  0
 37108  1  0  0  0
 38 43  2  0  0  0
 38 46  1  0  0  0
 38 47  1  0  0  0
 39 64  1  0  0  0
 39 67  2  0  0  0
 40 52  1  0  0  0
 40 53  2  0  0  0
 40 58  1  0  0  0
 41109  1  0  0  0
 41110  1  0  0  0
 41111  1  0  0  0
 41 48  1  0  0  0
 42 43  1  0  0  0
 42 66  1  0  0  0
 42112  1  0  0  0
 42113  1  0  0  0
 43 44  1  0  0  0
 44114  1  0  0  0
 45 46  2  0  0  0
 45115  1  0  0  0
 46116  1  0  0  0
 47117  1  0  0  0
 47118  1  0  0  0
 48 56  1  0  0  0
 48 65  1  0  0  0
 48119  1  0  0  0
 49 50  1  0  0  0
 49 53  1  0  0  0
 49 64  1  0  0  0
 49120  1  0  0  0
 50 51  1  0  0  0
 50121  1  0  0  0
 50122  1  0  0  0
 51 52  1  0  0  0
 51123  1  0  0  0
 51124  1  0  0  0
 52125  1  0  0  0
 52126  1  0  0  0
 53 54  1  0  0  0
 54 55  2  0  0  0
 54127  1  0  0  0
 55 57  1  0  0  0
 55128  1  0  0  0
 56 69  2  0  0  0
 57 58  2  0  0  0
 57129  1  0  0  0
 58130  1  0  0  0
 59 60  1  0  0  0
 59 61  1  0  0  0
 59 62  1  0  0  0
 60131  1  0  0  0
 60132  1  0  0  0
 60133  1  0  0  0
 61134  1  0  0  0
 61135  1  0  0  0
 61136  1  0  0  0
 62137  1  0  0  0
 62138  1  0  0  0
 62139  1  0  0  0
 63 65  1  0  0  0
 63140  1  0  0  0
 63141  1  0  0  0
 63142  1  0  0  0
 64143  1  0  0  0
 65144  1  0  0  0
 68 82  1  0  0  0
 71 72  2  0  0  0
 71 75  1  0  0  0
 71145  1  0  0  0
 72 76  1  0  0  0
 72146  1  0  0  0
 73 74  1  0  0  0
 73 75  2  0  0  0
 73147  1  0  0  0
 74 76  2  0  0  0
 74 83  1  0  0  0
 75 84  1  0  0  0
 76 85  1  0  0  0
 77 78  2  0  0  0
 77 79  1  0  0  0
 77 84  1  0  0  0
 78148  1  0  0  0
 78149  1  0  0  0
 79 80  1  0  0  0
 79150  1  0  0  0
 79151  1  0  0  0
 80 82  1  0  0  0
 80152  1  0  0  0
 80153  1  0  0  0
 81 82  1  0  0  0
 81 84  1  0  0  0
 81154  1  0  0  0
 81155  1  0  0  0
 82156  1  0  0  0
 83157  1  0  0  0
 83158  1  0  0  0
 83159  1  0  0  0
 85160  1  0  0  0
M  ISO  4   1 100  68 101  82 101  85 100
M  END
> <chiral flag>
0

> <version>
0

> <s_m_source_file>
/data/baiqing/PycharmProjects/Reinvent-master-3.2/result/LINK_invent/BTK/process_docking_weight1_custom_product_contain_oxygen_bond_distance_aromatic_linkinvent_7_9_3/rearranged_h_0057.sdf

> <i_m_source_file_index>
91

> <r_mmod_Potential_Energy-OPLS-2005>
504.467712402344

> <r_mmod_Stretch_Energy-OPLS-2005>
234.499542236328

> <r_mmod_Bend_Energy-OPLS-2005>
270.841430664062

> <r_mmod_Torsional_Energy-OPLS-2005>
284.856811523438

> <r_mmod_Improper_Torsional_Energy-OPLS-2005>
7.79670286178589

> <r_mmod_Van_der_Waal_Energy-OPLS-2005>
147.152969360352

> <r_mmod_Electrostatic_Energy-OPLS-2005>
-417.313781738281

> <r_mmod_Solvation_Energy-OPLS-2005>
-206.892379760742

> <b_mmod_Minimization_Converged-OPLS-2005>
0

> <r_mmod_RMS_Derivative-OPLS-2005>
3.84150910377502

$$$$
92
                    3D
 Structure written by MMmdl.
174183  0  0  1  0            999 V2000
  -30.6475  -14.4002   20.7495 C   0  0  0  0  0  0
  -30.4430  -12.3376   19.3698 C   0  0  0  0  0  0
  -29.4936  -12.5598   18.1718 C   0  0  0  0  0  0
  -28.0147  -12.3836   18.5829 C   0  0  0  0  0  0
  -27.6638  -13.1773   19.8685 C   0  0  2  0  0  0
  -28.6918  -12.8323   20.9624 C   0  0  0  0  0  0
  -25.2620  -13.8085   20.5609 C   0  0  0  0  0  0
  -24.1850  -13.0404   20.9174 C   0  0  0  0  0  0
  -24.6378  -11.6861   20.8745 C   0  0  0  0  0  0
  -23.9047  -10.4276   21.0424 C   0  0  0  0  0  0
  -24.3610   -9.4205   21.9202 C   0  0  0  0  0  0
  -23.6300   -8.2227   22.0745 C   0  0  0  0  0  0
  -22.4269   -8.0279   21.3543 C   0  0  0  0  0  0
  -21.9914   -9.0252   20.4633 C   0  0  0  0  0  0
  -22.7233  -10.2133   20.3067 C   0  0  0  0  0  0
  -21.6841   -6.0748   22.5289 C   0  0  0  0  0  0
  -21.3971   -6.5647   23.8221 C   0  0  0  0  0  0
  -21.3659   -5.6809   24.9190 C   0  0  0  0  0  0
  -21.6051   -4.3074   24.7236 C   0  0  0  0  0  0
  -21.8818   -3.8157   23.4358 C   0  0  0  0  0  0
  -21.9182   -4.6974   22.3414 C   0  0  0  0  0  0
  -22.7894  -13.5240   21.1893 C   0  0  0  0  0  0
  -22.1667   -4.2159   21.0992 F   0  0  0  0  0  0
  -21.5652   -3.4557   25.7751 F   0  0  0  0  0  0
  -30.0240  -13.2271   20.4593 N   0  0  0  0  0  0
  -26.3005  -12.9194   20.3253 N   0  0  0  0  0  0
  -25.9265  -11.6397   20.5677 N   0  0  0  0  0  0
  -22.0491  -12.8217   22.0401 N   0  0  0  0  0  0
  -25.4391  -15.1806   20.4040 N   0  0  0  0  0  0
  -31.7031  -14.7809   20.2296 O   0  0  0  0  0  0
  -21.6631   -6.8874   21.4248 O   0  0  0  0  0  0
  -22.3609  -14.5593   20.6806 O   0  0  0  0  0  0
  -24.6139  -31.8670   23.2094 C   0  0  0  0  0  0
  -25.9053  -32.4780   23.8393 C   0  0  1  0  0  0
  -27.2532  -27.4730   20.0818 C   0  0  0  0  0  0
  -25.5935  -33.8571   24.2379 N   0  0  0  0  0  0
  -23.4038  -30.4907   21.5480 C   0  0  2  0  0  0
  -24.8544  -28.9625   20.1169 C   0  0  0  0  0  0
  -22.7415  -29.4662   22.4961 C   0  0  0  0  0  0
  -18.0267  -28.1407   22.8501 C   0  0  0  0  0  0
  -24.1495  -36.7302   23.2645 C   0  0  0  0  0  0
  -25.9274  -30.8506   21.3537 C   0  0  0  0  0  0
  -26.0144  -29.4839   20.7065 C   0  0  0  0  0  0
  -27.2188  -28.7478   20.6877 C   0  0  0  0  0  0
  -26.0743  -26.9439   19.5197 C   0  0  0  0  0  0
  -24.8789  -27.6916   19.5149 C   0  0  0  0  0  0
  -23.6117  -29.8199   20.1639 C   0  0  0  0  0  0
  -25.4115  -36.3088   24.0336 C   0  0  1  0  0  0
  -20.5871  -28.3696   23.1304 C   0  0  2  0  0  0
  -20.6764  -26.9429   22.5401 C   0  0  0  0  0  0
  -19.5746  -26.6410   21.5208 C   0  0  0  0  0  0
  -18.1923  -26.7948   22.1618 C   0  0  0  0  0  0
  -19.1532  -28.8863   23.2915 C   0  0  0  0  0  0
  -18.9451  -30.1466   23.8935 C   0  0  0  0  0  0
  -17.6455  -30.6611   24.0582 C   0  0  0  0  0  0
  -25.9024  -34.9431   23.5141 C   0  0  0  0  0  0
  -16.5346  -29.9127   23.6325 C   0  0  0  0  0  0
  -16.7258  -28.6545   23.0357 C   0  0  0  0  0  0
  -26.4535  -31.6527   25.0676 C   0  0  0  0  0  0
  -25.3816  -31.3583   26.1441 C   0  0  0  0  0  0
  -27.0366  -30.2986   24.6044 C   0  0  0  0  0  0
  -27.6135  -32.4250   25.7391 C   0  0  0  0  0  0
  -27.5574  -37.1797   24.8439 C   0  0  0  0  0  0
  -21.4147  -29.3060   22.3695 N   0  0  0  0  0  0
  -26.4281  -37.3769   23.9411 N   0  0  0  0  0  0
  -24.6665  -31.0787   22.0985 N   0  0  0  0  0  0
  -23.4182  -28.8206   23.3003 O   0  0  0  0  0  0
  -28.4011  -26.7232   20.0314 O   0  0  0  0  0  0
  -26.5531  -34.8895   22.4685 O   0  0  0  0  0  0
  -23.5328  -32.1422   23.7486 O   0  0  0  0  0  0
  -30.0761  -18.3473   24.3167 C   0  0  0  0  0  0
  -29.7104  -17.0655   24.7518 C   0  0  0  0  0  0
  -30.5015  -18.5460   22.9920 C   0  0  0  0  0  0
  -30.9957  -20.0210   18.8702 C   0  0  0  0  0  0
  -31.7630  -22.3242   20.2635 C   0  0  0  0  0  0
  -31.7022  -19.8785   20.0902 C   0  0  0  0  0  0
  -29.7039  -15.9918   23.8404 C   0  0  0  0  0  0
  -30.7572  -21.2920   18.3009 C   0  0  0  0  0  0
  -32.0967  -21.0560   20.7868 C   0  0  0  0  0  0
  -30.6284  -17.4551   22.0965 C   0  0  0  0  0  0
  -31.1232  -22.4557   19.0137 C   0  0  0  0  0  0
  -30.1615  -16.1808   22.5085 C   0  0  0  0  0  0
  -32.1498  -18.5001   20.5065 C   0  0  0  0  0  0
  -30.3624  -26.1509   18.6760 C   0  0  0  0  0  0
  -29.1345  -14.6553   24.3057 C   0  0  0  0  0  0
  -30.1643  -21.3927   16.8983 C   0  0  0  0  0  0
  -32.9221  -21.0369   22.0649 C   0  0  0  0  0  0
  -30.2241  -24.7324   19.2578 C   0  0  0  0  0  0
  -29.4087  -27.2548   19.1692 C   0  0  0  0  0  0
  -31.2047  -17.5968   20.8089 N   0  0  0  0  0  0
  -29.8967  -15.1301   21.5927 N   0  0  0  0  0  0
  -30.9022  -23.7170   18.4456 N   0  0  0  0  0  0
  -33.3440  -18.2059   20.4793 O   0  0  0  0  0  0
  -31.2137  -26.3927   17.8109 O   0  0  0  0  0  0
  -31.4810  -12.5102   19.0836 H   0  0  0  0  0  0
  -30.3907  -11.3006   19.7022 H   0  0  0  0  0  0
  -29.7447  -11.8738   17.3623 H   0  0  0  0  0  0
  -29.6431  -13.5632   17.7651 H   0  0  0  0  0  0
  -27.8398  -11.3186   18.7505 H   0  0  0  0  0  0
  -27.3589  -12.6739   17.7631 H   0  0  0  0  0  0
  -27.7380  -14.2401   19.6328 H   0  0  0  0  0  0
  -28.6942  -11.7580   21.1558 H   0  0  0  0  0  0
  -28.3940  -13.2617   21.9188 H   0  0  0  0  0  0
  -25.2742   -9.5696   22.4793 H   0  0  0  0  0  0
  -24.0023   -7.4604   22.7453 H   0  0  0  0  0  0
  -21.0852   -8.8765   19.8925 H   0  0  0  0  0  0
  -22.3689  -10.9691   19.6187 H   0  0  0  0  0  0
  -21.1916   -7.6139   23.9735 H   0  0  0  0  0  0
  -21.1506   -6.0525   25.9100 H   0  0  0  0  0  0
  -22.0592   -2.7619   23.2858 H   0  0  0  0  0  0
  -22.4061  -11.9862   22.4798 H   0  0  0  0  0  0
  -21.1094  -13.1252   22.2570 H   0  0  0  0  0  0
  -24.6770  -15.8414   20.5050 H   0  0  0  0  0  0
  -26.3018  -15.6177   20.0999 H   0  0  0  0  0  0
  -26.7104  -32.5528   23.1148 H   0  0  0  0  0  0
  -25.0183  -33.9733   25.0588 H   0  0  0  0  0  0
  -22.6919  -31.3059   21.4048 H   0  0  0  0  0  0
  -23.3705  -35.9693   23.3283 H   0  0  0  0  0  0
  -24.3589  -36.8919   22.2056 H   0  0  0  0  0  0
  -23.7269  -37.6521   23.6640 H   0  0  0  0  0  0
  -26.0169  -31.6133   20.5784 H   0  0  0  0  0  0
  -26.8218  -30.9101   21.9644 H   0  0  0  0  0  0
  -28.1103  -29.1583   21.1403 H   0  0  0  0  0  0
  -26.0832  -25.9550   19.0814 H   0  0  0  0  0  0
  -23.9865  -27.2907   19.0538 H   0  0  0  0  0  0
  -23.7085  -30.5905   19.3974 H   0  0  0  0  0  0
  -22.7419  -29.2261   19.8779 H   0  0  0  0  0  0
  -25.1257  -36.1925   25.0816 H   0  0  0  0  0  0
  -20.9999  -28.3302   24.1419 H   0  0  0  0  0  0
  -20.5711  -26.2308   23.3621 H   0  0  0  0  0  0
  -21.6613  -26.7504   22.1164 H   0  0  0  0  0  0
  -19.6911  -25.6337   21.1228 H   0  0  0  0  0  0
  -19.6675  -27.3215   20.6752 H   0  0  0  0  0  0
  -17.4199  -26.6726   21.4026 H   0  0  0  0  0  0
  -18.0331  -26.0091   22.9015 H   0  0  0  0  0  0
  -19.7928  -30.7287   24.2344 H   0  0  0  0  0  0
  -17.5000  -31.6285   24.5178 H   0  0  0  0  0  0
  -15.5360  -30.3050   23.7614 H   0  0  0  0  0  0
  -15.8653  -28.0883   22.7070 H   0  0  0  0  0  0
  -24.5937  -30.7036   25.7680 H   0  0  0  0  0  0
  -24.9074  -32.2752   26.4951 H   0  0  0  0  0  0
  -25.8123  -30.8605   27.0145 H   0  0  0  0  0  0
  -26.2895  -29.6645   24.1258 H   0  0  0  0  0  0
  -27.4320  -29.7345   25.4503 H   0  0  0  0  0  0
  -27.8662  -30.4290   23.9098 H   0  0  0  0  0  0
  -27.2821  -33.3562   26.2006 H   0  0  0  0  0  0
  -28.3902  -32.6784   25.0150 H   0  0  0  0  0  0
  -28.0915  -31.8360   26.5246 H   0  0  0  0  0  0
  -28.2592  -38.0078   24.7447 H   0  0  0  0  0  0
  -28.1051  -36.2602   24.6265 H   0  0  0  0  0  0
  -27.2285  -37.1440   25.8835 H   0  0  0  0  0  0
  -20.9300  -29.8762   21.6913 H   0  0  0  0  0  0
  -26.0160  -38.2858   24.1366 H   0  0  0  0  0  0
  -30.0236  -19.1818   25.0026 H   0  0  0  0  0  0
  -29.3790  -16.9329   25.7737 H   0  0  0  0  0  0
  -30.7266  -19.5542   22.6854 H   0  0  0  0  0  0
  -30.7167  -19.1331   18.3178 H   0  0  0  0  0  0
  -32.0848  -23.2053   20.8006 H   0  0  0  0  0  0
  -29.1312  -14.5636   25.3938 H   0  0  0  0  0  0
  -29.6961  -13.8082   23.9132 H   0  0  0  0  0  0
  -28.1046  -14.5693   23.9625 H   0  0  0  0  0  0
  -30.9351  -21.6377   16.1652 H   0  0  0  0  0  0
  -29.4106  -22.1767   16.8502 H   0  0  0  0  0  0
  -29.6924  -20.4628   16.5865 H   0  0  0  0  0  0
  -33.9874  -21.0796   21.8349 H   0  0  0  0  0  0
  -32.7533  -20.1571   22.6805 H   0  0  0  0  0  0
  -32.6649  -21.9107   22.6667 H   0  0  0  0  0  0
  -29.1631  -24.4850   19.3284 H   0  0  0  0  0  0
  -30.6171  -24.7420   20.2737 H   0  0  0  0  0  0
  -28.9543  -27.7126   18.2904 H   0  0  0  0  0  0
  -29.9754  -28.0363   19.6749 H   0  0  0  0  0  0
  -31.4738  -16.6799   20.4641 H   0  0  0  0  0  0
  -29.0531  -14.6259   21.8171 H   0  0  0  0  0  0
  -30.5953  -23.7092   17.4776 H   0  0  0  0  0  0
  1 25  1  0  0  0
  1 30  2  0  0  0
  1 91  1  0  0  0
  2  3  1  0  0  0
  2 25  1  0  0  0
  2 95  1  0  0  0
  2 96  1  0  0  0
  3  4  1  0  0  0
  3 97  1  0  0  0
  3 98  1  0  0  0
  4  5  1  0  0  0
  4 99  1  0  0  0
  4100  1  0  0  0
  5  6  1  0  0  0
  5 26  1  0  0  0
  5101  1  0  0  0
  6 25  1  0  0  0
  6102  1  0  0  0
  6103  1  0  0  0
  7  8  2  0  0  0
  7 26  1  0  0  0
  7 29  1  0  0  0
  8  9  1  0  0  0
  8 22  1  0  0  0
  9 10  1  0  0  0
  9 27  2  0  0  0
 10 11  2  0  0  0
 10 15  1  0  0  0
 11 12  1  0  0  0
 11104  1  0  0  0
 12 13  2  0  0  0
 12105  1  0  0  0
 13 14  1  0  0  0
 13 31  1  0  0  0
 14 15  2  0  0  0
 14106  1  0  0  0
 15107  1  0  0  0
 16 17  2  0  0  0
 16 21  1  0  0  0
 16 31  1  0  0  0
 17 18  1  0  0  0
 17108  1  0  0  0
 18 19  2  0  0  0
 18109  1  0  0  0
 19 20  1  0  0  0
 19 24  1  0  0  0
 20 21  2  0  0  0
 20110  1  0  0  0
 21 23  1  0  0  0
 22 28  1  0  0  0
 22 32  2  0  0  0
 26 27  1  0  0  0
 28111  1  0  0  0
 28112  1  0  0  0
 29113  1  0  0  0
 29114  1  0  0  0
 33 34  1  0  0  0
 33 66  1  0  0  0
 33 70  2  0  0  0
 34 36  1  0  0  0
 34 59  1  0  0  0
 34115  1  0  0  0
 35 44  2  0  0  0
 35 45  1  0  0  0
 35 68  1  0  0  0
 36 56  1  0  0  0
 36116  1  0  0  0
 37 39  1  0  0  0
 37 47  1  0  0  0
 37 66  1  0  0  0
 37117  1  0  0  0
 38 43  2  0  0  0
 38 46  1  0  0  0
 38 47  1  0  0  0
 39 64  1  0  0  0
 39 67  2  0  0  0
 40 52  1  0  0  0
 40 53  2  0  0  0
 40 58  1  0  0  0
 41118  1  0  0  0
 41119  1  0  0  0
 41120  1  0  0  0
 41 48  1  0  0  0
 42 43  1  0  0  0
 42 66  1  0  0  0
 42121  1  0  0  0
 42122  1  0  0  0
 43 44  1  0  0  0
 44123  1  0  0  0
 45 46  2  0  0  0
 45124  1  0  0  0
 46125  1  0  0  0
 47126  1  0  0  0
 47127  1  0  0  0
 48 56  1  0  0  0
 48 65  1  0  0  0
 48128  1  0  0  0
 49 50  1  0  0  0
 49 53  1  0  0  0
 49 64  1  0  0  0
 49129  1  0  0  0
 50 51  1  0  0  0
 50130  1  0  0  0
 50131  1  0  0  0
 51 52  1  0  0  0
 51132  1  0  0  0
 51133  1  0  0  0
 52134  1  0  0  0
 52135  1  0  0  0
 53 54  1  0  0  0
 54 55  2  0  0  0
 54136  1  0  0  0
 55 57  1  0  0  0
 55137  1  0  0  0
 56 69  2  0  0  0
 57 58  2  0  0  0
 57138  1  0  0  0
 58139  1  0  0  0
 59 60  1  0  0  0
 59 61  1  0  0  0
 59 62  1  0  0  0
 60140  1  0  0  0
 60141  1  0  0  0
 60142  1  0  0  0
 61143  1  0  0  0
 61144  1  0  0  0
 61145  1  0  0  0
 62146  1  0  0  0
 62147  1  0  0  0
 62148  1  0  0  0
 63 65  1  0  0  0
 63149  1  0  0  0
 63150  1  0  0  0
 63151  1  0  0  0
 64152  1  0  0  0
 65153  1  0  0  0
 68 89  1  0  0  0
 71 72  2  0  0  0
 71 73  1  0  0  0
 71154  1  0  0  0
 72 77  1  0  0  0
 72155  1  0  0  0
 73 80  2  0  0  0
 73156  1  0  0  0
 74 76  2  0  0  0
 74 78  1  0  0  0
 74157  1  0  0  0
 75 79  2  0  0  0
 75 81  1  0  0  0
 75158  1  0  0  0
 76 79  1  0  0  0
 76 83  1  0  0  0
 77 82  2  0  0  0
 77 85  1  0  0  0
 78 81  2  0  0  0
 78 86  1  0  0  0
 79 87  1  0  0  0
 80 82  1  0  0  0
 80 90  1  0  0  0
 81 92  1  0  0  0
 82 91  1  0  0  0
 83 90  1  0  0  0
 83 93  2  0  0  0
 84 88  1  0  0  0
 84 89  1  0  0  0
 84 94  2  0  0  0
 85159  1  0  0  0
 85160  1  0  0  0
 85161  1  0  0  0
 86162  1  0  0  0
 86163  1  0  0  0
 86164  1  0  0  0
 87165  1  0  0  0
 87166  1  0  0  0
 87167  1  0  0  0
 88 92  1  0  0  0
 88168  1  0  0  0
 88169  1  0  0  0
 89170  1  0  0  0
 89171  1  0  0  0
 90172  1  0  0  0
 91173  1  0  0  0
 92174  1  0  0  0
M  ISO  4   1 100  68 101  89 101  91 100
M  END
> <chiral flag>
0

> <version>
0

> <s_m_source_file>
/data/baiqing/PycharmProjects/Reinvent-master-3.2/result/LINK_invent/BTK/process_docking_weight1_custom_product_contain_oxygen_bond_distance_aromatic_linkinvent_7_9_3/rearranged_h_0057.sdf

> <i_m_source_file_index>
92

> <r_mmod_Potential_Energy-OPLS-2005>
14.0458059310913

> <r_mmod_Stretch_Energy-OPLS-2005>
38.4573745727539

> <r_mmod_Bend_Energy-OPLS-2005>
126.597328186035

> <r_mmod_Torsional_Energy-OPLS-2005>
352.00048828125

> <r_mmod_Improper_Torsional_Energy-OPLS-2005>
15.0908670425415

> <r_mmod_Van_der_Waal_Energy-OPLS-2005>
181.437606811523

> <r_mmod_Electrostatic_Energy-OPLS-2005>
-473.177856445312

> <r_mmod_Solvation_Energy-OPLS-2005>
-242.572296142578

> <b_mmod_Minimization_Converged-OPLS-2005>
0

> <r_mmod_RMS_Derivative-OPLS-2005>
6.28480339050293

$$$$
93
                    3D
 Structure written by MMmdl.
175183  0  0  1  0            999 V2000
  -30.6914  -14.4183   20.4847 C   0  0  0  0  0  0
  -30.4237  -12.2539   19.3988 C   0  0  0  0  0  0
  -29.4905  -12.4703   18.1853 C   0  0  0  0  0  0
  -28.0040  -12.3513   18.5924 C   0  0  0  0  0  0
  -27.6557  -13.1797   19.8602 C   0  0  2  0  0  0
  -28.7002  -12.9204   20.9651 C   0  0  0  0  0  0
  -25.2603  -13.8080   20.5669 C   0  0  0  0  0  0
  -24.1849  -13.0437   20.9209 C   0  0  0  0  0  0
  -24.6332  -11.6870   20.8706 C   0  0  0  0  0  0
  -23.8979  -10.4309   21.0370 C   0  0  0  0  0  0
  -24.3562   -9.4240   21.9141 C   0  0  0  0  0  0
  -23.6283   -8.2250   22.0699 C   0  0  0  0  0  0
  -22.4249   -8.0281   21.3514 C   0  0  0  0  0  0
  -21.9870   -9.0230   20.4593 C   0  0  0  0  0  0
  -22.7152  -10.2131   20.3028 C   0  0  0  0  0  0
  -21.6836   -6.0758   22.5289 C   0  0  0  0  0  0
  -21.3973   -6.5641   23.8234 C   0  0  0  0  0  0
  -21.3676   -5.6780   24.9189 C   0  0  0  0  0  0
  -21.6068   -4.3051   24.7216 C   0  0  0  0  0  0
  -21.8817   -3.8157   23.4326 C   0  0  0  0  0  0
  -21.9187   -4.6988   22.3397 C   0  0  0  0  0  0
  -22.7884  -13.5256   21.1936 C   0  0  0  0  0  0
  -22.1672   -4.2194   21.0970 F   0  0  0  0  0  0
  -21.5652   -3.4523   25.7714 F   0  0  0  0  0  0
  -30.0264  -13.2369   20.4136 N   0  0  0  0  0  0
  -26.2997  -12.9196   20.3305 N   0  0  0  0  0  0
  -25.9240  -11.6377   20.5690 N   0  0  0  0  0  0
  -22.0485  -12.8258   22.0449 N   0  0  0  0  0  0
  -25.4465  -15.1786   20.4032 N   0  0  0  0  0  0
  -31.8991  -14.5375   20.2838 O   0  0  0  0  0  0
  -21.6623   -6.8875   21.4237 O   0  0  0  0  0  0
  -22.3596  -14.5603   20.6800 O   0  0  0  0  0  0
  -24.6179  -31.8745   23.2088 C   0  0  0  0  0  0
  -25.9052  -32.4876   23.8402 C   0  0  1  0  0  0
  -27.2518  -27.4547   20.0911 C   0  0  0  0  0  0
  -25.5910  -33.8663   24.2375 N   0  0  0  0  0  0
  -23.4039  -30.5071   21.5478 C   0  0  2  0  0  0
  -24.8543  -28.9616   20.1209 C   0  0  0  0  0  0
  -22.7411  -29.4857   22.4997 C   0  0  0  0  0  0
  -18.0425  -28.1175   22.8587 C   0  0  0  0  0  0
  -24.1479  -36.7333   23.2631 C   0  0  0  0  0  0
  -25.9286  -30.8509   21.3487 C   0  0  0  0  0  0
  -26.0100  -29.4789   20.7172 C   0  0  0  0  0  0
  -27.2058  -28.7274   20.7060 C   0  0  0  0  0  0
  -26.0731  -26.9551   19.4849 C   0  0  0  0  0  0
  -24.8791  -27.6993   19.5060 C   0  0  0  0  0  0
  -23.6151  -29.8277   20.1666 C   0  0  0  0  0  0
  -25.4102  -36.3162   24.0347 C   0  0  1  0  0  0
  -20.5978  -28.3768   23.1219 C   0  0  2  0  0  0
  -20.7232  -26.9733   22.4772 C   0  0  0  0  0  0
  -19.5804  -26.6323   21.5167 C   0  0  0  0  0  0
  -18.2265  -26.7589   22.2093 C   0  0  0  0  0  0
  -19.1581  -28.8782   23.2910 C   0  0  0  0  0  0
  -18.9367  -30.1492   23.8697 C   0  0  0  0  0  0
  -17.6291  -30.6525   24.0047 C   0  0  0  0  0  0
  -25.9026  -34.9509   23.5157 C   0  0  0  0  0  0
  -16.5262  -29.8839   23.5912 C   0  0  0  0  0  0
  -16.7351  -28.6162   23.0243 C   0  0  0  0  0  0
  -26.4496  -31.6602   25.0661 C   0  0  0  0  0  0
  -25.3806  -31.3606   26.1402 C   0  0  0  0  0  0
  -27.0258  -30.3079   24.5880 C   0  0  0  0  0  0
  -27.6089  -32.4271   25.7444 C   0  0  0  0  0  0
  -27.5567  -37.1842   24.8483 C   0  0  0  0  0  0
  -21.4111  -29.3488   22.3974 N   0  0  0  0  0  0
  -26.4274  -37.3851   23.9446 N   0  0  0  0  0  0
  -24.6719  -31.0872   22.0956 N   0  0  0  0  0  0
  -23.4196  -28.8186   23.2851 O   0  0  0  0  0  0
  -28.4608  -26.7812   20.0646 O   0  0  0  0  0  0
  -26.5561  -34.8965   22.4696 O   0  0  0  0  0  0
  -23.5374  -32.1452   23.7505 O   0  0  0  0  0  0
  -27.9535  -16.8306   23.0406 C   0  0  0  0  0  0
  -28.8355  -16.0042   22.3331 C   0  0  0  0  0  0
  -28.4467  -17.3357   20.3273 C   0  0  0  0  0  0
  -27.5567  -18.1701   21.0278 C   0  0  0  0  0  0
  -27.3109  -17.9164   22.4070 C   0  0  0  0  0  0
  -29.0770  -16.2500   20.9639 C   0  0  0  0  0  0
  -26.8953  -19.2895   20.2725 C   0  0  0  0  0  0
  -28.5329  -25.4073   20.0732 C   0  0  0  0  0  0
  -26.3606  -18.7595   23.2386 C   0  0  0  0  0  0
  -28.6049  -24.5422   23.9058 C   0  0  0  0  0  0
  -26.5430  -24.8945   22.5202 C   0  0  0  0  0  0
  -26.7026  -21.9363   17.6672 C   0  0  0  0  0  0
  -28.9446  -24.8811   21.4524 C   0  0  0  0  0  0
  -28.4825  -23.2800   18.9232 C   0  0  0  0  0  0
  -26.7945  -21.7744   20.2626 C   0  0  0  0  0  0
  -28.0403  -25.2413   22.6584 C   0  0  0  0  0  0
  -27.0783  -22.6214   18.9925 C   0  0  2  0  0  0
  -28.3774  -24.7378   18.9919 N   0  0  0  0  0  0
  -29.9472  -15.4816   20.1659 N   0  0  0  0  0  0
  -27.4699  -20.4882   20.4313 N   0  0  0  0  0  0
  -25.8899  -19.0867   19.5889 O   0  0  0  0  0  0
  -31.4670  -12.3729   19.0968 H   0  0  0  0  0  0
  -30.3357  -11.2383   19.7872 H   0  0  0  0  0  0
  -29.7176  -11.7486   17.3995 H   0  0  0  0  0  0
  -29.6821  -13.4562   17.7592 H   0  0  0  0  0  0
  -27.7971  -11.2955   18.7715 H   0  0  0  0  0  0
  -27.3617  -12.6473   17.7632 H   0  0  0  0  0  0
  -27.7031  -14.2296   19.5776 H   0  0  0  0  0  0
  -28.6702  -11.8663   21.2480 H   0  0  0  0  0  0
  -28.4729  -13.4645   21.8747 H   0  0  0  0  0  0
  -25.2689   -9.5771   22.4725 H   0  0  0  0  0  0
  -24.0044   -7.4629   22.7371 H   0  0  0  0  0  0
  -21.0851   -8.8704   19.8861 H   0  0  0  0  0  0
  -22.3576  -10.9676   19.6171 H   0  0  0  0  0  0
  -21.1912   -7.6138   23.9758 H   0  0  0  0  0  0
  -21.1520   -6.0490   25.9108 H   0  0  0  0  0  0
  -22.0573   -2.7624   23.2786 H   0  0  0  0  0  0
  -22.4015  -11.9924   22.4962 H   0  0  0  0  0  0
  -21.1082  -13.1250   22.2599 H   0  0  0  0  0  0
  -24.7036  -15.8525   20.5386 H   0  0  0  0  0  0
  -26.3384  -15.6066   20.1913 H   0  0  0  0  0  0
  -26.7128  -32.5671   23.1173 H   0  0  0  0  0  0
  -25.0084  -33.9842   25.0528 H   0  0  0  0  0  0
  -22.7035  -31.3335   21.3930 H   0  0  0  0  0  0
  -23.3745  -35.9652   23.3324 H   0  0  0  0  0  0
  -24.3573  -36.8901   22.2040 H   0  0  0  0  0  0
  -23.7196  -37.6535   23.6615 H   0  0  0  0  0  0
  -26.0012  -31.5987   20.5599 H   0  0  0  0  0  0
  -26.8328  -30.9442   21.9360 H   0  0  0  0  0  0
  -28.1041  -29.1330   21.1560 H   0  0  0  0  0  0
  -26.0672  -25.9976   18.9883 H   0  0  0  0  0  0
  -23.9883  -27.3028   19.0391 H   0  0  0  0  0  0
  -23.7181  -30.5909   19.3929 H   0  0  0  0  0  0
  -22.7437  -29.2349   19.8812 H   0  0  0  0  0  0
  -25.1279  -36.2022   25.0830 H   0  0  0  0  0  0
  -20.9995  -28.3107   24.1338 H   0  0  0  0  0  0
  -20.7494  -26.2256   23.2679 H   0  0  0  0  0  0
  -21.6751  -26.8515   21.9583 H   0  0  0  0  0  0
  -19.6092  -27.2994   20.6527 H   0  0  0  0  0  0
  -19.7137  -25.6225   21.1277 H   0  0  0  0  0  0
  -18.1459  -25.9924   22.9824 H   0  0  0  0  0  0
  -17.4333  -26.5738   21.4856 H   0  0  0  0  0  0
  -19.7737  -30.7557   24.1963 H   0  0  0  0  0  0
  -17.4578  -31.6351   24.4224 H   0  0  0  0  0  0
  -15.5179  -30.2661   23.6839 H   0  0  0  0  0  0
  -15.8873  -28.0265   22.7036 H   0  0  0  0  0  0
  -24.6007  -30.6924   25.7730 H   0  0  0  0  0  0
  -24.8925  -32.2691   26.4957 H   0  0  0  0  0  0
  -25.8190  -30.8716   27.0112 H   0  0  0  0  0  0
  -26.2699  -29.6867   24.1050 H   0  0  0  0  0  0
  -27.4229  -29.7274   25.4229 H   0  0  0  0  0  0
  -27.8476  -30.4455   23.8835 H   0  0  0  0  0  0
  -27.2743  -33.3563   26.2086 H   0  0  0  0  0  0
  -28.3888  -32.6845   25.0255 H   0  0  0  0  0  0
  -28.0773  -31.8323   26.5299 H   0  0  0  0  0  0
  -28.2644  -38.0101   24.7556 H   0  0  0  0  0  0
  -28.1026  -36.2643   24.6316 H   0  0  0  0  0  0
  -27.2302  -37.1516   25.8891 H   0  0  0  0  0  0
  -20.9133  -29.9809   21.7888 H   0  0  0  0  0  0
  -26.0177  -38.2927   24.1454 H   0  0  0  0  0  0
  -27.7702  -16.6173   24.0837 H   0  0  0  0  0  0
  -29.3199  -15.1944   22.8582 H   0  0  0  0  0  0
  -28.6483  -17.5455   19.2838 H   0  0  0  0  0  0
  -26.6054  -19.8186   23.1757 H   0  0  0  0  0  0
  -26.4213  -18.4697   24.2902 H   0  0  0  0  0  0
  -25.3320  -18.6090   22.9183 H   0  0  0  0  0  0
  -28.0178  -24.7742   24.7914 H   0  0  0  0  0  0
  -29.6365  -24.8399   24.0987 H   0  0  0  0  0  0
  -28.5976  -23.4565   23.7791 H   0  0  0  0  0  0
  -26.0150  -25.1398   23.4435 H   0  0  0  0  0  0
  -26.3755  -23.8391   22.3409 H   0  0  0  0  0  0
  -26.0512  -25.4555   21.7301 H   0  0  0  0  0  0
  -27.3397  -21.0819   17.4511 H   0  0  0  0  0  0
  -26.8089  -22.6446   16.8388 H   0  0  0  0  0  0
  -25.6625  -21.6010   17.6644 H   0  0  0  0  0  0
  -29.9414  -25.2838   21.6490 H   0  0  0  0  0  0
  -29.0931  -23.8092   21.4445 H   0  0  0  0  0  0
  -28.9427  -23.0255   17.9657 H   0  0  0  0  0  0
  -29.1823  -22.8540   19.6412 H   0  0  0  0  0  0
  -25.7180  -21.6399   20.3715 H   0  0  0  0  0  0
  -27.1082  -22.3515   21.1238 H   0  0  0  0  0  0
  -28.0990  -26.3194   22.8157 H   0  0  0  0  0  0
  -26.3557  -23.4360   19.0850 H   0  0  0  0  0  0
  -30.3914  -16.0324   19.4479 H   0  0  0  0  0  0
  -28.2859  -20.4934   21.0301 H   0  0  0  0  0  0
  1 25  1  0  0  0
  1 30  2  0  0  0
  1 89  1  0  0  0
  2  3  1  0  0  0
  2 25  1  0  0  0
  2 92  1  0  0  0
  2 93  1  0  0  0
  3  4  1  0  0  0
  3 94  1  0  0  0
  3 95  1  0  0  0
  4  5  1  0  0  0
  4 96  1  0  0  0
  4 97  1  0  0  0
  5  6  1  0  0  0
  5 26  1  0  0  0
  5 98  1  0  0  0
  6 25  1  0  0  0
  6 99  1  0  0  0
  6100  1  0  0  0
  7  8  2  0  0  0
  7 26  1  0  0  0
  7 29  1  0  0  0
  8  9  1  0  0  0
  8 22  1  0  0  0
  9 10  1  0  0  0
  9 27  2  0  0  0
 10 11  2  0  0  0
 10 15  1  0  0  0
 11 12  1  0  0  0
 11101  1  0  0  0
 12 13  2  0  0  0
 12102  1  0  0  0
 13 14  1  0  0  0
 13 31  1  0  0  0
 14 15  2  0  0  0
 14103  1  0  0  0
 15104  1  0  0  0
 16 17  2  0  0  0
 16 21  1  0  0  0
 16 31  1  0  0  0
 17 18  1  0  0  0
 17105  1  0  0  0
 18 19  2  0  0  0
 18106  1  0  0  0
 19 20  1  0  0  0
 19 24  1  0  0  0
 20 21  2  0  0  0
 20107  1  0  0  0
 21 23  1  0  0  0
 22 28  1  0  0  0
 22 32  2  0  0  0
 26 27  1  0  0  0
 28108  1  0  0  0
 28109  1  0  0  0
 29110  1  0  0  0
 29111  1  0  0  0
 33 34  1  0  0  0
 33 66  1  0  0  0
 33 70  2  0  0  0
 34 36  1  0  0  0
 34 59  1  0  0  0
 34112  1  0  0  0
 35 44  2  0  0  0
 35 45  1  0  0  0
 35 68  1  0  0  0
 36 56  1  0  0  0
 36113  1  0  0  0
 37 39  1  0  0  0
 37 47  1  0  0  0
 37 66  1  0  0  0
 37114  1  0  0  0
 38 43  2  0  0  0
 38 46  1  0  0  0
 38 47  1  0  0  0
 39 64  1  0  0  0
 39 67  2  0  0  0
 40 52  1  0  0  0
 40 53  2  0  0  0
 40 58  1  0  0  0
 41115  1  0  0  0
 41116  1  0  0  0
 41117  1  0  0  0
 41 48  1  0  0  0
 42 43  1  0  0  0
 42 66  1  0  0  0
 42118  1  0  0  0
 42119  1  0  0  0
 43 44  1  0  0  0
 44120  1  0  0  0
 45 46  2  0  0  0
 45121  1  0  0  0
 46122  1  0  0  0
 47123  1  0  0  0
 47124  1  0  0  0
 48 56  1  0  0  0
 48 65  1  0  0  0
 48125  1  0  0  0
 49 50  1  0  0  0
 49 53  1  0  0  0
 49 64  1  0  0  0
 49126  1  0  0  0
 50 51  1  0  0  0
 50127  1  0  0  0
 50128  1  0  0  0
 51 52  1  0  0  0
 51129  1  0  0  0
 51130  1  0  0  0
 52131  1  0  0  0
 52132  1  0  0  0
 53 54  1  0  0  0
 54 55  2  0  0  0
 54133  1  0  0  0
 55 57  1  0  0  0
 55134  1  0  0  0
 56 69  2  0  0  0
 57 58  2  0  0  0
 57135  1  0  0  0
 58136  1  0  0  0
 59 60  1  0  0  0
 59 61  1  0  0  0
 59 62  1  0  0  0
 60137  1  0  0  0
 60138  1  0  0  0
 60139  1  0  0  0
 61140  1  0  0  0
 61141  1  0  0  0
 61142  1  0  0  0
 62143  1  0  0  0
 62144  1  0  0  0
 62145  1  0  0  0
 63 65  1  0  0  0
 63146  1  0  0  0
 63147  1  0  0  0
 63148  1  0  0  0
 64149  1  0  0  0
 65150  1  0  0  0
 68 78  1  0  0  0
 71 72  2  0  0  0
 71 75  1  0  0  0
 71151  1  0  0  0
 72 76  1  0  0  0
 72152  1  0  0  0
 73 74  1  0  0  0
 73 76  2  0  0  0
 73153  1  0  0  0
 74 75  2  0  0  0
 74 77  1  0  0  0
 75 79  1  0  0  0
 76 89  1  0  0  0
 77 90  1  0  0  0
 77 91  2  0  0  0
 78 83  1  0  0  0
 78 88  2  0  0  0
 79154  1  0  0  0
 79155  1  0  0  0
 79156  1  0  0  0
 80157  1  0  0  0
 80158  1  0  0  0
 80159  1  0  0  0
 80 86  1  0  0  0
 81 86  1  0  0  0
 81160  1  0  0  0
 81161  1  0  0  0
 81162  1  0  0  0
 82163  1  0  0  0
 82164  1  0  0  0
 82165  1  0  0  0
 82 87  1  0  0  0
 83 86  1  0  0  0
 83166  1  0  0  0
 83167  1  0  0  0
 84 87  1  0  0  0
 84 88  1  0  0  0
 84168  1  0  0  0
 84169  1  0  0  0
 85 87  1  0  0  0
 85 90  1  0  0  0
 85170  1  0  0  0
 85171  1  0  0  0
 86172  1  0  0  0
 87173  1  0  0  0
 89174  1  0  0  0
 90175  1  0  0  0
M  ISO  4   1 100  68 101  78 101  89 100
M  END
> <chiral flag>
0

> <version>
0

> <s_m_source_file>
/data/baiqing/PycharmProjects/Reinvent-master-3.2/result/LINK_invent/BTK/process_docking_weight1_custom_product_contain_oxygen_bond_distance_aromatic_linkinvent_7_9_3/rearranged_h_0057.sdf

> <i_m_source_file_index>
93

> <r_mmod_Potential_Energy-OPLS-2005>
99.6037750244141

> <r_mmod_Stretch_Energy-OPLS-2005>
36.912841796875

> <r_mmod_Bend_Energy-OPLS-2005>
152.347686767578

> <r_mmod_Torsional_Energy-OPLS-2005>
339.064971923828

> <r_mmod_Improper_Torsional_Energy-OPLS-2005>
25.441822052002

> <r_mmod_Van_der_Waal_Energy-OPLS-2005>
140.666519165039

> <r_mmod_Electrostatic_Energy-OPLS-2005>
-403.944671630859

> <r_mmod_Solvation_Energy-OPLS-2005>
-213.83561706543

> <b_mmod_Minimization_Converged-OPLS-2005>
0

> <r_mmod_RMS_Derivative-OPLS-2005>
7.74620866775513

$$$$
94
                    3D
 Structure written by MMmdl.
157165  0  0  1  0            999 V2000
  -30.7215  -14.4902   20.6538 C   0  0  0  0  0  0
  -30.4302  -12.3486   19.4228 C   0  0  0  0  0  0
  -29.4935  -12.5408   18.2077 C   0  0  0  0  0  0
  -28.0128  -12.3957   18.6196 C   0  0  0  0  0  0
  -27.6609  -13.2226   19.8837 C   0  0  2  0  0  0
  -28.7030  -12.9917   21.0017 C   0  0  0  0  0  0
  -25.2552  -13.8205   20.5719 C   0  0  0  0  0  0
  -24.1803  -13.0473   20.9171 C   0  0  0  0  0  0
  -24.6364  -11.6926   20.8674 C   0  0  0  0  0  0
  -23.9020  -10.4322   21.0374 C   0  0  0  0  0  0
  -24.3582   -9.4246   21.9147 C   0  0  0  0  0  0
  -23.6267   -8.2284   22.0730 C   0  0  0  0  0  0
  -22.4246   -8.0301   21.3535 C   0  0  0  0  0  0
  -21.9869   -9.0259   20.4627 C   0  0  0  0  0  0
  -22.7175  -10.2157   20.3034 C   0  0  0  0  0  0
  -21.6878   -6.0712   22.5267 C   0  0  0  0  0  0
  -21.4031   -6.5601   23.8203 C   0  0  0  0  0  0
  -21.3670   -5.6732   24.9143 C   0  0  0  0  0  0
  -21.6072   -4.3003   24.7194 C   0  0  0  0  0  0
  -21.8820   -3.8113   23.4307 C   0  0  0  0  0  0
  -21.9204   -4.6940   22.3371 C   0  0  0  0  0  0
  -22.7816  -13.5303   21.1805 C   0  0  0  0  0  0
  -22.1673   -4.2149   21.0948 F   0  0  0  0  0  0
  -21.5648   -3.4485   25.7707 F   0  0  0  0  0  0
  -30.0366  -13.3185   20.4639 N   0  0  0  0  0  0
  -26.3016  -12.9410   20.3409 N   0  0  0  0  0  0
  -25.9295  -11.6543   20.5678 N   0  0  0  0  0  0
  -22.0375  -12.8350   22.0369 N   0  0  0  0  0  0
  -25.4252  -15.1930   20.4210 N   0  0  0  0  0  0
  -31.8107  -14.7094   20.1153 O   0  0  0  0  0  0
  -21.6639   -6.8876   21.4240 O   0  0  0  0  0  0
  -22.3521  -14.5576   20.6559 O   0  0  0  0  0  0
  -24.6148  -31.8700   23.2131 C   0  0  0  0  0  0
  -25.9042  -32.4839   23.8414 C   0  0  1  0  0  0
  -27.2280  -27.4022   20.1140 C   0  0  0  0  0  0
  -25.5901  -33.8645   24.2357 N   0  0  0  0  0  0
  -23.4034  -30.4928   21.5533 C   0  0  2  0  0  0
  -24.8509  -28.9643   20.1114 C   0  0  0  0  0  0
  -22.7444  -29.4657   22.4991 C   0  0  0  0  0  0
  -18.0288  -28.1382   22.8518 C   0  0  0  0  0  0
  -24.1473  -36.7319   23.2640 C   0  0  0  0  0  0
  -25.9362  -30.8247   21.3718 C   0  0  0  0  0  0
  -26.0141  -29.4581   20.7179 C   0  0  0  0  0  0
  -27.2037  -28.6851   20.7187 C   0  0  0  0  0  0
  -26.0524  -26.9571   19.4628 C   0  0  0  0  0  0
  -24.8727  -27.7149   19.4728 C   0  0  0  0  0  0
  -23.6139  -29.8315   20.1660 C   0  0  0  0  0  0
  -25.4101  -36.3135   24.0359 C   0  0  1  0  0  0
  -20.5865  -28.3678   23.1334 C   0  0  2  0  0  0
  -20.6762  -26.9401   22.5440 C   0  0  0  0  0  0
  -19.5730  -26.6381   21.5232 C   0  0  0  0  0  0
  -18.1934  -26.7920   22.1658 C   0  0  0  0  0  0
  -19.1537  -28.8854   23.2924 C   0  0  0  0  0  0
  -18.9472  -30.1456   23.8917 C   0  0  0  0  0  0
  -17.6476  -30.6594   24.0600 C   0  0  0  0  0  0
  -25.9033  -34.9490   23.5155 C   0  0  0  0  0  0
  -16.5355  -29.9096   23.6315 C   0  0  0  0  0  0
  -16.7293  -28.6523   23.0348 C   0  0  0  0  0  0
  -26.4450  -31.6619   25.0726 C   0  0  0  0  0  0
  -25.3731  -31.3727   26.1482 C   0  0  0  0  0  0
  -27.0276  -30.3075   24.6056 C   0  0  0  0  0  0
  -27.6035  -32.4328   25.7496 C   0  0  0  0  0  0
  -27.5588  -37.1817   24.8469 C   0  0  0  0  0  0
  -21.4166  -29.3059   22.3775 N   0  0  0  0  0  0
  -26.4296  -37.3820   23.9422 N   0  0  0  0  0  0
  -24.6698  -31.0763   22.1037 N   0  0  0  0  0  0
  -23.4211  -28.8205   23.3041 O   0  0  0  0  0  0
  -28.3568  -26.5925   20.1711 O   0  0  0  0  0  0
  -26.5561  -34.8930   22.4674 O   0  0  0  0  0  0
  -23.5340  -32.1448   23.7518 O   0  0  0  0  0  0
  -31.9485  -18.3056   22.9645 C   0  0  0  0  0  0
  -31.5993  -16.9937   22.5884 C   0  0  0  0  0  0
  -29.8202  -17.8924   21.2076 C   0  0  0  0  0  0
  -30.1395  -19.2343   21.5832 C   0  0  0  0  0  0
  -31.2327  -19.4286   22.4838 C   0  0  0  0  0  0
  -30.5349  -16.7663   21.6920 C   0  0  0  0  0  0
  -29.2020  -20.3493   21.1209 C   0  0  0  0  0  0
  -31.6640  -20.8015   22.9915 C   0  0  0  0  0  0
  -29.2650  -24.1995   20.6183 C   0  0  0  0  0  0
  -28.7143  -22.7345   20.6154 C   0  0  0  0  0  0
  -28.0831  -25.2206   20.5761 C   0  0  0  0  0  0
  -30.0954  -15.4322   21.3985 N   0  0  0  0  0  0
  -29.6343  -21.6274   20.9647 N   0  0  0  0  0  0
  -28.0282  -20.0554   20.8673 O   0  0  0  0  0  0
  -31.4730  -12.4662   19.1208 H   0  0  0  0  0  0
  -30.3539  -11.3307   19.8139 H   0  0  0  0  0  0
  -29.7279  -11.8259   17.4185 H   0  0  0  0  0  0
  -29.6582  -13.5307   17.7771 H   0  0  0  0  0  0
  -27.8150  -11.3382   18.7903 H   0  0  0  0  0  0
  -27.3669  -12.6849   17.7885 H   0  0  0  0  0  0
  -27.7082  -14.2712   19.5939 H   0  0  0  0  0  0
  -28.6875  -11.9460   21.3173 H   0  0  0  0  0  0
  -28.4496  -13.5657   21.8954 H   0  0  0  0  0  0
  -25.2708   -9.5772   22.4692 H   0  0  0  0  0  0
  -23.9998   -7.4698   22.7429 H   0  0  0  0  0  0
  -21.0813   -8.8720   19.8934 H   0  0  0  0  0  0
  -22.3575  -10.9654   19.6132 H   0  0  0  0  0  0
  -21.2013   -7.6099   23.9713 H   0  0  0  0  0  0
  -21.1502   -6.0444   25.9062 H   0  0  0  0  0  0
  -22.0594   -2.7576   23.2767 H   0  0  0  0  0  0
  -22.3925  -12.0083   22.4912 H   0  0  0  0  0  0
  -21.0982  -13.1419   22.2434 H   0  0  0  0  0  0
  -24.6567  -15.8447   20.5404 H   0  0  0  0  0  0
  -26.2887  -15.6389   20.1317 H   0  0  0  0  0  0
  -26.7117  -32.5544   23.1186 H   0  0  0  0  0  0
  -25.0144  -33.9852   25.0550 H   0  0  0  0  0  0
  -22.6891  -31.3077   21.4183 H   0  0  0  0  0  0
  -23.3749  -35.9634   23.3303 H   0  0  0  0  0  0
  -24.3556  -36.8904   22.2050 H   0  0  0  0  0  0
  -23.7206  -37.6516   23.6616 H   0  0  0  0  0  0
  -26.0394  -31.5874   20.5981 H   0  0  0  0  0  0
  -26.8276  -30.8829   21.9821 H   0  0  0  0  0  0
  -28.0914  -29.0556   21.2100 H   0  0  0  0  0  0
  -26.0330  -26.0205   18.9244 H   0  0  0  0  0  0
  -23.9902  -27.3393   18.9760 H   0  0  0  0  0  0
  -23.7259  -30.6077   19.4083 H   0  0  0  0  0  0
  -22.7356  -29.2534   19.8676 H   0  0  0  0  0  0
  -25.1278  -36.2016   25.0860 H   0  0  0  0  0  0
  -20.9998  -28.3207   24.1451 H   0  0  0  0  0  0
  -20.5641  -26.2275   23.3626 H   0  0  0  0  0  0
  -21.6632  -26.7417   22.1232 H   0  0  0  0  0  0
  -19.6877  -25.6307   21.1239 H   0  0  0  0  0  0
  -19.6657  -27.3201   20.6746 H   0  0  0  0  0  0
  -17.4193  -26.6718   21.4075 H   0  0  0  0  0  0
  -18.0319  -26.0046   22.9033 H   0  0  0  0  0  0
  -19.7958  -30.7276   24.2258 H   0  0  0  0  0  0
  -17.5042  -31.6264   24.5228 H   0  0  0  0  0  0
  -15.5363  -30.3023   23.7647 H   0  0  0  0  0  0
  -15.8674  -28.0885   22.6999 H   0  0  0  0  0  0
  -24.5908  -30.7063   25.7848 H   0  0  0  0  0  0
  -24.8928  -32.2890   26.4939 H   0  0  0  0  0  0
  -25.8125  -30.8919   27.0247 H   0  0  0  0  0  0
  -26.2815  -29.6863   24.1095 H   0  0  0  0  0  0
  -27.4049  -29.7270   25.4494 H   0  0  0  0  0  0
  -27.8651  -30.4422   23.9203 H   0  0  0  0  0  0
  -27.2653  -33.3632   26.2078 H   0  0  0  0  0  0
  -28.3835  -32.6889   25.0316 H   0  0  0  0  0  0
  -28.0669  -31.8436   26.5403 H   0  0  0  0  0  0
  -28.2631  -38.0105   24.7523 H   0  0  0  0  0  0
  -28.1072  -36.2628   24.6287 H   0  0  0  0  0  0
  -27.2300  -37.1465   25.8878 H   0  0  0  0  0  0
  -20.9248  -29.8821   21.7082 H   0  0  0  0  0  0
  -26.0187  -38.2905   24.1396 H   0  0  0  0  0  0
  -32.7611  -18.4432   23.6681 H   0  0  0  0  0  0
  -32.1359  -16.1637   23.0258 H   0  0  0  0  0  0
  -28.9759  -17.7188   20.5506 H   0  0  0  0  0  0
  -32.3956  -20.7345   23.8007 H   0  0  0  0  0  0
  -30.8165  -21.3595   23.3930 H   0  0  0  0  0  0
  -32.1209  -21.3829   22.1892 H   0  0  0  0  0  0
  -29.9107  -24.3462   19.7508 H   0  0  0  0  0  0
  -29.8786  -24.3838   21.5045 H   0  0  0  0  0  0
  -28.2915  -22.5242   19.6321 H   0  0  0  0  0  0
  -27.8746  -22.6916   21.3126 H   0  0  0  0  0  0
  -27.6347  -25.2581   21.5729 H   0  0  0  0  0  0
  -27.3267  -24.7725   19.9363 H   0  0  0  0  0  0
  -29.1799  -15.1741   21.7399 H   0  0  0  0  0  0
  -30.6069  -21.8359   21.1457 H   0  0  0  0  0  0
  1 25  1  0  0  0
  1 30  2  0  0  0
  1 82  1  0  0  0
  2  3  1  0  0  0
  2 25  1  0  0  0
  2 85  1  0  0  0
  2 86  1  0  0  0
  3  4  1  0  0  0
  3 87  1  0  0  0
  3 88  1  0  0  0
  4  5  1  0  0  0
  4 89  1  0  0  0
  4 90  1  0  0  0
  5  6  1  0  0  0
  5 26  1  0  0  0
  5 91  1  0  0  0
  6 25  1  0  0  0
  6 92  1  0  0  0
  6 93  1  0  0  0
  7  8  2  0  0  0
  7 26  1  0  0  0
  7 29  1  0  0  0
  8  9  1  0  0  0
  8 22  1  0  0  0
  9 10  1  0  0  0
  9 27  2  0  0  0
 10 11  2  0  0  0
 10 15  1  0  0  0
 11 12  1  0  0  0
 11 94  1  0  0  0
 12 13  2  0  0  0
 12 95  1  0  0  0
 13 14  1  0  0  0
 13 31  1  0  0  0
 14 15  2  0  0  0
 14 96  1  0  0  0
 15 97  1  0  0  0
 16 17  2  0  0  0
 16 21  1  0  0  0
 16 31  1  0  0  0
 17 18  1  0  0  0
 17 98  1  0  0  0
 18 19  2  0  0  0
 18 99  1  0  0  0
 19 20  1  0  0  0
 19 24  1  0  0  0
 20 21  2  0  0  0
 20100  1  0  0  0
 21 23  1  0  0  0
 22 28  1  0  0  0
 22 32  2  0  0  0
 26 27  1  0  0  0
 28101  1  0  0  0
 28102  1  0  0  0
 29103  1  0  0  0
 29104  1  0  0  0
 33 34  1  0  0  0
 33 66  1  0  0  0
 33 70  2  0  0  0
 34 36  1  0  0  0
 34 59  1  0  0  0
 34105  1  0  0  0
 35 44  2  0  0  0
 35 45  1  0  0  0
 35 68  1  0  0  0
 36 56  1  0  0  0
 36106  1  0  0  0
 37 39  1  0  0  0
 37 47  1  0  0  0
 37 66  1  0  0  0
 37107  1  0  0  0
 38 43  2  0  0  0
 38 46  1  0  0  0
 38 47  1  0  0  0
 39 64  1  0  0  0
 39 67  2  0  0  0
 40 52  1  0  0  0
 40 53  2  0  0  0
 40 58  1  0  0  0
 41108  1  0  0  0
 41109  1  0  0  0
 41110  1  0  0  0
 41 48  1  0  0  0
 42 43  1  0  0  0
 42 66  1  0  0  0
 42111  1  0  0  0
 42112  1  0  0  0
 43 44  1  0  0  0
 44113  1  0  0  0
 45 46  2  0  0  0
 45114  1  0  0  0
 46115  1  0  0  0
 47116  1  0  0  0
 47117  1  0  0  0
 48 56  1  0  0  0
 48 65  1  0  0  0
 48118  1  0  0  0
 49 50  1  0  0  0
 49 53  1  0  0  0
 49 64  1  0  0  0
 49119  1  0  0  0
 50 51  1  0  0  0
 50120  1  0  0  0
 50121  1  0  0  0
 51 52  1  0  0  0
 51122  1  0  0  0
 51123  1  0  0  0
 52124  1  0  0  0
 52125  1  0  0  0
 53 54  1  0  0  0
 54 55  2  0  0  0
 54126  1  0  0  0
 55 57  1  0  0  0
 55127  1  0  0  0
 56 69  2  0  0  0
 57 58  2  0  0  0
 57128  1  0  0  0
 58129  1  0  0  0
 59 60  1  0  0  0
 59 61  1  0  0  0
 59 62  1  0  0  0
 60130  1  0  0  0
 60131  1  0  0  0
 60132  1  0  0  0
 61133  1  0  0  0
 61134  1  0  0  0
 61135  1  0  0  0
 62136  1  0  0  0
 62137  1  0  0  0
 62138  1  0  0  0
 63 65  1  0  0  0
 63139  1  0  0  0
 63140  1  0  0  0
 63141  1  0  0  0
 64142  1  0  0  0
 65143  1  0  0  0
 68 81  1  0  0  0
 71 72  2  0  0  0
 71 75  1  0  0  0
 71144  1  0  0  0
 72 76  1  0  0  0
 72145  1  0  0  0
 73 74  1  0  0  0
 73 76  2  0  0  0
 73146  1  0  0  0
 74 75  2  0  0  0
 74 77  1  0  0  0
 75 78  1  0  0  0
 76 82  1  0  0  0
 77 83  1  0  0  0
 77 84  2  0  0  0
 78147  1  0  0  0
 78148  1  0  0  0
 78149  1  0  0  0
 79 80  1  0  0  0
 79 81  1  0  0  0
 79150  1  0  0  0
 79151  1  0  0  0
 80 83  1  0  0  0
 80152  1  0  0  0
 80153  1  0  0  0
 81154  1  0  0  0
 81155  1  0  0  0
 82156  1  0  0  0
 83157  1  0  0  0
M  ISO  4   1 100  68 101  81 101  82 100
M  END
> <chiral flag>
0

> <version>
0

> <s_m_source_file>
/data/baiqing/PycharmProjects/Reinvent-master-3.2/result/LINK_invent/BTK/process_docking_weight1_custom_product_contain_oxygen_bond_distance_aromatic_linkinvent_7_9_3/rearranged_h_0057.sdf

> <i_m_source_file_index>
94

> <r_mmod_Potential_Energy-OPLS-2005>
-41.2665481567383

> <r_mmod_Stretch_Energy-OPLS-2005>
51.6355667114258

> <r_mmod_Bend_Energy-OPLS-2005>
112.97119140625

> <r_mmod_Torsional_Energy-OPLS-2005>
253.194671630859

> <r_mmod_Improper_Torsional_Energy-OPLS-2005>
3.22162890434265

> <r_mmod_Van_der_Waal_Energy-OPLS-2005>
160.599075317383

> <r_mmod_Electrostatic_Energy-OPLS-2005>
-412.870422363281

> <r_mmod_Solvation_Energy-OPLS-2005>
-228.604461669922

> <b_mmod_Minimization_Converged-OPLS-2005>
0

> <r_mmod_RMS_Derivative-OPLS-2005>
6.44988965988159

$$$$
95
                    3D
 Structure written by MMmdl.
174183  0  0  1  0            999 V2000
  -30.7123  -14.4744   20.5749 C   0  0  0  0  0  0
  -30.4137  -12.3184   19.3920 C   0  0  0  0  0  0
  -29.4774  -12.5319   18.1859 C   0  0  0  0  0  0
  -27.9992  -12.3988   18.6034 C   0  0  0  0  0  0
  -27.6592  -13.2152   19.8767 C   0  0  2  0  0  0
  -28.7089  -12.9831   20.9862 C   0  0  0  0  0  0
  -25.2580  -13.8208   20.5679 C   0  0  0  0  0  0
  -24.1833  -13.0451   20.9204 C   0  0  0  0  0  0
  -24.6421  -11.6935   20.8806 C   0  0  0  0  0  0
  -23.9099  -10.4309   21.0483 C   0  0  0  0  0  0
  -24.3639   -9.4227   21.9279 C   0  0  0  0  0  0
  -23.6297   -8.2260   22.0821 C   0  0  0  0  0  0
  -22.4289   -8.0307   21.3573 C   0  0  0  0  0  0
  -21.9975   -9.0287   20.4667 C   0  0  0  0  0  0
  -22.7291  -10.2174   20.3080 C   0  0  0  0  0  0
  -21.6842   -6.0773   22.5292 C   0  0  0  0  0  0
  -21.4009   -6.5681   23.8225 C   0  0  0  0  0  0
  -21.3654   -5.6829   24.9191 C   0  0  0  0  0  0
  -21.6043   -4.3087   24.7241 C   0  0  0  0  0  0
  -21.8803   -3.8184   23.4359 C   0  0  0  0  0  0
  -21.9186   -4.7002   22.3407 C   0  0  0  0  0  0
  -22.7865  -13.5261   21.1836 C   0  0  0  0  0  0
  -22.1651   -4.2191   21.0984 F   0  0  0  0  0  0
  -21.5639   -3.4558   25.7745 F   0  0  0  0  0  0
  -30.0381  -13.2979   20.4237 N   0  0  0  0  0  0
  -26.3018  -12.9373   20.3401 N   0  0  0  0  0  0
  -25.9348  -11.6534   20.5833 N   0  0  0  0  0  0
  -22.0444  -12.8222   22.0327 N   0  0  0  0  0  0
  -25.4294  -15.1920   20.4020 N   0  0  0  0  0  0
  -31.8221  -14.6840   20.0748 O   0  0  0  0  0  0
  -21.6630   -6.8924   21.4252 O   0  0  0  0  0  0
  -22.3591  -14.5588   20.6708 O   0  0  0  0  0  0
  -24.6168  -31.8666   23.2163 C   0  0  0  0  0  0
  -25.9074  -32.4824   23.8443 C   0  0  1  0  0  0
  -27.2461  -27.4274   20.0821 C   0  0  0  0  0  0
  -25.5923  -33.8650   24.2306 N   0  0  0  0  0  0
  -23.4030  -30.4936   21.5541 C   0  0  2  0  0  0
  -24.8508  -28.9633   20.1175 C   0  0  0  0  0  0
  -22.7403  -29.4634   22.4969 C   0  0  0  0  0  0
  -18.0261  -28.1394   22.8481 C   0  0  0  0  0  0
  -24.1486  -36.7322   23.2635 C   0  0  0  0  0  0
  -25.9366  -30.8282   21.3752 C   0  0  0  0  0  0
  -26.0149  -29.4660   20.7120 C   0  0  0  0  0  0
  -27.2109  -28.7064   20.6912 C   0  0  0  0  0  0
  -26.0500  -26.9439   19.4896 C   0  0  0  0  0  0
  -24.8619  -27.6995   19.5093 C   0  0  0  0  0  0
  -23.6171  -29.8366   20.1657 C   0  0  0  0  0  0
  -25.4131  -36.3130   24.0302 C   0  0  1  0  0  0
  -20.5868  -28.3639   23.1331 C   0  0  2  0  0  0
  -20.6776  -26.9366   22.5425 C   0  0  0  0  0  0
  -19.5726  -26.6382   21.5229 C   0  0  0  0  0  0
  -18.1903  -26.7929   22.1648 C   0  0  0  0  0  0
  -19.1523  -28.8843   23.2901 C   0  0  0  0  0  0
  -18.9457  -30.1486   23.8835 C   0  0  0  0  0  0
  -17.6460  -30.6590   24.0583 C   0  0  0  0  0  0
  -25.9063  -34.9494   23.5098 C   0  0  0  0  0  0
  -16.5348  -29.9081   23.6376 C   0  0  0  0  0  0
  -16.7258  -28.6554   23.0292 C   0  0  0  0  0  0
  -26.4479  -31.6643   25.0809 C   0  0  0  0  0  0
  -25.3727  -31.3682   26.1510 C   0  0  0  0  0  0
  -27.0442  -30.3123   24.6297 C   0  0  0  0  0  0
  -27.5926  -32.4415   25.7727 C   0  0  0  0  0  0
  -27.5570  -37.1875   24.8470 C   0  0  0  0  0  0
  -21.4129  -29.2999   22.3720 N   0  0  0  0  0  0
  -26.4295  -37.3828   23.9390 N   0  0  0  0  0  0
  -24.6696  -31.0766   22.1071 N   0  0  0  0  0  0
  -23.4197  -28.8179   23.3000 O   0  0  0  0  0  0
  -28.4307  -26.6965   20.0976 O   0  0  0  0  0  0
  -26.5600  -34.8935   22.4633 O   0  0  0  0  0  0
  -23.5345  -32.1425   23.7528 O   0  0  0  0  0  0
  -30.9714  -17.9254   23.7826 C   0  0  0  0  0  0
  -31.2979  -19.0586   23.0153 C   0  0  0  0  0  0
  -30.5661  -16.7393   23.1508 C   0  0  0  0  0  0
  -30.8398  -17.8132   20.9690 C   0  0  0  0  0  0
  -31.2257  -19.0306   21.6035 C   0  0  0  0  0  0
  -30.5197  -16.6613   21.7462 C   0  0  0  0  0  0
  -29.7676  -21.3211   19.3931 C   0  0  0  0  0  0
  -26.7176  -19.5418   20.4541 C   0  0  0  0  0  0
  -27.9978  -19.9425   20.3715 C   0  0  0  0  0  0
  -28.5595  -20.7108   19.2613 C   0  0  0  0  0  0
  -30.4505  -22.2574   18.3892 C   0  0  0  0  0  0
  -29.7377  -23.6194   18.2985 C   0  0  0  0  0  0
  -29.7573  -23.7808   20.9378 C   0  0  0  0  0  0
  -30.8597  -22.6967   21.1817 C   0  0  0  0  0  0
  -29.7140  -24.5312   19.5605 C   0  0  2  0  0  0
  -27.7536  -20.8423   17.9740 C   0  0  0  0  0  0
  -31.6039  -20.3095   20.8205 C   0  0  0  0  0  0
  -28.4356  -25.4222   19.4313 C   0  0  0  0  0  0
  -30.0203  -15.4448   21.2015 N   0  0  0  0  0  0
  -30.5037  -21.3230   20.6938 N   0  3  2  0  0  0
  -31.4532  -12.4141   19.0784 H   0  0  0  0  0  0
  -30.3067  -11.3057   19.7822 H   0  0  0  0  0  0
  -29.6993  -11.8143   17.3969 H   0  0  0  0  0  0
  -29.6465  -13.5236   17.7604 H   0  0  0  0  0  0
  -27.7870  -11.3429   18.7692 H   0  0  0  0  0  0
  -27.3516  -12.7161   17.7845 H   0  0  0  0  0  0
  -27.7053  -14.2691   19.5987 H   0  0  0  0  0  0
  -28.6894  -11.9404   21.3121 H   0  0  0  0  0  0
  -28.4686  -13.5693   21.8748 H   0  0  0  0  0  0
  -25.2794   -9.5684   22.4891 H   0  0  0  0  0  0
  -23.9986   -7.4664   22.7541 H   0  0  0  0  0  0
  -21.0936   -8.8817   19.8931 H   0  0  0  0  0  0
  -22.3809  -10.9733   19.6178 H   0  0  0  0  0  0
  -21.1998   -7.6195   23.9729 H   0  0  0  0  0  0
  -21.1492   -6.0582   25.9097 H   0  0  0  0  0  0
  -22.0586   -2.7649   23.2847 H   0  0  0  0  0  0
  -22.3996  -11.9808   22.4622 H   0  0  0  0  0  0
  -21.1059  -13.1277   22.2471 H   0  0  0  0  0  0
  -24.6606  -15.8500   20.4932 H   0  0  0  0  0  0
  -26.2813  -15.6233   20.0642 H   0  0  0  0  0  0
  -26.7141  -32.5535   23.1199 H   0  0  0  0  0  0
  -25.0117  -33.9837   25.0495 H   0  0  0  0  0  0
  -22.6913  -31.3113   21.4163 H   0  0  0  0  0  0
  -23.3761  -35.9637   23.3316 H   0  0  0  0  0  0
  -24.3552  -36.9001   22.2054 H   0  0  0  0  0  0
  -23.7253  -37.6511   23.6698 H   0  0  0  0  0  0
  -26.0566  -31.6040   20.6177 H   0  0  0  0  0  0
  -26.8219  -30.8712   21.9977 H   0  0  0  0  0  0
  -28.1118  -29.0947   21.1453 H   0  0  0  0  0  0
  -25.9979  -25.9805   19.0067 H   0  0  0  0  0  0
  -23.9641  -27.3030   19.0542 H   0  0  0  0  0  0
  -23.7411  -30.6228   19.4196 H   0  0  0  0  0  0
  -22.7401  -29.2710   19.8489 H   0  0  0  0  0  0
  -25.1318  -36.1980   25.0796 H   0  0  0  0  0  0
  -20.9929  -28.3210   24.1466 H   0  0  0  0  0  0
  -20.5745  -26.2187   23.3580 H   0  0  0  0  0  0
  -21.6632  -26.7446   22.1165 H   0  0  0  0  0  0
  -19.6890  -25.6314   21.1208 H   0  0  0  0  0  0
  -19.6691  -27.3237   20.6799 H   0  0  0  0  0  0
  -17.4169  -26.6659   21.4070 H   0  0  0  0  0  0
  -18.0300  -26.0108   22.9077 H   0  0  0  0  0  0
  -19.7950  -30.7349   24.2092 H   0  0  0  0  0  0
  -17.5026  -31.6244   24.5226 H   0  0  0  0  0  0
  -15.5350  -30.2954   23.7778 H   0  0  0  0  0  0
  -15.8668  -28.0937   22.6878 H   0  0  0  0  0  0
  -24.5911  -30.7037   25.7815 H   0  0  0  0  0  0
  -24.8875  -32.2797   26.5011 H   0  0  0  0  0  0
  -25.8084  -30.8813   27.0250 H   0  0  0  0  0  0
  -26.3129  -29.6856   24.1173 H   0  0  0  0  0  0
  -27.4030  -29.7408   25.4875 H   0  0  0  0  0  0
  -27.9006  -30.4510   23.9687 H   0  0  0  0  0  0
  -27.2427  -33.3705   26.2262 H   0  0  0  0  0  0
  -28.3860  -32.7006   25.0707 H   0  0  0  0  0  0
  -28.0438  -31.8565   26.5758 H   0  0  0  0  0  0
  -28.2514  -38.0234   24.7549 H   0  0  0  0  0  0
  -28.1142  -36.2745   24.6305 H   0  0  0  0  0  0
  -27.2237  -37.1551   25.8854 H   0  0  0  0  0  0
  -20.9237  -29.8735   21.6993 H   0  0  0  0  0  0
  -26.0161  -38.2888   24.1447 H   0  0  0  0  0  0
  -31.0193  -17.9659   24.8624 H   0  0  0  0  0  0
  -31.5987  -19.9574   23.5369 H   0  0  0  0  0  0
  -30.2944  -15.8834   23.7536 H   0  0  0  0  0  0
  -30.7661  -17.7699   19.8906 H   0  0  0  0  0  0
  -26.3811  -18.9596   21.3017 H   0  0  0  0  0  0
  -25.9763  -19.7768   19.7012 H   0  0  0  0  0  0
  -28.6266  -19.6395   21.1960 H   0  0  0  0  0  0
  -30.4370  -21.7892   17.4058 H   0  0  0  0  0  0
  -31.5103  -22.4055   18.6060 H   0  0  0  0  0  0
  -28.7206  -23.4295   17.9573 H   0  0  0  0  0  0
  -30.1853  -24.1959   17.4875 H   0  0  0  0  0  0
  -29.9081  -24.5485   21.6982 H   0  0  0  0  0  0
  -28.7814  -23.3527   21.1656 H   0  0  0  0  0  0
  -31.0105  -22.6123   22.2589 H   0  0  0  0  0  0
  -31.8168  -23.0330   20.7799 H   0  0  0  0  0  0
  -30.5923  -25.1788   19.5021 H   0  0  0  0  0  0
  -28.3700  -21.0160   17.0919 H   0  0  0  0  0  0
  -27.0540  -21.6735   18.0664 H   0  0  0  0  0  0
  -27.1737  -19.9390   17.7748 H   0  0  0  0  0  0
  -32.0267  -20.0617   19.8445 H   0  0  0  0  0  0
  -32.4321  -20.7617   21.3681 H   0  0  0  0  0  0
  -27.6007  -24.8132   19.7766 H   0  0  0  0  0  0
  -28.2561  -25.6297   18.3752 H   0  0  0  0  0  0
  -29.1525  -15.1174   21.5985 H   0  0  0  0  0  0
  -29.8376  -21.0097   21.3807 H   0  0  0  0  0  0
  1 25  1  0  0  0
  1 30  2  0  0  0
  1 89  1  0  0  0
  2  3  1  0  0  0
  2 25  1  0  0  0
  2 91  1  0  0  0
  2 92  1  0  0  0
  3  4  1  0  0  0
  3 93  1  0  0  0
  3 94  1  0  0  0
  4  5  1  0  0  0
  4 95  1  0  0  0
  4 96  1  0  0  0
  5  6  1  0  0  0
  5 26  1  0  0  0
  5 97  1  0  0  0
  6 25  1  0  0  0
  6 98  1  0  0  0
  6 99  1  0  0  0
  7  8  2  0  0  0
  7 26  1  0  0  0
  7 29  1  0  0  0
  8  9  1  0  0  0
  8 22  1  0  0  0
  9 10  1  0  0  0
  9 27  2  0  0  0
 10 11  2  0  0  0
 10 15  1  0  0  0
 11 12  1  0  0  0
 11100  1  0  0  0
 12 13  2  0  0  0
 12101  1  0  0  0
 13 14  1  0  0  0
 13 31  1  0  0  0
 14 15  2  0  0  0
 14102  1  0  0  0
 15103  1  0  0  0
 16 17  2  0  0  0
 16 21  1  0  0  0
 16 31  1  0  0  0
 17 18  1  0  0  0
 17104  1  0  0  0
 18 19  2  0  0  0
 18105  1  0  0  0
 19 20  1  0  0  0
 19 24  1  0  0  0
 20 21  2  0  0  0
 20106  1  0  0  0
 21 23  1  0  0  0
 22 28  1  0  0  0
 22 32  2  0  0  0
 26 27  1  0  0  0
 28107  1  0  0  0
 28108  1  0  0  0
 29109  1  0  0  0
 29110  1  0  0  0
 33 34  1  0  0  0
 33 66  1  0  0  0
 33 70  2  0  0  0
 34 36  1  0  0  0
 34 59  1  0  0  0
 34111  1  0  0  0
 35 44  2  0  0  0
 35 45  1  0  0  0
 35 68  1  0  0  0
 36 56  1  0  0  0
 36112  1  0  0  0
 37 39  1  0  0  0
 37 47  1  0  0  0
 37 66  1  0  0  0
 37113  1  0  0  0
 38 43  2  0  0  0
 38 46  1  0  0  0
 38 47  1  0  0  0
 39 64  1  0  0  0
 39 67  2  0  0  0
 40 52  1  0  0  0
 40 53  2  0  0  0
 40 58  1  0  0  0
 41114  1  0  0  0
 41115  1  0  0  0
 41116  1  0  0  0
 41 48  1  0  0  0
 42 43  1  0  0  0
 42 66  1  0  0  0
 42117  1  0  0  0
 42118  1  0  0  0
 43 44  1  0  0  0
 44119  1  0  0  0
 45 46  2  0  0  0
 45120  1  0  0  0
 46121  1  0  0  0
 47122  1  0  0  0
 47123  1  0  0  0
 48 56  1  0  0  0
 48 65  1  0  0  0
 48124  1  0  0  0
 49 50  1  0  0  0
 49 53  1  0  0  0
 49 64  1  0  0  0
 49125  1  0  0  0
 50 51  1  0  0  0
 50126  1  0  0  0
 50127  1  0  0  0
 51 52  1  0  0  0
 51128  1  0  0  0
 51129  1  0  0  0
 52130  1  0  0  0
 52131  1  0  0  0
 53 54  1  0  0  0
 54 55  2  0  0  0
 54132  1  0  0  0
 55 57  1  0  0  0
 55133  1  0  0  0
 56 69  2  0  0  0
 57 58  2  0  0  0
 57134  1  0  0  0
 58135  1  0  0  0
 59 60  1  0  0  0
 59 61  1  0  0  0
 59 62  1  0  0  0
 60136  1  0  0  0
 60137  1  0  0  0
 60138  1  0  0  0
 61139  1  0  0  0
 61140  1  0  0  0
 61141  1  0  0  0
 62142  1  0  0  0
 62143  1  0  0  0
 62144  1  0  0  0
 63 65  1  0  0  0
 63145  1  0  0  0
 63146  1  0  0  0
 63147  1  0  0  0
 64148  1  0  0  0
 65149  1  0  0  0
 68 88  1  0  0  0
 71 72  2  0  0  0
 71 73  1  0  0  0
 71150  1  0  0  0
 72 75  1  0  0  0
 72151  1  0  0  0
 73 76  2  0  0  0
 73152  1  0  0  0
 74 75  2  0  0  0
 74 76  1  0  0  0
 74153  1  0  0  0
 75 87  1  0  0  0
 76 89  1  0  0  0
 77 80  2  0  0  0
 77 81  1  0  0  0
 77 90  1  0  0  0
 78 79  2  0  0  0
 78154  1  0  0  0
 78155  1  0  0  0
 79 80  1  0  0  0
 79156  1  0  0  0
 80 86  1  0  0  0
 81 82  1  0  0  0
 81157  1  0  0  0
 81158  1  0  0  0
 82 85  1  0  0  0
 82159  1  0  0  0
 82160  1  0  0  0
 83 84  1  0  0  0
 83 85  1  0  0  0
 83161  1  0  0  0
 83162  1  0  0  0
 84 90  1  0  0  0
 84163  1  0  0  0
 84164  1  0  0  0
 85 88  1  0  0  0
 85165  1  0  0  0
 86166  1  0  0  0
 86167  1  0  0  0
 86168  1  0  0  0
 87169  1  0  0  0
 87170  1  0  0  0
 87 90  1  0  0  0
 88171  1  0  0  0
 88172  1  0  0  0
 89173  1  0  0  0
 90174  1  0  0  0
M  CHG  1  90   1
M  ISO  4   1 100  68 101  88 101  89 100
M  END
> <chiral flag>
0

> <version>
0

> <s_m_source_file>
/data/baiqing/PycharmProjects/Reinvent-master-3.2/result/LINK_invent/BTK/process_docking_weight1_custom_product_contain_oxygen_bond_distance_aromatic_linkinvent_7_9_3/rearranged_h_0057.sdf

> <i_m_source_file_index>
95

> <r_mmod_Potential_Energy-OPLS-2005>
-84.668342590332

> <r_mmod_Stretch_Energy-OPLS-2005>
51.0834159851074

> <r_mmod_Bend_Energy-OPLS-2005>
135.699508666992

> <r_mmod_Torsional_Energy-OPLS-2005>
256.435516357422

> <r_mmod_Improper_Torsional_Energy-OPLS-2005>
4.87806844711304

> <r_mmod_Van_der_Waal_Energy-OPLS-2005>
162.102432250977

> <r_mmod_Electrostatic_Energy-OPLS-2005>
-279.424926757812

> <r_mmod_Solvation_Energy-OPLS-2005>
-428.407470703125

> <b_mmod_Minimization_Converged-OPLS-2005>
0

> <r_mmod_RMS_Derivative-OPLS-2005>
5.08098125457764

$$$$
