0
                    3D
 Structure written by MMmdl.
160168  0  0  1  0            999 V2000
  -30.6884  -14.5024   20.5385 C   0  0  0  0  0  0
  -30.4256  -12.3119   19.4396 C   0  0  0  0  0  0
  -29.5045  -12.5104   18.2170 C   0  0  0  0  0  0
  -28.0221  -12.3743   18.6193 C   0  0  0  0  0  0
  -27.6629  -13.2146   19.8733 C   0  0  2  0  0  0
  -28.7024  -13.0077   20.9992 C   0  0  0  0  0  0
  -25.2570  -13.8182   20.5669 C   0  0  0  0  0  0
  -24.1825  -13.0451   20.9153 C   0  0  0  0  0  0
  -24.6374  -11.6915   20.8699 C   0  0  0  0  0  0
  -23.9025  -10.4306   21.0373 C   0  0  0  0  0  0
  -24.3590   -9.4233   21.9166 C   0  0  0  0  0  0
  -23.6275   -8.2260   22.0743 C   0  0  0  0  0  0
  -22.4259   -8.0271   21.3541 C   0  0  0  0  0  0
  -21.9879   -9.0237   20.4637 C   0  0  0  0  0  0
  -22.7192  -10.2130   20.3034 C   0  0  0  0  0  0
  -21.6864   -6.0714   22.5276 C   0  0  0  0  0  0
  -21.4018   -6.5628   23.8203 C   0  0  0  0  0  0
  -21.3672   -5.6782   24.9166 C   0  0  0  0  0  0
  -21.6051   -4.3042   24.7231 C   0  0  0  0  0  0
  -21.8829   -3.8128   23.4348 C   0  0  0  0  0  0
  -21.9205   -4.6935   22.3403 C   0  0  0  0  0  0
  -22.7858  -13.5262   21.1828 C   0  0  0  0  0  0
  -22.1689   -4.2126   21.0983 F   0  0  0  0  0  0
  -21.5617   -3.4538   25.7744 F   0  0  0  0  0  0
  -30.0365  -13.3069   20.4537 N   0  0  0  0  0  0
  -26.3015  -12.9359   20.3322 N   0  0  0  0  0  0
  -25.9300  -11.6507   20.5725 N   0  0  0  0  0  0
  -22.0476  -12.8251   22.0370 N   0  0  0  0  0  0
  -25.4299  -15.1912   20.4150 N   0  0  0  0  0  0
  -31.8179  -14.6779   20.0738 O   0  0  0  0  0  0
  -21.6636   -6.8858   21.4240 O   0  0  0  0  0  0
  -22.3544  -14.5569   20.6684 O   0  0  0  0  0  0
  -24.6204  -31.8662   23.2069 C   0  0  0  0  0  0
  -25.9087  -32.4807   23.8376 C   0  0  1  0  0  0
  -27.2356  -27.4058   20.0926 C   0  0  0  0  0  0
  -25.5918  -33.8604   24.2308 N   0  0  0  0  0  0
  -23.4085  -30.4922   21.5486 C   0  0  2  0  0  0
  -24.8546  -28.9583   20.1116 C   0  0  0  0  0  0
  -22.7443  -29.4666   22.4969 C   0  0  0  0  0  0
  -18.0277  -28.1388   22.8491 C   0  0  0  0  0  0
  -24.1488  -36.7308   23.2640 C   0  0  0  0  0  0
  -25.9424  -30.8250   21.3634 C   0  0  0  0  0  0
  -26.0201  -29.4595   20.7055 C   0  0  0  0  0  0
  -27.2135  -28.6943   20.6865 C   0  0  0  0  0  0
  -26.0458  -26.9332   19.4884 C   0  0  0  0  0  0
  -24.8656  -27.6962   19.4980 C   0  0  0  0  0  0
  -23.6178  -29.8269   20.1626 C   0  0  0  0  0  0
  -25.4106  -36.3097   24.0336 C   0  0  1  0  0  0
  -20.5875  -28.3681   23.1305 C   0  0  2  0  0  0
  -20.6757  -26.9412   22.5420 C   0  0  0  0  0  0
  -19.5734  -26.6392   21.5218 C   0  0  0  0  0  0
  -18.1915  -26.7932   22.1628 C   0  0  0  0  0  0
  -19.1530  -28.8848   23.2893 C   0  0  0  0  0  0
  -18.9457  -30.1452   23.8901 C   0  0  0  0  0  0
  -17.6456  -30.6587   24.0569 C   0  0  0  0  0  0
  -25.9043  -34.9465   23.5118 C   0  0  0  0  0  0
  -16.5344  -29.9093   23.6324 C   0  0  0  0  0  0
  -16.7265  -28.6516   23.0336 C   0  0  0  0  0  0
  -26.4492  -31.6591   25.0721 C   0  0  0  0  0  0
  -25.3739  -31.3713   26.1453 C   0  0  0  0  0  0
  -27.0335  -30.3023   24.6127 C   0  0  0  0  0  0
  -27.6053  -32.4321   25.7491 C   0  0  0  0  0  0
  -27.5585  -37.1800   24.8459 C   0  0  0  0  0  0
  -21.4164  -29.3046   22.3709 N   0  0  0  0  0  0
  -26.4283  -37.3790   23.9424 N   0  0  0  0  0  0
  -24.6756  -31.0758   22.0968 N   0  0  0  0  0  0
  -23.4211  -28.8202   23.3012 O   0  0  0  0  0  0
  -28.3918  -26.6341   20.1196 O   0  0  0  0  0  0
  -26.5612  -34.8932   22.4686 O   0  0  0  0  0  0
  -23.5384  -32.1425   23.7442 O   0  0  0  0  0  0
  -29.4834  -18.2398   18.4860 C   0  0  0  0  0  0
  -29.6193  -19.4084   19.2596 C   0  0  0  0  0  0
  -29.6242  -16.9704   19.0769 C   0  0  0  0  0  0
  -30.0347  -18.0316   21.2304 C   0  0  0  0  0  0
  -29.8990  -19.3224   20.6394 C   0  0  0  0  0  0
  -29.9115  -16.8448   20.4551 C   0  0  0  0  0  0
  -29.1829  -22.8554   20.8288 C   0  0  0  0  0  0
  -32.4677  -22.9046   21.1249 C   0  0  0  0  0  0
  -30.0321  -20.5938   21.5047 C   0  0  0  0  0  0
  -29.4686  -24.3450   20.4514 C   0  0  0  0  0  0
  -31.4998  -22.1291   20.2135 C   0  0  0  0  0  0
  -28.2077  -25.1935   20.0976 C   0  0  0  0  0  0
  -29.9808  -15.5377   21.0455 N   0  0  0  0  0  0
  -30.1767  -21.9159   20.8242 N   0  0  0  0  0  0
  -28.0426  -22.5615   21.2016 O   0  0  0  0  0  0
  -31.4730  -12.4016   19.1423 H   0  0  0  0  0  0
  -30.3160  -11.3026   19.8402 H   0  0  0  0  0  0
  -29.7485  -11.7886   17.4362 H   0  0  0  0  0  0
  -29.6792  -13.4960   17.7815 H   0  0  0  0  0  0
  -27.8252  -11.3189   18.8091 H   0  0  0  0  0  0
  -27.3786  -12.6565   17.7865 H   0  0  0  0  0  0
  -27.7029  -14.2611   19.5667 H   0  0  0  0  0  0
  -28.6734  -11.9758   21.3517 H   0  0  0  0  0  0
  -28.4649  -13.6221   21.8676 H   0  0  0  0  0  0
  -25.2736   -9.5748   22.4737 H   0  0  0  0  0  0
  -24.0002   -7.4661   22.7470 H   0  0  0  0  0  0
  -21.0804   -8.8730   19.8968 H   0  0  0  0  0  0
  -22.3607  -10.9644   19.6137 H   0  0  0  0  0  0
  -21.2010   -7.6140   23.9698 H   0  0  0  0  0  0
  -21.1492   -6.0514   25.9070 H   0  0  0  0  0  0
  -22.0599   -2.7586   23.2836 H   0  0  0  0  0  0
  -22.4069  -11.9916   22.4781 H   0  0  0  0  0  0
  -21.1102  -13.1299   22.2565 H   0  0  0  0  0  0
  -24.6665  -15.8492   20.5279 H   0  0  0  0  0  0
  -26.2897  -15.6343   20.1154 H   0  0  0  0  0  0
  -26.7164  -32.5513   23.1144 H   0  0  0  0  0  0
  -25.0054  -33.9748   25.0440 H   0  0  0  0  0  0
  -22.6977  -31.3097   21.4094 H   0  0  0  0  0  0
  -23.3743  -35.9645   23.3290 H   0  0  0  0  0  0
  -24.3587  -36.8934   22.2058 H   0  0  0  0  0  0
  -23.7240  -37.6508   23.6663 H   0  0  0  0  0  0
  -26.0623  -31.5924   20.5970 H   0  0  0  0  0  0
  -26.8274  -30.8730   21.9862 H   0  0  0  0  0  0
  -28.1131  -29.0809   21.1453 H   0  0  0  0  0  0
  -26.0039  -25.9719   18.9994 H   0  0  0  0  0  0
  -23.9718  -27.3061   19.0307 H   0  0  0  0  0  0
  -23.7292  -30.6029   19.4044 H   0  0  0  0  0  0
  -22.7401  -29.2505   19.8650 H   0  0  0  0  0  0
  -25.1277  -36.1942   25.0823 H   0  0  0  0  0  0
  -20.9974  -28.3254   24.1424 H   0  0  0  0  0  0
  -20.5660  -26.2300   23.3618 H   0  0  0  0  0  0
  -21.6624  -26.7444   22.1217 H   0  0  0  0  0  0
  -19.6893  -25.6307   21.1244 H   0  0  0  0  0  0
  -19.6668  -27.3210   20.6754 H   0  0  0  0  0  0
  -17.4189  -26.6687   21.4020 H   0  0  0  0  0  0
  -18.0308  -26.0078   22.9028 H   0  0  0  0  0  0
  -19.7933  -30.7267   24.2274 H   0  0  0  0  0  0
  -17.5012  -31.6265   24.5178 H   0  0  0  0  0  0
  -15.5344  -30.2991   23.7647 H   0  0  0  0  0  0
  -15.8671  -28.0846   22.7021 H   0  0  0  0  0  0
  -24.5903  -30.7076   25.7783 H   0  0  0  0  0  0
  -24.8949  -32.2880   26.4901 H   0  0  0  0  0  0
  -25.8074  -30.8871   27.0215 H   0  0  0  0  0  0
  -26.2899  -29.6765   24.1179 H   0  0  0  0  0  0
  -27.4089  -29.7273   25.4608 H   0  0  0  0  0  0
  -27.8744  -30.4322   23.9304 H   0  0  0  0  0  0
  -27.2657  -33.3611   26.2082 H   0  0  0  0  0  0
  -28.3858  -32.6897   25.0319 H   0  0  0  0  0  0
  -28.0736  -31.8446   26.5396 H   0  0  0  0  0  0
  -28.2571  -38.0129   24.7538 H   0  0  0  0  0  0
  -28.1102  -36.2656   24.6219 H   0  0  0  0  0  0
  -27.2318  -37.1380   25.8865 H   0  0  0  0  0  0
  -20.9338  -29.8788   21.6936 H   0  0  0  0  0  0
  -26.0160  -38.2863   24.1423 H   0  0  0  0  0  0
  -29.2585  -18.3183   17.4315 H   0  0  0  0  0  0
  -29.4978  -20.3693   18.7802 H   0  0  0  0  0  0
  -29.4903  -16.0923   18.4603 H   0  0  0  0  0  0
  -30.2365  -17.9588   22.2903 H   0  0  0  0  0  0
  -33.4486  -22.9873   20.6540 H   0  0  0  0  0  0
  -32.6074  -22.4000   22.0824 H   0  0  0  0  0  0
  -32.1257  -23.9187   21.3284 H   0  0  0  0  0  0
  -30.9068  -20.4611   22.1441 H   0  0  0  0  0  0
  -29.1915  -20.6057   22.2007 H   0  0  0  0  0  0
  -30.1747  -24.4141   19.6257 H   0  0  0  0  0  0
  -29.9552  -24.7978   21.3147 H   0  0  0  0  0  0
  -31.9492  -21.1637   19.9739 H   0  0  0  0  0  0
  -31.4002  -22.6275   19.2485 H   0  0  0  0  0  0
  -27.4019  -24.9502   20.7920 H   0  0  0  0  0  0
  -27.8776  -24.8859   19.1043 H   0  0  0  0  0  0
  -29.1787  -15.2741   21.5991 H   0  0  0  0  0  0
  1 25  1  0  0  0
  1 30  2  0  0  0
  1 83  1  0  0  0
  2  3  1  0  0  0
  2 25  1  0  0  0
  2 86  1  0  0  0
  2 87  1  0  0  0
  3  4  1  0  0  0
  3 88  1  0  0  0
  3 89  1  0  0  0
  4  5  1  0  0  0
  4 90  1  0  0  0
  4 91  1  0  0  0
  5  6  1  0  0  0
  5 26  1  0  0  0
  5 92  1  0  0  0
  6 25  1  0  0  0
  6 93  1  0  0  0
  6 94  1  0  0  0
  7  8  2  0  0  0
  7 26  1  0  0  0
  7 29  1  0  0  0
  8  9  1  0  0  0
  8 22  1  0  0  0
  9 10  1  0  0  0
  9 27  2  0  0  0
 10 11  2  0  0  0
 10 15  1  0  0  0
 11 12  1  0  0  0
 11 95  1  0  0  0
 12 13  2  0  0  0
 12 96  1  0  0  0
 13 14  1  0  0  0
 13 31  1  0  0  0
 14 15  2  0  0  0
 14 97  1  0  0  0
 15 98  1  0  0  0
 16 17  2  0  0  0
 16 21  1  0  0  0
 16 31  1  0  0  0
 17 18  1  0  0  0
 17 99  1  0  0  0
 18 19  2  0  0  0
 18100  1  0  0  0
 19 20  1  0  0  0
 19 24  1  0  0  0
 20 21  2  0  0  0
 20101  1  0  0  0
 21 23  1  0  0  0
 22 28  1  0  0  0
 22 32  2  0  0  0
 26 27  1  0  0  0
 28102  1  0  0  0
 28103  1  0  0  0
 29104  1  0  0  0
 29105  1  0  0  0
 33 34  1  0  0  0
 33 66  1  0  0  0
 33 70  2  0  0  0
 34 36  1  0  0  0
 34 59  1  0  0  0
 34106  1  0  0  0
 35 44  2  0  0  0
 35 45  1  0  0  0
 35 68  1  0  0  0
 36 56  1  0  0  0
 36107  1  0  0  0
 37 39  1  0  0  0
 37 47  1  0  0  0
 37 66  1  0  0  0
 37108  1  0  0  0
 38 43  2  0  0  0
 38 46  1  0  0  0
 38 47  1  0  0  0
 39 64  1  0  0  0
 39 67  2  0  0  0
 40 52  1  0  0  0
 40 53  2  0  0  0
 40 58  1  0  0  0
 41109  1  0  0  0
 41110  1  0  0  0
 41111  1  0  0  0
 41 48  1  0  0  0
 42 43  1  0  0  0
 42 66  1  0  0  0
 42112  1  0  0  0
 42113  1  0  0  0
 43 44  1  0  0  0
 44114  1  0  0  0
 45 46  2  0  0  0
 45115  1  0  0  0
 46116  1  0  0  0
 47117  1  0  0  0
 47118  1  0  0  0
 48 56  1  0  0  0
 48 65  1  0  0  0
 48119  1  0  0  0
 49 50  1  0  0  0
 49 53  1  0  0  0
 49 64  1  0  0  0
 49120  1  0  0  0
 50 51  1  0  0  0
 50121  1  0  0  0
 50122  1  0  0  0
 51 52  1  0  0  0
 51123  1  0  0  0
 51124  1  0  0  0
 52125  1  0  0  0
 52126  1  0  0  0
 53 54  1  0  0  0
 54 55  2  0  0  0
 54127  1  0  0  0
 55 57  1  0  0  0
 55128  1  0  0  0
 56 69  2  0  0  0
 57 58  2  0  0  0
 57129  1  0  0  0
 58130  1  0  0  0
 59 60  1  0  0  0
 59 61  1  0  0  0
 59 62  1  0  0  0
 60131  1  0  0  0
 60132  1  0  0  0
 60133  1  0  0  0
 61134  1  0  0  0
 61135  1  0  0  0
 61136  1  0  0  0
 62137  1  0  0  0
 62138  1  0  0  0
 62139  1  0  0  0
 63 65  1  0  0  0
 63140  1  0  0  0
 63141  1  0  0  0
 63142  1  0  0  0
 64143  1  0  0  0
 65144  1  0  0  0
 68 82  1  0  0  0
 71 72  2  0  0  0
 71 73  1  0  0  0
 71145  1  0  0  0
 72 75  1  0  0  0
 72146  1  0  0  0
 73 76  2  0  0  0
 73147  1  0  0  0
 74 75  2  0  0  0
 74 76  1  0  0  0
 74148  1  0  0  0
 75 79  1  0  0  0
 76 83  1  0  0  0
 77 80  1  0  0  0
 77 84  1  0  0  0
 77 85  2  0  0  0
 78 81  1  0  0  0
 78149  1  0  0  0
 78150  1  0  0  0
 78151  1  0  0  0
 79 84  1  0  0  0
 79152  1  0  0  0
 79153  1  0  0  0
 80 82  1  0  0  0
 80154  1  0  0  0
 80155  1  0  0  0
 81 84  1  0  0  0
 81156  1  0  0  0
 81157  1  0  0  0
 82158  1  0  0  0
 82159  1  0  0  0
 83160  1  0  0  0
M  ISO  4   1 100  68 101  82 101  83 100
M  END
> <chiral flag>
0

> <version>
0

> <s_m_source_file>
/data/baiqing/PycharmProjects/Reinvent-master-3.2/result/LINK_invent/BTK/process_docking_weight1_custom_product_contain_oxygen_bond_distance_aromatic_linkinvent_7_9_3/rearranged_h_0055.sdf

> <i_m_source_file_index>
1

> <r_mmod_Potential_Energy-OPLS-2005>
-2.36790037155151

> <r_mmod_Stretch_Energy-OPLS-2005>
50.9442253112793

> <r_mmod_Bend_Energy-OPLS-2005>
102.557907104492

> <r_mmod_Torsional_Energy-OPLS-2005>
258.131683349609

> <r_mmod_Improper_Torsional_Energy-OPLS-2005>
5.44849872589111

> <r_mmod_Van_der_Waal_Energy-OPLS-2005>
157.897506713867

> <r_mmod_Electrostatic_Energy-OPLS-2005>
-371.276519775391

> <r_mmod_Solvation_Energy-OPLS-2005>
-223.529937744141

> <b_mmod_Minimization_Converged-OPLS-2005>
0

> <r_mmod_RMS_Derivative-OPLS-2005>
2.17540621757507

$$$$
1
                    3D
 Structure written by MMmdl.
157165  0  0  1  0            999 V2000
  -30.5658  -14.7390   20.4494 C   0  0  0  0  0  0
  -30.4368  -12.4463   19.4631 C   0  0  0  0  0  0
  -29.5085  -12.4946   18.2291 C   0  0  0  0  0  0
  -28.0366  -12.3093   18.6568 C   0  0  0  0  0  0
  -27.6384  -13.2217   19.8474 C   0  0  2  0  0  0
  -28.6819  -13.1405   20.9801 C   0  0  0  0  0  0
  -25.2486  -13.8167   20.5728 C   0  0  0  0  0  0
  -24.1762  -13.0423   20.9256 C   0  0  0  0  0  0
  -24.6351  -11.6906   20.8772 C   0  0  0  0  0  0
  -23.9006  -10.4285   21.0411 C   0  0  0  0  0  0
  -24.3564   -9.4198   21.9181 C   0  0  0  0  0  0
  -23.6265   -8.2210   22.0738 C   0  0  0  0  0  0
  -22.4244   -8.0244   21.3520 C   0  0  0  0  0  0
  -21.9862   -9.0216   20.4611 C   0  0  0  0  0  0
  -22.7183  -10.2117   20.3043 C   0  0  0  0  0  0
  -21.6864   -6.0703   22.5261 C   0  0  0  0  0  0
  -21.3997   -6.5605   23.8186 C   0  0  0  0  0  0
  -21.3654   -5.6774   24.9168 C   0  0  0  0  0  0
  -21.6059   -4.3036   24.7240 C   0  0  0  0  0  0
  -21.8817   -3.8112   23.4361 C   0  0  0  0  0  0
  -21.9190   -4.6926   22.3409 C   0  0  0  0  0  0
  -22.7786  -13.5199   21.1955 C   0  0  0  0  0  0
  -22.1658   -4.2096   21.0995 F   0  0  0  0  0  0
  -21.5664   -3.4531   25.7762 F   0  0  0  0  0  0
  -29.9767  -13.5001   20.3940 N   0  0  0  0  0  0
  -26.2905  -12.9353   20.3269 N   0  0  0  0  0  0
  -25.9270  -11.6522   20.5721 N   0  0  0  0  0  0
  -22.0399  -12.8161   22.0480 N   0  0  0  0  0  0
  -25.4163  -15.1890   20.4175 N   0  0  0  0  0  0
  -31.7749  -14.8606   20.2205 O   0  0  0  0  0  0
  -21.6624   -6.8835   21.4223 O   0  0  0  0  0  0
  -22.3446  -14.5484   20.6788 O   0  0  0  0  0  0
  -24.6342  -31.8456   23.1933 C   0  0  0  0  0  0
  -25.9151  -32.4689   23.8279 C   0  0  1  0  0  0
  -27.2145  -27.2300   20.1076 C   0  0  0  0  0  0
  -25.5898  -33.8487   24.2174 N   0  0  0  0  0  0
  -23.4303  -30.4705   21.5379 C   0  0  2  0  0  0
  -24.8756  -28.9090   20.1079 C   0  0  0  0  0  0
  -22.7485  -29.4535   22.4849 C   0  0  0  0  0  0
  -18.0288  -28.1428   22.8554 C   0  0  0  0  0  0
  -24.1503  -36.7280   23.2634 C   0  0  0  0  0  0
  -25.9828  -30.7458   21.3798 C   0  0  0  0  0  0
  -26.0518  -29.3719   20.7084 C   0  0  0  0  0  0
  -27.2244  -28.5467   20.6919 C   0  0  0  0  0  0
  -26.0053  -26.8257   19.5061 C   0  0  0  0  0  0
  -24.8560  -27.6405   19.5028 C   0  0  0  0  0  0
  -23.6527  -29.8048   20.1564 C   0  0  0  0  0  0
  -25.4136  -36.3041   24.0295 C   0  0  1  0  0  0
  -20.5907  -28.3647   23.1240 C   0  0  2  0  0  0
  -20.6670  -26.9345   22.5450 C   0  0  0  0  0  0
  -19.5677  -26.6438   21.5211 C   0  0  0  0  0  0
  -18.1904  -26.7951   22.1773 C   0  0  0  0  0  0
  -19.1591  -28.8881   23.2860 C   0  0  0  0  0  0
  -18.9597  -30.1544   23.8735 C   0  0  0  0  0  0
  -17.6623  -30.6735   24.0461 C   0  0  0  0  0  0
  -25.9050  -34.9400   23.5052 C   0  0  0  0  0  0
  -16.5471  -29.9272   23.6307 C   0  0  0  0  0  0
  -16.7309  -28.6632   23.0427 C   0  0  0  0  0  0
  -26.4500  -31.6574   25.0713 C   0  0  0  0  0  0
  -25.3707  -31.3751   26.1423 C   0  0  0  0  0  0
  -27.0363  -30.2959   24.6296 C   0  0  0  0  0  0
  -27.6021  -32.4356   25.7495 C   0  0  0  0  0  0
  -27.5593  -37.1795   24.8453 C   0  0  0  0  0  0
  -21.4213  -29.2902   22.3512 N   0  0  0  0  0  0
  -26.4321  -37.3744   23.9372 N   0  0  0  0  0  0
  -24.7021  -31.0367   22.0943 N   0  0  0  0  0  0
  -23.4144  -28.8125   23.3018 O   0  0  0  0  0  0
  -28.3144  -26.3427   20.1834 O   0  0  0  0  0  0
  -26.5662  -34.8895   22.4638 O   0  0  0  0  0  0
  -23.5481  -32.1333   23.7162 O   0  0  0  0  0  0
  -31.1358  -19.0267   21.9490 C   0  0  0  0  0  0
  -30.9873  -17.6883   21.5393 C   0  0  0  0  0  0
  -29.0867  -18.3751   20.2072 C   0  0  0  0  0  0
  -30.2654  -20.0572   21.5179 C   0  0  0  0  0  0
  -29.2517  -19.7881   20.5577 C   0  0  0  0  0  0
  -29.9309  -17.2900   20.6962 C   0  0  0  0  0  0
  -28.0572  -23.6260   20.2172 C   0  0  0  0  0  0
  -30.4340  -21.4161   22.1755 C   0  0  0  0  0  0
  -26.8769  -20.7276   20.5190 C   0  0  0  0  0  0
  -28.4173  -25.0117   19.4697 C   0  0  0  0  0  0
  -28.2957  -20.9362   19.9595 C   0  0  2  0  0  0
  -29.7089  -15.8382   20.4622 N   0  0  0  0  0  0
  -28.6907  -22.4275   19.8775 N   0  0  0  0  0  0
  -27.1478  -23.6441   21.0467 O   0  0  0  0  0  0
  -28.1760  -20.5737   18.6830 F   0  0  0  0  0  0
  -31.4780  -12.5799   19.1684 H   0  0  0  0  0  0
  -30.3860  -11.4703   19.9460 H   0  0  0  0  0  0
  -29.7960  -11.7289   17.5072 H   0  0  0  0  0  0
  -29.6269  -13.4497   17.7181 H   0  0  0  0  0  0
  -27.9155  -11.2659   18.9513 H   0  0  0  0  0  0
  -27.3665  -12.4583   17.8116 H   0  0  0  0  0  0
  -27.6282  -14.2419   19.4604 H   0  0  0  0  0  0
  -28.7186  -12.1329   21.3940 H   0  0  0  0  0  0
  -28.4164  -13.8016   21.8075 H   0  0  0  0  0  0
  -25.2708   -9.5710   22.4786 H   0  0  0  0  0  0
  -23.9990   -7.4597   22.7443 H   0  0  0  0  0  0
  -21.0793   -8.8706   19.8922 H   0  0  0  0  0  0
  -22.3589  -10.9658   19.6162 H   0  0  0  0  0  0
  -21.1935   -7.6094   23.9673 H   0  0  0  0  0  0
  -21.1515   -6.0503   25.9064 H   0  0  0  0  0  0
  -22.0599   -2.7566   23.2884 H   0  0  0  0  0  0
  -22.3978  -11.9855   22.4967 H   0  0  0  0  0  0
  -21.1002  -13.1181   22.2620 H   0  0  0  0  0  0
  -24.6529  -15.8438   20.5402 H   0  0  0  0  0  0
  -26.2585  -15.6324   20.0772 H   0  0  0  0  0  0
  -26.7248  -32.5319   23.1037 H   0  0  0  0  0  0
  -24.9971  -33.9612   25.0273 H   0  0  0  0  0  0
  -22.7259  -31.2932   21.3916 H   0  0  0  0  0  0
  -23.3759  -35.9627   23.3303 H   0  0  0  0  0  0
  -24.3588  -36.8903   22.2051 H   0  0  0  0  0  0
  -23.7297  -37.6476   23.6690 H   0  0  0  0  0  0
  -26.1479  -31.5123   20.6218 H   0  0  0  0  0  0
  -26.8496  -30.7748   22.0280 H   0  0  0  0  0  0
  -28.1318  -28.8975   21.1628 H   0  0  0  0  0  0
  -25.9037  -25.8402   19.0789 H   0  0  0  0  0  0
  -23.9448  -27.2688   19.0555 H   0  0  0  0  0  0
  -23.7841  -30.5853   19.4054 H   0  0  0  0  0  0
  -22.7723  -29.2445   19.8432 H   0  0  0  0  0  0
  -25.1350  -36.1871   25.0799 H   0  0  0  0  0  0
  -21.0048  -28.3245   24.1342 H   0  0  0  0  0  0
  -20.5372  -26.2290   23.3665 H   0  0  0  0  0  0
  -21.6544  -26.7118   22.1364 H   0  0  0  0  0  0
  -19.6840  -25.6423   21.1066 H   0  0  0  0  0  0
  -19.6576  -27.3354   20.6861 H   0  0  0  0  0  0
  -17.4062  -26.6732   21.4271 H   0  0  0  0  0  0
  -18.0377  -26.0097   22.9198 H   0  0  0  0  0  0
  -19.8078  -30.7380   24.1985 H   0  0  0  0  0  0
  -17.5247  -31.6480   24.4914 H   0  0  0  0  0  0
  -15.5505  -30.3290   23.7569 H   0  0  0  0  0  0
  -15.8632  -28.1020   22.7218 H   0  0  0  0  0  0
  -24.5865  -30.7108   25.7762 H   0  0  0  0  0  0
  -24.8927  -32.2930   26.4848 H   0  0  0  0  0  0
  -25.7986  -30.8928   27.0215 H   0  0  0  0  0  0
  -26.2994  -29.6682   24.1254 H   0  0  0  0  0  0
  -27.3919  -29.7227   25.4873 H   0  0  0  0  0  0
  -27.8926  -30.4160   23.9651 H   0  0  0  0  0  0
  -27.2585  -33.3641   26.2060 H   0  0  0  0  0  0
  -28.3834  -32.6940   25.0342 H   0  0  0  0  0  0
  -28.0717  -31.8523   26.5424 H   0  0  0  0  0  0
  -28.2604  -38.0098   24.7501 H   0  0  0  0  0  0
  -28.1100  -36.2619   24.6313 H   0  0  0  0  0  0
  -27.2280  -37.1480   25.8846 H   0  0  0  0  0  0
  -20.9418  -29.8373   21.6509 H   0  0  0  0  0  0
  -26.0183  -38.2807   24.1372 H   0  0  0  0  0  0
  -31.9268  -19.2554   22.6491 H   0  0  0  0  0  0
  -31.6631  -16.9446   21.9359 H   0  0  0  0  0  0
  -28.2739  -18.1162   19.5410 H   0  0  0  0  0  0
  -31.1030  -22.0488   21.5947 H   0  0  0  0  0  0
  -30.8501  -21.3062   23.1802 H   0  0  0  0  0  0
  -29.4768  -21.9191   22.3036 H   0  0  0  0  0  0
  -26.8317  -20.9329   21.5868 H   0  0  0  0  0  0
  -26.5415  -19.6995   20.3721 H   0  0  0  0  0  0
  -26.1425  -21.3590   20.0180 H   0  0  0  0  0  0
  -27.8782  -25.0437   18.5244 H   0  0  0  0  0  0
  -29.4589  -24.9227   19.1630 H   0  0  0  0  0  0
  -28.7388  -15.5735   20.3795 H   0  0  0  0  0  0
  -29.4697  -22.5693   19.2504 H   0  0  0  0  0  0
  1 25  1  0  0  0
  1 30  2  0  0  0
  1 82  1  0  0  0
  2  3  1  0  0  0
  2 25  1  0  0  0
  2 86  1  0  0  0
  2 87  1  0  0  0
  3  4  1  0  0  0
  3 88  1  0  0  0
  3 89  1  0  0  0
  4  5  1  0  0  0
  4 90  1  0  0  0
  4 91  1  0  0  0
  5  6  1  0  0  0
  5 26  1  0  0  0
  5 92  1  0  0  0
  6 25  1  0  0  0
  6 93  1  0  0  0
  6 94  1  0  0  0
  7  8  2  0  0  0
  7 26  1  0  0  0
  7 29  1  0  0  0
  8  9  1  0  0  0
  8 22  1  0  0  0
  9 10  1  0  0  0
  9 27  2  0  0  0
 10 11  2  0  0  0
 10 15  1  0  0  0
 11 12  1  0  0  0
 11 95  1  0  0  0
 12 13  2  0  0  0
 12 96  1  0  0  0
 13 14  1  0  0  0
 13 31  1  0  0  0
 14 15  2  0  0  0
 14 97  1  0  0  0
 15 98  1  0  0  0
 16 17  2  0  0  0
 16 21  1  0  0  0
 16 31  1  0  0  0
 17 18  1  0  0  0
 17 99  1  0  0  0
 18 19  2  0  0  0
 18100  1  0  0  0
 19 20  1  0  0  0
 19 24  1  0  0  0
 20 21  2  0  0  0
 20101  1  0  0  0
 21 23  1  0  0  0
 22 28  1  0  0  0
 22 32  2  0  0  0
 26 27  1  0  0  0
 28102  1  0  0  0
 28103  1  0  0  0
 29104  1  0  0  0
 29105  1  0  0  0
 33 34  1  0  0  0
 33 66  1  0  0  0
 33 70  2  0  0  0
 34 36  1  0  0  0
 34 59  1  0  0  0
 34106  1  0  0  0
 35 44  2  0  0  0
 35 45  1  0  0  0
 35 68  1  0  0  0
 36 56  1  0  0  0
 36107  1  0  0  0
 37 39  1  0  0  0
 37 47  1  0  0  0
 37 66  1  0  0  0
 37108  1  0  0  0
 38 43  2  0  0  0
 38 46  1  0  0  0
 38 47  1  0  0  0
 39 64  1  0  0  0
 39 67  2  0  0  0
 40 52  1  0  0  0
 40 53  2  0  0  0
 40 58  1  0  0  0
 41109  1  0  0  0
 41110  1  0  0  0
 41111  1  0  0  0
 41 48  1  0  0  0
 42 43  1  0  0  0
 42 66  1  0  0  0
 42112  1  0  0  0
 42113  1  0  0  0
 43 44  1  0  0  0
 44114  1  0  0  0
 45 46  2  0  0  0
 45115  1  0  0  0
 46116  1  0  0  0
 47117  1  0  0  0
 47118  1  0  0  0
 48 56  1  0  0  0
 48 65  1  0  0  0
 48119  1  0  0  0
 49 50  1  0  0  0
 49 53  1  0  0  0
 49 64  1  0  0  0
 49120  1  0  0  0
 50 51  1  0  0  0
 50121  1  0  0  0
 50122  1  0  0  0
 51 52  1  0  0  0
 51123  1  0  0  0
 51124  1  0  0  0
 52125  1  0  0  0
 52126  1  0  0  0
 53 54  1  0  0  0
 54 55  2  0  0  0
 54127  1  0  0  0
 55 57  1  0  0  0
 55128  1  0  0  0
 56 69  2  0  0  0
 57 58  2  0  0  0
 57129  1  0  0  0
 58130  1  0  0  0
 59 60  1  0  0  0
 59 61  1  0  0  0
 59 62  1  0  0  0
 60131  1  0  0  0
 60132  1  0  0  0
 60133  1  0  0  0
 61134  1  0  0  0
 61135  1  0  0  0
 61136  1  0  0  0
 62137  1  0  0  0
 62138  1  0  0  0
 62139  1  0  0  0
 63 65  1  0  0  0
 63140  1  0  0  0
 63141  1  0  0  0
 63142  1  0  0  0
 64143  1  0  0  0
 65144  1  0  0  0
 68 80  1  0  0  0
 71 72  2  0  0  0
 71 74  1  0  0  0
 71145  1  0  0  0
 72 76  1  0  0  0
 72146  1  0  0  0
 73 75  1  0  0  0
 73 76  2  0  0  0
 73147  1  0  0  0
 74 75  2  0  0  0
 74 78  1  0  0  0
 75 81  1  0  0  0
 76 82  1  0  0  0
 77 80  1  0  0  0
 77 83  1  0  0  0
 77 84  2  0  0  0
 78148  1  0  0  0
 78149  1  0  0  0
 78150  1  0  0  0
 79151  1  0  0  0
 79152  1  0  0  0
 79153  1  0  0  0
 79 81  1  0  0  0
 80154  1  0  0  0
 80155  1  0  0  0
 81 83  1  0  0  0
 81 85  1  0  0  0
 82156  1  0  0  0
 83157  1  0  0  0
M  ISO  4   1 100  68 101  80 101  82 100
M  END
> <chiral flag>
0

> <version>
0

> <s_m_source_file>
/data/baiqing/PycharmProjects/Reinvent-master-3.2/result/LINK_invent/BTK/process_docking_weight1_custom_product_contain_oxygen_bond_distance_aromatic_linkinvent_7_9_3/rearranged_h_0055.sdf

> <i_m_source_file_index>
2

> <r_mmod_Potential_Energy-OPLS-2005>
142.355407714844

> <r_mmod_Stretch_Energy-OPLS-2005>
137.82502746582

> <r_mmod_Bend_Energy-OPLS-2005>
194.962982177734

> <r_mmod_Torsional_Energy-OPLS-2005>
221.634429931641

> <r_mmod_Improper_Torsional_Energy-OPLS-2005>
9.33833122253418

> <r_mmod_Van_der_Waal_Energy-OPLS-2005>
137.473022460938

> <r_mmod_Electrostatic_Energy-OPLS-2005>
-422.70361328125

> <r_mmod_Solvation_Energy-OPLS-2005>
-232.759948730469

> <b_mmod_Minimization_Converged-OPLS-2005>
0

> <r_mmod_RMS_Derivative-OPLS-2005>
6.09398651123047

$$$$
2
                    3D
 Structure written by MMmdl.
160168  0  0  1  0            999 V2000
  -30.6898  -14.5848   20.5099 C   0  0  0  0  0  0
  -30.4151  -12.3654   19.4442 C   0  0  0  0  0  0
  -29.4925  -12.5015   18.2142 C   0  0  0  0  0  0
  -28.0206  -12.3483   18.6396 C   0  0  0  0  0  0
  -27.6496  -13.2280   19.8630 C   0  0  2  0  0  0
  -28.6978  -13.1043   20.9907 C   0  0  0  0  0  0
  -25.2556  -13.8232   20.5728 C   0  0  0  0  0  0
  -24.1823  -13.0459   20.9232 C   0  0  0  0  0  0
  -24.6414  -11.6966   20.8773 C   0  0  0  0  0  0
  -23.9072  -10.4313   21.0431 C   0  0  0  0  0  0
  -24.3603   -9.4210   21.9205 C   0  0  0  0  0  0
  -23.6305   -8.2211   22.0729 C   0  0  0  0  0  0
  -22.4300   -8.0241   21.3525 C   0  0  0  0  0  0
  -21.9952   -9.0212   20.4642 C   0  0  0  0  0  0
  -22.7244  -10.2127   20.3093 C   0  0  0  0  0  0
  -21.6855   -6.0729   22.5272 C   0  0  0  0  0  0
  -21.4008   -6.5638   23.8196 C   0  0  0  0  0  0
  -21.3674   -5.6792   24.9172 C   0  0  0  0  0  0
  -21.6073   -4.3051   24.7235 C   0  0  0  0  0  0
  -21.8835   -3.8140   23.4351 C   0  0  0  0  0  0
  -21.9201   -4.6957   22.3407 C   0  0  0  0  0  0
  -22.7857  -13.5248   21.1864 C   0  0  0  0  0  0
  -22.1683   -4.2165   21.0977 F   0  0  0  0  0  0
  -21.5628   -3.4527   25.7735 F   0  0  0  0  0  0
  -30.0031  -13.4083   20.4052 N   0  0  0  0  0  0
  -26.2982  -12.9424   20.3360 N   0  0  0  0  0  0
  -25.9349  -11.6581   20.5803 N   0  0  0  0  0  0
  -22.0514  -12.8180   22.0404 N   0  0  0  0  0  0
  -25.4248  -15.1942   20.4113 N   0  0  0  0  0  0
  -31.8768  -14.6566   20.1994 O   0  0  0  0  0  0
  -21.6649   -6.8862   21.4232 O   0  0  0  0  0  0
  -22.3507  -14.5529   20.6719 O   0  0  0  0  0  0
  -24.6138  -31.8665   23.2099 C   0  0  0  0  0  0
  -25.9016  -32.4819   23.8382 C   0  0  1  0  0  0
  -27.2319  -27.3838   20.1264 C   0  0  0  0  0  0
  -25.5899  -33.8629   24.2345 N   0  0  0  0  0  0
  -23.4041  -30.4858   21.5521 C   0  0  2  0  0  0
  -24.8580  -28.9522   20.1161 C   0  0  0  0  0  0
  -22.7389  -29.4579   22.4990 C   0  0  0  0  0  0
  -18.0211  -28.1347   22.8466 C   0  0  0  0  0  0
  -24.1477  -36.7318   23.2635 C   0  0  0  0  0  0
  -25.9355  -30.8264   21.3646 C   0  0  0  0  0  0
  -26.0209  -29.4569   20.7084 C   0  0  0  0  0  0
  -27.2112  -28.6838   20.6985 C   0  0  0  0  0  0
  -26.0522  -26.9213   19.4989 C   0  0  0  0  0  0
  -24.8698  -27.6866   19.5056 C   0  0  0  0  0  0
  -23.6215  -29.8237   20.1656 C   0  0  0  0  0  0
  -25.4110  -36.3135   24.0339 C   0  0  1  0  0  0
  -20.5796  -28.3582   23.1259 C   0  0  2  0  0  0
  -20.6648  -26.9306   22.5313 C   0  0  0  0  0  0
  -19.5602  -26.6304   21.5140 C   0  0  0  0  0  0
  -18.1790  -26.7872   22.1598 C   0  0  0  0  0  0
  -19.1460  -28.8813   23.2855 C   0  0  0  0  0  0
  -18.9422  -30.1431   23.8863 C   0  0  0  0  0  0
  -17.6417  -30.6578   24.0536 C   0  0  0  0  0  0
  -25.9035  -34.9475   23.5141 C   0  0  0  0  0  0
  -16.5311  -29.9083   23.6336 C   0  0  0  0  0  0
  -16.7210  -28.6475   23.0355 C   0  0  0  0  0  0
  -26.4416  -31.6595   25.0698 C   0  0  0  0  0  0
  -25.3706  -31.3662   26.1468 C   0  0  0  0  0  0
  -27.0261  -30.3051   24.6072 C   0  0  0  0  0  0
  -27.5974  -32.4338   25.7473 C   0  0  0  0  0  0
  -27.5585  -37.1811   24.8466 C   0  0  0  0  0  0
  -21.4104  -29.2949   22.3711 N   0  0  0  0  0  0
  -26.4297  -37.3820   23.9399 N   0  0  0  0  0  0
  -24.6690  -31.0732   22.1029 N   0  0  0  0  0  0
  -23.4173  -28.8126   23.3050 O   0  0  0  0  0  0
  -28.3766  -26.5933   20.1888 O   0  0  0  0  0  0
  -26.5561  -34.8915   22.4679 O   0  0  0  0  0  0
  -23.5315  -32.1400   23.7470 O   0  0  0  0  0  0
  -30.5850  -24.5183   19.7629 C   0  0  0  0  0  0
  -30.7430  -20.5361   22.1412 C   0  0  0  0  0  0
  -30.6487  -18.1338   22.5364 C   0  0  0  0  0  0
  -29.7007  -20.4665   21.1837 C   0  0  0  0  0  0
  -29.6357  -17.9776   21.5725 C   0  0  0  0  0  0
  -29.1274  -19.1586   20.9064 C   0  0  0  0  0  0
  -31.1929  -19.3926   22.8201 C   0  0  0  0  0  0
  -29.3573  -21.7830   20.5323 C   0  0  0  0  0  0
  -27.9511  -18.9729   19.9458 C   0  0  0  0  0  0
  -29.1609  -16.5081   21.3403 C   0  0  0  0  0  0
  -28.1991  -25.1505   20.3544 C   0  0  0  0  0  0
  -29.5055  -24.3928   20.7571 C   0  0  1  0  0  0
  -31.4398  -24.6084   18.9834 N   0  0  0  0  0  0
  -29.1111  -21.8358   19.2296 N   0  0  0  0  0  0
  -29.9913  -15.7409   20.3840 N   0  0  0  0  0  0
  -29.3675  -22.9611   21.2143 N   0  3  0  0  0  0
  -32.1652  -19.5114   23.7561 F   0  0  0  0  0  0
  -31.4615  -12.4573   19.1472 H   0  0  0  0  0  0
  -30.3133  -11.3763   19.8911 H   0  0  0  0  0  0
  -29.7367  -11.7494   17.4652 H   0  0  0  0  0  0
  -29.6423  -13.4697   17.7329 H   0  0  0  0  0  0
  -27.8510  -11.2964   18.8726 H   0  0  0  0  0  0
  -27.3596  -12.5780   17.8050 H   0  0  0  0  0  0
  -27.6654  -14.2637   19.5133 H   0  0  0  0  0  0
  -28.7063  -12.1008   21.4226 H   0  0  0  0  0  0
  -28.4727  -13.7909   21.8046 H   0  0  0  0  0  0
  -25.2747   -9.5694   22.4799 H   0  0  0  0  0  0
  -24.0033   -7.4630   22.7465 H   0  0  0  0  0  0
  -21.0880   -8.8753   19.8952 H   0  0  0  0  0  0
  -22.3689  -10.9676   19.6216 H   0  0  0  0  0  0
  -21.1976   -7.6151   23.9709 H   0  0  0  0  0  0
  -21.1497   -6.0521   25.9076 H   0  0  0  0  0  0
  -22.0602   -2.7604   23.2849 H   0  0  0  0  0  0
  -22.4081  -11.9802   22.4758 H   0  0  0  0  0  0
  -21.1136  -13.1175   22.2623 H   0  0  0  0  0  0
  -24.6642  -15.8572   20.5252 H   0  0  0  0  0  0
  -26.2737  -15.6164   20.0512 H   0  0  0  0  0  0
  -26.7062  -32.5521   23.1138 H   0  0  0  0  0  0
  -25.0081  -33.9805   25.0508 H   0  0  0  0  0  0
  -22.6918  -31.2998   21.4140 H   0  0  0  0  0  0
  -23.3772  -35.9622   23.3318 H   0  0  0  0  0  0
  -24.3546  -36.8900   22.2038 H   0  0  0  0  0  0
  -23.7228  -37.6522   23.6647 H   0  0  0  0  0  0
  -26.0476  -31.6048   20.6076 H   0  0  0  0  0  0
  -26.8209  -30.8847   21.9862 H   0  0  0  0  0  0
  -28.1063  -29.0695   21.1602 H   0  0  0  0  0  0
  -26.0301  -25.9641   19.0034 H   0  0  0  0  0  0
  -23.9746  -27.2953   19.0440 H   0  0  0  0  0  0
  -23.7401  -30.6031   19.4115 H   0  0  0  0  0  0
  -22.7418  -29.2515   19.8653 H   0  0  0  0  0  0
  -25.1310  -36.1983   25.0836 H   0  0  0  0  0  0
  -20.9846  -28.3016   24.1395 H   0  0  0  0  0  0
  -21.6487  -26.7268   22.1070 H   0  0  0  0  0  0
  -20.5495  -26.2191   23.3511 H   0  0  0  0  0  0
  -19.6818  -25.6180   21.1225 H   0  0  0  0  0  0
  -19.6545  -27.3033   20.6598 H   0  0  0  0  0  0
  -17.4016  -26.6589   21.4018 H   0  0  0  0  0  0
  -18.0185  -26.0069   22.9075 H   0  0  0  0  0  0
  -19.7903  -30.7222   24.2279 H   0  0  0  0  0  0
  -17.4903  -31.6246   24.5119 H   0  0  0  0  0  0
  -15.5277  -30.2930   23.7621 H   0  0  0  0  0  0
  -15.8586  -28.0781   22.7134 H   0  0  0  0  0  0
  -24.5868  -30.7030   25.7818 H   0  0  0  0  0  0
  -24.8877  -32.2770   26.5002 H   0  0  0  0  0  0
  -25.8071  -30.8766   27.0182 H   0  0  0  0  0  0
  -26.2802  -29.6807   24.1132 H   0  0  0  0  0  0
  -27.4057  -29.7327   25.4537 H   0  0  0  0  0  0
  -27.8638  -30.4407   23.9243 H   0  0  0  0  0  0
  -27.2590  -33.3646   26.2073 H   0  0  0  0  0  0
  -28.3773  -32.6889   25.0287 H   0  0  0  0  0  0
  -28.0674  -31.8432   26.5352 H   0  0  0  0  0  0
  -28.2617  -38.0088   24.7511 H   0  0  0  0  0  0
  -28.1070  -36.2614   24.6351 H   0  0  0  0  0  0
  -27.2258  -37.1539   25.8853 H   0  0  0  0  0  0
  -20.9298  -29.8611   21.6871 H   0  0  0  0  0  0
  -26.0198  -38.2888   24.1457 H   0  0  0  0  0  0
  -31.2301  -21.4776   22.3654 H   0  0  0  0  0  0
  -31.0199  -17.2697   23.0760 H   0  0  0  0  0  0
  -28.1094  -18.0977   19.3206 H   0  0  0  0  0  0
  -27.0325  -18.8154   20.5089 H   0  0  0  0  0  0
  -27.7643  -19.7860   19.2505 H   0  0  0  0  0  0
  -28.1240  -16.4811   21.0111 H   0  0  0  0  0  0
  -29.1594  -15.9963   22.3037 H   0  0  0  0  0  0
  -27.4509  -24.9639   21.1258 H   0  0  0  0  0  0
  -27.8239  -24.7066   19.4316 H   0  0  0  0  0  0
  -29.8836  -24.9190   21.6346 H   0  0  0  0  0  0
  -28.6691  -22.6342   18.8107 H   0  0  0  0  0  0
  -29.0818  -20.9676   18.7213 H   0  0  0  0  0  0
  -30.5523  -16.3914   19.8525 H   0  0  0  0  0  0
  -29.3873  -22.8610   22.2176 H   0  0  0  0  0  0
  1 25  1  0  0  0
  1 30  2  0  0  0
  1 85  1  0  0  0
  2  3  1  0  0  0
  2 25  1  0  0  0
  2 88  1  0  0  0
  2 89  1  0  0  0
  3  4  1  0  0  0
  3 90  1  0  0  0
  3 91  1  0  0  0
  4  5  1  0  0  0
  4 92  1  0  0  0
  4 93  1  0  0  0
  5  6  1  0  0  0
  5 26  1  0  0  0
  5 94  1  0  0  0
  6 25  1  0  0  0
  6 95  1  0  0  0
  6 96  1  0  0  0
  7  8  2  0  0  0
  7 26  1  0  0  0
  7 29  1  0  0  0
  8  9  1  0  0  0
  8 22  1  0  0  0
  9 10  1  0  0  0
  9 27  2  0  0  0
 10 11  2  0  0  0
 10 15  1  0  0  0
 11 12  1  0  0  0
 11 97  1  0  0  0
 12 13  2  0  0  0
 12 98  1  0  0  0
 13 14  1  0  0  0
 13 31  1  0  0  0
 14 15  2  0  0  0
 14 99  1  0  0  0
 15100  1  0  0  0
 16 17  2  0  0  0
 16 21  1  0  0  0
 16 31  1  0  0  0
 17 18  1  0  0  0
 17101  1  0  0  0
 18 19  2  0  0  0
 18102  1  0  0  0
 19 20  1  0  0  0
 19 24  1  0  0  0
 20 21  2  0  0  0
 20103  1  0  0  0
 21 23  1  0  0  0
 22 28  1  0  0  0
 22 32  2  0  0  0
 26 27  1  0  0  0
 28104  1  0  0  0
 28105  1  0  0  0
 29106  1  0  0  0
 29107  1  0  0  0
 33 34  1  0  0  0
 33 66  1  0  0  0
 33 70  2  0  0  0
 34 36  1  0  0  0
 34 59  1  0  0  0
 34108  1  0  0  0
 35 44  2  0  0  0
 35 45  1  0  0  0
 35 68  1  0  0  0
 36 56  1  0  0  0
 36109  1  0  0  0
 37 39  1  0  0  0
 37 47  1  0  0  0
 37 66  1  0  0  0
 37110  1  0  0  0
 38 43  2  0  0  0
 38 46  1  0  0  0
 38 47  1  0  0  0
 39 64  1  0  0  0
 39 67  2  0  0  0
 40 52  1  0  0  0
 40 53  2  0  0  0
 40 58  1  0  0  0
 41111  1  0  0  0
 41112  1  0  0  0
 41113  1  0  0  0
 41 48  1  0  0  0
 42 43  1  0  0  0
 42 66  1  0  0  0
 42114  1  0  0  0
 42115  1  0  0  0
 43 44  1  0  0  0
 44116  1  0  0  0
 45 46  2  0  0  0
 45117  1  0  0  0
 46118  1  0  0  0
 47119  1  0  0  0
 47120  1  0  0  0
 48 56  1  0  0  0
 48 65  1  0  0  0
 48121  1  0  0  0
 49 50  1  0  0  0
 49 53  1  0  0  0
 49 64  1  0  0  0
 49122  1  0  0  0
 50 51  1  0  0  0
 50123  1  0  0  0
 50124  1  0  0  0
 51 52  1  0  0  0
 51125  1  0  0  0
 51126  1  0  0  0
 52127  1  0  0  0
 52128  1  0  0  0
 53 54  1  0  0  0
 54 55  2  0  0  0
 54129  1  0  0  0
 55 57  1  0  0  0
 55130  1  0  0  0
 56 69  2  0  0  0
 57 58  2  0  0  0
 57131  1  0  0  0
 58132  1  0  0  0
 59 60  1  0  0  0
 59 61  1  0  0  0
 59 62  1  0  0  0
 60133  1  0  0  0
 60134  1  0  0  0
 60135  1  0  0  0
 61136  1  0  0  0
 61137  1  0  0  0
 61138  1  0  0  0
 62139  1  0  0  0
 62140  1  0  0  0
 62141  1  0  0  0
 63 65  1  0  0  0
 63142  1  0  0  0
 63143  1  0  0  0
 63144  1  0  0  0
 64145  1  0  0  0
 65146  1  0  0  0
 68 81  1  0  0  0
 71 83  3  0  0  0
 71 82  1  0  0  0
 72 74  2  0  0  0
 72 77  1  0  0  0
 72147  1  0  0  0
 73 75  1  0  0  0
 73 77  2  0  0  0
 73148  1  0  0  0
 74 76  1  0  0  0
 74 78  1  0  0  0
 75 76  2  0  0  0
 75 80  1  0  0  0
 76 79  1  0  0  0
 77 87  1  0  0  0
 78 84  1  0  0  0
 78 86  2  0  0  0
 79149  1  0  0  0
 79150  1  0  0  0
 79151  1  0  0  0
 80 85  1  0  0  0
 80152  1  0  0  0
 80153  1  0  0  0
 81 82  1  0  0  0
 81154  1  0  0  0
 81155  1  0  0  0
 82 86  1  0  0  0
 82156  1  0  0  0
 84157  1  0  0  0
 84158  1  0  0  0
 85159  1  0  0  0
 86160  1  0  0  0
M  CHG  1  86   1
M  ISO  4   1 100  68 101  81 101  85 100
M  END
> <chiral flag>
0

> <version>
0

> <s_m_source_file>
/data/baiqing/PycharmProjects/Reinvent-master-3.2/result/LINK_invent/BTK/process_docking_weight1_custom_product_contain_oxygen_bond_distance_aromatic_linkinvent_7_9_3/rearranged_h_0055.sdf

> <i_m_source_file_index>
3

> <r_mmod_Potential_Energy-OPLS-2005>
-259.906799316406

> <r_mmod_Stretch_Energy-OPLS-2005>
64.4468154907227

> <r_mmod_Bend_Energy-OPLS-2005>
147.225814819336

> <r_mmod_Torsional_Energy-OPLS-2005>
274.680480957031

> <r_mmod_Improper_Torsional_Energy-OPLS-2005>
24.7938671112061

> <r_mmod_Van_der_Waal_Energy-OPLS-2005>
141.663467407227

> <r_mmod_Electrostatic_Energy-OPLS-2005>
-463.364929199219

> <r_mmod_Solvation_Energy-OPLS-2005>
-483.524871826172

> <b_mmod_Minimization_Converged-OPLS-2005>
0

> <r_mmod_RMS_Derivative-OPLS-2005>
7.27760028839111

$$$$
3
                    3D
 Structure written by MMmdl.
161169  0  0  1  0            999 V2000
  -31.5154  -14.8514   21.0067 C   0  0  0  0  0  0
  -30.6123  -15.7921   18.8998 C   0  0  0  0  0  0
  -29.0111  -15.3875   17.4889 C   0  0  0  0  0  0
  -27.2865  -14.6036   18.2701 C   0  0  0  0  0  0
  -27.1889  -14.3911   20.2541 C   0  0  2  0  0  0
  -28.7482  -14.8157   21.4345 C   0  0  0  0  0  0
  -24.9083  -13.9810   20.5917 C   0  0  0  0  0  0
  -24.0225  -13.0426   20.9392 C   0  0  0  0  0  0
  -24.6876  -11.7804   20.8854 C   0  0  0  0  0  0
  -24.0117  -10.4489   21.0175 C   0  0  0  0  0  0
  -24.4281   -9.4359   21.9124 C   0  0  0  0  0  0
  -23.6722   -8.2463   22.0770 C   0  0  0  0  0  0
  -22.4697   -8.0467   21.3542 C   0  0  0  0  0  0
  -22.0568   -9.0475   20.4595 C   0  0  0  0  0  0
  -22.8152  -10.2234   20.2894 C   0  0  0  0  0  0
  -21.7020   -6.0886   22.5260 C   0  0  0  0  0  0
  -21.4107   -6.5747   23.8190 C   0  0  0  0  0  0
  -21.3646   -5.6870   24.9125 C   0  0  0  0  0  0
  -21.6022   -4.3131   24.7164 C   0  0  0  0  0  0
  -21.8817   -3.8252   23.4278 C   0  0  0  0  0  0
  -21.9252   -4.7090   22.3348 C   0  0  0  0  0  0
  -22.6023  -13.4076   21.1975 C   0  0  0  0  0  0
  -22.1725   -4.2282   21.0927 F   0  0  0  0  0  0
  -21.5585   -3.4571   25.7656 F   0  0  0  0  0  0
  -30.3532  -15.4353   20.7320 N   0  0  0  0  0  0
  -26.1238  -13.4024   20.5572 N   0  0  0  0  0  0
  -26.0204  -12.0046   20.6540 N   0  0  0  0  0  0
  -21.9385  -12.6907   22.0879 N   0  0  0  0  0  0
  -24.7286  -15.3335   20.3127 N   0  0  0  0  0  0
  -31.6796  -13.6901   20.8081 O   0  0  0  0  0  0
  -21.6884   -6.9134   21.4274 O   0  0  0  0  0  0
  -22.1136  -14.4167   20.6904 O   0  0  0  0  0  0
  -24.8155  -31.6111   23.0338 C   0  0  0  0  0  0
  -25.9986  -32.3570   23.7439 C   0  0  1  0  0  0
  -27.1201  -25.2963   20.1470 C   0  0  0  0  0  0
  -25.5950  -33.7497   24.1129 N   0  0  0  0  0  0
  -23.6832  -30.1557   21.4290 C   0  0  2  0  0  0
  -25.0962  -28.1967   20.1193 C   0  0  0  0  0  0
  -22.8259  -29.3301   22.4385 C   0  0  0  0  0  0
  -18.0393  -28.1481   22.8364 C   0  0  0  0  0  0
  -24.1497  -36.6786   23.2692 C   0  0  0  0  0  0
  -26.2810  -29.8581   21.4936 C   0  0  0  0  0  0
  -26.2954  -28.2766   20.8265 C   0  0  0  0  0  0
  -27.2327  -26.9048   20.7806 C   0  0  0  0  0  0
  -25.9192  -25.7792   19.4124 C   0  0  0  0  0  0
  -25.0214  -26.9764   19.3927 C   0  0  0  0  0  0
  -23.9771  -29.3286   20.1157 C   0  0  0  0  0  0
  -25.4198  -36.2414   24.0204 C   0  0  1  0  0  0
  -20.6065  -28.3829   23.0943 C   0  0  2  0  0  0
  -20.6769  -26.9378   22.5454 C   0  0  0  0  0  0
  -19.5805  -26.6310   21.5214 C   0  0  0  0  0  0
  -18.1975  -26.7982   22.1556 C   0  0  0  0  0  0
  -19.1689  -28.9018   23.2585 C   0  0  0  0  0  0
  -18.9585  -30.1567   23.8694 C   0  0  0  0  0  0
  -17.6566  -30.6634   24.0505 C   0  0  0  0  0  0
  -25.9254  -34.8811   23.4657 C   0  0  0  0  0  0
  -16.5441  -29.9110   23.6363 C   0  0  0  0  0  0
  -16.7361  -28.6534   23.0373 C   0  0  0  0  0  0
  -26.4813  -31.6272   25.0622 C   0  0  0  0  0  0
  -25.3565  -31.3880   26.1006 C   0  0  0  0  0  0
  -27.0955  -30.2549   24.7362 C   0  0  0  0  0  0
  -27.6037  -32.4470   25.7446 C   0  0  0  0  0  0
  -27.5530  -37.1547   24.8487 C   0  0  0  0  0  0
  -21.4805  -29.2772   22.3109 N   0  0  0  0  0  0
  -26.4229  -37.3319   23.9405 N   0  0  0  0  0  0
  -24.9771  -30.6108   22.0374 N   0  0  0  0  0  0
  -23.4109  -28.7180   23.3339 O   0  0  0  0  0  0
  -27.8483  -23.4603   20.0770 O   0  0  0  0  0  0
  -26.6139  -34.8660   22.4445 O   0  0  0  0  0  0
  -23.6924  -31.9844   23.4427 O   0  0  0  0  0  0
  -34.6650  -12.8339   20.1506 C   0  0  0  0  0  0
  -34.2260  -11.7388   19.3719 C   0  0  0  0  0  0
  -33.5634  -14.3116   18.5868 C   0  0  0  0  0  0
  -34.2148  -14.1310   19.8185 C   0  0  0  0  0  0
  -32.7623  -13.2406   18.1122 C   0  0  0  0  0  0
  -33.1916  -11.9295   18.4252 C   0  0  0  0  0  0
  -28.4550  -16.4869   19.5466 C   0  0  0  0  0  0
  -28.4664  -18.4654   19.6739 C   0  0  0  0  0  0
  -29.3107  -13.8896   19.2665 C   0  0  0  0  0  0
  -29.6599  -11.8348   17.8470 C   0  0  0  0  0  0
  -34.0187  -15.2253   20.8956 C   0  0  0  0  0  0
  -31.3953  -13.4973   17.4258 C   0  0  0  0  0  0
  -27.7854  -20.9802   19.8024 C   0  0  0  0  0  0
  -32.5977  -15.6480   21.1323 N   0  0  0  0  0  0
  -30.1211  -13.2085   18.2513 N   0  0  0  0  0  0
  -29.0837  -12.8666   19.9843 O   0  0  0  0  0  0
  -32.5902  -10.8546   17.8609 F   0  0  0  0  0  0
  -30.7321  -16.8766   18.8755 H   0  0  0  0  0  0
  -31.5983  -15.6659   18.5597 H   0  0  0  0  0  0
  -29.3056  -14.8427   16.5889 H   0  0  0  0  0  0
  -28.7339  -16.3414   17.0291 H   0  0  0  0  0  0
  -27.1240  -13.6255   17.8101 H   0  0  0  0  0  0
  -26.4270  -15.1676   17.9100 H   0  0  0  0  0  0
  -26.8555  -15.2677   20.7875 H   0  0  0  0  0  0
  -28.9451  -13.9901   22.1219 H   0  0  0  0  0  0
  -28.4437  -15.6211   22.1040 H   0  0  0  0  0  0
  -25.3288   -9.5780   22.4938 H   0  0  0  0  0  0
  -24.0242   -7.4918   22.7657 H   0  0  0  0  0  0
  -21.1469   -8.9156   19.8899 H   0  0  0  0  0  0
  -22.4616  -10.9741   19.5980 H   0  0  0  0  0  0
  -21.2164   -7.6267   23.9724 H   0  0  0  0  0  0
  -21.1442   -6.0589   25.9033 H   0  0  0  0  0  0
  -22.0595   -2.7716   23.2735 H   0  0  0  0  0  0
  -22.3640  -11.8961   22.5396 H   0  0  0  0  0  0
  -20.9825  -12.9317   22.3154 H   0  0  0  0  0  0
  -23.7886  -15.7165   20.2822 H   0  0  0  0  0  0
  -25.4468  -15.9870   20.0377 H   0  0  0  0  0  0
  -26.8309  -32.3928   23.0384 H   0  0  0  0  0  0
  -24.9720  -33.8290   24.9033 H   0  0  0  0  0  0
  -23.0932  -31.0264   21.1339 H   0  0  0  0  0  0
  -23.3810  -35.9063   23.3216 H   0  0  0  0  0  0
  -24.3491  -36.8672   22.2131 H   0  0  0  0  0  0
  -23.7211  -37.5858   23.6973 H   0  0  0  0  0  0
  -26.6621  -30.5057   20.7029 H   0  0  0  0  0  0
  -27.0681  -29.8856   22.2313 H   0  0  0  0  0  0
  -28.1158  -27.0206   21.3924 H   0  0  0  0  0  0
  -25.5322  -25.0018   18.7689 H   0  0  0  0  0  0
  -24.1506  -26.8708   18.7601 H   0  0  0  0  0  0
  -24.2592  -30.0263   19.3273 H   0  0  0  0  0  0
  -23.0486  -28.8758   19.7686 H   0  0  0  0  0  0
  -25.1469  -36.1021   25.0691 H   0  0  0  0  0  0
  -21.0084  -28.3548   24.1091 H   0  0  0  0  0  0
  -20.5446  -26.2505   23.3815 H   0  0  0  0  0  0
  -21.6641  -26.7098   22.1396 H   0  0  0  0  0  0
  -19.6940  -25.6173   21.1360 H   0  0  0  0  0  0
  -19.6821  -27.3023   20.6668 H   0  0  0  0  0  0
  -17.4248  -26.6692   21.3932 H   0  0  0  0  0  0
  -18.0310  -26.0189   22.8998 H   0  0  0  0  0  0
  -19.8076  -30.7388   24.2022 H   0  0  0  0  0  0
  -17.5131  -31.6291   24.5154 H   0  0  0  0  0  0
  -15.5446  -30.2960   23.7831 H   0  0  0  0  0  0
  -15.8730  -28.0796   22.7242 H   0  0  0  0  0  0
  -24.5883  -30.7131   25.7207 H   0  0  0  0  0  0
  -24.8646  -32.3189   26.3863 H   0  0  0  0  0  0
  -25.7442  -30.9379   27.0157 H   0  0  0  0  0  0
  -26.3749  -29.5645   24.2986 H   0  0  0  0  0  0
  -27.4563  -29.7662   25.6421 H   0  0  0  0  0  0
  -27.9648  -30.3461   24.0847 H   0  0  0  0  0  0
  -27.2470  -33.4034   26.1266 H   0  0  0  0  0  0
  -28.4163  -32.6574   25.0483 H   0  0  0  0  0  0
  -28.0375  -31.9158   26.5937 H   0  0  0  0  0  0
  -28.2477  -37.9893   24.7487 H   0  0  0  0  0  0
  -28.1089  -36.2398   24.6399 H   0  0  0  0  0  0
  -27.2217  -37.1255   25.8876 H   0  0  0  0  0  0
  -21.0460  -29.8179   21.5742 H   0  0  0  0  0  0
  -25.9959  -38.2326   24.1387 H   0  0  0  0  0  0
  -35.2488  -12.6646   21.0426 H   0  0  0  0  0  0
  -34.5606  -10.7371   19.6047 H   0  0  0  0  0  0
  -33.4393  -15.3332   18.2747 H   0  0  0  0  0  0
  -27.3855  -16.5502   19.4382 H   0  0  0  0  0  0
  -27.3877  -18.4251   19.6364 H   0  0  0  0  0  0
  -28.5750  -11.8165   17.7313 H   0  0  0  0  0  0
  -29.9150  -11.0871   18.6053 H   0  0  0  0  0  0
  -30.0454  -11.4365   16.9121 H   0  0  0  0  0  0
  -34.4228  -14.8598   21.8384 H   0  0  0  0  0  0
  -34.6021  -16.1019   20.6205 H   0  0  0  0  0  0
  -31.4278  -12.8744   16.5362 H   0  0  0  0  0  0
  -31.4165  -14.4697   16.9275 H   0  0  0  0  0  0
  -26.9647  -20.8182   20.4994 H   0  0  0  0  0  0
  -27.3225  -20.9985   18.8124 H   0  0  0  0  0  0
  -32.4266  -16.6338   21.2775 H   0  0  0  0  0  0
  1 25  1  0  0  0
  1 30  2  0  0  0
  1 84  1  0  0  0
  2  3  1  0  0  0
  2 25  1  0  0  0
  2 88  1  0  0  0
  2 89  1  0  0  0
  3  4  1  0  0  0
  3 90  1  0  0  0
  3 91  1  0  0  0
  4  5  1  0  0  0
  4 92  1  0  0  0
  4 93  1  0  0  0
  5  6  1  0  0  0
  5 26  1  0  0  0
  5 94  1  0  0  0
  6 25  1  0  0  0
  6 95  1  0  0  0
  6 96  1  0  0  0
  7  8  2  0  0  0
  7 26  1  0  0  0
  7 29  1  0  0  0
  8  9  1  0  0  0
  8 22  1  0  0  0
  9 10  1  0  0  0
  9 27  2  0  0  0
 10 11  2  0  0  0
 10 15  1  0  0  0
 11 12  1  0  0  0
 11 97  1  0  0  0
 12 13  2  0  0  0
 12 98  1  0  0  0
 13 14  1  0  0  0
 13 31  1  0  0  0
 14 15  2  0  0  0
 14 99  1  0  0  0
 15100  1  0  0  0
 16 17  2  0  0  0
 16 21  1  0  0  0
 16 31  1  0  0  0
 17 18  1  0  0  0
 17101  1  0  0  0
 18 19  2  0  0  0
 18102  1  0  0  0
 19 20  1  0  0  0
 19 24  1  0  0  0
 20 21  2  0  0  0
 20103  1  0  0  0
 21 23  1  0  0  0
 22 28  1  0  0  0
 22 32  2  0  0  0
 26 27  1  0  0  0
 28104  1  0  0  0
 28105  1  0  0  0
 29106  1  0  0  0
 29107  1  0  0  0
 33 34  1  0  0  0
 33 66  1  0  0  0
 33 70  2  0  0  0
 34 36  1  0  0  0
 34 59  1  0  0  0
 34108  1  0  0  0
 35 44  2  0  0  0
 35 45  1  0  0  0
 35 68  1  0  0  0
 36 56  1  0  0  0
 36109  1  0  0  0
 37 39  1  0  0  0
 37 47  1  0  0  0
 37 66  1  0  0  0
 37110  1  0  0  0
 38 43  2  0  0  0
 38 46  1  0  0  0
 38 47  1  0  0  0
 39 64  1  0  0  0
 39 67  2  0  0  0
 40 52  1  0  0  0
 40 53  2  0  0  0
 40 58  1  0  0  0
 41111  1  0  0  0
 41112  1  0  0  0
 41113  1  0  0  0
 41 48  1  0  0  0
 42 43  1  0  0  0
 42 66  1  0  0  0
 42114  1  0  0  0
 42115  1  0  0  0
 43 44  1  0  0  0
 44116  1  0  0  0
 45 46  2  0  0  0
 45117  1  0  0  0
 46118  1  0  0  0
 47119  1  0  0  0
 47120  1  0  0  0
 48 56  1  0  0  0
 48 65  1  0  0  0
 48121  1  0  0  0
 49 50  1  0  0  0
 49 53  1  0  0  0
 49 64  1  0  0  0
 49122  1  0  0  0
 50 51  1  0  0  0
 50123  1  0  0  0
 50124  1  0  0  0
 51 52  1  0  0  0
 51125  1  0  0  0
 51126  1  0  0  0
 52127  1  0  0  0
 52128  1  0  0  0
 53 54  1  0  0  0
 54 55  2  0  0  0
 54129  1  0  0  0
 55 57  1  0  0  0
 55130  1  0  0  0
 56 69  2  0  0  0
 57 58  2  0  0  0
 57131  1  0  0  0
 58132  1  0  0  0
 59 60  1  0  0  0
 59 61  1  0  0  0
 59 62  1  0  0  0
 60133  1  0  0  0
 60134  1  0  0  0
 60135  1  0  0  0
 61136  1  0  0  0
 61137  1  0  0  0
 61138  1  0  0  0
 62139  1  0  0  0
 62140  1  0  0  0
 62141  1  0  0  0
 63 65  1  0  0  0
 63142  1  0  0  0
 63143  1  0  0  0
 63144  1  0  0  0
 64145  1  0  0  0
 65146  1  0  0  0
 68 83  1  0  0  0
 71 72  2  0  0  0
 71 74  1  0  0  0
 71147  1  0  0  0
 72 76  1  0  0  0
 72148  1  0  0  0
 73 74  2  0  0  0
 73 75  1  0  0  0
 73149  1  0  0  0
 74 81  1  0  0  0
 75 76  2  0  0  0
 75 82  1  0  0  0
 76 87  1  0  0  0
 77 78  2  0  0  0
 77 79  1  0  0  0
 77150  1  0  0  0
 78 83  1  0  0  0
 78151  1  0  0  0
 79 85  1  0  0  0
 79 86  2  0  0  0
 80 85  1  0  0  0
 80152  1  0  0  0
 80153  1  0  0  0
 80154  1  0  0  0
 81 84  1  0  0  0
 81155  1  0  0  0
 81156  1  0  0  0
 82 85  1  0  0  0
 82157  1  0  0  0
 82158  1  0  0  0
 83159  1  0  0  0
 83160  1  0  0  0
 84161  1  0  0  0
M  ISO  4   1 100  68 101  83 101  84 100
M  END
> <chiral flag>
0

> <version>
0

> <s_m_source_file>
/data/baiqing/PycharmProjects/Reinvent-master-3.2/result/LINK_invent/BTK/process_docking_weight1_custom_product_contain_oxygen_bond_distance_aromatic_linkinvent_7_9_3/rearranged_h_0055.sdf

> <i_m_source_file_index>
4

> <r_mmod_Potential_Energy-OPLS-2005>
20810.537109375

> <r_mmod_Stretch_Energy-OPLS-2005>
10148.4052734375

> <r_mmod_Bend_Energy-OPLS-2005>
1840.98254394531

> <r_mmod_Torsional_Energy-OPLS-2005>
446.820983886719

> <r_mmod_Improper_Torsional_Energy-OPLS-2005>
23.0143241882324

> <r_mmod_Van_der_Waal_Energy-OPLS-2005>
2212.87109375

> <r_mmod_Electrostatic_Energy-OPLS-2005>
-387.825378417969

> <r_mmod_Solvation_Energy-OPLS-2005>
-251.982498168945

> <b_mmod_Minimization_Converged-OPLS-2005>
0

> <r_mmod_RMS_Derivative-OPLS-2005>
9.33928298950195

$$$$
4
                    3D
 Structure written by MMmdl.
157165  0  0  1  0            999 V2000
  -30.7468  -14.4474   20.5615 C   0  0  0  0  0  0
  -30.4049  -12.2827   19.4436 C   0  0  0  0  0  0
  -29.4972  -12.5078   18.2200 C   0  0  0  0  0  0
  -28.0164  -12.3837   18.6215 C   0  0  0  0  0  0
  -27.6632  -13.2198   19.8813 C   0  0  2  0  0  0
  -28.7013  -13.0306   21.0113 C   0  0  0  0  0  0
  -25.2615  -13.8164   20.5738 C   0  0  0  0  0  0
  -24.1851  -13.0414   20.9182 C   0  0  0  0  0  0
  -24.6422  -11.6891   20.8751 C   0  0  0  0  0  0
  -23.9065  -10.4280   21.0411 C   0  0  0  0  0  0
  -24.3601   -9.4193   21.9188 C   0  0  0  0  0  0
  -23.6283   -8.2232   22.0754 C   0  0  0  0  0  0
  -22.4282   -8.0263   21.3538 C   0  0  0  0  0  0
  -21.9905   -9.0242   20.4658 C   0  0  0  0  0  0
  -22.7222  -10.2131   20.3080 C   0  0  0  0  0  0
  -21.6880   -6.0712   22.5277 C   0  0  0  0  0  0
  -21.4008   -6.5623   23.8193 C   0  0  0  0  0  0
  -21.3666   -5.6790   24.9161 C   0  0  0  0  0  0
  -21.6052   -4.3054   24.7227 C   0  0  0  0  0  0
  -21.8825   -3.8124   23.4359 C   0  0  0  0  0  0
  -21.9187   -4.6930   22.3398 C   0  0  0  0  0  0
  -22.7878  -13.5213   21.1857 C   0  0  0  0  0  0
  -22.1680   -4.2101   21.0988 F   0  0  0  0  0  0
  -21.5625   -3.4554   25.7751 F   0  0  0  0  0  0
  -30.0374  -13.2913   20.4547 N   0  0  0  0  0  0
  -26.3049  -12.9367   20.3416 N   0  0  0  0  0  0
  -25.9355  -11.6509   20.5765 N   0  0  0  0  0  0
  -22.0514  -12.8233   22.0440 N   0  0  0  0  0  0
  -25.4402  -15.1861   20.4206 N   0  0  0  0  0  0
  -31.8880  -14.5371   20.1029 O   0  0  0  0  0  0
  -21.6662   -6.8856   21.4239 O   0  0  0  0  0  0
  -22.3584  -14.5541   20.6734 O   0  0  0  0  0  0
  -24.6062  -31.8725   23.2142 C   0  0  0  0  0  0
  -25.8983  -32.4836   23.8437 C   0  0  1  0  0  0
  -27.2378  -27.4866   20.0844 C   0  0  0  0  0  0
  -25.5907  -33.8641   24.2382 N   0  0  0  0  0  0
  -23.3905  -30.4988   21.5535 C   0  0  2  0  0  0
  -24.8402  -28.9758   20.1076 C   0  0  0  0  0  0
  -22.7432  -29.4660   22.5021 C   0  0  0  0  0  0
  -18.0319  -28.1460   22.8467 C   0  0  0  0  0  0
  -24.1501  -36.7290   23.2650 C   0  0  0  0  0  0
  -25.9155  -30.8546   21.3613 C   0  0  0  0  0  0
  -25.9927  -29.4946   20.7061 C   0  0  0  0  0  0
  -27.1924  -28.7549   20.6967 C   0  0  0  0  0  0
  -26.0645  -26.9714   19.4805 C   0  0  0  0  0  0
  -24.8682  -27.7123   19.4924 C   0  0  0  0  0  0
  -23.5943  -29.8318   20.1632 C   0  0  0  0  0  0
  -25.4106  -36.3088   24.0354 C   0  0  1  0  0  0
  -20.5881  -28.3660   23.1368 C   0  0  2  0  0  0
  -20.6756  -26.9415   22.5432 C   0  0  0  0  0  0
  -19.5817  -26.6576   21.5110 C   0  0  0  0  0  0
  -18.1928  -26.8100   22.1404 C   0  0  0  0  0  0
  -19.1576  -28.8838   23.2972 C   0  0  0  0  0  0
  -18.9524  -30.1412   23.9056 C   0  0  0  0  0  0
  -17.6536  -30.6584   24.0732 C   0  0  0  0  0  0
  -25.9023  -34.9470   23.5148 C   0  0  0  0  0  0
  -16.5408  -29.9129   23.6457 C   0  0  0  0  0  0
  -16.7304  -28.6593   23.0384 C   0  0  0  0  0  0
  -26.4464  -31.6562   25.0715 C   0  0  0  0  0  0
  -25.3779  -31.3659   26.1491 C   0  0  0  0  0  0
  -27.0325  -30.3024   24.6054 C   0  0  0  0  0  0
  -27.6069  -32.4249   25.7447 C   0  0  0  0  0  0
  -27.5571  -37.1791   24.8464 C   0  0  0  0  0  0
  -21.4152  -29.3045   22.3807 N   0  0  0  0  0  0
  -26.4276  -37.3760   23.9422 N   0  0  0  0  0  0
  -24.6552  -31.0885   22.1013 N   0  0  0  0  0  0
  -23.4270  -28.8181   23.2995 O   0  0  0  0  0  0
  -28.4384  -26.8202   20.0799 O   0  0  0  0  0  0
  -26.5613  -34.8908   22.4725 O   0  0  0  0  0  0
  -23.5289  -32.1457   23.7580 O   0  0  0  0  0  0
  -31.6838  -18.7515   19.8876 C   0  0  0  0  0  0
  -30.7932  -19.6871   20.4235 C   0  0  0  0  0  0
  -31.4881  -17.3850   20.1207 C   0  0  0  0  0  0
  -29.4781  -17.8777   21.4050 C   0  0  0  0  0  0
  -29.6756  -19.2641   21.1795 C   0  0  0  0  0  0
  -30.3794  -16.9119   20.8792 C   0  0  0  0  0  0
  -29.3099  -22.6686   21.2539 C   0  0  0  0  0  0
  -28.6771  -20.2993   21.7082 C   0  0  0  0  0  0
  -30.0011  -23.4061   20.1024 C   0  0  0  0  0  0
  -29.8561  -24.9309   20.0940 C   0  0  0  0  0  0
  -28.4139  -25.4106   19.9342 C   0  0  0  0  0  0
  -30.1089  -15.5115   21.0941 N   0  0  0  0  0  0
  -28.7115  -21.5233   20.9082 N   0  0  0  0  0  0
  -29.4021  -23.0698   22.4160 O   0  0  0  0  0  0
  -31.4548  -12.3328   19.1477 H   0  0  0  0  0  0
  -30.2648  -11.2780   19.8442 H   0  0  0  0  0  0
  -29.7361  -11.7941   17.4291 H   0  0  0  0  0  0
  -29.6853  -13.4978   17.8046 H   0  0  0  0  0  0
  -27.8042  -11.3295   18.7929 H   0  0  0  0  0  0
  -27.3805  -12.6915   17.7903 H   0  0  0  0  0  0
  -27.7026  -14.2684   19.5820 H   0  0  0  0  0  0
  -28.6666  -12.0130   21.4024 H   0  0  0  0  0  0
  -28.4742  -13.6802   21.8563 H   0  0  0  0  0  0
  -25.2750   -9.5691   22.4752 H   0  0  0  0  0  0
  -24.0002   -7.4641   22.7490 H   0  0  0  0  0  0
  -21.0818   -8.8746   19.8999 H   0  0  0  0  0  0
  -22.3642  -10.9661   19.6204 H   0  0  0  0  0  0
  -21.2026   -7.6143   23.9672 H   0  0  0  0  0  0
  -21.1492   -6.0543   25.9058 H   0  0  0  0  0  0
  -22.0610   -2.7589   23.2883 H   0  0  0  0  0  0
  -22.4115  -11.9858   22.4770 H   0  0  0  0  0  0
  -21.1143  -13.1298   22.2681 H   0  0  0  0  0  0
  -24.6869  -15.8531   20.5413 H   0  0  0  0  0  0
  -26.3098  -15.6159   20.1264 H   0  0  0  0  0  0
  -26.7065  -32.5596   23.1232 H   0  0  0  0  0  0
  -24.9980  -33.9831   25.0466 H   0  0  0  0  0  0
  -22.6760  -31.3159   21.4206 H   0  0  0  0  0  0
  -23.3731  -35.9647   23.3302 H   0  0  0  0  0  0
  -24.3583  -36.8905   22.2062 H   0  0  0  0  0  0
  -23.7299  -37.6511   23.6664 H   0  0  0  0  0  0
  -26.0342  -31.6227   20.5943 H   0  0  0  0  0  0
  -26.7993  -30.9005   21.9821 H   0  0  0  0  0  0
  -28.0862  -29.1553   21.1595 H   0  0  0  0  0  0
  -26.0657  -26.0165   18.9764 H   0  0  0  0  0  0
  -23.9799  -27.3094   19.0241 H   0  0  0  0  0  0
  -23.6817  -30.6095   19.4041 H   0  0  0  0  0  0
  -22.7263  -29.2357   19.8759 H   0  0  0  0  0  0
  -25.1280  -36.1947   25.0844 H   0  0  0  0  0  0
  -20.9989  -28.3191   24.1480 H   0  0  0  0  0  0
  -20.5591  -26.2198   23.3539 H   0  0  0  0  0  0
  -21.6674  -26.7540   22.1301 H   0  0  0  0  0  0
  -19.7067  -25.6605   21.0882 H   0  0  0  0  0  0
  -19.6942  -27.3605   20.6848 H   0  0  0  0  0  0
  -17.4259  -26.6973   21.3719 H   0  0  0  0  0  0
  -18.0191  -26.0179   22.8678 H   0  0  0  0  0  0
  -19.8014  -30.7192   24.2451 H   0  0  0  0  0  0
  -17.5097  -31.6252   24.5327 H   0  0  0  0  0  0
  -15.5432  -30.3053   23.7804 H   0  0  0  0  0  0
  -15.8671  -28.0987   22.7010 H   0  0  0  0  0  0
  -24.5949  -30.7010   25.7836 H   0  0  0  0  0  0
  -24.8984  -32.2817   26.4953 H   0  0  0  0  0  0
  -25.8153  -30.8828   27.0236 H   0  0  0  0  0  0
  -26.2894  -29.6737   24.1132 H   0  0  0  0  0  0
  -27.4192  -29.7281   25.4488 H   0  0  0  0  0  0
  -27.8672  -30.4387   23.9169 H   0  0  0  0  0  0
  -27.2732  -33.3540   26.2073 H   0  0  0  0  0  0
  -28.3815  -32.6791   25.0201 H   0  0  0  0  0  0
  -28.0778  -31.8319   26.5299 H   0  0  0  0  0  0
  -28.2585  -38.0080   24.7461 H   0  0  0  0  0  0
  -28.1066  -36.2612   24.6313 H   0  0  0  0  0  0
  -27.2306  -37.1471   25.8870 H   0  0  0  0  0  0
  -20.9226  -29.8921   21.7214 H   0  0  0  0  0  0
  -26.0156  -38.2845   24.1336 H   0  0  0  0  0  0
  -32.5171  -19.0940   19.2896 H   0  0  0  0  0  0
  -30.9927  -20.7295   20.2218 H   0  0  0  0  0  0
  -32.2229  -16.7379   19.6697 H   0  0  0  0  0  0
  -28.6085  -17.5660   21.9705 H   0  0  0  0  0  0
  -28.8797  -20.5003   22.7631 H   0  0  0  0  0  0
  -27.6673  -19.8873   21.6562 H   0  0  0  0  0  0
  -29.6539  -23.0064   19.1492 H   0  0  0  0  0  0
  -31.0647  -23.1691   20.1509 H   0  0  0  0  0  0
  -30.4380  -25.3055   19.2486 H   0  0  0  0  0  0
  -30.3091  -25.3668   20.9858 H   0  0  0  0  0  0
  -27.7641  -24.9753   20.6957 H   0  0  0  0  0  0
  -28.0476  -25.1165   18.9495 H   0  0  0  0  0  0
  -29.2335  -15.2924   21.5456 H   0  0  0  0  0  0
  -28.6265  -21.3630   19.9130 H   0  0  0  0  0  0
  1 25  1  0  0  0
  1 30  2  0  0  0
  1 82  1  0  0  0
  2  3  1  0  0  0
  2 25  1  0  0  0
  2 85  1  0  0  0
  2 86  1  0  0  0
  3  4  1  0  0  0
  3 87  1  0  0  0
  3 88  1  0  0  0
  4  5  1  0  0  0
  4 89  1  0  0  0
  4 90  1  0  0  0
  5  6  1  0  0  0
  5 26  1  0  0  0
  5 91  1  0  0  0
  6 25  1  0  0  0
  6 92  1  0  0  0
  6 93  1  0  0  0
  7  8  2  0  0  0
  7 26  1  0  0  0
  7 29  1  0  0  0
  8  9  1  0  0  0
  8 22  1  0  0  0
  9 10  1  0  0  0
  9 27  2  0  0  0
 10 11  2  0  0  0
 10 15  1  0  0  0
 11 12  1  0  0  0
 11 94  1  0  0  0
 12 13  2  0  0  0
 12 95  1  0  0  0
 13 14  1  0  0  0
 13 31  1  0  0  0
 14 15  2  0  0  0
 14 96  1  0  0  0
 15 97  1  0  0  0
 16 17  2  0  0  0
 16 21  1  0  0  0
 16 31  1  0  0  0
 17 18  1  0  0  0
 17 98  1  0  0  0
 18 19  2  0  0  0
 18 99  1  0  0  0
 19 20  1  0  0  0
 19 24  1  0  0  0
 20 21  2  0  0  0
 20100  1  0  0  0
 21 23  1  0  0  0
 22 28  1  0  0  0
 22 32  2  0  0  0
 26 27  1  0  0  0
 28101  1  0  0  0
 28102  1  0  0  0
 29103  1  0  0  0
 29104  1  0  0  0
 33 34  1  0  0  0
 33 66  1  0  0  0
 33 70  2  0  0  0
 34 36  1  0  0  0
 34 59  1  0  0  0
 34105  1  0  0  0
 35 44  2  0  0  0
 35 45  1  0  0  0
 35 68  1  0  0  0
 36 56  1  0  0  0
 36106  1  0  0  0
 37 39  1  0  0  0
 37 47  1  0  0  0
 37 66  1  0  0  0
 37107  1  0  0  0
 38 43  2  0  0  0
 38 46  1  0  0  0
 38 47  1  0  0  0
 39 64  1  0  0  0
 39 67  2  0  0  0
 40 52  1  0  0  0
 40 53  2  0  0  0
 40 58  1  0  0  0
 41108  1  0  0  0
 41109  1  0  0  0
 41110  1  0  0  0
 41 48  1  0  0  0
 42 43  1  0  0  0
 42 66  1  0  0  0
 42111  1  0  0  0
 42112  1  0  0  0
 43 44  1  0  0  0
 44113  1  0  0  0
 45 46  2  0  0  0
 45114  1  0  0  0
 46115  1  0  0  0
 47116  1  0  0  0
 47117  1  0  0  0
 48 56  1  0  0  0
 48 65  1  0  0  0
 48118  1  0  0  0
 49 50  1  0  0  0
 49 53  1  0  0  0
 49 64  1  0  0  0
 49119  1  0  0  0
 50 51  1  0  0  0
 50120  1  0  0  0
 50121  1  0  0  0
 51 52  1  0  0  0
 51122  1  0  0  0
 51123  1  0  0  0
 52124  1  0  0  0
 52125  1  0  0  0
 53 54  1  0  0  0
 54 55  2  0  0  0
 54126  1  0  0  0
 55 57  1  0  0  0
 55127  1  0  0  0
 56 69  2  0  0  0
 57 58  2  0  0  0
 57128  1  0  0  0
 58129  1  0  0  0
 59 60  1  0  0  0
 59 61  1  0  0  0
 59 62  1  0  0  0
 60130  1  0  0  0
 60131  1  0  0  0
 60132  1  0  0  0
 61133  1  0  0  0
 61134  1  0  0  0
 61135  1  0  0  0
 62136  1  0  0  0
 62137  1  0  0  0
 62138  1  0  0  0
 63 65  1  0  0  0
 63139  1  0  0  0
 63140  1  0  0  0
 63141  1  0  0  0
 64142  1  0  0  0
 65143  1  0  0  0
 68 81  1  0  0  0
 71 72  2  0  0  0
 71 73  1  0  0  0
 71144  1  0  0  0
 72 75  1  0  0  0
 72145  1  0  0  0
 73 76  2  0  0  0
 73146  1  0  0  0
 74 75  2  0  0  0
 74 76  1  0  0  0
 74147  1  0  0  0
 75 78  1  0  0  0
 76 82  1  0  0  0
 77 79  1  0  0  0
 77 83  1  0  0  0
 77 84  2  0  0  0
 78 83  1  0  0  0
 78148  1  0  0  0
 78149  1  0  0  0
 79 80  1  0  0  0
 79150  1  0  0  0
 79151  1  0  0  0
 80 81  1  0  0  0
 80152  1  0  0  0
 80153  1  0  0  0
 81154  1  0  0  0
 81155  1  0  0  0
 82156  1  0  0  0
 83157  1  0  0  0
M  ISO  4   1 100  68 101  81 101  82 100
M  END
> <chiral flag>
0

> <version>
0

> <s_m_source_file>
/data/baiqing/PycharmProjects/Reinvent-master-3.2/result/LINK_invent/BTK/process_docking_weight1_custom_product_contain_oxygen_bond_distance_aromatic_linkinvent_7_9_3/rearranged_h_0055.sdf

> <i_m_source_file_index>
5

> <r_mmod_Potential_Energy-OPLS-2005>
-165.289016723633

> <r_mmod_Stretch_Energy-OPLS-2005>
35.4242286682129

> <r_mmod_Bend_Energy-OPLS-2005>
102.426948547363

> <r_mmod_Torsional_Energy-OPLS-2005>
210.467224121094

> <r_mmod_Improper_Torsional_Energy-OPLS-2005>
5.59003734588623

> <r_mmod_Van_der_Waal_Energy-OPLS-2005>
172.608367919922

> <r_mmod_Electrostatic_Energy-OPLS-2005>
-465.573211669922

> <r_mmod_Solvation_Energy-OPLS-2005>
-240.933349609375

> <b_mmod_Minimization_Converged-OPLS-2005>
0

> <r_mmod_RMS_Derivative-OPLS-2005>
6.16086769104004

$$$$
5
                    3D
 Structure written by MMmdl.
154162  0  0  1  0            999 V2000
  -30.5452  -14.9008   20.4380 C   0  0  0  0  0  0
  -30.4420  -12.5556   19.4835 C   0  0  0  0  0  0
  -29.5171  -12.5520   18.2438 C   0  0  0  0  0  0
  -28.0478  -12.3367   18.6566 C   0  0  0  0  0  0
  -27.6359  -13.2426   19.8467 C   0  0  2  0  0  0
  -28.6847  -13.2207   20.9799 C   0  0  0  0  0  0
  -25.2470  -13.8168   20.5702 C   0  0  0  0  0  0
  -24.1774  -13.0392   20.9216 C   0  0  0  0  0  0
  -24.6400  -11.6886   20.8737 C   0  0  0  0  0  0
  -23.9091  -10.4258   21.0393 C   0  0  0  0  0  0
  -24.3629   -9.4176   21.9185 C   0  0  0  0  0  0
  -23.6291   -8.2219   22.0746 C   0  0  0  0  0  0
  -22.4277   -8.0259   21.3529 C   0  0  0  0  0  0
  -21.9928   -9.0229   20.4627 C   0  0  0  0  0  0
  -22.7265  -10.2103   20.3044 C   0  0  0  0  0  0
  -21.6844   -6.0726   22.5282 C   0  0  0  0  0  0
  -21.4001   -6.5620   23.8215 C   0  0  0  0  0  0
  -21.3670   -5.6774   24.9177 C   0  0  0  0  0  0
  -21.6051   -4.3038   24.7222 C   0  0  0  0  0  0
  -21.8807   -3.8133   23.4341 C   0  0  0  0  0  0
  -21.9182   -4.6956   22.3397 C   0  0  0  0  0  0
  -22.7795  -13.5180   21.1865 C   0  0  0  0  0  0
  -22.1645   -4.2148   21.0973 F   0  0  0  0  0  0
  -21.5652   -3.4522   25.7737 F   0  0  0  0  0  0
  -29.9712  -13.6325   20.3972 N   0  0  0  0  0  0
  -26.2914  -12.9409   20.3290 N   0  0  0  0  0  0
  -25.9345  -11.6532   20.5745 N   0  0  0  0  0  0
  -22.0435  -12.8171   22.0413 N   0  0  0  0  0  0
  -25.4115  -15.1893   20.4133 N   0  0  0  0  0  0
  -31.7330  -15.0114   20.1157 O   0  0  0  0  0  0
  -21.6621   -6.8875   21.4249 O   0  0  0  0  0  0
  -22.3479  -14.5481   20.6704 O   0  0  0  0  0  0
  -24.6370  -31.8507   23.1972 C   0  0  0  0  0  0
  -25.9160  -32.4741   23.8352 C   0  0  1  0  0  0
  -27.2120  -27.1633   20.1557 C   0  0  0  0  0  0
  -25.5946  -33.8553   24.2272 N   0  0  0  0  0  0
  -23.4407  -30.4723   21.5395 C   0  0  2  0  0  0
  -24.8918  -28.9097   20.1112 C   0  0  0  0  0  0
  -22.7541  -29.4582   22.4881 C   0  0  0  0  0  0
  -18.0292  -28.1414   22.8497 C   0  0  0  0  0  0
  -24.1475  -36.7230   23.2651 C   0  0  0  0  0  0
  -25.9964  -30.7281   21.3999 C   0  0  0  0  0  0
  -26.0659  -29.3437   20.7397 C   0  0  0  0  0  0
  -27.2225  -28.4815   20.7580 C   0  0  0  0  0  0
  -26.0184  -26.8394   19.4683 C   0  0  0  0  0  0
  -24.8786  -27.6672   19.4655 C   0  0  0  0  0  0
  -23.6682  -29.8092   20.1564 C   0  0  0  0  0  0
  -25.4117  -36.3060   24.0338 C   0  0  1  0  0  0
  -20.5904  -28.3735   23.1260 C   0  0  2  0  0  0
  -20.6790  -26.9448   22.5417 C   0  0  0  0  0  0
  -19.5752  -26.6401   21.5240 C   0  0  0  0  0  0
  -18.1922  -26.7968   22.1625 C   0  0  0  0  0  0
  -19.1541  -28.8894   23.2873 C   0  0  0  0  0  0
  -18.9463  -30.1500   23.8895 C   0  0  0  0  0  0
  -17.6453  -30.6622   24.0572 C   0  0  0  0  0  0
  -25.9064  -34.9430   23.5109 C   0  0  0  0  0  0
  -16.5349  -29.9109   23.6365 C   0  0  0  0  0  0
  -16.7271  -28.6524   23.0392 C   0  0  0  0  0  0
  -26.4511  -31.6592   25.0766 C   0  0  0  0  0  0
  -25.3725  -31.3713   26.1472 C   0  0  0  0  0  0
  -27.0388  -30.3009   24.6314 C   0  0  0  0  0  0
  -27.6055  -32.4364   25.7524 C   0  0  0  0  0  0
  -27.5573  -37.1778   24.8477 C   0  0  0  0  0  0
  -21.4227  -29.3070   22.3634 N   0  0  0  0  0  0
  -26.4283  -37.3767   23.9423 N   0  0  0  0  0  0
  -24.7103  -31.0383   22.0996 N   0  0  0  0  0  0
  -23.4201  -28.8120   23.3005 O   0  0  0  0  0  0
  -28.2552  -26.1748   20.2568 O   0  0  0  0  0  0
  -26.5626  -34.8904   22.4671 O   0  0  0  0  0  0
  -23.5498  -32.1375   23.7192 O   0  0  0  0  0  0
  -28.6552  -19.5409   19.3152 C   0  0  0  0  0  0
  -30.2622  -18.5487   21.3122 C   0  0  0  0  0  0
  -29.1564  -20.5674   20.1792 C   0  0  0  0  0  0
  -28.9019  -18.1195   19.4307 C   0  0  0  0  0  0
  -30.0068  -19.9884   21.1896 C   0  0  0  0  0  0
  -29.7201  -17.5275   20.4462 C   0  0  0  0  0  0
  -28.6799  -22.0723   19.9118 C   0  0  0  0  0  0
  -28.7286  -23.3684   20.4687 C   0  0  0  0  0  0
  -28.2084  -17.2163   18.4313 C   0  0  0  0  0  0
  -30.6659  -20.9261   22.1858 C   0  0  0  0  0  0
  -27.9674  -24.7004   19.9013 C   0  0  0  0  0  0
  -29.7173  -16.0170   20.6969 N   0  0  0  0  0  0
  -31.4777  -12.7040   19.1764 H   0  0  0  0  0  0
  -30.4156  -11.5867   19.9842 H   0  0  0  0  0  0
  -29.8270  -11.7821   17.5364 H   0  0  0  0  0  0
  -29.6102  -13.5034   17.7184 H   0  0  0  0  0  0
  -27.9315  -11.2893   18.9352 H   0  0  0  0  0  0
  -27.3858  -12.5030   17.8049 H   0  0  0  0  0  0
  -27.6126  -14.2561   19.4481 H   0  0  0  0  0  0
  -28.7575  -12.2238   21.4178 H   0  0  0  0  0  0
  -28.3937  -13.8915   21.7904 H   0  0  0  0  0  0
  -25.2772   -9.5637   22.4771 H   0  0  0  0  0  0
  -23.9994   -7.4599   22.7454 H   0  0  0  0  0  0
  -21.0873   -8.8730   19.8921 H   0  0  0  0  0  0
  -22.3728  -10.9633   19.6131 H   0  0  0  0  0  0
  -21.1968   -7.6119   23.9730 H   0  0  0  0  0  0
  -21.1520   -6.0492   25.9089 H   0  0  0  0  0  0
  -22.0579   -2.7601   23.2831 H   0  0  0  0  0  0
  -22.4043  -11.9856   22.4855 H   0  0  0  0  0  0
  -21.1038  -13.1168   22.2555 H   0  0  0  0  0  0
  -24.6364  -15.8371   20.5106 H   0  0  0  0  0  0
  -26.2542  -15.6338   20.0769 H   0  0  0  0  0  0
  -26.7210  -32.5369   23.1069 H   0  0  0  0  0  0
  -25.0183  -33.9717   25.0482 H   0  0  0  0  0  0
  -22.7409  -31.2973   21.3887 H   0  0  0  0  0  0
  -23.3792  -35.9503   23.3294 H   0  0  0  0  0  0
  -24.3576  -36.8875   22.2071 H   0  0  0  0  0  0
  -23.7150  -37.6386   23.6694 H   0  0  0  0  0  0
  -26.1583  -31.4864   20.6330 H   0  0  0  0  0  0
  -26.8647  -30.7732   22.0453 H   0  0  0  0  0  0
  -28.1049  -28.7978   21.2959 H   0  0  0  0  0  0
  -25.9186  -25.9025   18.9434 H   0  0  0  0  0  0
  -23.9819  -27.3306   18.9632 H   0  0  0  0  0  0
  -23.8051  -30.5892   19.4064 H   0  0  0  0  0  0
  -22.7845  -29.2509   19.8411 H   0  0  0  0  0  0
  -25.1296  -36.1908   25.0829 H   0  0  0  0  0  0
  -20.9988  -28.3329   24.1381 H   0  0  0  0  0  0
  -20.5741  -26.2340   23.3629 H   0  0  0  0  0  0
  -21.6654  -26.7508   22.1168 H   0  0  0  0  0  0
  -19.6924  -25.6304   21.1289 H   0  0  0  0  0  0
  -19.6706  -27.3212   20.6768 H   0  0  0  0  0  0
  -17.4212  -26.6768   21.3997 H   0  0  0  0  0  0
  -18.0275  -26.0098   22.8992 H   0  0  0  0  0  0
  -19.7933  -30.7337   24.2249 H   0  0  0  0  0  0
  -17.5005  -31.6306   24.5154 H   0  0  0  0  0  0
  -15.5356  -30.3007   23.7712 H   0  0  0  0  0  0
  -15.8658  -28.0845   22.7131 H   0  0  0  0  0  0
  -24.5911  -30.7062   25.7773 H   0  0  0  0  0  0
  -24.8906  -32.2856   26.4945 H   0  0  0  0  0  0
  -25.8042  -30.8846   27.0228 H   0  0  0  0  0  0
  -26.2996  -29.6736   24.1321 H   0  0  0  0  0  0
  -27.4020  -29.7304   25.4871 H   0  0  0  0  0  0
  -27.8900  -30.4292   23.9629 H   0  0  0  0  0  0
  -27.2689  -33.3738   26.1976 H   0  0  0  0  0  0
  -28.3915  -32.6810   25.0363 H   0  0  0  0  0  0
  -28.0653  -31.8561   26.5535 H   0  0  0  0  0  0
  -28.2572  -38.0091   24.7572 H   0  0  0  0  0  0
  -28.1082  -36.2627   24.6253 H   0  0  0  0  0  0
  -27.2296  -37.1365   25.8878 H   0  0  0  0  0  0
  -20.9424  -29.8773   21.6816 H   0  0  0  0  0  0
  -26.0155  -38.2830   24.1449 H   0  0  0  0  0  0
  -28.0042  -19.8601   18.5138 H   0  0  0  0  0  0
  -30.8712  -18.2188   22.1417 H   0  0  0  0  0  0
  -28.1066  -22.1004   18.9949 H   0  0  0  0  0  0
  -29.2592  -23.5111   21.3984 H   0  0  0  0  0  0
  -27.8256  -17.7870   17.5848 H   0  0  0  0  0  0
  -27.3676  -16.7119   18.9043 H   0  0  0  0  0  0
  -28.8977  -16.4681   18.0399 H   0  0  0  0  0  0
  -31.3475  -20.3945   22.8507 H   0  0  0  0  0  0
  -29.9168  -21.4237   22.8022 H   0  0  0  0  0  0
  -31.2389  -21.6931   21.6615 H   0  0  0  0  0  0
  -26.9387  -24.5010   20.2041 H   0  0  0  0  0  0
  -27.9737  -24.6326   18.8122 H   0  0  0  0  0  0
  -28.7960  -15.6829   20.9319 H   0  0  0  0  0  0
  1 25  1  0  0  0
  1 30  2  0  0  0
  1 82  1  0  0  0
  2  3  1  0  0  0
  2 25  1  0  0  0
  2 83  1  0  0  0
  2 84  1  0  0  0
  3  4  1  0  0  0
  3 85  1  0  0  0
  3 86  1  0  0  0
  4  5  1  0  0  0
  4 87  1  0  0  0
  4 88  1  0  0  0
  5  6  1  0  0  0
  5 26  1  0  0  0
  5 89  1  0  0  0
  6 25  1  0  0  0
  6 90  1  0  0  0
  6 91  1  0  0  0
  7  8  2  0  0  0
  7 26  1  0  0  0
  7 29  1  0  0  0
  8  9  1  0  0  0
  8 22  1  0  0  0
  9 10  1  0  0  0
  9 27  2  0  0  0
 10 11  2  0  0  0
 10 15  1  0  0  0
 11 12  1  0  0  0
 11 92  1  0  0  0
 12 13  2  0  0  0
 12 93  1  0  0  0
 13 14  1  0  0  0
 13 31  1  0  0  0
 14 15  2  0  0  0
 14 94  1  0  0  0
 15 95  1  0  0  0
 16 17  2  0  0  0
 16 21  1  0  0  0
 16 31  1  0  0  0
 17 18  1  0  0  0
 17 96  1  0  0  0
 18 19  2  0  0  0
 18 97  1  0  0  0
 19 20  1  0  0  0
 19 24  1  0  0  0
 20 21  2  0  0  0
 20 98  1  0  0  0
 21 23  1  0  0  0
 22 28  1  0  0  0
 22 32  2  0  0  0
 26 27  1  0  0  0
 28 99  1  0  0  0
 28100  1  0  0  0
 29101  1  0  0  0
 29102  1  0  0  0
 33 34  1  0  0  0
 33 66  1  0  0  0
 33 70  2  0  0  0
 34 36  1  0  0  0
 34 59  1  0  0  0
 34103  1  0  0  0
 35 44  2  0  0  0
 35 45  1  0  0  0
 35 68  1  0  0  0
 36 56  1  0  0  0
 36104  1  0  0  0
 37 39  1  0  0  0
 37 47  1  0  0  0
 37 66  1  0  0  0
 37105  1  0  0  0
 38 43  2  0  0  0
 38 46  1  0  0  0
 38 47  1  0  0  0
 39 64  1  0  0  0
 39 67  2  0  0  0
 40 52  1  0  0  0
 40 53  2  0  0  0
 40 58  1  0  0  0
 41106  1  0  0  0
 41107  1  0  0  0
 41108  1  0  0  0
 41 48  1  0  0  0
 42 43  1  0  0  0
 42 66  1  0  0  0
 42109  1  0  0  0
 42110  1  0  0  0
 43 44  1  0  0  0
 44111  1  0  0  0
 45 46  2  0  0  0
 45112  1  0  0  0
 46113  1  0  0  0
 47114  1  0  0  0
 47115  1  0  0  0
 48 56  1  0  0  0
 48 65  1  0  0  0
 48116  1  0  0  0
 49 50  1  0  0  0
 49 53  1  0  0  0
 49 64  1  0  0  0
 49117  1  0  0  0
 50 51  1  0  0  0
 50118  1  0  0  0
 50119  1  0  0  0
 51 52  1  0  0  0
 51120  1  0  0  0
 51121  1  0  0  0
 52122  1  0  0  0
 52123  1  0  0  0
 53 54  1  0  0  0
 54 55  2  0  0  0
 54124  1  0  0  0
 55 57  1  0  0  0
 55125  1  0  0  0
 56 69  2  0  0  0
 57 58  2  0  0  0
 57126  1  0  0  0
 58127  1  0  0  0
 59 60  1  0  0  0
 59 61  1  0  0  0
 59 62  1  0  0  0
 60128  1  0  0  0
 60129  1  0  0  0
 60130  1  0  0  0
 61131  1  0  0  0
 61132  1  0  0  0
 61133  1  0  0  0
 62134  1  0  0  0
 62135  1  0  0  0
 62136  1  0  0  0
 63 65  1  0  0  0
 63137  1  0  0  0
 63138  1  0  0  0
 63139  1  0  0  0
 64140  1  0  0  0
 65141  1  0  0  0
 68 81  1  0  0  0
 71 73  2  0  0  0
 71 74  1  0  0  0
 71142  1  0  0  0
 72 75  2  0  0  0
 72 76  1  0  0  0
 72143  1  0  0  0
 73 75  1  0  0  0
 73 77  1  0  0  0
 74 76  2  0  0  0
 74 79  1  0  0  0
 75 80  1  0  0  0
 76 82  1  0  0  0
 77 78  2  0  0  0
 77144  1  0  0  0
 78 81  1  0  0  0
 78145  1  0  0  0
 79146  1  0  0  0
 79147  1  0  0  0
 79148  1  0  0  0
 80149  1  0  0  0
 80150  1  0  0  0
 80151  1  0  0  0
 81152  1  0  0  0
 81153  1  0  0  0
 82154  1  0  0  0
M  ISO  4   1 100  68 101  81 101  82 100
M  END
> <chiral flag>
0

> <version>
0

> <s_m_source_file>
/data/baiqing/PycharmProjects/Reinvent-master-3.2/result/LINK_invent/BTK/process_docking_weight1_custom_product_contain_oxygen_bond_distance_aromatic_linkinvent_7_9_3/rearranged_h_0055.sdf

> <i_m_source_file_index>
6

> <r_mmod_Potential_Energy-OPLS-2005>
410.012451171875

> <r_mmod_Stretch_Energy-OPLS-2005>
203.524948120117

> <r_mmod_Bend_Energy-OPLS-2005>
249.278900146484

> <r_mmod_Torsional_Energy-OPLS-2005>
245.123641967773

> <r_mmod_Improper_Torsional_Energy-OPLS-2005>
6.82344436645508

> <r_mmod_Van_der_Waal_Energy-OPLS-2005>
133.788848876953

> <r_mmod_Electrostatic_Energy-OPLS-2005>
-385.307281494141

> <r_mmod_Solvation_Energy-OPLS-2005>
-210.113754272461

> <b_mmod_Minimization_Converged-OPLS-2005>
0

> <r_mmod_RMS_Derivative-OPLS-2005>
2.72032022476196

$$$$
6
                    3D
 Structure written by MMmdl.
157165  0  0  1  0            999 V2000
  -30.6179  -14.6491   20.5034 C   0  0  0  0  0  0
  -30.4409  -12.3979   19.4541 C   0  0  0  0  0  0
  -29.5096  -12.5109   18.2261 C   0  0  0  0  0  0
  -28.0327  -12.3454   18.6368 C   0  0  0  0  0  0
  -27.6539  -13.2154   19.8644 C   0  0  2  0  0  0
  -28.6991  -13.0718   20.9944 C   0  0  0  0  0  0
  -25.2569  -13.8171   20.5685 C   0  0  0  0  0  0
  -24.1833  -13.0441   20.9197 C   0  0  0  0  0  0
  -24.6391  -11.6908   20.8740 C   0  0  0  0  0  0
  -23.9053  -10.4293   21.0399 C   0  0  0  0  0  0
  -24.3608   -9.4210   21.9177 C   0  0  0  0  0  0
  -23.6285   -8.2246   22.0752 C   0  0  0  0  0  0
  -22.4269   -8.0277   21.3539 C   0  0  0  0  0  0
  -21.9896   -9.0251   20.4646 C   0  0  0  0  0  0
  -22.7224  -10.2134   20.3054 C   0  0  0  0  0  0
  -21.6854   -6.0726   22.5272 C   0  0  0  0  0  0
  -21.4020   -6.5634   23.8206 C   0  0  0  0  0  0
  -21.3661   -5.6789   24.9168 C   0  0  0  0  0  0
  -21.6043   -4.3051   24.7221 C   0  0  0  0  0  0
  -21.8820   -3.8138   23.4345 C   0  0  0  0  0  0
  -21.9195   -4.6954   22.3396 C   0  0  0  0  0  0
  -22.7856  -13.5236   21.1853 C   0  0  0  0  0  0
  -22.1662   -4.2137   21.0973 F   0  0  0  0  0  0
  -21.5625   -3.4537   25.7737 F   0  0  0  0  0  0
  -30.0148  -13.4193   20.4321 N   0  0  0  0  0  0
  -26.2992  -12.9344   20.3320 N   0  0  0  0  0  0
  -25.9320  -11.6503   20.5757 N   0  0  0  0  0  0
  -22.0496  -12.8237   22.0414 N   0  0  0  0  0  0
  -25.4300  -15.1890   20.4076 N   0  0  0  0  0  0
  -31.7791  -14.8140   20.1163 O   0  0  0  0  0  0
  -21.6641   -6.8871   21.4233 O   0  0  0  0  0  0
  -22.3544  -14.5538   20.6693 O   0  0  0  0  0  0
  -24.6261  -31.8602   23.2039 C   0  0  0  0  0  0
  -25.9111  -32.4777   23.8365 C   0  0  1  0  0  0
  -27.2232  -27.3147   20.1094 C   0  0  0  0  0  0
  -25.5928  -33.8578   24.2288 N   0  0  0  0  0  0
  -23.4195  -30.4858   21.5468 C   0  0  2  0  0  0
  -24.8643  -28.9433   20.1111 C   0  0  0  0  0  0
  -22.7475  -29.4623   22.4931 C   0  0  0  0  0  0
  -18.0292  -28.1383   22.8482 C   0  0  0  0  0  0
  -24.1492  -36.7298   23.2639 C   0  0  0  0  0  0
  -25.9622  -30.7885   21.3771 C   0  0  0  0  0  0
  -26.0344  -29.4163   20.7174 C   0  0  0  0  0  0
  -27.2138  -28.6126   20.7107 C   0  0  0  0  0  0
  -26.0249  -26.8999   19.4790 C   0  0  0  0  0  0
  -24.8615  -27.6894   19.4858 C   0  0  0  0  0  0
  -23.6344  -29.8254   20.1604 C   0  0  0  0  0  0
  -25.4114  -36.3080   24.0330 C   0  0  1  0  0  0
  -20.5890  -28.3687   23.1277 C   0  0  2  0  0  0
  -20.6782  -26.9410   22.5408 C   0  0  0  0  0  0
  -19.5757  -26.6381   21.5210 C   0  0  0  0  0  0
  -18.1937  -26.7926   22.1622 C   0  0  0  0  0  0
  -19.1543  -28.8853   23.2875 C   0  0  0  0  0  0
  -18.9467  -30.1454   23.8896 C   0  0  0  0  0  0
  -17.6465  -30.6580   24.0569 C   0  0  0  0  0  0
  -25.9048  -34.9449   23.5109 C   0  0  0  0  0  0
  -16.5358  -29.9082   23.6327 C   0  0  0  0  0  0
  -16.7278  -28.6503   23.0343 C   0  0  0  0  0  0
  -26.4496  -31.6583   25.0732 C   0  0  0  0  0  0
  -25.3730  -31.3734   26.1462 C   0  0  0  0  0  0
  -27.0338  -30.3003   24.6190 C   0  0  0  0  0  0
  -27.6058  -32.4318   25.7497 C   0  0  0  0  0  0
  -27.5575  -37.1808   24.8465 C   0  0  0  0  0  0
  -21.4188  -29.3040   22.3671 N   0  0  0  0  0  0
  -26.4295  -37.3768   23.9400 N   0  0  0  0  0  0
  -24.6882  -31.0611   22.0994 N   0  0  0  0  0  0
  -23.4198  -28.8158   23.3005 O   0  0  0  0  0  0
  -28.3494  -26.4710   20.1707 O   0  0  0  0  0  0
  -26.5613  -34.8914   22.4671 O   0  0  0  0  0  0
  -23.5426  -32.1406   23.7364 O   0  0  0  0  0  0
  -30.9988  -19.3153   20.2964 C   0  0  0  0  0  0
  -31.0034  -17.8881   20.3109 C   0  0  0  0  0  0
  -28.7644  -17.9315   21.1711 C   0  0  0  0  0  0
  -28.7475  -19.3679   21.1702 C   0  0  0  0  0  0
  -29.8929  -20.1015   20.7340 C   0  0  0  0  0  0
  -29.8844  -17.1499   20.7707 C   0  0  0  0  0  0
  -27.5466  -20.0769   21.6772 C   0  0  0  0  0  0
  -29.2244  -24.0483   20.4993 C   0  0  0  0  0  0
  -28.5049  -24.9813   18.2411 C   0  0  0  0  0  0
  -30.0779  -21.6680   20.8793 C   0  0  0  0  0  0
  -28.2439  -25.0445   19.7575 C   0  0  2  0  0  0
  -26.3952  -19.5671   21.8055 N   0  0  0  0  0  0
  -29.7983  -15.6871   20.8700 N   0  0  0  0  0  0
  -29.1317  -22.6883   20.3074 N   0  0  0  0  0  0
  -30.0834  -24.5154   21.2509 O   0  0  0  0  0  0
  -31.4823  -12.5252   19.1530 H   0  0  0  0  0  0
  -30.3773  -11.4027   19.8959 H   0  0  0  0  0  0
  -29.7755  -11.7602   17.4808 H   0  0  0  0  0  0
  -29.6497  -13.4810   17.7467 H   0  0  0  0  0  0
  -27.8703  -11.2918   18.8669 H   0  0  0  0  0  0
  -27.3793  -12.5765   17.7950 H   0  0  0  0  0  0
  -27.6708  -14.2498   19.5220 H   0  0  0  0  0  0
  -28.7132  -12.0502   21.3760 H   0  0  0  0  0  0
  -28.4414  -13.7019   21.8473 H   0  0  0  0  0  0
  -25.2754   -9.5690   22.4750 H   0  0  0  0  0  0
  -23.9991   -7.4645   22.7478 H   0  0  0  0  0  0
  -21.0822   -8.8772   19.8963 H   0  0  0  0  0  0
  -22.3673  -10.9671   19.6168 H   0  0  0  0  0  0
  -21.2018   -7.6146   23.9702 H   0  0  0  0  0  0
  -21.1480   -6.0524   25.9071 H   0  0  0  0  0  0
  -22.0599   -2.7599   23.2851 H   0  0  0  0  0  0
  -22.4109  -11.9898   22.4805 H   0  0  0  0  0  0
  -21.1117  -13.1271   22.2615 H   0  0  0  0  0  0
  -24.6568  -15.8393   20.4996 H   0  0  0  0  0  0
  -26.2608  -15.6143   20.0166 H   0  0  0  0  0  0
  -26.7176  -32.5444   23.1112 H   0  0  0  0  0  0
  -25.0078  -33.9728   25.0435 H   0  0  0  0  0  0
  -22.7130  -31.3066   21.4066 H   0  0  0  0  0  0
  -23.3735  -35.9652   23.3328 H   0  0  0  0  0  0
  -24.3578  -36.8886   22.2046 H   0  0  0  0  0  0
  -23.7276  -37.6522   23.6644 H   0  0  0  0  0  0
  -26.0960  -31.5526   20.6100 H   0  0  0  0  0  0
  -26.8420  -30.8351   22.0071 H   0  0  0  0  0  0
  -28.1095  -28.9710   21.1988 H   0  0  0  0  0  0
  -25.9426  -25.9494   18.9762 H   0  0  0  0  0  0
  -23.9644  -27.3203   19.0077 H   0  0  0  0  0  0
  -23.7589  -30.6055   19.4086 H   0  0  0  0  0  0
  -22.7525  -29.2606   19.8530 H   0  0  0  0  0  0
  -25.1292  -36.1941   25.0823 H   0  0  0  0  0  0
  -20.9983  -28.3272   24.1397 H   0  0  0  0  0  0
  -20.5685  -26.2299   23.3609 H   0  0  0  0  0  0
  -21.6654  -26.7443   22.1206 H   0  0  0  0  0  0
  -19.6924  -25.6294   21.1235 H   0  0  0  0  0  0
  -19.6690  -27.3191   20.6741 H   0  0  0  0  0  0
  -17.4204  -26.6670   21.4026 H   0  0  0  0  0  0
  -18.0338  -26.0070   22.9018 H   0  0  0  0  0  0
  -19.7940  -30.7276   24.2259 H   0  0  0  0  0  0
  -17.5018  -31.6253   24.5178 H   0  0  0  0  0  0
  -15.5360  -30.2987   23.7648 H   0  0  0  0  0  0
  -15.8678  -28.0826   22.7052 H   0  0  0  0  0  0
  -24.5898  -30.7086   25.7801 H   0  0  0  0  0  0
  -24.8930  -32.2907   26.4881 H   0  0  0  0  0  0
  -25.8051  -30.8919   27.0242 H   0  0  0  0  0  0
  -26.2917  -29.6749   24.1214 H   0  0  0  0  0  0
  -27.4032  -29.7261   25.4698 H   0  0  0  0  0  0
  -27.8789  -30.4283   23.9422 H   0  0  0  0  0  0
  -27.2670  -33.3613   26.2084 H   0  0  0  0  0  0
  -28.3863  -32.6882   25.0321 H   0  0  0  0  0  0
  -28.0735  -31.8440   26.5405 H   0  0  0  0  0  0
  -28.2612  -38.0082   24.7467 H   0  0  0  0  0  0
  -28.1049  -36.2611   24.6344 H   0  0  0  0  0  0
  -27.2289  -37.1524   25.8868 H   0  0  0  0  0  0
  -20.9367  -29.8771   21.6890 H   0  0  0  0  0  0
  -26.0177  -38.2849   24.1371 H   0  0  0  0  0  0
  -31.9020  -19.8153   19.9743 H   0  0  0  0  0  0
  -31.8955  -17.3728   19.9841 H   0  0  0  0  0  0
  -27.8923  -17.4054   21.5325 H   0  0  0  0  0  0
  -27.6834  -21.1228   21.9629 H   0  0  0  0  0  0
  -28.4185  -23.9629   17.8606 H   0  0  0  0  0  0
  -29.5078  -25.3378   18.0054 H   0  0  0  0  0  0
  -27.8027  -25.5963   17.6805 H   0  0  0  0  0  0
  -31.0655  -21.9174   20.4885 H   0  0  0  0  0  0
  -30.1520  -21.8616   21.9508 H   0  0  0  0  0  0
  -27.2544  -24.6534   19.9904 H   0  0  0  0  0  0
  -26.3778  -18.5999   21.5027 H   0  0  0  0  0  0
  -28.9048  -15.3497   21.1920 H   0  0  0  0  0  0
  -28.4198  -22.3566   19.6708 H   0  0  0  0  0  0
  1 25  1  0  0  0
  1 30  2  0  0  0
  1 83  1  0  0  0
  2  3  1  0  0  0
  2 25  1  0  0  0
  2 86  1  0  0  0
  2 87  1  0  0  0
  3  4  1  0  0  0
  3 88  1  0  0  0
  3 89  1  0  0  0
  4  5  1  0  0  0
  4 90  1  0  0  0
  4 91  1  0  0  0
  5  6  1  0  0  0
  5 26  1  0  0  0
  5 92  1  0  0  0
  6 25  1  0  0  0
  6 93  1  0  0  0
  6 94  1  0  0  0
  7  8  2  0  0  0
  7 26  1  0  0  0
  7 29  1  0  0  0
  8  9  1  0  0  0
  8 22  1  0  0  0
  9 10  1  0  0  0
  9 27  2  0  0  0
 10 11  2  0  0  0
 10 15  1  0  0  0
 11 12  1  0  0  0
 11 95  1  0  0  0
 12 13  2  0  0  0
 12 96  1  0  0  0
 13 14  1  0  0  0
 13 31  1  0  0  0
 14 15  2  0  0  0
 14 97  1  0  0  0
 15 98  1  0  0  0
 16 17  2  0  0  0
 16 21  1  0  0  0
 16 31  1  0  0  0
 17 18  1  0  0  0
 17 99  1  0  0  0
 18 19  2  0  0  0
 18100  1  0  0  0
 19 20  1  0  0  0
 19 24  1  0  0  0
 20 21  2  0  0  0
 20101  1  0  0  0
 21 23  1  0  0  0
 22 28  1  0  0  0
 22 32  2  0  0  0
 26 27  1  0  0  0
 28102  1  0  0  0
 28103  1  0  0  0
 29104  1  0  0  0
 29105  1  0  0  0
 33 34  1  0  0  0
 33 66  1  0  0  0
 33 70  2  0  0  0
 34 36  1  0  0  0
 34 59  1  0  0  0
 34106  1  0  0  0
 35 44  2  0  0  0
 35 45  1  0  0  0
 35 68  1  0  0  0
 36 56  1  0  0  0
 36107  1  0  0  0
 37 39  1  0  0  0
 37 47  1  0  0  0
 37 66  1  0  0  0
 37108  1  0  0  0
 38 43  2  0  0  0
 38 46  1  0  0  0
 38 47  1  0  0  0
 39 64  1  0  0  0
 39 67  2  0  0  0
 40 52  1  0  0  0
 40 53  2  0  0  0
 40 58  1  0  0  0
 41109  1  0  0  0
 41110  1  0  0  0
 41111  1  0  0  0
 41 48  1  0  0  0
 42 43  1  0  0  0
 42 66  1  0  0  0
 42112  1  0  0  0
 42113  1  0  0  0
 43 44  1  0  0  0
 44114  1  0  0  0
 45 46  2  0  0  0
 45115  1  0  0  0
 46116  1  0  0  0
 47117  1  0  0  0
 47118  1  0  0  0
 48 56  1  0  0  0
 48 65  1  0  0  0
 48119  1  0  0  0
 49 50  1  0  0  0
 49 53  1  0  0  0
 49 64  1  0  0  0
 49120  1  0  0  0
 50 51  1  0  0  0
 50121  1  0  0  0
 50122  1  0  0  0
 51 52  1  0  0  0
 51123  1  0  0  0
 51124  1  0  0  0
 52125  1  0  0  0
 52126  1  0  0  0
 53 54  1  0  0  0
 54 55  2  0  0  0
 54127  1  0  0  0
 55 57  1  0  0  0
 55128  1  0  0  0
 56 69  2  0  0  0
 57 58  2  0  0  0
 57129  1  0  0  0
 58130  1  0  0  0
 59 60  1  0  0  0
 59 61  1  0  0  0
 59 62  1  0  0  0
 60131  1  0  0  0
 60132  1  0  0  0
 60133  1  0  0  0
 61134  1  0  0  0
 61135  1  0  0  0
 61136  1  0  0  0
 62137  1  0  0  0
 62138  1  0  0  0
 62139  1  0  0  0
 63 65  1  0  0  0
 63140  1  0  0  0
 63141  1  0  0  0
 63142  1  0  0  0
 64143  1  0  0  0
 65144  1  0  0  0
 68 81  1  0  0  0
 71 72  2  0  0  0
 71 75  1  0  0  0
 71145  1  0  0  0
 72 76  1  0  0  0
 72146  1  0  0  0
 73 74  1  0  0  0
 73 76  2  0  0  0
 73147  1  0  0  0
 74 75  2  0  0  0
 74 77  1  0  0  0
 75 80  1  0  0  0
 76 83  1  0  0  0
 77 82  2  0  0  0
 77148  1  0  0  0
 78 81  1  0  0  0
 78 84  1  0  0  0
 78 85  2  0  0  0
 79149  1  0  0  0
 79150  1  0  0  0
 79151  1  0  0  0
 79 81  1  0  0  0
 80 84  1  0  0  0
 80152  1  0  0  0
 80153  1  0  0  0
 81154  1  0  0  0
 82155  1  0  0  0
 83156  1  0  0  0
 84157  1  0  0  0
M  ISO  4   1 100  68 101  81 101  83 100
M  END
> <chiral flag>
0

> <version>
0

> <s_m_source_file>
/data/baiqing/PycharmProjects/Reinvent-master-3.2/result/LINK_invent/BTK/process_docking_weight1_custom_product_contain_oxygen_bond_distance_aromatic_linkinvent_7_9_3/rearranged_h_0055.sdf

> <i_m_source_file_index>
7

> <r_mmod_Potential_Energy-OPLS-2005>
-17.7651119232178

> <r_mmod_Stretch_Energy-OPLS-2005>
85.313346862793

> <r_mmod_Bend_Energy-OPLS-2005>
146.295425415039

> <r_mmod_Torsional_Energy-OPLS-2005>
218.810241699219

> <r_mmod_Improper_Torsional_Energy-OPLS-2005>
5.00240898132324

> <r_mmod_Van_der_Waal_Energy-OPLS-2005>
149.76496887207

> <r_mmod_Electrostatic_Energy-OPLS-2005>
-416.811492919922

> <r_mmod_Solvation_Energy-OPLS-2005>
-256.692810058594

> <b_mmod_Minimization_Converged-OPLS-2005>
0

> <r_mmod_RMS_Derivative-OPLS-2005>
0.860849976539612

$$$$
7
                    3D
 Structure written by MMmdl.
163171  0  0  1  0            999 V2000
  -30.7543  -14.6646   20.4976 C   0  0  0  0  0  0
  -30.3972  -12.4160   19.5200 C   0  0  0  0  0  0
  -29.5074  -12.5083   18.2640 C   0  0  0  0  0  0
  -28.0411  -12.3204   18.6739 C   0  0  0  0  0  0
  -27.6437  -13.2473   19.8529 C   0  0  2  0  0  0
  -28.6755  -13.2516   21.0112 C   0  0  0  0  0  0
  -25.2501  -13.8251   20.5671 C   0  0  0  0  0  0
  -24.1805  -13.0465   20.9191 C   0  0  0  0  0  0
  -24.6436  -11.6963   20.8740 C   0  0  0  0  0  0
  -23.9142  -10.4309   21.0367 C   0  0  0  0  0  0
  -24.3677   -9.4230   21.9146 C   0  0  0  0  0  0
  -23.6360   -8.2269   22.0723 C   0  0  0  0  0  0
  -22.4337   -8.0300   21.3548 C   0  0  0  0  0  0
  -21.9982   -9.0260   20.4643 C   0  0  0  0  0  0
  -22.7312  -10.2134   20.3039 C   0  0  0  0  0  0
  -21.6851   -6.0788   22.5298 C   0  0  0  0  0  0
  -21.4032   -6.5664   23.8253 C   0  0  0  0  0  0
  -21.3677   -5.6803   24.9217 C   0  0  0  0  0  0
  -21.6051   -4.3063   24.7229 C   0  0  0  0  0  0
  -21.8790   -3.8173   23.4325 C   0  0  0  0  0  0
  -21.9152   -4.7016   22.3401 C   0  0  0  0  0  0
  -22.7828  -13.5215   21.1878 C   0  0  0  0  0  0
  -22.1629   -4.2212   21.0988 F   0  0  0  0  0  0
  -21.5646   -3.4531   25.7721 F   0  0  0  0  0  0
  -30.0002  -13.5113   20.4482 N   0  0  0  0  0  0
  -26.2958  -12.9498   20.3290 N   0  0  0  0  0  0
  -25.9381  -11.6630   20.5759 N   0  0  0  0  0  0
  -22.0500  -12.8203   22.0458 N   0  0  0  0  0  0
  -25.4254  -15.1961   20.4032 N   0  0  0  0  0  0
  -31.8682  -14.5832   20.0124 O   0  0  0  0  0  0
  -21.6693   -6.8916   21.4253 O   0  0  0  0  0  0
  -22.3452  -14.5474   20.6679 O   0  0  0  0  0  0
  -24.6213  -31.8635   23.2005 C   0  0  0  0  0  0
  -25.9088  -32.4776   23.8336 C   0  0  1  0  0  0
  -27.2220  -27.3461   20.1244 C   0  0  0  0  0  0
  -25.5972  -33.8588   24.2300 N   0  0  0  0  0  0
  -23.4113  -30.4880   21.5422 C   0  0  2  0  0  0
  -24.8572  -28.9241   20.1198 C   0  0  0  0  0  0
  -22.7416  -29.4673   22.4937 C   0  0  0  0  0  0
  -18.0312  -28.1377   22.8461 C   0  0  0  0  0  0
  -24.1477  -36.7225   23.2652 C   0  0  0  0  0  0
  -25.9510  -30.7960   21.3696 C   0  0  0  0  0  0
  -26.0249  -29.4239   20.7137 C   0  0  0  0  0  0
  -27.2159  -28.6485   20.7023 C   0  0  0  0  0  0
  -26.0414  -26.8823   19.5129 C   0  0  0  0  0  0
  -24.8655  -27.6571   19.5089 C   0  0  0  0  0  0
  -23.6265  -29.8093   20.1607 C   0  0  0  0  0  0
  -25.4102  -36.3075   24.0370 C   0  0  1  0  0  0
  -20.5878  -28.3685   23.1269 C   0  0  2  0  0  0
  -20.6766  -26.9409   22.5424 C   0  0  0  0  0  0
  -19.5752  -26.6372   21.5207 C   0  0  0  0  0  0
  -18.1924  -26.7931   22.1604 C   0  0  0  0  0  0
  -19.1552  -28.8859   23.2864 C   0  0  0  0  0  0
  -18.9499  -30.1457   23.8858 C   0  0  0  0  0  0
  -17.6498  -30.6578   24.0567 C   0  0  0  0  0  0
  -25.9056  -34.9447   23.5115 C   0  0  0  0  0  0
  -16.5378  -29.9075   23.6350 C   0  0  0  0  0  0
  -16.7307  -28.6516   23.0340 C   0  0  0  0  0  0
  -26.4485  -31.6588   25.0700 C   0  0  0  0  0  0
  -25.3808  -31.3787   26.1525 C   0  0  0  0  0  0
  -27.0277  -30.2993   24.6127 C   0  0  0  0  0  0
  -27.6028  -32.4351   25.7460 C   0  0  0  0  0  0
  -27.5573  -37.1756   24.8486 C   0  0  0  0  0  0
  -21.4158  -29.3061   22.3674 N   0  0  0  0  0  0
  -26.4261  -37.3770   23.9458 N   0  0  0  0  0  0
  -24.6807  -31.0667   22.0944 N   0  0  0  0  0  0
  -23.4169  -28.8258   23.3046 O   0  0  0  0  0  0
  -28.3444  -26.5256   20.1109 O   0  0  0  0  0  0
  -26.5549  -34.8931   22.4647 O   0  0  0  0  0  0
  -23.5402  -32.1443   23.7356 O   0  0  0  0  0  0
  -31.4649  -19.3950   18.6917 C   0  0  0  0  0  0
  -32.4365  -18.4970   19.1427 C   0  0  0  0  0  0
  -30.2196  -19.3756   19.3294 C   0  0  0  0  0  0
  -32.1142  -17.4669   20.0524 C   0  0  0  0  0  0
  -29.8864  -18.3908   20.2954 C   0  0  0  0  0  0
  -30.7481  -17.2269   20.4573 C   0  0  0  0  0  0
  -28.0673  -21.2839   21.1706 C   0  0  0  0  0  0
  -33.3369  -16.7529   20.6240 C   0  0  0  0  0  0
  -29.5021  -20.3042   22.9510 C   0  0  0  0  0  0
  -28.6606  -18.7724   21.1653 C   0  0  0  0  0  0
  -28.2675  -22.7709   21.6969 C   0  0  0  0  0  0
  -28.2213  -23.9234   20.5853 C   0  0  0  0  0  0
  -28.3930  -25.4232   21.0823 C   0  0  0  0  0  0
  -30.2741  -15.8948   20.9308 N   0  0  0  0  0  0
  -28.6998  -20.1867   21.7270 N   0  0  0  0  0  0
  -27.3048  -21.1335   20.2167 O   0  0  0  0  0  0
  -31.4434  -12.4473   19.2075 H   0  0  0  0  0  0
  -30.2849  -11.4497   20.0167 H   0  0  0  0  0  0
  -29.8078  -11.7572   17.5323 H   0  0  0  0  0  0
  -29.6389  -13.4759   17.7775 H   0  0  0  0  0  0
  -27.9172  -11.2762   18.9635 H   0  0  0  0  0  0
  -27.3749  -12.4695   17.8240 H   0  0  0  0  0  0
  -27.6308  -14.2605   19.4427 H   0  0  0  0  0  0
  -28.6754  -12.3133   21.5684 H   0  0  0  0  0  0
  -28.4109  -14.0289   21.7268 H   0  0  0  0  0  0
  -25.2790   -9.5768   22.4723 H   0  0  0  0  0  0
  -24.0115   -7.4666   22.7412 H   0  0  0  0  0  0
  -21.0933   -8.8757   19.8911 H   0  0  0  0  0  0
  -22.3746  -10.9667   19.6164 H   0  0  0  0  0  0
  -21.2093   -7.6172   23.9799 H   0  0  0  0  0  0
  -21.1521   -6.0527   25.9134 H   0  0  0  0  0  0
  -22.0543   -2.7635   23.2789 H   0  0  0  0  0  0
  -22.4145  -11.9914   22.4882 H   0  0  0  0  0  0
  -21.1113  -13.1212   22.2684 H   0  0  0  0  0  0
  -24.6714  -15.8621   20.5324 H   0  0  0  0  0  0
  -26.2914  -15.6146   20.0842 H   0  0  0  0  0  0
  -26.7135  -32.5429   23.1068 H   0  0  0  0  0  0
  -25.0320  -33.9736   25.0580 H   0  0  0  0  0  0
  -22.7066  -31.3086   21.3955 H   0  0  0  0  0  0
  -23.3786  -35.9501   23.3300 H   0  0  0  0  0  0
  -24.3581  -36.8824   22.2062 H   0  0  0  0  0  0
  -23.7135  -37.6409   23.6630 H   0  0  0  0  0  0
  -26.0979  -31.5601   20.6060 H   0  0  0  0  0  0
  -26.8239  -30.8282   22.0093 H   0  0  0  0  0  0
  -28.1193  -29.0336   21.1552 H   0  0  0  0  0  0
  -26.0294  -25.9062   19.0424 H   0  0  0  0  0  0
  -23.9713  -27.2662   19.0418 H   0  0  0  0  0  0
  -23.7554  -30.5837   19.4025 H   0  0  0  0  0  0
  -22.7397  -29.2497   19.8529 H   0  0  0  0  0  0
  -25.1262  -36.1907   25.0848 H   0  0  0  0  0  0
  -21.0004  -28.3277   24.1369 H   0  0  0  0  0  0
  -20.5606  -26.2326   23.3639 H   0  0  0  0  0  0
  -21.6649  -26.7397   22.1269 H   0  0  0  0  0  0
  -19.6909  -25.6277   21.1258 H   0  0  0  0  0  0
  -19.6684  -27.3162   20.6713 H   0  0  0  0  0  0
  -17.4207  -26.6716   21.3975 H   0  0  0  0  0  0
  -18.0302  -26.0064   22.8990 H   0  0  0  0  0  0
  -19.7989  -30.7296   24.2134 H   0  0  0  0  0  0
  -17.5088  -31.6229   24.5221 H   0  0  0  0  0  0
  -15.5379  -30.2976   23.7710 H   0  0  0  0  0  0
  -15.8708  -28.0844   22.7011 H   0  0  0  0  0  0
  -24.5984  -30.7041   25.8040 H   0  0  0  0  0  0
  -24.9012  -32.2982   26.4890 H   0  0  0  0  0  0
  -25.8289  -30.9142   27.0322 H   0  0  0  0  0  0
  -26.2793  -29.6784   24.1184 H   0  0  0  0  0  0
  -27.4016  -29.7186   25.4569 H   0  0  0  0  0  0
  -27.8666  -30.4264   23.9278 H   0  0  0  0  0  0
  -27.2598  -33.3698   26.1902 H   0  0  0  0  0  0
  -28.3888  -32.6834   25.0321 H   0  0  0  0  0  0
  -28.0612  -31.8584   26.5506 H   0  0  0  0  0  0
  -28.2607  -38.0043   24.7540 H   0  0  0  0  0  0
  -28.1050  -36.2577   24.6273 H   0  0  0  0  0  0
  -27.2333  -37.1378   25.8905 H   0  0  0  0  0  0
  -20.9321  -29.8795   21.6874 H   0  0  0  0  0  0
  -26.0157  -38.2836   24.1502 H   0  0  0  0  0  0
  -31.7016  -20.1659   17.9680 H   0  0  0  0  0  0
  -33.4564  -18.6161   18.8008 H   0  0  0  0  0  0
  -29.5354  -20.1783   19.0903 H   0  0  0  0  0  0
  -33.7255  -15.9959   19.9445 H   0  0  0  0  0  0
  -33.1284  -16.3090   21.5982 H   0  0  0  0  0  0
  -34.1612  -17.4538   20.7556 H   0  0  0  0  0  0
  -28.9261  -20.7010   23.7887 H   0  0  0  0  0  0
  -30.3607  -20.9592   22.8012 H   0  0  0  0  0  0
  -29.8879  -19.3365   23.2757 H   0  0  0  0  0  0
  -28.5704  -18.0517   21.9836 H   0  0  0  0  0  0
  -27.7629  -18.6329   20.5628 H   0  0  0  0  0  0
  -29.1813  -22.8783   22.2897 H   0  0  0  0  0  0
  -27.4585  -22.9549   22.4101 H   0  0  0  0  0  0
  -27.2791  -23.8498   20.0408 H   0  0  0  0  0  0
  -28.9926  -23.7181   19.8406 H   0  0  0  0  0  0
  -29.3774  -25.5130   21.5518 H   0  0  0  0  0  0
  -27.6726  -25.6184   21.8787 H   0  0  0  0  0  0
  -29.3775  -15.8915   21.3948 H   0  0  0  0  0  0
  1 25  1  0  0  0
  1 30  2  0  0  0
  1 84  1  0  0  0
  2  3  1  0  0  0
  2 25  1  0  0  0
  2 87  1  0  0  0
  2 88  1  0  0  0
  3  4  1  0  0  0
  3 89  1  0  0  0
  3 90  1  0  0  0
  4  5  1  0  0  0
  4 91  1  0  0  0
  4 92  1  0  0  0
  5  6  1  0  0  0
  5 26  1  0  0  0
  5 93  1  0  0  0
  6 25  1  0  0  0
  6 94  1  0  0  0
  6 95  1  0  0  0
  7  8  2  0  0  0
  7 26  1  0  0  0
  7 29  1  0  0  0
  8  9  1  0  0  0
  8 22  1  0  0  0
  9 10  1  0  0  0
  9 27  2  0  0  0
 10 11  2  0  0  0
 10 15  1  0  0  0
 11 12  1  0  0  0
 11 96  1  0  0  0
 12 13  2  0  0  0
 12 97  1  0  0  0
 13 14  1  0  0  0
 13 31  1  0  0  0
 14 15  2  0  0  0
 14 98  1  0  0  0
 15 99  1  0  0  0
 16 17  2  0  0  0
 16 21  1  0  0  0
 16 31  1  0  0  0
 17 18  1  0  0  0
 17100  1  0  0  0
 18 19  2  0  0  0
 18101  1  0  0  0
 19 20  1  0  0  0
 19 24  1  0  0  0
 20 21  2  0  0  0
 20102  1  0  0  0
 21 23  1  0  0  0
 22 28  1  0  0  0
 22 32  2  0  0  0
 26 27  1  0  0  0
 28103  1  0  0  0
 28104  1  0  0  0
 29105  1  0  0  0
 29106  1  0  0  0
 33 34  1  0  0  0
 33 66  1  0  0  0
 33 70  2  0  0  0
 34 36  1  0  0  0
 34 59  1  0  0  0
 34107  1  0  0  0
 35 44  2  0  0  0
 35 45  1  0  0  0
 35 68  1  0  0  0
 36 56  1  0  0  0
 36108  1  0  0  0
 37 39  1  0  0  0
 37 47  1  0  0  0
 37 66  1  0  0  0
 37109  1  0  0  0
 38 43  2  0  0  0
 38 46  1  0  0  0
 38 47  1  0  0  0
 39 64  1  0  0  0
 39 67  2  0  0  0
 40 52  1  0  0  0
 40 53  2  0  0  0
 40 58  1  0  0  0
 41110  1  0  0  0
 41111  1  0  0  0
 41112  1  0  0  0
 41 48  1  0  0  0
 42 43  1  0  0  0
 42 66  1  0  0  0
 42113  1  0  0  0
 42114  1  0  0  0
 43 44  1  0  0  0
 44115  1  0  0  0
 45 46  2  0  0  0
 45116  1  0  0  0
 46117  1  0  0  0
 47118  1  0  0  0
 47119  1  0  0  0
 48 56  1  0  0  0
 48 65  1  0  0  0
 48120  1  0  0  0
 49 50  1  0  0  0
 49 53  1  0  0  0
 49 64  1  0  0  0
 49121  1  0  0  0
 50 51  1  0  0  0
 50122  1  0  0  0
 50123  1  0  0  0
 51 52  1  0  0  0
 51124  1  0  0  0
 51125  1  0  0  0
 52126  1  0  0  0
 52127  1  0  0  0
 53 54  1  0  0  0
 54 55  2  0  0  0
 54128  1  0  0  0
 55 57  1  0  0  0
 55129  1  0  0  0
 56 69  2  0  0  0
 57 58  2  0  0  0
 57130  1  0  0  0
 58131  1  0  0  0
 59 60  1  0  0  0
 59 61  1  0  0  0
 59 62  1  0  0  0
 60132  1  0  0  0
 60133  1  0  0  0
 60134  1  0  0  0
 61135  1  0  0  0
 61136  1  0  0  0
 61137  1  0  0  0
 62138  1  0  0  0
 62139  1  0  0  0
 62140  1  0  0  0
 63 65  1  0  0  0
 63141  1  0  0  0
 63142  1  0  0  0
 63143  1  0  0  0
 64144  1  0  0  0
 65145  1  0  0  0
 68 83  1  0  0  0
 71 72  2  0  0  0
 71 73  1  0  0  0
 71146  1  0  0  0
 72 74  1  0  0  0
 72147  1  0  0  0
 73 75  2  0  0  0
 73148  1  0  0  0
 74 76  2  0  0  0
 74 78  1  0  0  0
 75 76  1  0  0  0
 75 80  1  0  0  0
 76 84  1  0  0  0
 77 81  1  0  0  0
 77 85  1  0  0  0
 77 86  2  0  0  0
 78149  1  0  0  0
 78150  1  0  0  0
 78151  1  0  0  0
 79 85  1  0  0  0
 79152  1  0  0  0
 79153  1  0  0  0
 79154  1  0  0  0
 80 85  1  0  0  0
 80155  1  0  0  0
 80156  1  0  0  0
 81 82  1  0  0  0
 81157  1  0  0  0
 81158  1  0  0  0
 82 83  1  0  0  0
 82159  1  0  0  0
 82160  1  0  0  0
 83161  1  0  0  0
 83162  1  0  0  0
 84163  1  0  0  0
M  ISO  4   1 100  68 101  83 101  84 100
M  END
> <chiral flag>
0

> <version>
0

> <s_m_source_file>
/data/baiqing/PycharmProjects/Reinvent-master-3.2/result/LINK_invent/BTK/process_docking_weight1_custom_product_contain_oxygen_bond_distance_aromatic_linkinvent_7_9_3/rearranged_h_0055.sdf

> <i_m_source_file_index>
8

> <r_mmod_Potential_Energy-OPLS-2005>
163.089218139648

> <r_mmod_Stretch_Energy-OPLS-2005>
102.242202758789

> <r_mmod_Bend_Energy-OPLS-2005>
161.269088745117

> <r_mmod_Torsional_Energy-OPLS-2005>
318.172180175781

> <r_mmod_Improper_Torsional_Energy-OPLS-2005>
4.42630481719971

> <r_mmod_Van_der_Waal_Energy-OPLS-2005>
166.304794311523

> <r_mmod_Electrostatic_Energy-OPLS-2005>
-423.222290039062

> <r_mmod_Solvation_Energy-OPLS-2005>
-224.15185546875

> <b_mmod_Minimization_Converged-OPLS-2005>
0

> <r_mmod_RMS_Derivative-OPLS-2005>
9.36594390869141

$$$$
8
                    3D
 Structure written by MMmdl.
158167  0  0  1  0            999 V2000
  -30.6498  -14.5276   20.5380 C   0  0  0  0  0  0
  -30.4268  -12.3296   19.4462 C   0  0  0  0  0  0
  -29.5004  -12.4913   18.2202 C   0  0  0  0  0  0
  -28.0187  -12.3555   18.6259 C   0  0  0  0  0  0
  -27.6574  -13.2057   19.8767 C   0  0  2  0  0  0
  -28.6934  -13.0010   21.0046 C   0  0  0  0  0  0
  -25.2574  -13.8179   20.5659 C   0  0  0  0  0  0
  -24.1816  -13.0454   20.9148 C   0  0  0  0  0  0
  -24.6380  -11.6905   20.8733 C   0  0  0  0  0  0
  -23.9037  -10.4315   21.0438 C   0  0  0  0  0  0
  -24.3612   -9.4217   21.9199 C   0  0  0  0  0  0
  -23.6292   -8.2253   22.0772 C   0  0  0  0  0  0
  -22.4284   -8.0287   21.3565 C   0  0  0  0  0  0
  -21.9897   -9.0270   20.4678 C   0  0  0  0  0  0
  -22.7211  -10.2168   20.3076 C   0  0  0  0  0  0
  -21.6855   -6.0727   22.5273 C   0  0  0  0  0  0
  -21.4027   -6.5628   23.8212 C   0  0  0  0  0  0
  -21.3655   -5.6767   24.9157 C   0  0  0  0  0  0
  -21.6029   -4.3034   24.7212 C   0  0  0  0  0  0
  -21.8816   -3.8131   23.4339 C   0  0  0  0  0  0
  -21.9208   -4.6950   22.3395 C   0  0  0  0  0  0
  -22.7868  -13.5251   21.1816 C   0  0  0  0  0  0
  -22.1678   -4.2131   21.0986 F   0  0  0  0  0  0
  -21.5605   -3.4523   25.7726 F   0  0  0  0  0  0
  -30.0192  -13.3228   20.4579 N   0  0  0  0  0  0
  -26.2996  -12.9338   20.3356 N   0  0  0  0  0  0
  -25.9300  -11.6499   20.5756 N   0  0  0  0  0  0
  -22.0527  -12.8270   22.0418 N   0  0  0  0  0  0
  -25.4277  -15.1887   20.4035 N   0  0  0  0  0  0
  -31.7862  -14.7071   20.0871 O   0  0  0  0  0  0
  -21.6627   -6.8900   21.4254 O   0  0  0  0  0  0
  -22.3571  -14.5564   20.6633 O   0  0  0  0  0  0
  -24.6164  -31.8642   23.2087 C   0  0  0  0  0  0
  -25.9038  -32.4814   23.8404 C   0  0  1  0  0  0
  -27.2368  -27.4150   20.1185 C   0  0  0  0  0  0
  -25.5898  -33.8627   24.2321 N   0  0  0  0  0  0
  -23.4086  -30.4865   21.5471 C   0  0  2  0  0  0
  -24.8595  -28.9482   20.1163 C   0  0  0  0  0  0
  -22.7443  -29.4623   22.4953 C   0  0  0  0  0  0
  -18.0284  -28.1366   22.8487 C   0  0  0  0  0  0
  -24.1480  -36.7316   23.2639 C   0  0  0  0  0  0
  -25.9385  -30.8262   21.3648 C   0  0  0  0  0  0
  -26.0191  -29.4600   20.7133 C   0  0  0  0  0  0
  -27.2143  -28.7036   20.7042 C   0  0  0  0  0  0
  -26.0638  -26.9181   19.5124 C   0  0  0  0  0  0
  -24.8777  -27.6786   19.5097 C   0  0  0  0  0  0
  -23.6219  -29.8182   20.1616 C   0  0  0  0  0  0
  -25.4099  -36.3110   24.0340 C   0  0  1  0  0  0
  -20.5877  -28.3648   23.1303 C   0  0  2  0  0  0
  -20.6752  -26.9377   22.5408 C   0  0  0  0  0  0
  -19.5740  -26.6368   21.5198 C   0  0  0  0  0  0
  -18.1926  -26.7913   22.1621 C   0  0  0  0  0  0
  -19.1537  -28.8829   23.2891 C   0  0  0  0  0  0
  -18.9461  -30.1434   23.8901 C   0  0  0  0  0  0
  -17.6458  -30.6561   24.0567 C   0  0  0  0  0  0
  -25.9025  -34.9479   23.5115 C   0  0  0  0  0  0
  -16.5351  -29.9056   23.6324 C   0  0  0  0  0  0
  -16.7272  -28.6479   23.0340 C   0  0  0  0  0  0
  -26.4469  -31.6640   25.0765 C   0  0  0  0  0  0
  -25.3759  -31.3758   26.1550 C   0  0  0  0  0  0
  -27.0301  -30.3086   24.6152 C   0  0  0  0  0  0
  -27.6023  -32.4397   25.7496 C   0  0  0  0  0  0
  -27.5577  -37.1803   24.8453 C   0  0  0  0  0  0
  -21.4169  -29.3015   22.3706 N   0  0  0  0  0  0
  -26.4278  -37.3789   23.9422 N   0  0  0  0  0  0
  -24.6720  -31.0745   22.0973 N   0  0  0  0  0  0
  -23.4196  -28.8163   23.3004 O   0  0  0  0  0  0
  -28.3869  -26.6546   20.1115 O   0  0  0  0  0  0
  -26.5583  -34.8914   22.4672 O   0  0  0  0  0  0
  -23.5359  -32.1399   23.7476 O   0  0  0  0  0  0
  -29.4450  -20.4550   18.1216 C   0  0  0  0  0  0
  -29.4624  -19.2335   18.8182 C   0  0  0  0  0  0
  -29.3747  -21.6733   18.8212 C   0  0  0  0  0  0
  -29.2901  -20.4462   20.9243 C   0  0  0  0  0  0
  -29.3945  -19.2019   20.2298 C   0  0  0  0  0  0
  -29.3044  -21.7085   20.2360 C   0  0  0  0  0  0
  -29.8413  -23.2000   22.1219 C   0  0  0  0  0  0
  -29.4317  -17.8801   20.9393 C   0  0  0  0  0  0
  -29.4844  -24.4482   22.9425 C   0  0  0  0  0  0
  -29.3412  -25.7124   22.0953 C   0  0  0  0  0  0
  -28.7602  -24.1911   20.1378 C   0  0  0  0  0  0
  -28.3702  -25.4719   20.9377 C   0  0  2  0  0  0
  -30.0026  -16.8395   20.4067 N   0  0  0  0  0  0
  -29.2404  -23.0016   20.9136 N   0  0  0  0  0  0
  -29.9015  -15.5795   20.9703 N   0  0  0  0  0  0
  -30.6687  -22.4223   22.6111 O   0  0  0  0  0  0
  -31.4679  -12.4438   19.1459 H   0  0  0  0  0  0
  -30.3530  -11.3221   19.8616 H   0  0  0  0  0  0
  -29.7447  -11.7450   17.4632 H   0  0  0  0  0  0
  -29.6625  -13.4662   17.7541 H   0  0  0  0  0  0
  -27.8260  -11.3014   18.8266 H   0  0  0  0  0  0
  -27.3766  -12.6220   17.7873 H   0  0  0  0  0  0
  -27.6958  -14.2497   19.5716 H   0  0  0  0  0  0
  -28.6803  -11.9620   21.3410 H   0  0  0  0  0  0
  -28.4520  -13.5988   21.8851 H   0  0  0  0  0  0
  -25.2798   -9.5632   22.4710 H   0  0  0  0  0  0
  -23.9977   -7.4617   22.7472 H   0  0  0  0  0  0
  -21.0811   -8.8774   19.9004 H   0  0  0  0  0  0
  -22.3672  -10.9681   19.6138 H   0  0  0  0  0  0
  -21.2045   -7.6149   23.9705 H   0  0  0  0  0  0
  -21.1470   -6.0517   25.9049 H   0  0  0  0  0  0
  -22.0616   -2.7594   23.2845 H   0  0  0  0  0  0
  -22.4150  -11.9951   22.4827 H   0  0  0  0  0  0
  -21.1171  -13.1323   22.2685 H   0  0  0  0  0  0
  -24.6522  -15.8384   20.4865 H   0  0  0  0  0  0
  -26.2606  -15.6164   20.0220 H   0  0  0  0  0  0
  -26.7114  -32.5511   23.1177 H   0  0  0  0  0  0
  -25.0083  -33.9789   25.0496 H   0  0  0  0  0  0
  -22.6992  -31.3034   21.4060 H   0  0  0  0  0  0
  -23.3731  -35.9658   23.3298 H   0  0  0  0  0  0
  -24.3564  -36.8939   22.2055 H   0  0  0  0  0  0
  -23.7246  -37.6526   23.6658 H   0  0  0  0  0  0
  -26.0600  -31.5934   20.6008 H   0  0  0  0  0  0
  -26.8208  -30.8749   21.9905 H   0  0  0  0  0  0
  -28.1124  -29.0942   21.1596 H   0  0  0  0  0  0
  -26.0691  -25.9426   19.0433 H   0  0  0  0  0  0
  -23.9869  -27.2824   19.0410 H   0  0  0  0  0  0
  -23.7351  -30.5944   19.4040 H   0  0  0  0  0  0
  -22.7446  -29.2426   19.8592 H   0  0  0  0  0  0
  -25.1275  -36.1953   25.0830 H   0  0  0  0  0  0
  -20.9984  -28.3191   24.1423 H   0  0  0  0  0  0
  -20.5616  -26.2256   23.3595 H   0  0  0  0  0  0
  -21.6621  -26.7365   22.1228 H   0  0  0  0  0  0
  -19.6877  -25.6278   21.1222 H   0  0  0  0  0  0
  -19.6678  -27.3177   20.6736 H   0  0  0  0  0  0
  -17.4185  -26.6676   21.4023 H   0  0  0  0  0  0
  -18.0318  -26.0045   22.9011 H   0  0  0  0  0  0
  -19.7936  -30.7255   24.2265 H   0  0  0  0  0  0
  -17.5003  -31.6235   24.5177 H   0  0  0  0  0  0
  -15.5346  -30.2951   23.7635 H   0  0  0  0  0  0
  -15.8688  -28.0793   22.7040 H   0  0  0  0  0  0
  -24.5866  -30.7176   25.7905 H   0  0  0  0  0  0
  -24.9055  -32.2935   26.5089 H   0  0  0  0  0  0
  -25.8155  -30.8858   27.0250 H   0  0  0  0  0  0
  -26.2844  -29.6861   24.1200 H   0  0  0  0  0  0
  -27.4058  -29.7320   25.4611 H   0  0  0  0  0  0
  -27.8682  -30.4415   23.9311 H   0  0  0  0  0  0
  -27.2606  -33.3652   26.2135 H   0  0  0  0  0  0
  -28.3777  -32.7057   25.0306 H   0  0  0  0  0  0
  -28.0772  -31.8534   26.5378 H   0  0  0  0  0  0
  -28.2579  -38.0113   24.7507 H   0  0  0  0  0  0
  -28.1085  -36.2644   24.6244 H   0  0  0  0  0  0
  -27.2305  -37.1408   25.8856 H   0  0  0  0  0  0
  -20.9327  -29.8783   21.6975 H   0  0  0  0  0  0
  -26.0161  -38.2853   24.1455 H   0  0  0  0  0  0
  -29.4998  -20.4589   17.0413 H   0  0  0  0  0  0
  -29.5157  -18.3134   18.2503 H   0  0  0  0  0  0
  -29.3870  -22.5823   18.2375 H   0  0  0  0  0  0
  -29.2079  -20.4197   22.0013 H   0  0  0  0  0  0
  -28.9750  -17.8102   21.9274 H   0  0  0  0  0  0
  -30.2432  -24.6017   23.7129 H   0  0  0  0  0  0
  -28.5522  -24.2390   23.4672 H   0  0  0  0  0  0
  -30.3199  -26.0151   21.7207 H   0  0  0  0  0  0
  -28.9834  -26.5312   22.7230 H   0  0  0  0  0  0
  -29.5614  -24.4600   19.4482 H   0  0  0  0  0  0
  -27.9056  -23.9021   19.5241 H   0  0  0  0  0  0
  -27.3783  -25.3129   21.3710 H   0  0  0  0  0  0
  -29.0540  -15.3975   21.4905 H   0  0  0  0  0  0
  1 25  1  0  0  0
  1 30  2  0  0  0
  1 85  1  0  0  0
  2  3  1  0  0  0
  2 25  1  0  0  0
  2 87  1  0  0  0
  2 88  1  0  0  0
  3  4  1  0  0  0
  3 89  1  0  0  0
  3 90  1  0  0  0
  4  5  1  0  0  0
  4 91  1  0  0  0
  4 92  1  0  0  0
  5  6  1  0  0  0
  5 26  1  0  0  0
  5 93  1  0  0  0
  6 25  1  0  0  0
  6 94  1  0  0  0
  6 95  1  0  0  0
  7  8  2  0  0  0
  7 26  1  0  0  0
  7 29  1  0  0  0
  8  9  1  0  0  0
  8 22  1  0  0  0
  9 10  1  0  0  0
  9 27  2  0  0  0
 10 11  2  0  0  0
 10 15  1  0  0  0
 11 12  1  0  0  0
 11 96  1  0  0  0
 12 13  2  0  0  0
 12 97  1  0  0  0
 13 14  1  0  0  0
 13 31  1  0  0  0
 14 15  2  0  0  0
 14 98  1  0  0  0
 15 99  1  0  0  0
 16 17  2  0  0  0
 16 21  1  0  0  0
 16 31  1  0  0  0
 17 18  1  0  0  0
 17100  1  0  0  0
 18 19  2  0  0  0
 18101  1  0  0  0
 19 20  1  0  0  0
 19 24  1  0  0  0
 20 21  2  0  0  0
 20102  1  0  0  0
 21 23  1  0  0  0
 22 28  1  0  0  0
 22 32  2  0  0  0
 26 27  1  0  0  0
 28103  1  0  0  0
 28104  1  0  0  0
 29105  1  0  0  0
 29106  1  0  0  0
 33 34  1  0  0  0
 33 66  1  0  0  0
 33 70  2  0  0  0
 34 36  1  0  0  0
 34 59  1  0  0  0
 34107  1  0  0  0
 35 44  2  0  0  0
 35 45  1  0  0  0
 35 68  1  0  0  0
 36 56  1  0  0  0
 36108  1  0  0  0
 37 39  1  0  0  0
 37 47  1  0  0  0
 37 66  1  0  0  0
 37109  1  0  0  0
 38 43  2  0  0  0
 38 46  1  0  0  0
 38 47  1  0  0  0
 39 64  1  0  0  0
 39 67  2  0  0  0
 40 52  1  0  0  0
 40 53  2  0  0  0
 40 58  1  0  0  0
 41110  1  0  0  0
 41111  1  0  0  0
 41112  1  0  0  0
 41 48  1  0  0  0
 42 43  1  0  0  0
 42 66  1  0  0  0
 42113  1  0  0  0
 42114  1  0  0  0
 43 44  1  0  0  0
 44115  1  0  0  0
 45 46  2  0  0  0
 45116  1  0  0  0
 46117  1  0  0  0
 47118  1  0  0  0
 47119  1  0  0  0
 48 56  1  0  0  0
 48 65  1  0  0  0
 48120  1  0  0  0
 49 50  1  0  0  0
 49 53  1  0  0  0
 49 64  1  0  0  0
 49121  1  0  0  0
 50 51  1  0  0  0
 50122  1  0  0  0
 50123  1  0  0  0
 51 52  1  0  0  0
 51124  1  0  0  0
 51125  1  0  0  0
 52126  1  0  0  0
 52127  1  0  0  0
 53 54  1  0  0  0
 54 55  2  0  0  0
 54128  1  0  0  0
 55 57  1  0  0  0
 55129  1  0  0  0
 56 69  2  0  0  0
 57 58  2  0  0  0
 57130  1  0  0  0
 58131  1  0  0  0
 59 60  1  0  0  0
 59 61  1  0  0  0
 59 62  1  0  0  0
 60132  1  0  0  0
 60133  1  0  0  0
 60134  1  0  0  0
 61135  1  0  0  0
 61136  1  0  0  0
 61137  1  0  0  0
 62138  1  0  0  0
 62139  1  0  0  0
 62140  1  0  0  0
 63 65  1  0  0  0
 63141  1  0  0  0
 63142  1  0  0  0
 63143  1  0  0  0
 64144  1  0  0  0
 65145  1  0  0  0
 68 82  1  0  0  0
 71 72  2  0  0  0
 71 73  1  0  0  0
 71146  1  0  0  0
 72 75  1  0  0  0
 72147  1  0  0  0
 73 76  2  0  0  0
 73148  1  0  0  0
 74 75  2  0  0  0
 74 76  1  0  0  0
 74149  1  0  0  0
 75 78  1  0  0  0
 76 84  1  0  0  0
 77 79  1  0  0  0
 77 84  1  0  0  0
 77 86  2  0  0  0
 78 83  2  0  0  0
 78150  1  0  0  0
 79 80  1  0  0  0
 79151  1  0  0  0
 79152  1  0  0  0
 80 82  1  0  0  0
 80153  1  0  0  0
 80154  1  0  0  0
 81 82  1  0  0  0
 81 84  1  0  0  0
 81155  1  0  0  0
 81156  1  0  0  0
 82157  1  0  0  0
 83 85  1  0  0  0
 85158  1  0  0  0
M  ISO  4   1 100  68 101  82 101  85 100
M  END
> <chiral flag>
0

> <version>
0

> <s_m_source_file>
/data/baiqing/PycharmProjects/Reinvent-master-3.2/result/LINK_invent/BTK/process_docking_weight1_custom_product_contain_oxygen_bond_distance_aromatic_linkinvent_7_9_3/rearranged_h_0055.sdf

> <i_m_source_file_index>
9

> <r_mmod_Potential_Energy-OPLS-2005>
100.151885986328

> <r_mmod_Stretch_Energy-OPLS-2005>
56.3897857666016

> <r_mmod_Bend_Energy-OPLS-2005>
102.534729003906

> <r_mmod_Torsional_Energy-OPLS-2005>
291.7958984375

> <r_mmod_Improper_Torsional_Energy-OPLS-2005>
5.87644147872925

> <r_mmod_Van_der_Waal_Energy-OPLS-2005>
161.921417236328

> <r_mmod_Electrostatic_Energy-OPLS-2005>
-302.2373046875

> <r_mmod_Solvation_Energy-OPLS-2005>
-234.754684448242

> <b_mmod_Minimization_Converged-OPLS-2005>
0

> <r_mmod_RMS_Derivative-OPLS-2005>
5.25631761550903

$$$$
9
                    3D
 Structure written by MMmdl.
166174  0  0  1  0            999 V2000
  -30.6983  -14.4838   20.3232 C   0  0  0  0  0  0
  -30.4100  -12.2317   19.4165 C   0  0  0  0  0  0
  -29.4637  -12.4069   18.2038 C   0  0  0  0  0  0
  -27.9893  -12.3064   18.6248 C   0  0  0  0  0  0
  -27.6493  -13.1956   19.8489 C   0  0  2  0  0  0
  -28.7093  -13.0509   20.9649 C   0  0  0  0  0  0
  -25.2666  -13.8177   20.5869 C   0  0  0  0  0  0
  -24.1855  -13.0447   20.9187 C   0  0  0  0  0  0
  -24.6356  -11.6897   20.8737 C   0  0  0  0  0  0
  -23.9033  -10.4272   21.0386 C   0  0  0  0  0  0
  -24.3617   -9.4197   21.9177 C   0  0  0  0  0  0
  -23.6318   -8.2223   22.0752 C   0  0  0  0  0  0
  -22.4296   -8.0267   21.3545 C   0  0  0  0  0  0
  -21.9898   -9.0239   20.4670 C   0  0  0  0  0  0
  -22.7201  -10.2133   20.3075 C   0  0  0  0  0  0
  -21.6823   -6.0758   22.5299 C   0  0  0  0  0  0
  -21.3945   -6.5666   23.8216 C   0  0  0  0  0  0
  -21.3622   -5.6833   24.9190 C   0  0  0  0  0  0
  -21.6047   -4.3095   24.7237 C   0  0  0  0  0  0
  -21.8820   -3.8186   23.4357 C   0  0  0  0  0  0
  -21.9175   -4.6991   22.3416 C   0  0  0  0  0  0
  -22.7891  -13.5264   21.1748 C   0  0  0  0  0  0
  -22.1652   -4.2178   21.0992 F   0  0  0  0  0  0
  -21.5678   -3.4571   25.7742 F   0  0  0  0  0  0
  -30.0536  -13.2470   20.4094 N   0  0  0  0  0  0
  -26.3010  -12.9288   20.3407 N   0  0  0  0  0  0
  -25.9282  -11.6455   20.5795 N   0  0  0  0  0  0
  -22.0520  -12.8346   22.0346 N   0  0  0  0  0  0
  -25.4501  -15.1917   20.4637 N   0  0  0  0  0  0
  -31.9155  -14.6551   20.2643 O   0  0  0  0  0  0
  -21.6652   -6.8880   21.4256 O   0  0  0  0  0  0
  -22.3585  -14.5515   20.6444 O   0  0  0  0  0  0
  -24.6108  -31.8679   23.2153 C   0  0  0  0  0  0
  -25.9022  -32.4800   23.8438 C   0  0  1  0  0  0
  -27.2401  -27.4627   20.0877 C   0  0  0  0  0  0
  -25.5910  -33.8597   24.2358 N   0  0  0  0  0  0
  -23.3994  -30.4949   21.5490 C   0  0  2  0  0  0
  -24.8471  -28.9601   20.1167 C   0  0  0  0  0  0
  -22.7402  -29.4658   22.4946 C   0  0  0  0  0  0
  -18.0281  -28.1365   22.8522 C   0  0  0  0  0  0
  -24.1466  -36.7274   23.2656 C   0  0  0  0  0  0
  -25.9271  -30.8408   21.3680 C   0  0  0  0  0  0
  -26.0019  -29.4785   20.7106 C   0  0  0  0  0  0
  -27.2003  -28.7377   20.6886 C   0  0  0  0  0  0
  -26.0672  -26.9463   19.4942 C   0  0  0  0  0  0
  -24.8713  -27.6922   19.5084 C   0  0  0  0  0  0
  -23.6090  -29.8218   20.1641 C   0  0  0  0  0  0
  -25.4100  -36.3087   24.0350 C   0  0  1  0  0  0
  -20.5874  -28.3646   23.1303 C   0  0  2  0  0  0
  -20.6728  -26.9371   22.5432 C   0  0  0  0  0  0
  -19.5692  -26.6357   21.5243 C   0  0  0  0  0  0
  -18.1878  -26.7923   22.1639 C   0  0  0  0  0  0
  -19.1540  -28.8821   23.2912 C   0  0  0  0  0  0
  -18.9477  -30.1424   23.8905 C   0  0  0  0  0  0
  -17.6493  -30.6571   24.0575 C   0  0  0  0  0  0
  -25.9032  -34.9444   23.5142 C   0  0  0  0  0  0
  -16.5372  -29.9087   23.6350 C   0  0  0  0  0  0
  -16.7274  -28.6499   23.0371 C   0  0  0  0  0  0
  -26.4496  -31.6591   25.0751 C   0  0  0  0  0  0
  -25.3793  -31.3680   26.1521 C   0  0  0  0  0  0
  -27.0363  -30.3047   24.6112 C   0  0  0  0  0  0
  -27.6064  -32.4336   25.7482 C   0  0  0  0  0  0
  -27.5554  -37.1777   24.8474 C   0  0  0  0  0  0
  -21.4137  -29.3012   22.3683 N   0  0  0  0  0  0
  -26.4259  -37.3796   23.9442 N   0  0  0  0  0  0
  -24.6629  -31.0855   22.1000 N   0  0  0  0  0  0
  -23.4192  -28.8191   23.2974 O   0  0  0  0  0  0
  -28.4411  -26.7889   20.0688 O   0  0  0  0  0  0
  -26.5579  -34.8897   22.4693 O   0  0  0  0  0  0
  -23.5306  -32.1379   23.7562 O   0  0  0  0  0  0
  -30.6103  -17.9013   16.4701 C   0  0  0  0  0  0
  -29.7808  -18.3459   17.5111 C   0  0  0  0  0  0
  -31.2035  -16.6381   16.5612 C   0  0  0  0  0  0
  -29.5372  -17.5495   18.6607 C   0  0  0  0  0  0
  -30.1265  -16.2476   18.7604 C   0  0  0  0  0  0
  -30.9670  -15.8215   17.6771 C   0  0  0  0  0  0
  -28.5846  -18.0860   19.7021 C   0  0  0  0  0  0
  -28.5613  -21.4047   21.3211 C   0  0  0  0  0  0
  -25.6162  -19.5251   19.3747 C   0  0  0  0  0  0
  -26.4560  -20.6644   19.9756 C   0  0  0  0  0  0
  -27.9733  -25.0545   21.7191 C   0  0  0  0  0  0
  -28.4864  -23.7153   22.2862 C   0  0  0  0  0  0
  -28.4387  -25.3760   20.2854 C   0  0  0  0  0  0
  -27.7432  -20.2325   20.7313 C   0  0  1  0  0  0
  -28.6137  -19.4163   19.8767 N   0  0  0  0  0  0
  -27.9131  -22.5433   21.6196 N   0  0  0  0  0  0
  -27.8290  -17.3400   20.3257 O   0  0  0  0  0  0
  -29.7735  -21.2680   21.5173 O   0  0  0  0  0  0
  -29.8272  -15.4242   19.8518 O   0  0  0  0  0  0
  -31.5573  -14.6038   17.6488 F   0  0  0  0  0  0
  -31.4491  -12.3208   19.0936 H   0  0  0  0  0  0
  -30.3066  -11.2358   19.8516 H   0  0  0  0  0  0
  -29.6907  -11.6627   17.4377 H   0  0  0  0  0  0
  -29.6088  -13.3726   17.7251 H   0  0  0  0  0  0
  -27.7716  -11.2590   18.8473 H   0  0  0  0  0  0
  -27.3460  -12.5753   17.7858 H   0  0  0  0  0  0
  -27.6588  -14.2248   19.4952 H   0  0  0  0  0  0
  -28.6615  -12.0548   21.4066 H   0  0  0  0  0  0
  -28.5203  -13.7607   21.7738 H   0  0  0  0  0  0
  -25.2750   -9.5716   22.4755 H   0  0  0  0  0  0
  -24.0028   -7.4595   22.7447 H   0  0  0  0  0  0
  -21.0826   -8.8746   19.9008 H   0  0  0  0  0  0
  -22.3627  -10.9687   19.6219 H   0  0  0  0  0  0
  -21.1897   -7.6164   23.9728 H   0  0  0  0  0  0
  -21.1450   -6.0565   25.9091 H   0  0  0  0  0  0
  -22.0638   -2.7653   23.2842 H   0  0  0  0  0  0
  -22.4005  -11.9883   22.4603 H   0  0  0  0  0  0
  -21.1122  -13.1397   22.2480 H   0  0  0  0  0  0
  -24.7105  -15.8389   20.7128 H   0  0  0  0  0  0
  -26.3521  -15.6559   20.3715 H   0  0  0  0  0  0
  -26.7070  -32.5533   23.1178 H   0  0  0  0  0  0
  -25.0140  -33.9795   25.0545 H   0  0  0  0  0  0
  -22.6887  -31.3111   21.4008 H   0  0  0  0  0  0
  -23.3725  -35.9596   23.3344 H   0  0  0  0  0  0
  -24.3572  -36.8875   22.2066 H   0  0  0  0  0  0
  -23.7189  -37.6476   23.6649 H   0  0  0  0  0  0
  -26.0500  -31.6101   20.6054 H   0  0  0  0  0  0
  -26.8153  -30.8816   21.9897 H   0  0  0  0  0  0
  -28.0982  -29.1362   21.1391 H   0  0  0  0  0  0
  -26.0647  -25.9831   19.0063 H   0  0  0  0  0  0
  -23.9822  -27.2909   19.0458 H   0  0  0  0  0  0
  -23.7130  -30.5890   19.3956 H   0  0  0  0  0  0
  -22.7381  -29.2341   19.8725 H   0  0  0  0  0  0
  -25.1239  -36.1959   25.0835 H   0  0  0  0  0  0
  -21.0001  -28.3194   24.1404 H   0  0  0  0  0  0
  -20.5645  -26.2227   23.3612 H   0  0  0  0  0  0
  -21.6567  -26.7372   22.1190 H   0  0  0  0  0  0
  -19.6841  -25.6292   21.1199 H   0  0  0  0  0  0
  -19.6618  -27.3200   20.6806 H   0  0  0  0  0  0
  -17.4156  -26.6747   21.4023 H   0  0  0  0  0  0
  -18.0220  -26.0045   22.8993 H   0  0  0  0  0  0
  -19.7971  -30.7245   24.2207 H   0  0  0  0  0  0
  -17.5065  -31.6256   24.5152 H   0  0  0  0  0  0
  -15.5374  -30.2996   23.7658 H   0  0  0  0  0  0
  -15.8677  -28.0832   22.7069 H   0  0  0  0  0  0
  -24.5949  -30.7033   25.7898 H   0  0  0  0  0  0
  -24.8996  -32.2820   26.5022 H   0  0  0  0  0  0
  -25.8184  -30.8837   27.0250 H   0  0  0  0  0  0
  -26.2924  -29.6783   24.1157 H   0  0  0  0  0  0
  -27.4178  -29.7302   25.4576 H   0  0  0  0  0  0
  -27.8735  -30.4425   23.9244 H   0  0  0  0  0  0
  -27.2691  -33.3649   26.2053 H   0  0  0  0  0  0
  -28.3867  -32.6911   25.0292 H   0  0  0  0  0  0
  -28.0734  -31.8462   26.5408 H   0  0  0  0  0  0
  -28.2539  -38.0107   24.7564 H   0  0  0  0  0  0
  -28.1062  -36.2626   24.6205 H   0  0  0  0  0  0
  -27.2283  -37.1338   25.8883 H   0  0  0  0  0  0
  -20.9256  -29.8803   21.6988 H   0  0  0  0  0  0
  -26.0125  -38.2840   24.1535 H   0  0  0  0  0  0
  -30.7838  -18.5118   15.5964 H   0  0  0  0  0  0
  -29.3087  -19.3120   17.3980 H   0  0  0  0  0  0
  -31.8378  -16.2784   15.7633 H   0  0  0  0  0  0
  -24.7229  -19.9217   18.8913 H   0  0  0  0  0  0
  -25.2939  -18.8158   20.1367 H   0  0  0  0  0  0
  -26.1669  -18.9669   18.6179 H   0  0  0  0  0  0
  -25.8039  -21.2075   20.6642 H   0  0  0  0  0  0
  -26.7184  -21.3731   19.1895 H   0  0  0  0  0  0
  -28.3464  -25.8457   22.3697 H   0  0  0  0  0  0
  -26.8865  -25.1150   21.7877 H   0  0  0  0  0  0
  -28.2114  -23.6626   23.3408 H   0  0  0  0  0  0
  -29.5798  -23.7023   22.2579 H   0  0  0  0  0  0
  -27.8552  -24.8393   19.5380 H   0  0  0  0  0  0
  -29.4754  -25.0571   20.1637 H   0  0  0  0  0  0
  -27.4442  -19.6271   21.5874 H   0  0  0  0  0  0
  -29.3326  -19.9282   19.3841 H   0  0  0  0  0  0
  -26.9213  -22.5665   21.4282 H   0  0  0  0  0  0
  1 25  1  0  0  0
  1 30  2  0  0  0
  1 89  1  0  0  0
  2  3  1  0  0  0
  2 25  1  0  0  0
  2 91  1  0  0  0
  2 92  1  0  0  0
  3  4  1  0  0  0
  3 93  1  0  0  0
  3 94  1  0  0  0
  4  5  1  0  0  0
  4 95  1  0  0  0
  4 96  1  0  0  0
  5  6  1  0  0  0
  5 26  1  0  0  0
  5 97  1  0  0  0
  6 25  1  0  0  0
  6 98  1  0  0  0
  6 99  1  0  0  0
  7  8  2  0  0  0
  7 26  1  0  0  0
  7 29  1  0  0  0
  8  9  1  0  0  0
  8 22  1  0  0  0
  9 10  1  0  0  0
  9 27  2  0  0  0
 10 11  2  0  0  0
 10 15  1  0  0  0
 11 12  1  0  0  0
 11100  1  0  0  0
 12 13  2  0  0  0
 12101  1  0  0  0
 13 14  1  0  0  0
 13 31  1  0  0  0
 14 15  2  0  0  0
 14102  1  0  0  0
 15103  1  0  0  0
 16 17  2  0  0  0
 16 21  1  0  0  0
 16 31  1  0  0  0
 17 18  1  0  0  0
 17104  1  0  0  0
 18 19  2  0  0  0
 18105  1  0  0  0
 19 20  1  0  0  0
 19 24  1  0  0  0
 20 21  2  0  0  0
 20106  1  0  0  0
 21 23  1  0  0  0
 22 28  1  0  0  0
 22 32  2  0  0  0
 26 27  1  0  0  0
 28107  1  0  0  0
 28108  1  0  0  0
 29109  1  0  0  0
 29110  1  0  0  0
 33 34  1  0  0  0
 33 66  1  0  0  0
 33 70  2  0  0  0
 34 36  1  0  0  0
 34 59  1  0  0  0
 34111  1  0  0  0
 35 44  2  0  0  0
 35 45  1  0  0  0
 35 68  1  0  0  0
 36 56  1  0  0  0
 36112  1  0  0  0
 37 39  1  0  0  0
 37 47  1  0  0  0
 37 66  1  0  0  0
 37113  1  0  0  0
 38 43  2  0  0  0
 38 46  1  0  0  0
 38 47  1  0  0  0
 39 64  1  0  0  0
 39 67  2  0  0  0
 40 52  1  0  0  0
 40 53  2  0  0  0
 40 58  1  0  0  0
 41114  1  0  0  0
 41115  1  0  0  0
 41116  1  0  0  0
 41 48  1  0  0  0
 42 43  1  0  0  0
 42 66  1  0  0  0
 42117  1  0  0  0
 42118  1  0  0  0
 43 44  1  0  0  0
 44119  1  0  0  0
 45 46  2  0  0  0
 45120  1  0  0  0
 46121  1  0  0  0
 47122  1  0  0  0
 47123  1  0  0  0
 48 56  1  0  0  0
 48 65  1  0  0  0
 48124  1  0  0  0
 49 50  1  0  0  0
 49 53  1  0  0  0
 49 64  1  0  0  0
 49125  1  0  0  0
 50 51  1  0  0  0
 50126  1  0  0  0
 50127  1  0  0  0
 51 52  1  0  0  0
 51128  1  0  0  0
 51129  1  0  0  0
 52130  1  0  0  0
 52131  1  0  0  0
 53 54  1  0  0  0
 54 55  2  0  0  0
 54132  1  0  0  0
 55 57  1  0  0  0
 55133  1  0  0  0
 56 69  2  0  0  0
 57 58  2  0  0  0
 57134  1  0  0  0
 58135  1  0  0  0
 59 60  1  0  0  0
 59 61  1  0  0  0
 59 62  1  0  0  0
 60136  1  0  0  0
 60137  1  0  0  0
 60138  1  0  0  0
 61139  1  0  0  0
 61140  1  0  0  0
 61141  1  0  0  0
 62142  1  0  0  0
 62143  1  0  0  0
 62144  1  0  0  0
 63 65  1  0  0  0
 63145  1  0  0  0
 63146  1  0  0  0
 63147  1  0  0  0
 64148  1  0  0  0
 65149  1  0  0  0
 68 83  1  0  0  0
 71 72  2  0  0  0
 71 73  1  0  0  0
 71150  1  0  0  0
 72 74  1  0  0  0
 72151  1  0  0  0
 73 76  2  0  0  0
 73152  1  0  0  0
 74 75  2  0  0  0
 74 77  1  0  0  0
 75 76  1  0  0  0
 75 89  1  0  0  0
 76 90  1  0  0  0
 77 85  1  0  0  0
 77 87  2  0  0  0
 78 84  1  0  0  0
 78 86  1  0  0  0
 78 88  2  0  0  0
 79 80  1  0  0  0
 79153  1  0  0  0
 79154  1  0  0  0
 79155  1  0  0  0
 80156  1  0  0  0
 80157  1  0  0  0
 80 84  1  0  0  0
 81 82  1  0  0  0
 81 83  1  0  0  0
 81158  1  0  0  0
 81159  1  0  0  0
 82 86  1  0  0  0
 82160  1  0  0  0
 82161  1  0  0  0
 83162  1  0  0  0
 83163  1  0  0  0
 84 85  1  0  0  0
 84164  1  0  0  0
 85165  1  0  0  0
 86166  1  0  0  0
M  ISO  4   1 100  68 101  83 101  89 100
M  END
> <chiral flag>
0

> <version>
0

> <s_m_source_file>
/data/baiqing/PycharmProjects/Reinvent-master-3.2/result/LINK_invent/BTK/process_docking_weight1_custom_product_contain_oxygen_bond_distance_aromatic_linkinvent_7_9_3/rearranged_h_0055.sdf

> <i_m_source_file_index>
10

> <r_mmod_Potential_Energy-OPLS-2005>
-97.8467483520508

> <r_mmod_Stretch_Energy-OPLS-2005>
40.7893753051758

> <r_mmod_Bend_Energy-OPLS-2005>
104.942855834961

> <r_mmod_Torsional_Energy-OPLS-2005>
254.719314575195

> <r_mmod_Improper_Torsional_Energy-OPLS-2005>
14.2405948638916

> <r_mmod_Van_der_Waal_Energy-OPLS-2005>
161.98779296875

> <r_mmod_Electrostatic_Energy-OPLS-2005>
-478.278930664062

> <r_mmod_Solvation_Energy-OPLS-2005>
-227.699020385742

> <b_mmod_Minimization_Converged-OPLS-2005>
0

> <r_mmod_RMS_Derivative-OPLS-2005>
5.45480012893677

$$$$
10
                    3D
 Structure written by MMmdl.
168176  0  0  1  0            999 V2000
  -30.7570  -14.4148   20.6129 C   0  0  0  0  0  0
  -30.4158  -12.2772   19.4296 C   0  0  0  0  0  0
  -29.4972  -12.5150   18.2134 C   0  0  0  0  0  0
  -28.0194  -12.3660   18.6253 C   0  0  0  0  0  0
  -27.6733  -13.1952   19.8907 C   0  0  2  0  0  0
  -28.7153  -12.9682   21.0158 C   0  0  0  0  0  0
  -25.2689  -13.8162   20.5846 C   0  0  0  0  0  0
  -24.1878  -13.0434   20.9232 C   0  0  0  0  0  0
  -24.6414  -11.6905   20.8760 C   0  0  0  0  0  0
  -23.9082  -10.4286   21.0404 C   0  0  0  0  0  0
  -24.3636   -9.4193   21.9196 C   0  0  0  0  0  0
  -23.6286   -8.2246   22.0757 C   0  0  0  0  0  0
  -22.4275   -8.0285   21.3535 C   0  0  0  0  0  0
  -21.9911   -9.0277   20.4655 C   0  0  0  0  0  0
  -22.7243  -10.2155   20.3040 C   0  0  0  0  0  0
  -21.6860   -6.0736   22.5291 C   0  0  0  0  0  0
  -21.4018   -6.5648   23.8209 C   0  0  0  0  0  0
  -21.3666   -5.6802   24.9188 C   0  0  0  0  0  0
  -21.6035   -4.3058   24.7246 C   0  0  0  0  0  0
  -21.8816   -3.8157   23.4359 C   0  0  0  0  0  0
  -21.9178   -4.6970   22.3413 C   0  0  0  0  0  0
  -22.7905  -13.5226   21.1871 C   0  0  0  0  0  0
  -22.1653   -4.2150   21.0982 F   0  0  0  0  0  0
  -21.5607   -3.4531   25.7764 F   0  0  0  0  0  0
  -30.0619  -13.2503   20.4757 N   0  0  0  0  0  0
  -26.3088  -12.9296   20.3473 N   0  0  0  0  0  0
  -25.9341  -11.6463   20.5828 N   0  0  0  0  0  0
  -22.0488  -12.8200   22.0379 N   0  0  0  0  0  0
  -25.4489  -15.1890   20.4504 N   0  0  0  0  0  0
  -31.7979  -14.6402   19.9980 O   0  0  0  0  0  0
  -21.6613   -6.8892   21.4254 O   0  0  0  0  0  0
  -22.3605  -14.5545   20.6745 O   0  0  0  0  0  0
  -24.6106  -31.8709   23.2128 C   0  0  0  0  0  0
  -25.9008  -32.4845   23.8424 C   0  0  1  0  0  0
  -27.2520  -27.4564   20.1041 C   0  0  0  0  0  0
  -25.5890  -33.8639   24.2373 N   0  0  0  0  0  0
  -23.4005  -30.4897   21.5528 C   0  0  2  0  0  0
  -24.8556  -28.9572   20.1203 C   0  0  0  0  0  0
  -22.7405  -29.4660   22.5037 C   0  0  0  0  0  0
  -18.0270  -28.1373   22.8492 C   0  0  0  0  0  0
  -24.1498  -36.7316   23.2642 C   0  0  0  0  0  0
  -25.9258  -30.8422   21.3659 C   0  0  0  0  0  0
  -26.0093  -29.4722   20.7263 C   0  0  0  0  0  0
  -27.2093  -28.7257   20.7285 C   0  0  0  0  0  0
  -26.0872  -26.9596   19.4844 C   0  0  0  0  0  0
  -24.8867  -27.6964   19.4992 C   0  0  0  0  0  0
  -23.6120  -29.8166   20.1688 C   0  0  0  0  0  0
  -25.4117  -36.3129   24.0354 C   0  0  1  0  0  0
  -20.5861  -28.3666   23.1342 C   0  0  2  0  0  0
  -20.6765  -26.9405   22.5433 C   0  0  0  0  0  0
  -19.5742  -26.6378   21.5218 C   0  0  0  0  0  0
  -18.1910  -26.7923   22.1605 C   0  0  0  0  0  0
  -19.1516  -28.8836   23.2906 C   0  0  0  0  0  0
  -18.9442  -30.1447   23.8906 C   0  0  0  0  0  0
  -17.6442  -30.6582   24.0560 C   0  0  0  0  0  0
  -25.9026  -34.9485   23.5159 C   0  0  0  0  0  0
  -16.5339  -29.9082   23.6329 C   0  0  0  0  0  0
  -16.7254  -28.6502   23.0347 C   0  0  0  0  0  0
  -26.4454  -31.6592   25.0715 C   0  0  0  0  0  0
  -25.3730  -31.3642   26.1468 C   0  0  0  0  0  0
  -27.0290  -30.3052   24.6039 C   0  0  0  0  0  0
  -27.6063  -32.4279   25.7465 C   0  0  0  0  0  0
  -27.5602  -37.1807   24.8471 C   0  0  0  0  0  0
  -21.4140  -29.3026   22.3755 N   0  0  0  0  0  0
  -26.4314  -37.3806   23.9411 N   0  0  0  0  0  0
  -24.6629  -31.0821   22.1022 N   0  0  0  0  0  0
  -23.4176  -28.8218   23.3080 O   0  0  0  0  0  0
  -28.3886  -26.6824   20.0371 O   0  0  0  0  0  0
  -26.5579  -34.8928   22.4714 O   0  0  0  0  0  0
  -23.5294  -32.1471   23.7517 O   0  0  0  0  0  0
  -33.1654  -18.6748   20.0892 C   0  0  0  0  0  0
  -33.1481  -19.7984   20.9261 C   0  0  0  0  0  0
  -32.1805  -17.6860   20.2279 C   0  0  0  0  0  0
  -32.1611  -19.9346   21.9238 C   0  0  0  0  0  0
  -31.1925  -17.7635   21.2343 C   0  0  0  0  0  0
  -31.2064  -18.8903   22.1160 C   0  0  0  0  0  0
  -28.7911  -19.4297   19.1570 C   0  0  0  0  0  0
  -30.1081  -24.1980   21.7411 C   0  0  0  0  0  0
  -28.4768  -18.3721   19.9220 C   0  0  0  0  0  0
  -30.1323  -25.3846   21.0936 C   0  0  0  0  0  0
  -31.1906  -23.2361   21.5610 C   0  0  0  0  0  0
  -30.1758  -18.9835   23.2381 C   0  0  0  0  0  0
  -32.1582  -21.2425   22.7225 C   0  0  0  0  0  0
  -29.1936  -17.0379   19.8839 C   0  0  0  0  0  0
  -29.1175  -26.5055   21.2475 C   0  0  0  0  0  0
  -29.9942  -16.7812   21.1782 C   0  0  1  0  0  0
  -31.0776  -22.1685   22.3682 N   0  0  0  0  0  0
  -30.1824  -15.3336   21.4015 N   0  0  0  0  0  0
  -32.1609  -23.3989   20.8174 O   0  0  0  0  0  0
  -31.4644  -12.3471   19.1361 H   0  0  0  0  0  0
  -30.2807  -11.2648   19.8115 H   0  0  0  0  0  0
  -29.7364  -11.8132   17.4129 H   0  0  0  0  0  0
  -29.6736  -13.5134   17.8097 H   0  0  0  0  0  0
  -27.8223  -11.3077   18.8061 H   0  0  0  0  0  0
  -27.3722  -12.6588   17.7993 H   0  0  0  0  0  0
  -27.7233  -14.2399   19.6002 H   0  0  0  0  0  0
  -28.6841  -11.9289   21.3509 H   0  0  0  0  0  0
  -28.4718  -13.5665   21.8968 H   0  0  0  0  0  0
  -25.2791   -9.5635   22.4776 H   0  0  0  0  0  0
  -23.9969   -7.4636   22.7506 H   0  0  0  0  0  0
  -21.0809   -8.8781   19.9021 H   0  0  0  0  0  0
  -22.3684  -10.9683   19.6128 H   0  0  0  0  0  0
  -21.2020   -7.6166   23.9685 H   0  0  0  0  0  0
  -21.1499   -6.0560   25.9063 H   0  0  0  0  0  0
  -22.0588   -2.7610   23.2872 H   0  0  0  0  0  0
  -22.3979  -11.9837   22.4813 H   0  0  0  0  0  0
  -21.1111  -13.1290   22.2549 H   0  0  0  0  0  0
  -24.7370  -15.8655   20.7012 H   0  0  0  0  0  0
  -26.3367  -15.6173   20.2263 H   0  0  0  0  0  0
  -26.7089  -32.5594   23.1209 H   0  0  0  0  0  0
  -25.0084  -33.9835   25.0547 H   0  0  0  0  0  0
  -22.6857  -31.3036   21.4105 H   0  0  0  0  0  0
  -23.3767  -35.9639   23.3297 H   0  0  0  0  0  0
  -24.3607  -36.8924   22.2056 H   0  0  0  0  0  0
  -23.7227  -37.6515   23.6641 H   0  0  0  0  0  0
  -26.0304  -31.6029   20.5919 H   0  0  0  0  0  0
  -26.8161  -30.9058   21.9790 H   0  0  0  0  0  0
  -28.0980  -29.1371   21.1873 H   0  0  0  0  0  0
  -26.1151  -25.9953   18.9961 H   0  0  0  0  0  0
  -24.0049  -27.2945   19.0205 H   0  0  0  0  0  0
  -23.7143  -30.5903   19.4065 H   0  0  0  0  0  0
  -22.7391  -29.2290   19.8768 H   0  0  0  0  0  0
  -25.1284  -36.2014   25.0845 H   0  0  0  0  0  0
  -20.9928  -28.3206   24.1468 H   0  0  0  0  0  0
  -20.5688  -26.2252   23.3604 H   0  0  0  0  0  0
  -21.6635  -26.7453   22.1214 H   0  0  0  0  0  0
  -19.6905  -25.6287   21.1237 H   0  0  0  0  0  0
  -19.6690  -27.3199   20.6757 H   0  0  0  0  0  0
  -17.4197  -26.6713   21.3984 H   0  0  0  0  0  0
  -18.0271  -26.0054   22.8987 H   0  0  0  0  0  0
  -19.7919  -30.7267   24.2266 H   0  0  0  0  0  0
  -17.4999  -31.6268   24.5150 H   0  0  0  0  0  0
  -15.5343  -30.2982   23.7646 H   0  0  0  0  0  0
  -15.8659  -28.0826   22.7042 H   0  0  0  0  0  0
  -24.5993  -30.6881   25.7800 H   0  0  0  0  0  0
  -24.8806  -32.2756   26.4873 H   0  0  0  0  0  0
  -25.8127  -30.8878   27.0247 H   0  0  0  0  0  0
  -26.2815  -29.6799   24.1144 H   0  0  0  0  0  0
  -27.4149  -29.7290   25.4461 H   0  0  0  0  0  0
  -27.8608  -30.4404   23.9124 H   0  0  0  0  0  0
  -27.2742  -33.3604   26.2049 H   0  0  0  0  0  0
  -28.3872  -32.6784   25.0264 H   0  0  0  0  0  0
  -28.0727  -31.8368   26.5367 H   0  0  0  0  0  0
  -28.2610  -38.0115   24.7549 H   0  0  0  0  0  0
  -28.1111  -36.2648   24.6264 H   0  0  0  0  0  0
  -27.2322  -37.1421   25.8876 H   0  0  0  0  0  0
  -20.9291  -29.8764   21.7008 H   0  0  0  0  0  0
  -26.0211  -38.2889   24.1407 H   0  0  0  0  0  0
  -33.9003  -18.5982   19.3002 H   0  0  0  0  0  0
  -33.8854  -20.5780   20.7808 H   0  0  0  0  0  0
  -32.1548  -16.9010   19.4926 H   0  0  0  0  0  0
  -28.2376  -20.3540   19.2342 H   0  0  0  0  0  0
  -29.6054  -19.3947   18.4460 H   0  0  0  0  0  0
  -29.2936  -23.9711   22.4166 H   0  0  0  0  0  0
  -27.6645  -18.4466   20.6337 H   0  0  0  0  0  0
  -30.9378  -25.6021   20.4028 H   0  0  0  0  0  0
  -30.3433  -19.7993   23.9350 H   0  0  0  0  0  0
  -30.1923  -18.0620   23.8255 H   0  0  0  0  0  0
  -29.1743  -19.1111   22.8261 H   0  0  0  0  0  0
  -33.1196  -21.7457   22.6129 H   0  0  0  0  0  0
  -32.1018  -21.0205   23.7866 H   0  0  0  0  0  0
  -29.8491  -16.9846   19.0127 H   0  0  0  0  0  0
  -28.4335  -16.2751   19.7409 H   0  0  0  0  0  0
  -29.6607  -27.4183   21.4923 H   0  0  0  0  0  0
  -28.4467  -26.2885   22.0809 H   0  0  0  0  0  0
  -29.3130  -17.0143   21.9917 H   0  0  0  0  0  0
  -30.2241  -22.0728   22.9005 H   0  0  0  0  0  0
  -29.4683  -14.9273   21.9880 H   0  0  0  0  0  0
  1 25  1  0  0  0
  1 30  2  0  0  0
  1 88  1  0  0  0
  2  3  1  0  0  0
  2 25  1  0  0  0
  2 90  1  0  0  0
  2 91  1  0  0  0
  3  4  1  0  0  0
  3 92  1  0  0  0
  3 93  1  0  0  0
  4  5  1  0  0  0
  4 94  1  0  0  0
  4 95  1  0  0  0
  5  6  1  0  0  0
  5 26  1  0  0  0
  5 96  1  0  0  0
  6 25  1  0  0  0
  6 97  1  0  0  0
  6 98  1  0  0  0
  7  8  2  0  0  0
  7 26  1  0  0  0
  7 29  1  0  0  0
  8  9  1  0  0  0
  8 22  1  0  0  0
  9 10  1  0  0  0
  9 27  2  0  0  0
 10 11  2  0  0  0
 10 15  1  0  0  0
 11 12  1  0  0  0
 11 99  1  0  0  0
 12 13  2  0  0  0
 12100  1  0  0  0
 13 14  1  0  0  0
 13 31  1  0  0  0
 14 15  2  0  0  0
 14101  1  0  0  0
 15102  1  0  0  0
 16 17  2  0  0  0
 16 21  1  0  0  0
 16 31  1  0  0  0
 17 18  1  0  0  0
 17103  1  0  0  0
 18 19  2  0  0  0
 18104  1  0  0  0
 19 20  1  0  0  0
 19 24  1  0  0  0
 20 21  2  0  0  0
 20105  1  0  0  0
 21 23  1  0  0  0
 22 28  1  0  0  0
 22 32  2  0  0  0
 26 27  1  0  0  0
 28106  1  0  0  0
 28107  1  0  0  0
 29108  1  0  0  0
 29109  1  0  0  0
 33 34  1  0  0  0
 33 66  1  0  0  0
 33 70  2  0  0  0
 34 36  1  0  0  0
 34 59  1  0  0  0
 34110  1  0  0  0
 35 44  2  0  0  0
 35 45  1  0  0  0
 35 68  1  0  0  0
 36 56  1  0  0  0
 36111  1  0  0  0
 37 39  1  0  0  0
 37 47  1  0  0  0
 37 66  1  0  0  0
 37112  1  0  0  0
 38 43  2  0  0  0
 38 46  1  0  0  0
 38 47  1  0  0  0
 39 64  1  0  0  0
 39 67  2  0  0  0
 40 52  1  0  0  0
 40 53  2  0  0  0
 40 58  1  0  0  0
 41113  1  0  0  0
 41114  1  0  0  0
 41115  1  0  0  0
 41 48  1  0  0  0
 42 43  1  0  0  0
 42 66  1  0  0  0
 42116  1  0  0  0
 42117  1  0  0  0
 43 44  1  0  0  0
 44118  1  0  0  0
 45 46  2  0  0  0
 45119  1  0  0  0
 46120  1  0  0  0
 47121  1  0  0  0
 47122  1  0  0  0
 48 56  1  0  0  0
 48 65  1  0  0  0
 48123  1  0  0  0
 49 50  1  0  0  0
 49 53  1  0  0  0
 49 64  1  0  0  0
 49124  1  0  0  0
 50 51  1  0  0  0
 50125  1  0  0  0
 50126  1  0  0  0
 51 52  1  0  0  0
 51127  1  0  0  0
 51128  1  0  0  0
 52129  1  0  0  0
 52130  1  0  0  0
 53 54  1  0  0  0
 54 55  2  0  0  0
 54131  1  0  0  0
 55 57  1  0  0  0
 55132  1  0  0  0
 56 69  2  0  0  0
 57 58  2  0  0  0
 57133  1  0  0  0
 58134  1  0  0  0
 59 60  1  0  0  0
 59 61  1  0  0  0
 59 62  1  0  0  0
 60135  1  0  0  0
 60136  1  0  0  0
 60137  1  0  0  0
 61138  1  0  0  0
 61139  1  0  0  0
 61140  1  0  0  0
 62141  1  0  0  0
 62142  1  0  0  0
 62143  1  0  0  0
 63 65  1  0  0  0
 63144  1  0  0  0
 63145  1  0  0  0
 63146  1  0  0  0
 64147  1  0  0  0
 65148  1  0  0  0
 68 85  1  0  0  0
 71 72  2  0  0  0
 71 73  1  0  0  0
 71149  1  0  0  0
 72 74  1  0  0  0
 72150  1  0  0  0
 73 75  2  0  0  0
 73151  1  0  0  0
 74 76  2  0  0  0
 74 83  1  0  0  0
 75 76  1  0  0  0
 75 86  1  0  0  0
 76 82  1  0  0  0
 77 79  2  0  0  0
 77152  1  0  0  0
 77153  1  0  0  0
 78 80  2  0  0  0
 78 81  1  0  0  0
 78154  1  0  0  0
 79 84  1  0  0  0
 79155  1  0  0  0
 80 85  1  0  0  0
 80156  1  0  0  0
 81 87  1  0  0  0
 81 89  2  0  0  0
 82157  1  0  0  0
 82158  1  0  0  0
 82159  1  0  0  0
 83 87  1  0  0  0
 83160  1  0  0  0
 83161  1  0  0  0
 84162  1  0  0  0
 84163  1  0  0  0
 84 86  1  0  0  0
 85164  1  0  0  0
 85165  1  0  0  0
 86 88  1  0  0  0
 86166  1  0  0  0
 87167  1  0  0  0
 88168  1  0  0  0
M  ISO  4   1 100  68 101  85 101  88 100
M  END
> <chiral flag>
0

> <version>
0

> <s_m_source_file>
/data/baiqing/PycharmProjects/Reinvent-master-3.2/result/LINK_invent/BTK/process_docking_weight1_custom_product_contain_oxygen_bond_distance_aromatic_linkinvent_7_9_3/rearranged_h_0055.sdf

> <i_m_source_file_index>
11

> <r_mmod_Potential_Energy-OPLS-2005>
-168.841522216797

> <r_mmod_Stretch_Energy-OPLS-2005>
40.7627143859863

> <r_mmod_Bend_Energy-OPLS-2005>
112.308860778809

> <r_mmod_Torsional_Energy-OPLS-2005>
230.334869384766

> <r_mmod_Improper_Torsional_Energy-OPLS-2005>
6.90312814712524

> <r_mmod_Van_der_Waal_Energy-OPLS-2005>
153.325439453125

> <r_mmod_Electrostatic_Energy-OPLS-2005>
-473.043304443359

> <r_mmod_Solvation_Energy-OPLS-2005>
-247.775253295898

> <b_mmod_Minimization_Converged-OPLS-2005>
0

> <r_mmod_RMS_Derivative-OPLS-2005>
4.82161808013916

$$$$
11
                    3D
 Structure written by MMmdl.
175184  0  0  1  0            999 V2000
  -30.7191  -14.4390   20.7743 C   0  0  0  0  0  0
  -30.4268  -12.3817   19.4050 C   0  0  0  0  0  0
  -29.4742  -12.5705   18.1990 C   0  0  0  0  0  0
  -27.9978  -12.3931   18.6046 C   0  0  0  0  0  0
  -27.6540  -13.1924   19.8816 C   0  0  2  0  0  0
  -28.6815  -12.8492   20.9730 C   0  0  0  0  0  0
  -25.2567  -13.8094   20.5656 C   0  0  0  0  0  0
  -24.1803  -13.0397   20.9210 C   0  0  0  0  0  0
  -24.6341  -11.6838   20.8743 C   0  0  0  0  0  0
  -23.9003  -10.4239   21.0423 C   0  0  0  0  0  0
  -24.3589   -9.4182   21.9198 C   0  0  0  0  0  0
  -23.6298   -8.2198   22.0760 C   0  0  0  0  0  0
  -22.4281   -8.0225   21.3545 C   0  0  0  0  0  0
  -21.9884   -9.0183   20.4648 C   0  0  0  0  0  0
  -22.7189  -10.2084   20.3077 C   0  0  0  0  0  0
  -21.6846   -6.0712   22.5269 C   0  0  0  0  0  0
  -21.3991   -6.5637   23.8196 C   0  0  0  0  0  0
  -21.3670   -5.6810   24.9169 C   0  0  0  0  0  0
  -21.6077   -4.3071   24.7232 C   0  0  0  0  0  0
  -21.8832   -3.8157   23.4353 C   0  0  0  0  0  0
  -21.9214   -4.6950   22.3410 C   0  0  0  0  0  0
  -22.7877  -13.5173   21.1928 C   0  0  0  0  0  0
  -22.1651   -4.2141   21.0979 F   0  0  0  0  0  0
  -21.5672   -3.4555   25.7743 F   0  0  0  0  0  0
  -30.0160  -13.2829   20.5151 N   0  0  0  0  0  0
  -26.2942  -12.9236   20.3338 N   0  0  0  0  0  0
  -25.9258  -11.6394   20.5707 N   0  0  0  0  0  0
  -22.0573  -12.8134   22.0487 N   0  0  0  0  0  0
  -25.4346  -15.1799   20.4005 N   0  0  0  0  0  0
  -31.7243  -14.6867   20.0928 O   0  0  0  0  0  0
  -21.6666   -6.8822   21.4211 O   0  0  0  0  0  0
  -22.3514  -14.5461   20.6782 O   0  0  0  0  0  0
  -24.6128  -31.8711   23.2127 C   0  0  0  0  0  0
  -25.9013  -32.4824   23.8440 C   0  0  1  0  0  0
  -27.2176  -27.4635   20.0774 C   0  0  0  0  0  0
  -25.5876  -33.8631   24.2343 N   0  0  0  0  0  0
  -23.3972  -30.5016   21.5508 C   0  0  2  0  0  0
  -24.8372  -28.9766   20.1155 C   0  0  0  0  0  0
  -22.7364  -29.4725   22.4985 C   0  0  0  0  0  0
  -18.0304  -28.1322   22.8584 C   0  0  0  0  0  0
  -24.1485  -36.7349   23.2643 C   0  0  0  0  0  0
  -25.9278  -30.8508   21.3577 C   0  0  0  0  0  0
  -26.0044  -29.4935   20.6942 C   0  0  0  0  0  0
  -27.2027  -28.7502   20.6561 C   0  0  0  0  0  0
  -26.0279  -26.9553   19.5086 C   0  0  0  0  0  0
  -24.8414  -27.7062   19.5180 C   0  0  0  0  0  0
  -23.6011  -29.8425   20.1637 C   0  0  0  0  0  0
  -25.4105  -36.3117   24.0336 C   0  0  1  0  0  0
  -20.5870  -28.3646   23.1338 C   0  0  2  0  0  0
  -20.6783  -26.9386   22.5421 C   0  0  0  0  0  0
  -19.5764  -26.6420   21.5215 C   0  0  0  0  0  0
  -18.1959  -26.7914   22.1668 C   0  0  0  0  0  0
  -19.1542  -28.8819   23.2984 C   0  0  0  0  0  0
  -18.9438  -30.1406   23.8975 C   0  0  0  0  0  0
  -17.6432  -30.6599   24.0532 C   0  0  0  0  0  0
  -25.9035  -34.9473   23.5152 C   0  0  0  0  0  0
  -16.5354  -29.9055   23.6284 C   0  0  0  0  0  0
  -16.7296  -28.6431   23.0431 C   0  0  0  0  0  0
  -26.4462  -31.6604   25.0768 C   0  0  0  0  0  0
  -25.3734  -31.3688   26.1531 C   0  0  0  0  0  0
  -27.0315  -30.3056   24.6107 C   0  0  0  0  0  0
  -27.6055  -32.4337   25.7510 C   0  0  0  0  0  0
  -27.5582  -37.1831   24.8460 C   0  0  0  0  0  0
  -21.4101  -29.3066   22.3747 N   0  0  0  0  0  0
  -26.4287  -37.3791   23.9406 N   0  0  0  0  0  0
  -24.6643  -31.0880   22.0977 N   0  0  0  0  0  0
  -23.4149  -28.8237   23.2995 O   0  0  0  0  0  0
  -28.3837  -26.7299   20.0788 O   0  0  0  0  0  0
  -26.5626  -34.8921   22.4730 O   0  0  0  0  0  0
  -23.5328  -32.1442   23.7552 O   0  0  0  0  0  0
  -27.7530  -19.4083   24.2728 C   0  0  0  0  0  0
  -26.8337  -20.4645   24.1839 C   0  0  0  0  0  0
  -28.1312  -19.5248   21.8927 C   0  0  0  0  0  0
  -27.2180  -20.6034   21.7843 C   0  0  0  0  0  0
  -28.4398  -18.9197   23.1368 C   0  0  0  0  0  0
  -26.5606  -21.0824   22.9510 C   0  0  0  0  0  0
  -29.1017  -16.4309   23.7428 C   0  0  0  0  0  0
  -28.6326  -16.4713   27.4360 C   0  0  0  0  0  0
  -28.8512  -16.0796   25.0252 C   0  0  0  0  0  0
  -28.9797  -16.9044   26.2136 C   0  0  0  0  0  0
  -26.9722  -21.2019   20.4248 C   0  0  0  0  0  0
  -29.1748  -15.3147   22.6789 C   0  0  0  0  0  0
  -30.5664  -17.7325   22.1449 C   0  0  0  0  0  0
  -31.3147  -16.3872   22.1904 C   0  0  0  0  0  0
  -29.5420  -17.8376   23.2977 C   0  0  1  0  0  0
  -25.5498  -22.2224   22.9569 C   0  0  0  0  0  0
  -28.1666  -24.4848   19.0316 C   0  0  0  0  0  0
  -27.1683  -23.3036   19.0900 C   0  0  0  0  0  0
  -28.2294  -25.3282   20.3240 C   0  0  0  0  0  0
  -30.3943  -15.2817   21.8242 N   0  0  0  0  0  0
  -27.3508  -22.4791   20.2865 N   0  0  0  0  0  0
  -26.4662  -20.5334   19.5234 O   0  0  0  0  0  0
  -31.4522  -12.5517   19.0689 H   0  0  0  0  0  0
  -30.4130  -11.3484   19.7427 H   0  0  0  0  0  0
  -29.7244  -11.8627   17.4092 H   0  0  0  0  0  0
  -29.6131  -13.5647   17.7656 H   0  0  0  0  0  0
  -27.8203  -11.3301   18.7775 H   0  0  0  0  0  0
  -27.3385  -12.6849   17.7858 H   0  0  0  0  0  0
  -27.7267  -14.2535   19.6479 H   0  0  0  0  0  0
  -28.6984  -11.7652   21.1162 H   0  0  0  0  0  0
  -28.3332  -13.1687   21.9377 H   0  0  0  0  0  0
  -25.2738   -9.5709   22.4732 H   0  0  0  0  0  0
  -24.0077   -7.4585   22.7465 H   0  0  0  0  0  0
  -21.0834   -8.8711   19.8905 H   0  0  0  0  0  0
  -22.3659  -10.9648   19.6193 H   0  0  0  0  0  0
  -21.1911   -7.6140   23.9686 H   0  0  0  0  0  0
  -21.1485   -6.0535   25.9077 H   0  0  0  0  0  0
  -22.0607   -2.7617   23.2862 H   0  0  0  0  0  0
  -22.4226  -11.9764   22.4838 H   0  0  0  0  0  0
  -21.1153  -13.1117   22.2649 H   0  0  0  0  0  0
  -24.6671  -15.8359   20.4863 H   0  0  0  0  0  0
  -26.2819  -15.6107   20.0489 H   0  0  0  0  0  0
  -26.7137  -32.5519   23.1254 H   0  0  0  0  0  0
  -24.9896  -33.9805   25.0399 H   0  0  0  0  0  0
  -22.6837  -31.3172   21.4143 H   0  0  0  0  0  0
  -23.3693  -35.9733   23.3307 H   0  0  0  0  0  0
  -24.3580  -36.8943   22.2057 H   0  0  0  0  0  0
  -23.7290  -37.6573   23.6675 H   0  0  0  0  0  0
  -26.0403  -31.6182   20.5946 H   0  0  0  0  0  0
  -26.8202  -30.8991   21.9695 H   0  0  0  0  0  0
  -28.1098  -29.1550   21.0795 H   0  0  0  0  0  0
  -25.9957  -25.9818   19.0497 H   0  0  0  0  0  0
  -23.9401  -27.3056   19.0765 H   0  0  0  0  0  0
  -23.7146  -30.6215   19.4072 H   0  0  0  0  0  0
  -22.7235  -29.2640   19.8639 H   0  0  0  0  0  0
  -25.1266  -36.1982   25.0820 H   0  0  0  0  0  0
  -21.0047  -28.3176   24.1440 H   0  0  0  0  0  0
  -20.5732  -26.2159   23.3530 H   0  0  0  0  0  0
  -21.6664  -26.7463   22.1261 H   0  0  0  0  0  0
  -19.6901  -25.6383   21.1104 H   0  0  0  0  0  0
  -19.6669  -27.3350   20.6830 H   0  0  0  0  0  0
  -17.4199  -26.6683   21.4065 H   0  0  0  0  0  0
  -18.0321  -26.0064   22.9067 H   0  0  0  0  0  0
  -19.7902  -30.7230   24.2384 H   0  0  0  0  0  0
  -17.4937  -31.6338   24.5028 H   0  0  0  0  0  0
  -15.5341  -30.2950   23.7428 H   0  0  0  0  0  0
  -15.8730  -28.0643   22.7141 H   0  0  0  0  0  0
  -24.5894  -30.7047   25.7843 H   0  0  0  0  0  0
  -24.8945  -32.2840   26.5061 H   0  0  0  0  0  0
  -25.8102  -30.8793   27.0248 H   0  0  0  0  0  0
  -26.2847  -29.6822   24.1160 H   0  0  0  0  0  0
  -27.4099  -29.7279   25.4548 H   0  0  0  0  0  0
  -27.8692  -30.4372   23.9240 H   0  0  0  0  0  0
  -27.2663  -33.3599   26.2178 H   0  0  0  0  0  0
  -28.3817  -32.6953   25.0298 H   0  0  0  0  0  0
  -28.0799  -31.8396   26.5331 H   0  0  0  0  0  0
  -28.2598  -38.0128   24.7483 H   0  0  0  0  0  0
  -28.1080  -36.2651   24.6316 H   0  0  0  0  0  0
  -27.2318  -37.1527   25.8868 H   0  0  0  0  0  0
  -20.9225  -29.8803   21.7019 H   0  0  0  0  0  0
  -26.0161  -38.2856   24.1407 H   0  0  0  0  0  0
  -27.9129  -18.9995   25.2518 H   0  0  0  0  0  0
  -26.3404  -20.8045   25.0844 H   0  0  0  0  0  0
  -28.6129  -19.1972   20.9862 H   0  0  0  0  0  0
  -28.7559  -17.0966   28.3083 H   0  0  0  0  0  0
  -28.2210  -15.4829   27.5932 H   0  0  0  0  0  0
  -28.5997  -15.0456   25.2135 H   0  0  0  0  0  0
  -29.3973  -17.8971   26.1504 H   0  0  0  0  0  0
  -28.2802  -15.3869   22.0612 H   0  0  0  0  0  0
  -29.1660  -14.3922   23.2562 H   0  0  0  0  0  0
  -31.2642  -18.5733   22.1805 H   0  0  0  0  0  0
  -30.0857  -17.7674   21.1695 H   0  0  0  0  0  0
  -31.7165  -16.2010   23.1913 H   0  0  0  0  0  0
  -32.1937  -16.4626   21.5558 H   0  0  0  0  0  0
  -30.1362  -18.2004   24.1358 H   0  0  0  0  0  0
  -25.9916  -23.1184   23.3984 H   0  0  0  0  0  0
  -24.6929  -21.9419   23.5717 H   0  0  0  0  0  0
  -25.1558  -22.4803   21.9733 H   0  0  0  0  0  0
  -27.8944  -25.1219   18.1883 H   0  0  0  0  0  0
  -29.1656  -24.1194   18.8003 H   0  0  0  0  0  0
  -27.2673  -22.7039   18.1839 H   0  0  0  0  0  0
  -26.1451  -23.6844   19.0801 H   0  0  0  0  0  0
  -29.0773  -24.9987   20.9232 H   0  0  0  0  0  0
  -27.3554  -25.1415   20.9523 H   0  0  0  0  0  0
  -27.7725  -22.9119   21.0981 H   0  0  0  0  0  0
  1 25  1  0  0  0
  1 30  2  0  0  0
  1 90  1  0  0  0
  2  3  1  0  0  0
  2 25  1  0  0  0
  2 93  1  0  0  0
  2 94  1  0  0  0
  3  4  1  0  0  0
  3 95  1  0  0  0
  3 96  1  0  0  0
  4  5  1  0  0  0
  4 97  1  0  0  0
  4 98  1  0  0  0
  5  6  1  0  0  0
  5 26  1  0  0  0
  5 99  1  0  0  0
  6 25  1  0  0  0
  6100  1  0  0  0
  6101  1  0  0  0
  7  8  2  0  0  0
  7 26  1  0  0  0
  7 29  1  0  0  0
  8  9  1  0  0  0
  8 22  1  0  0  0
  9 10  1  0  0  0
  9 27  2  0  0  0
 10 11  2  0  0  0
 10 15  1  0  0  0
 11 12  1  0  0  0
 11102  1  0  0  0
 12 13  2  0  0  0
 12103  1  0  0  0
 13 14  1  0  0  0
 13 31  1  0  0  0
 14 15  2  0  0  0
 14104  1  0  0  0
 15105  1  0  0  0
 16 17  2  0  0  0
 16 21  1  0  0  0
 16 31  1  0  0  0
 17 18  1  0  0  0
 17106  1  0  0  0
 18 19  2  0  0  0
 18107  1  0  0  0
 19 20  1  0  0  0
 19 24  1  0  0  0
 20 21  2  0  0  0
 20108  1  0  0  0
 21 23  1  0  0  0
 22 28  1  0  0  0
 22 32  2  0  0  0
 26 27  1  0  0  0
 28109  1  0  0  0
 28110  1  0  0  0
 29111  1  0  0  0
 29112  1  0  0  0
 33 34  1  0  0  0
 33 66  1  0  0  0
 33 70  2  0  0  0
 34 36  1  0  0  0
 34 59  1  0  0  0
 34113  1  0  0  0
 35 44  2  0  0  0
 35 45  1  0  0  0
 35 68  1  0  0  0
 36 56  1  0  0  0
 36114  1  0  0  0
 37 39  1  0  0  0
 37 47  1  0  0  0
 37 66  1  0  0  0
 37115  1  0  0  0
 38 43  2  0  0  0
 38 46  1  0  0  0
 38 47  1  0  0  0
 39 64  1  0  0  0
 39 67  2  0  0  0
 40 52  1  0  0  0
 40 53  2  0  0  0
 40 58  1  0  0  0
 41116  1  0  0  0
 41117  1  0  0  0
 41118  1  0  0  0
 41 48  1  0  0  0
 42 43  1  0  0  0
 42 66  1  0  0  0
 42119  1  0  0  0
 42120  1  0  0  0
 43 44  1  0  0  0
 44121  1  0  0  0
 45 46  2  0  0  0
 45122  1  0  0  0
 46123  1  0  0  0
 47124  1  0  0  0
 47125  1  0  0  0
 48 56  1  0  0  0
 48 65  1  0  0  0
 48126  1  0  0  0
 49 50  1  0  0  0
 49 53  1  0  0  0
 49 64  1  0  0  0
 49127  1  0  0  0
 50 51  1  0  0  0
 50128  1  0  0  0
 50129  1  0  0  0
 51 52  1  0  0  0
 51130  1  0  0  0
 51131  1  0  0  0
 52132  1  0  0  0
 52133  1  0  0  0
 53 54  1  0  0  0
 54 55  2  0  0  0
 54134  1  0  0  0
 55 57  1  0  0  0
 55135  1  0  0  0
 56 69  2  0  0  0
 57 58  2  0  0  0
 57136  1  0  0  0
 58137  1  0  0  0
 59 60  1  0  0  0
 59 61  1  0  0  0
 59 62  1  0  0  0
 60138  1  0  0  0
 60139  1  0  0  0
 60140  1  0  0  0
 61141  1  0  0  0
 61142  1  0  0  0
 61143  1  0  0  0
 62144  1  0  0  0
 62145  1  0  0  0
 62146  1  0  0  0
 63 65  1  0  0  0
 63147  1  0  0  0
 63148  1  0  0  0
 63149  1  0  0  0
 64150  1  0  0  0
 65151  1  0  0  0
 68 89  1  0  0  0
 71 72  2  0  0  0
 71 75  1  0  0  0
 71152  1  0  0  0
 72 76  1  0  0  0
 72153  1  0  0  0
 73 74  1  0  0  0
 73 75  2  0  0  0
 73154  1  0  0  0
 74 76  2  0  0  0
 74 81  1  0  0  0
 75 85  1  0  0  0
 76 86  1  0  0  0
 77 79  2  0  0  0
 77 82  1  0  0  0
 77 85  1  0  0  0
 78 80  2  0  0  0
 78155  1  0  0  0
 78156  1  0  0  0
 79 80  1  0  0  0
 79157  1  0  0  0
 80158  1  0  0  0
 81 91  1  0  0  0
 81 92  2  0  0  0
 82 90  1  0  0  0
 82159  1  0  0  0
 82160  1  0  0  0
 83 84  1  0  0  0
 83 85  1  0  0  0
 83161  1  0  0  0
 83162  1  0  0  0
 84 90  1  0  0  0
 84163  1  0  0  0
 84164  1  0  0  0
 85165  1  0  0  0
 86166  1  0  0  0
 86167  1  0  0  0
 86168  1  0  0  0
 87 88  1  0  0  0
 87 89  1  0  0  0
 87169  1  0  0  0
 87170  1  0  0  0
 88 91  1  0  0  0
 88171  1  0  0  0
 88172  1  0  0  0
 89173  1  0  0  0
 89174  1  0  0  0
 91175  1  0  0  0
M  ISO  4   1 100  68 101  89 101  90 100
M  END
> <chiral flag>
0

> <version>
0

> <s_m_source_file>
/data/baiqing/PycharmProjects/Reinvent-master-3.2/result/LINK_invent/BTK/process_docking_weight1_custom_product_contain_oxygen_bond_distance_aromatic_linkinvent_7_9_3/rearranged_h_0055.sdf

> <i_m_source_file_index>
12

> <r_mmod_Potential_Energy-OPLS-2005>
215.892944335938

> <r_mmod_Stretch_Energy-OPLS-2005>
53.552303314209

> <r_mmod_Bend_Energy-OPLS-2005>
151.916061401367

> <r_mmod_Torsional_Energy-OPLS-2005>
316.887756347656

> <r_mmod_Improper_Torsional_Energy-OPLS-2005>
3.1794581413269

> <r_mmod_Van_der_Waal_Energy-OPLS-2005>
200.169647216797

> <r_mmod_Electrostatic_Energy-OPLS-2005>
-310.229278564453

> <r_mmod_Solvation_Energy-OPLS-2005>
-214.353790283203

> <b_mmod_Minimization_Converged-OPLS-2005>
0

> <r_mmod_RMS_Derivative-OPLS-2005>
6.93069839477539

$$$$
12
                    3D
 Structure written by MMmdl.
163171  0  0  1  0            999 V2000
  -30.6169  -14.5395   20.4361 C   0  0  0  0  0  0
  -30.4345  -12.3170   19.3991 C   0  0  0  0  0  0
  -29.4910  -12.4641   18.1864 C   0  0  0  0  0  0
  -28.0139  -12.3216   18.6139 C   0  0  0  0  0  0
  -27.6490  -13.1844   19.8496 C   0  0  2  0  0  0
  -28.7048  -13.0209   20.9620 C   0  0  0  0  0  0
  -25.2671  -13.8065   20.5766 C   0  0  0  0  0  0
  -24.1887  -13.0389   20.9168 C   0  0  0  0  0  0
  -24.6420  -11.6842   20.8725 C   0  0  0  0  0  0
  -23.9100  -10.4261   21.0440 C   0  0  0  0  0  0
  -24.3662   -9.4179   21.9222 C   0  0  0  0  0  0
  -23.6323   -8.2226   22.0790 C   0  0  0  0  0  0
  -22.4320   -8.0269   21.3565 C   0  0  0  0  0  0
  -21.9954   -9.0266   20.4670 C   0  0  0  0  0  0
  -22.7282  -10.2132   20.3087 C   0  0  0  0  0  0
  -21.6854   -6.0751   22.5283 C   0  0  0  0  0  0
  -21.3993   -6.5669   23.8210 C   0  0  0  0  0  0
  -21.3657   -5.6831   24.9189 C   0  0  0  0  0  0
  -21.6075   -4.3104   24.7239 C   0  0  0  0  0  0
  -21.8812   -3.8183   23.4363 C   0  0  0  0  0  0
  -21.9184   -4.6979   22.3420 C   0  0  0  0  0  0
  -22.7906  -13.5195   21.1830 C   0  0  0  0  0  0
  -22.1635   -4.2146   21.0996 F   0  0  0  0  0  0
  -21.5670   -3.4591   25.7773 F   0  0  0  0  0  0
  -30.0167  -13.3264   20.3757 N   0  0  0  0  0  0
  -26.3028  -12.9167   20.3330 N   0  0  0  0  0  0
  -25.9321  -11.6351   20.5707 N   0  0  0  0  0  0
  -22.0573  -12.8259   22.0448 N   0  0  0  0  0  0
  -25.4539  -15.1787   20.4385 N   0  0  0  0  0  0
  -31.8332  -14.7020   20.3049 O   0  0  0  0  0  0
  -21.6665   -6.8888   21.4252 O   0  0  0  0  0  0
  -22.3599  -14.5501   20.6670 O   0  0  0  0  0  0
  -24.6175  -31.8667   23.2143 C   0  0  0  0  0  0
  -25.9051  -32.4802   23.8460 C   0  0  1  0  0  0
  -27.1990  -27.3754   20.0927 C   0  0  0  0  0  0
  -25.5875  -33.8604   24.2369 N   0  0  0  0  0  0
  -23.4080  -30.5025   21.5532 C   0  0  2  0  0  0
  -24.8403  -28.9638   20.1185 C   0  0  0  0  0  0
  -22.7466  -29.4680   22.4958 C   0  0  0  0  0  0
  -18.0302  -28.1410   22.8564 C   0  0  0  0  0  0
  -24.1466  -36.7319   23.2630 C   0  0  0  0  0  0
  -25.9409  -30.8212   21.3684 C   0  0  0  0  0  0
  -26.0134  -29.4536   20.7079 C   0  0  0  0  0  0
  -27.1958  -28.6671   20.6907 C   0  0  0  0  0  0
  -25.9858  -26.9072   19.5310 C   0  0  0  0  0  0
  -24.8229  -27.6954   19.5286 C   0  0  0  0  0  0
  -23.6132  -29.8457   20.1627 C   0  0  0  0  0  0
  -25.4099  -36.3101   24.0325 C   0  0  1  0  0  0
  -20.5932  -28.3725   23.1376 C   0  0  2  0  0  0
  -20.6797  -26.9396   22.5609 C   0  0  0  0  0  0
  -19.5796  -26.6305   21.5436 C   0  0  0  0  0  0
  -18.1980  -26.7988   22.1722 C   0  0  0  0  0  0
  -19.1543  -28.8887   23.2945 C   0  0  0  0  0  0
  -18.9441  -30.1463   23.8939 C   0  0  0  0  0  0
  -17.6456  -30.6618   24.0613 C   0  0  0  0  0  0
  -25.9026  -34.9441   23.5142 C   0  0  0  0  0  0
  -16.5336  -29.9125   23.6363 C   0  0  0  0  0  0
  -16.7263  -28.6544   23.0395 C   0  0  0  0  0  0
  -26.4503  -31.6589   25.0779 C   0  0  0  0  0  0
  -25.3798  -31.3729   26.1556 C   0  0  0  0  0  0
  -27.0329  -30.3020   24.6209 C   0  0  0  0  0  0
  -27.6047  -32.4351   25.7564 C   0  0  0  0  0  0
  -27.5591  -37.1820   24.8465 C   0  0  0  0  0  0
  -21.4195  -29.3062   22.3670 N   0  0  0  0  0  0
  -26.4298  -37.3777   23.9382 N   0  0  0  0  0  0
  -24.6757  -31.0767   22.1048 N   0  0  0  0  0  0
  -23.4229  -28.8253   23.3024 O   0  0  0  0  0  0
  -28.3641  -26.6181   20.0792 O   0  0  0  0  0  0
  -26.5555  -34.8897   22.4699 O   0  0  0  0  0  0
  -23.5349  -32.1431   23.7484 O   0  0  0  0  0  0
  -28.0737  -17.4635   22.6667 C   0  0  0  0  0  0
  -28.8686  -16.4982   22.0360 C   0  0  0  0  0  0
  -27.6782  -18.6334   21.9936 C   0  0  0  0  0  0
  -28.1442  -18.8916   20.6742 C   0  0  0  0  0  0
  -28.8468  -17.8387   19.9912 C   0  0  0  0  0  0
  -29.2309  -16.6432   20.6816 C   0  0  0  0  0  0
  -27.8824  -22.7146   19.8996 C   0  0  0  0  0  0
  -26.7130  -19.5600   22.7300 C   0  0  0  0  0  0
  -29.1242  -17.9652   18.4926 C   0  0  0  0  0  0
  -29.0758  -21.5808   21.7509 C   0  0  0  0  0  0
  -27.7920  -20.2366   19.9670 C   0  0  0  0  0  0
  -28.2266  -24.1118   20.5080 C   0  0  0  0  0  0
  -28.3805  -25.2876   19.4881 C   0  0  0  0  0  0
  -29.8009  -15.5238   19.9950 N   0  0  0  0  0  0
  -28.2417  -21.5537   20.5331 N   0  0  0  0  0  0
  -27.2401  -22.6899   18.8409 O   0  0  0  0  0  0
  -31.4720  -12.4517   19.0882 H   0  0  0  0  0  0
  -30.3679  -11.3169   19.8313 H   0  0  0  0  0  0
  -29.7308  -11.7145   17.4315 H   0  0  0  0  0  0
  -29.6513  -13.4309   17.7065 H   0  0  0  0  0  0
  -27.8426  -11.2690   18.8379 H   0  0  0  0  0  0
  -27.3548  -12.5668   17.7824 H   0  0  0  0  0  0
  -27.6521  -14.2166   19.5042 H   0  0  0  0  0  0
  -28.7067  -12.0052   21.3611 H   0  0  0  0  0  0
  -28.4702  -13.6736   21.7988 H   0  0  0  0  0  0
  -25.2827   -9.5634   22.4767 H   0  0  0  0  0  0
  -24.0012   -7.4639   22.7566 H   0  0  0  0  0  0
  -21.0854   -8.8825   19.8986 H   0  0  0  0  0  0
  -22.3808  -10.9701   19.6182 H   0  0  0  0  0  0
  -21.1954   -7.6175   23.9665 H   0  0  0  0  0  0
  -21.1477   -6.0591   25.9073 H   0  0  0  0  0  0
  -22.0581   -2.7620   23.2903 H   0  0  0  0  0  0
  -22.4183  -11.9922   22.4872 H   0  0  0  0  0  0
  -21.1169  -13.1256   22.2638 H   0  0  0  0  0  0
  -24.7140  -15.8511   20.6054 H   0  0  0  0  0  0
  -26.3528  -15.6088   20.2670 H   0  0  0  0  0  0
  -26.7113  -32.5500   23.1204 H   0  0  0  0  0  0
  -25.0035  -33.9782   25.0527 H   0  0  0  0  0  0
  -22.6976  -31.3205   21.4203 H   0  0  0  0  0  0
  -23.3702  -35.9676   23.3307 H   0  0  0  0  0  0
  -24.3577  -36.8916   22.2048 H   0  0  0  0  0  0
  -23.7257  -37.6535   23.6664 H   0  0  0  0  0  0
  -26.0703  -31.5978   20.6105 H   0  0  0  0  0  0
  -26.8218  -30.8634   22.0021 H   0  0  0  0  0  0
  -28.1036  -29.0387   21.1453 H   0  0  0  0  0  0
  -25.8753  -25.9257   19.0985 H   0  0  0  0  0  0
  -23.9097  -27.3209   19.0886 H   0  0  0  0  0  0
  -23.7395  -30.6245   19.4091 H   0  0  0  0  0  0
  -22.7316  -29.2778   19.8559 H   0  0  0  0  0  0
  -25.1285  -36.1973   25.0820 H   0  0  0  0  0  0
  -21.0082  -28.3433   24.1448 H   0  0  0  0  0  0
  -20.5622  -26.2432   23.3954 H   0  0  0  0  0  0
  -21.6668  -26.7282   22.1439 H   0  0  0  0  0  0
  -19.6951  -25.6180   21.1579 H   0  0  0  0  0  0
  -19.6888  -27.3003   20.6895 H   0  0  0  0  0  0
  -17.4340  -26.6910   21.4029 H   0  0  0  0  0  0
  -18.0242  -26.0096   22.9082 H   0  0  0  0  0  0
  -19.7931  -30.7279   24.2272 H   0  0  0  0  0  0
  -17.4952  -31.6267   24.5240 H   0  0  0  0  0  0
  -15.5366  -30.3096   23.7647 H   0  0  0  0  0  0
  -15.8637  -28.0935   22.7078 H   0  0  0  0  0  0
  -24.5934  -30.7091   25.7993 H   0  0  0  0  0  0
  -24.9045  -32.2883   26.5082 H   0  0  0  0  0  0
  -25.8182  -30.8908   27.0300 H   0  0  0  0  0  0
  -26.2891  -29.6795   24.1245 H   0  0  0  0  0  0
  -27.4033  -29.7281   25.4715 H   0  0  0  0  0  0
  -27.8776  -30.4304   23.9434 H   0  0  0  0  0  0
  -27.2618  -33.3615   26.2211 H   0  0  0  0  0  0
  -28.3873  -32.6988   25.0431 H   0  0  0  0  0  0
  -28.0744  -31.8463   26.5460 H   0  0  0  0  0  0
  -28.2608  -38.0114   24.7479 H   0  0  0  0  0  0
  -28.1084  -36.2642   24.6329 H   0  0  0  0  0  0
  -27.2298  -37.1517   25.8864 H   0  0  0  0  0  0
  -20.9387  -29.8848   21.6930 H   0  0  0  0  0  0
  -26.0174  -38.2843   24.1403 H   0  0  0  0  0  0
  -27.7398  -17.2710   23.6746 H   0  0  0  0  0  0
  -29.1056  -15.5993   22.5866 H   0  0  0  0  0  0
  -25.8094  -19.0010   22.9749 H   0  0  0  0  0  0
  -26.3978  -20.4310   22.1570 H   0  0  0  0  0  0
  -27.1524  -19.9112   23.6618 H   0  0  0  0  0  0
  -28.1932  -18.1781   17.9597 H   0  0  0  0  0  0
  -29.5228  -17.0609   18.0396 H   0  0  0  0  0  0
  -29.8220  -18.7777   18.2898 H   0  0  0  0  0  0
  -30.0456  -22.0368   21.5442 H   0  0  0  0  0  0
  -29.2954  -20.6035   22.1700 H   0  0  0  0  0  0
  -28.5944  -22.1589   22.5467 H   0  0  0  0  0  0
  -26.7021  -20.2618   19.9004 H   0  0  0  0  0  0
  -28.1120  -20.2207   18.9291 H   0  0  0  0  0  0
  -29.1507  -24.0652   21.0845 H   0  0  0  0  0  0
  -27.4319  -24.3542   21.2117 H   0  0  0  0  0  0
  -27.7033  -25.1851   18.6403 H   0  0  0  0  0  0
  -29.3642  -25.1854   19.0261 H   0  0  0  0  0  0
  -29.2821  -15.2406   19.1804 H   0  0  0  0  0  0
  1 25  1  0  0  0
  1 30  2  0  0  0
  1 84  1  0  0  0
  2  3  1  0  0  0
  2 25  1  0  0  0
  2 87  1  0  0  0
  2 88  1  0  0  0
  3  4  1  0  0  0
  3 89  1  0  0  0
  3 90  1  0  0  0
  4  5  1  0  0  0
  4 91  1  0  0  0
  4 92  1  0  0  0
  5  6  1  0  0  0
  5 26  1  0  0  0
  5 93  1  0  0  0
  6 25  1  0  0  0
  6 94  1  0  0  0
  6 95  1  0  0  0
  7  8  2  0  0  0
  7 26  1  0  0  0
  7 29  1  0  0  0
  8  9  1  0  0  0
  8 22  1  0  0  0
  9 10  1  0  0  0
  9 27  2  0  0  0
 10 11  2  0  0  0
 10 15  1  0  0  0
 11 12  1  0  0  0
 11 96  1  0  0  0
 12 13  2  0  0  0
 12 97  1  0  0  0
 13 14  1  0  0  0
 13 31  1  0  0  0
 14 15  2  0  0  0
 14 98  1  0  0  0
 15 99  1  0  0  0
 16 17  2  0  0  0
 16 21  1  0  0  0
 16 31  1  0  0  0
 17 18  1  0  0  0
 17100  1  0  0  0
 18 19  2  0  0  0
 18101  1  0  0  0
 19 20  1  0  0  0
 19 24  1  0  0  0
 20 21  2  0  0  0
 20102  1  0  0  0
 21 23  1  0  0  0
 22 28  1  0  0  0
 22 32  2  0  0  0
 26 27  1  0  0  0
 28103  1  0  0  0
 28104  1  0  0  0
 29105  1  0  0  0
 29106  1  0  0  0
 33 34  1  0  0  0
 33 66  1  0  0  0
 33 70  2  0  0  0
 34 36  1  0  0  0
 34 59  1  0  0  0
 34107  1  0  0  0
 35 44  2  0  0  0
 35 45  1  0  0  0
 35 68  1  0  0  0
 36 56  1  0  0  0
 36108  1  0  0  0
 37 39  1  0  0  0
 37 47  1  0  0  0
 37 66  1  0  0  0
 37109  1  0  0  0
 38 43  2  0  0  0
 38 46  1  0  0  0
 38 47  1  0  0  0
 39 64  1  0  0  0
 39 67  2  0  0  0
 40 52  1  0  0  0
 40 53  2  0  0  0
 40 58  1  0  0  0
 41110  1  0  0  0
 41111  1  0  0  0
 41112  1  0  0  0
 41 48  1  0  0  0
 42 43  1  0  0  0
 42 66  1  0  0  0
 42113  1  0  0  0
 42114  1  0  0  0
 43 44  1  0  0  0
 44115  1  0  0  0
 45 46  2  0  0  0
 45116  1  0  0  0
 46117  1  0  0  0
 47118  1  0  0  0
 47119  1  0  0  0
 48 56  1  0  0  0
 48 65  1  0  0  0
 48120  1  0  0  0
 49 50  1  0  0  0
 49 53  1  0  0  0
 49 64  1  0  0  0
 49121  1  0  0  0
 50 51  1  0  0  0
 50122  1  0  0  0
 50123  1  0  0  0
 51 52  1  0  0  0
 51124  1  0  0  0
 51125  1  0  0  0
 52126  1  0  0  0
 52127  1  0  0  0
 53 54  1  0  0  0
 54 55  2  0  0  0
 54128  1  0  0  0
 55 57  1  0  0  0
 55129  1  0  0  0
 56 69  2  0  0  0
 57 58  2  0  0  0
 57130  1  0  0  0
 58131  1  0  0  0
 59 60  1  0  0  0
 59 61  1  0  0  0
 59 62  1  0  0  0
 60132  1  0  0  0
 60133  1  0  0  0
 60134  1  0  0  0
 61135  1  0  0  0
 61136  1  0  0  0
 61137  1  0  0  0
 62138  1  0  0  0
 62139  1  0  0  0
 62140  1  0  0  0
 63 65  1  0  0  0
 63141  1  0  0  0
 63142  1  0  0  0
 63143  1  0  0  0
 64144  1  0  0  0
 65145  1  0  0  0
 68 83  1  0  0  0
 71 72  2  0  0  0
 71 73  1  0  0  0
 71146  1  0  0  0
 72 76  1  0  0  0
 72147  1  0  0  0
 73 74  2  0  0  0
 73 78  1  0  0  0
 74 75  1  0  0  0
 74 81  1  0  0  0
 75 76  2  0  0  0
 75 79  1  0  0  0
 76 84  1  0  0  0
 77 82  1  0  0  0
 77 85  1  0  0  0
 77 86  2  0  0  0
 78148  1  0  0  0
 78149  1  0  0  0
 78150  1  0  0  0
 79151  1  0  0  0
 79152  1  0  0  0
 79153  1  0  0  0
 80 85  1  0  0  0
 80154  1  0  0  0
 80155  1  0  0  0
 80156  1  0  0  0
 81 85  1  0  0  0
 81157  1  0  0  0
 81158  1  0  0  0
 82 83  1  0  0  0
 82159  1  0  0  0
 82160  1  0  0  0
 83161  1  0  0  0
 83162  1  0  0  0
 84163  1  0  0  0
M  ISO  4   1 100  68 101  83 101  84 100
M  END
> <chiral flag>
0

> <version>
0

> <s_m_source_file>
/data/baiqing/PycharmProjects/Reinvent-master-3.2/result/LINK_invent/BTK/process_docking_weight1_custom_product_contain_oxygen_bond_distance_aromatic_linkinvent_7_9_3/rearranged_h_0055.sdf

> <i_m_source_file_index>
13

> <r_mmod_Potential_Energy-OPLS-2005>
56.2621269226074

> <r_mmod_Stretch_Energy-OPLS-2005>
57.1172409057617

> <r_mmod_Bend_Energy-OPLS-2005>
128.706298828125

> <r_mmod_Torsional_Energy-OPLS-2005>
294.352630615234

> <r_mmod_Improper_Torsional_Energy-OPLS-2005>
25.1251907348633

> <r_mmod_Van_der_Waal_Energy-OPLS-2005>
169.405349731445

> <r_mmod_Electrostatic_Energy-OPLS-2005>
-435.192810058594

> <r_mmod_Solvation_Energy-OPLS-2005>
-219.349838256836

> <b_mmod_Minimization_Converged-OPLS-2005>
0

> <r_mmod_RMS_Derivative-OPLS-2005>
7.62810754776001

$$$$
13
                    3D
 Structure written by MMmdl.
155163  0  0  1  0            999 V2000
  -30.6532  -14.5827   20.5240 C   0  0  0  0  0  0
  -30.4392  -12.3635   19.4443 C   0  0  0  0  0  0
  -29.5117  -12.5129   18.2180 C   0  0  0  0  0  0
  -28.0316  -12.3598   18.6246 C   0  0  0  0  0  0
  -27.6604  -13.2135   19.8660 C   0  0  2  0  0  0
  -28.7025  -13.0458   20.9957 C   0  0  0  0  0  0
  -25.2586  -13.8152   20.5660 C   0  0  0  0  0  0
  -24.1835  -13.0439   20.9179 C   0  0  0  0  0  0
  -24.6411  -11.6911   20.8732 C   0  0  0  0  0  0
  -23.9072  -10.4305   21.0410 C   0  0  0  0  0  0
  -24.3608   -9.4220   21.9202 C   0  0  0  0  0  0
  -23.6302   -8.2237   22.0753 C   0  0  0  0  0  0
  -22.4296   -8.0277   21.3528 C   0  0  0  0  0  0
  -21.9937   -9.0245   20.4625 C   0  0  0  0  0  0
  -22.7256  -10.2135   20.3047 C   0  0  0  0  0  0
  -21.6850   -6.0739   22.5281 C   0  0  0  0  0  0
  -21.4007   -6.5639   23.8212 C   0  0  0  0  0  0
  -21.3675   -5.6785   24.9171 C   0  0  0  0  0  0
  -21.6053   -4.3044   24.7216 C   0  0  0  0  0  0
  -21.8822   -3.8138   23.4328 C   0  0  0  0  0  0
  -21.9180   -4.6968   22.3389 C   0  0  0  0  0  0
  -22.7852  -13.5233   21.1831 C   0  0  0  0  0  0
  -22.1655   -4.2154   21.0973 F   0  0  0  0  0  0
  -21.5648   -3.4531   25.7729 F   0  0  0  0  0  0
  -30.0275  -13.3701   20.4397 N   0  0  0  0  0  0
  -26.3026  -12.9344   20.3308 N   0  0  0  0  0  0
  -25.9335  -11.6504   20.5716 N   0  0  0  0  0  0
  -22.0448  -12.8253   22.0371 N   0  0  0  0  0  0
  -25.4318  -15.1866   20.4081 N   0  0  0  0  0  0
  -31.8062  -14.7565   20.1158 O   0  0  0  0  0  0
  -21.6632   -6.8893   21.4243 O   0  0  0  0  0  0
  -22.3568  -14.5545   20.6682 O   0  0  0  0  0  0
  -24.6245  -31.8598   23.2088 C   0  0  0  0  0  0
  -25.9115  -32.4770   23.8391 C   0  0  1  0  0  0
  -27.2273  -27.3520   20.1198 C   0  0  0  0  0  0
  -25.5967  -33.8569   24.2349 N   0  0  0  0  0  0
  -23.4167  -30.4877   21.5464 C   0  0  2  0  0  0
  -24.8635  -28.9446   20.1181 C   0  0  0  0  0  0
  -22.7447  -29.4635   22.4927 C   0  0  0  0  0  0
  -18.0282  -28.1371   22.8463 C   0  0  0  0  0  0
  -24.1488  -36.7274   23.2644 C   0  0  0  0  0  0
  -25.9566  -30.8016   21.3759 C   0  0  0  0  0  0
  -26.0297  -29.4313   20.7223 C   0  0  0  0  0  0
  -27.2155  -28.6447   20.7151 C   0  0  0  0  0  0
  -26.0393  -26.9105   19.4907 C   0  0  0  0  0  0
  -24.8682  -27.6871   19.4969 C   0  0  0  0  0  0
  -23.6328  -29.8229   20.1613 C   0  0  0  0  0  0
  -25.4107  -36.3077   24.0355 C   0  0  1  0  0  0
  -20.5878  -28.3670   23.1264 C   0  0  2  0  0  0
  -20.6763  -26.9396   22.5379 C   0  0  0  0  0  0
  -19.5750  -26.6371   21.5177 C   0  0  0  0  0  0
  -18.1929  -26.7926   22.1584 C   0  0  0  0  0  0
  -19.1530  -28.8840   23.2863 C   0  0  0  0  0  0
  -18.9460  -30.1439   23.8876 C   0  0  0  0  0  0
  -17.6463  -30.6578   24.0552 C   0  0  0  0  0  0
  -25.9038  -34.9442   23.5135 C   0  0  0  0  0  0
  -16.5351  -29.9068   23.6338 C   0  0  0  0  0  0
  -16.7266  -28.6486   23.0355 C   0  0  0  0  0  0
  -26.4540  -31.6561   25.0733 C   0  0  0  0  0  0
  -25.3809  -31.3634   26.1477 C   0  0  0  0  0  0
  -27.0433  -30.3015   24.6159 C   0  0  0  0  0  0
  -27.6117  -32.4275   25.7498 C   0  0  0  0  0  0
  -27.5590  -37.1784   24.8472 C   0  0  0  0  0  0
  -21.4166  -29.3039   22.3667 N   0  0  0  0  0  0
  -26.4289  -37.3774   23.9440 N   0  0  0  0  0  0
  -24.6844  -31.0656   22.1008 N   0  0  0  0  0  0
  -23.4185  -28.8153   23.2981 O   0  0  0  0  0  0
  -28.3672  -26.5465   20.1445 O   0  0  0  0  0  0
  -26.5550  -34.8902   22.4673 O   0  0  0  0  0  0
  -23.5415  -32.1364   23.7449 O   0  0  0  0  0  0
  -30.7709  -17.8430   21.6022 C   0  0  0  0  0  0
  -30.8580  -19.2527   21.4364 C   0  0  0  0  0  0
  -29.4716  -19.1111   19.4570 C   0  0  0  0  0  0
  -29.3822  -17.6955   19.6148 C   0  0  0  0  0  0
  -30.0427  -17.0372   20.6918 C   0  0  0  0  0  0
  -30.2134  -19.9088   20.3610 C   0  0  0  0  0  0
  -28.5936  -16.8980   18.5877 C   0  0  0  0  0  0
  -29.4634  -24.2181   20.2257 C   0  0  0  0  0  0
  -28.1785  -25.1096   20.3787 C   0  0  0  0  0  0
  -29.8737  -15.6198   20.9330 N   0  0  0  0  0  0
  -29.2425  -22.7335   20.3826 N   0  0  0  0  0  0
  -31.6797  -22.1132   20.8825 O   0  0  0  0  0  0
  -30.7848  -21.8163   18.5390 O   0  0  0  0  0  0
  -30.5890  -21.6836   19.9924 S   0  0  0  0  0  0
  -31.4821  -12.4826   19.1449 H   0  0  0  0  0  0
  -30.3626  -11.3622   19.8701 H   0  0  0  0  0  0
  -29.7719  -11.7715   17.4620 H   0  0  0  0  0  0
  -29.6659  -13.4876   17.7525 H   0  0  0  0  0  0
  -27.8498  -11.3065   18.8337 H   0  0  0  0  0  0
  -27.3829  -12.6159   17.7858 H   0  0  0  0  0  0
  -27.6851  -14.2522   19.5417 H   0  0  0  0  0  0
  -28.6980  -12.0212   21.3716 H   0  0  0  0  0  0
  -28.4501  -13.6725   21.8524 H   0  0  0  0  0  0
  -25.2742   -9.5709   22.4790 H   0  0  0  0  0  0
  -24.0000   -7.4637   22.7488 H   0  0  0  0  0  0
  -21.0864   -8.8788   19.8926 H   0  0  0  0  0  0
  -22.3737  -10.9677   19.6147 H   0  0  0  0  0  0
  -21.2000   -7.6156   23.9733 H   0  0  0  0  0  0
  -21.1510   -6.0502   25.9087 H   0  0  0  0  0  0
  -22.0588   -2.7606   23.2806 H   0  0  0  0  0  0
  -22.4014  -11.9917   22.4807 H   0  0  0  0  0  0
  -21.1055  -13.1309   22.2512 H   0  0  0  0  0  0
  -24.6663  -15.8434   20.5192 H   0  0  0  0  0  0
  -26.2872  -15.6217   20.0876 H   0  0  0  0  0  0
  -26.7181  -32.5465   23.1138 H   0  0  0  0  0  0
  -25.0280  -33.9706   25.0609 H   0  0  0  0  0  0
  -22.7115  -31.3094   21.4035 H   0  0  0  0  0  0
  -23.3771  -35.9586   23.3265 H   0  0  0  0  0  0
  -24.3599  -36.8908   22.2067 H   0  0  0  0  0  0
  -23.7196  -37.6454   23.6665 H   0  0  0  0  0  0
  -26.0866  -31.5662   20.6091 H   0  0  0  0  0  0
  -26.8362  -30.8484   22.0058 H   0  0  0  0  0  0
  -28.1133  -29.0083   21.1954 H   0  0  0  0  0  0
  -25.9872  -25.9661   18.9720 H   0  0  0  0  0  0
  -23.9748  -27.3104   19.0173 H   0  0  0  0  0  0
  -23.7602  -30.5980   19.4044 H   0  0  0  0  0  0
  -22.7523  -29.2554   19.8532 H   0  0  0  0  0  0
  -25.1281  -36.1933   25.0846 H   0  0  0  0  0  0
  -20.9978  -28.3233   24.1384 H   0  0  0  0  0  0
  -20.5637  -26.2283   23.3565 H   0  0  0  0  0  0
  -21.6638  -26.7413   22.1194 H   0  0  0  0  0  0
  -19.6906  -25.6274   21.1225 H   0  0  0  0  0  0
  -19.6713  -27.3152   20.6685 H   0  0  0  0  0  0
  -17.4202  -26.6670   21.3979 H   0  0  0  0  0  0
  -18.0332  -26.0057   22.8965 H   0  0  0  0  0  0
  -19.7941  -30.7249   24.2240 H   0  0  0  0  0  0
  -17.5026  -31.6253   24.5148 H   0  0  0  0  0  0
  -15.5350  -30.2963   23.7688 H   0  0  0  0  0  0
  -15.8660  -28.0797   22.7098 H   0  0  0  0  0  0
  -24.5997  -30.6970   25.7791 H   0  0  0  0  0  0
  -24.8990  -32.2772   26.4966 H   0  0  0  0  0  0
  -25.8175  -30.8765   27.0209 H   0  0  0  0  0  0
  -26.3001  -29.6665   24.1320 H   0  0  0  0  0  0
  -27.4328  -29.7352   25.4629 H   0  0  0  0  0  0
  -27.8779  -30.4337   23.9268 H   0  0  0  0  0  0
  -27.2773  -33.3579   26.2091 H   0  0  0  0  0  0
  -28.3943  -32.6798   25.0332 H   0  0  0  0  0  0
  -28.0786  -31.8377   26.5397 H   0  0  0  0  0  0
  -28.2573  -38.0114   24.7580 H   0  0  0  0  0  0
  -28.1112  -36.2650   24.6225 H   0  0  0  0  0  0
  -27.2313  -37.1333   25.8869 H   0  0  0  0  0  0
  -20.9327  -29.8787   21.6907 H   0  0  0  0  0  0
  -26.0167  -38.2846   24.1455 H   0  0  0  0  0  0
  -31.2805  -17.3830   22.4369 H   0  0  0  0  0  0
  -31.4623  -19.8326   22.1194 H   0  0  0  0  0  0
  -29.0099  -19.5949   18.6085 H   0  0  0  0  0  0
  -28.4192  -17.4824   17.6844 H   0  0  0  0  0  0
  -27.6204  -16.6111   18.9843 H   0  0  0  0  0  0
  -29.1309  -15.9956   18.2886 H   0  0  0  0  0  0
  -30.2257  -24.5362   20.9390 H   0  0  0  0  0  0
  -29.8871  -24.3952   19.2362 H   0  0  0  0  0  0
  -27.7749  -24.9893   21.3875 H   0  0  0  0  0  0
  -27.4380  -24.6909   19.7012 H   0  0  0  0  0  0
  -28.9550  -15.3393   21.2400 H   0  0  0  0  0  0
  -28.4265  -22.4278   19.8478 H   0  0  0  0  0  0
  1 25  1  0  0  0
  1 30  2  0  0  0
  1 80  1  0  0  0
  2  3  1  0  0  0
  2 25  1  0  0  0
  2 85  1  0  0  0
  2 86  1  0  0  0
  3  4  1  0  0  0
  3 87  1  0  0  0
  3 88  1  0  0  0
  4  5  1  0  0  0
  4 89  1  0  0  0
  4 90  1  0  0  0
  5  6  1  0  0  0
  5 26  1  0  0  0
  5 91  1  0  0  0
  6 25  1  0  0  0
  6 92  1  0  0  0
  6 93  1  0  0  0
  7  8  2  0  0  0
  7 26  1  0  0  0
  7 29  1  0  0  0
  8  9  1  0  0  0
  8 22  1  0  0  0
  9 10  1  0  0  0
  9 27  2  0  0  0
 10 11  2  0  0  0
 10 15  1  0  0  0
 11 12  1  0  0  0
 11 94  1  0  0  0
 12 13  2  0  0  0
 12 95  1  0  0  0
 13 14  1  0  0  0
 13 31  1  0  0  0
 14 15  2  0  0  0
 14 96  1  0  0  0
 15 97  1  0  0  0
 16 17  2  0  0  0
 16 21  1  0  0  0
 16 31  1  0  0  0
 17 18  1  0  0  0
 17 98  1  0  0  0
 18 19  2  0  0  0
 18 99  1  0  0  0
 19 20  1  0  0  0
 19 24  1  0  0  0
 20 21  2  0  0  0
 20100  1  0  0  0
 21 23  1  0  0  0
 22 28  1  0  0  0
 22 32  2  0  0  0
 26 27  1  0  0  0
 28101  1  0  0  0
 28102  1  0  0  0
 29103  1  0  0  0
 29104  1  0  0  0
 33 34  1  0  0  0
 33 66  1  0  0  0
 33 70  2  0  0  0
 34 36  1  0  0  0
 34 59  1  0  0  0
 34105  1  0  0  0
 35 44  2  0  0  0
 35 45  1  0  0  0
 35 68  1  0  0  0
 36 56  1  0  0  0
 36106  1  0  0  0
 37 39  1  0  0  0
 37 47  1  0  0  0
 37 66  1  0  0  0
 37107  1  0  0  0
 38 43  2  0  0  0
 38 46  1  0  0  0
 38 47  1  0  0  0
 39 64  1  0  0  0
 39 67  2  0  0  0
 40 52  1  0  0  0
 40 53  2  0  0  0
 40 58  1  0  0  0
 41108  1  0  0  0
 41109  1  0  0  0
 41110  1  0  0  0
 41 48  1  0  0  0
 42 43  1  0  0  0
 42 66  1  0  0  0
 42111  1  0  0  0
 42112  1  0  0  0
 43 44  1  0  0  0
 44113  1  0  0  0
 45 46  2  0  0  0
 45114  1  0  0  0
 46115  1  0  0  0
 47116  1  0  0  0
 47117  1  0  0  0
 48 56  1  0  0  0
 48 65  1  0  0  0
 48118  1  0  0  0
 49 50  1  0  0  0
 49 53  1  0  0  0
 49 64  1  0  0  0
 49119  1  0  0  0
 50 51  1  0  0  0
 50120  1  0  0  0
 50121  1  0  0  0
 51 52  1  0  0  0
 51122  1  0  0  0
 51123  1  0  0  0
 52124  1  0  0  0
 52125  1  0  0  0
 53 54  1  0  0  0
 54 55  2  0  0  0
 54126  1  0  0  0
 55 57  1  0  0  0
 55127  1  0  0  0
 56 69  2  0  0  0
 57 58  2  0  0  0
 57128  1  0  0  0
 58129  1  0  0  0
 59 60  1  0  0  0
 59 61  1  0  0  0
 59 62  1  0  0  0
 60130  1  0  0  0
 60131  1  0  0  0
 60132  1  0  0  0
 61133  1  0  0  0
 61134  1  0  0  0
 61135  1  0  0  0
 62136  1  0  0  0
 62137  1  0  0  0
 62138  1  0  0  0
 63 65  1  0  0  0
 63139  1  0  0  0
 63140  1  0  0  0
 63141  1  0  0  0
 64142  1  0  0  0
 65143  1  0  0  0
 68 79  1  0  0  0
 71 72  2  0  0  0
 71 75  1  0  0  0
 71144  1  0  0  0
 72 76  1  0  0  0
 72145  1  0  0  0
 73 74  1  0  0  0
 73 76  2  0  0  0
 73146  1  0  0  0
 74 75  2  0  0  0
 74 77  1  0  0  0
 75 80  1  0  0  0
 76 84  1  0  0  0
 77147  1  0  0  0
 77148  1  0  0  0
 77149  1  0  0  0
 78 79  1  0  0  0
 78 81  1  0  0  0
 78150  1  0  0  0
 78151  1  0  0  0
 79152  1  0  0  0
 79153  1  0  0  0
 80154  1  0  0  0
 81155  1  0  0  0
 81 84  1  0  0  0
 82 84  2  0  0  0
 83 84  2  0  0  0
M  ISO  4   1 100  68 101  79 101  80 100
M  END
> <chiral flag>
0

> <version>
0

> <s_m_source_file>
/data/baiqing/PycharmProjects/Reinvent-master-3.2/result/LINK_invent/BTK/process_docking_weight1_custom_product_contain_oxygen_bond_distance_aromatic_linkinvent_7_9_3/rearranged_h_0055.sdf

> <i_m_source_file_index>
14

> <r_mmod_Potential_Energy-OPLS-2005>
-104.860496520996

> <r_mmod_Stretch_Energy-OPLS-2005>
59.8701705932617

> <r_mmod_Bend_Energy-OPLS-2005>
116.275253295898

> <r_mmod_Torsional_Energy-OPLS-2005>
262.450439453125

> <r_mmod_Improper_Torsional_Energy-OPLS-2005>
11.4077348709106

> <r_mmod_Van_der_Waal_Energy-OPLS-2005>
134.907043457031

> <r_mmod_Electrostatic_Energy-OPLS-2005>
-467.158081054688

> <r_mmod_Solvation_Energy-OPLS-2005>
-255.205429077148

> <b_mmod_Minimization_Converged-OPLS-2005>
0

> <r_mmod_RMS_Derivative-OPLS-2005>
2.76714682579041

$$$$
14
                    3D
 Structure written by MMmdl.
178186  0  0  1  0            999 V2000
  -30.7457  -14.4751   20.6939 C   0  0  0  0  0  0
  -30.4203  -12.3548   19.4304 C   0  0  0  0  0  0
  -29.4922  -12.5602   18.2170 C   0  0  0  0  0  0
  -28.0157  -12.4051   18.6232 C   0  0  0  0  0  0
  -27.6688  -13.2188   19.8947 C   0  0  2  0  0  0
  -28.7110  -12.9681   21.0041 C   0  0  0  0  0  0
  -25.2626  -13.8190   20.5763 C   0  0  0  0  0  0
  -24.1886  -13.0428   20.9214 C   0  0  0  0  0  0
  -24.6481  -11.6920   20.8784 C   0  0  0  0  0  0
  -23.9135  -10.4296   21.0458 C   0  0  0  0  0  0
  -24.3664   -9.4194   21.9246 C   0  0  0  0  0  0
  -23.6298   -8.2245   22.0798 C   0  0  0  0  0  0
  -22.4306   -8.0305   21.3547 C   0  0  0  0  0  0
  -21.9971   -9.0305   20.4661 C   0  0  0  0  0  0
  -22.7306  -10.2181   20.3110 C   0  0  0  0  0  0
  -21.6866   -6.0742   22.5261 C   0  0  0  0  0  0
  -21.4014   -6.5642   23.8193 C   0  0  0  0  0  0
  -21.3681   -5.6799   24.9161 C   0  0  0  0  0  0
  -21.6067   -4.3063   24.7210 C   0  0  0  0  0  0
  -21.8821   -3.8141   23.4334 C   0  0  0  0  0  0
  -21.9188   -4.6956   22.3381 C   0  0  0  0  0  0
  -22.7889  -13.5209   21.1803 C   0  0  0  0  0  0
  -22.1651   -4.2140   21.0949 F   0  0  0  0  0  0
  -21.5657   -3.4560   25.7728 F   0  0  0  0  0  0
  -30.0441  -13.3149   20.4930 N   0  0  0  0  0  0
  -26.3090  -12.9385   20.3507 N   0  0  0  0  0  0
  -25.9407  -11.6520   20.5820 N   0  0  0  0  0  0
  -22.0500  -12.8236   22.0379 N   0  0  0  0  0  0
  -25.4294  -15.1904   20.4183 N   0  0  0  0  0  0
  -31.7298  -14.7246   19.9845 O   0  0  0  0  0  0
  -21.6642   -6.8908   21.4231 O   0  0  0  0  0  0
  -22.3580  -14.5469   20.6575 O   0  0  0  0  0  0
  -24.6163  -31.8658   23.2076 C   0  0  0  0  0  0
  -25.9044  -32.4804   23.8384 C   0  0  1  0  0  0
  -27.2399  -27.4074   20.0852 C   0  0  0  0  0  0
  -25.5902  -33.8613   24.2310 N   0  0  0  0  0  0
  -23.4063  -30.4906   21.5481 C   0  0  2  0  0  0
  -24.8524  -28.9542   20.1106 C   0  0  0  0  0  0
  -22.7413  -29.4653   22.4968 C   0  0  0  0  0  0
  -18.0269  -28.1385   22.8494 C   0  0  0  0  0  0
  -24.1484  -36.7305   23.2642 C   0  0  0  0  0  0
  -25.9368  -30.8251   21.3621 C   0  0  0  0  0  0
  -26.0139  -29.4564   20.7094 C   0  0  0  0  0  0
  -27.2049  -28.6876   20.6982 C   0  0  0  0  0  0
  -26.0486  -26.9240   19.4940 C   0  0  0  0  0  0
  -24.8665  -27.6884   19.5025 C   0  0  0  0  0  0
  -23.6158  -29.8234   20.1620 C   0  0  0  0  0  0
  -25.4104  -36.3110   24.0348 C   0  0  1  0  0  0
  -20.5861  -28.3676   23.1313 C   0  0  2  0  0  0
  -20.6753  -26.9399   22.5432 C   0  0  0  0  0  0
  -19.5746  -26.6388   21.5212 C   0  0  0  0  0  0
  -18.1916  -26.7929   22.1615 C   0  0  0  0  0  0
  -19.1517  -28.8846   23.2903 C   0  0  0  0  0  0
  -18.9444  -30.1443   23.8922 C   0  0  0  0  0  0
  -17.6450  -30.6590   24.0561 C   0  0  0  0  0  0
  -25.9051  -34.9483   23.5140 C   0  0  0  0  0  0
  -16.5339  -29.9096   23.6308 C   0  0  0  0  0  0
  -16.7256  -28.6503   23.0345 C   0  0  0  0  0  0
  -26.4473  -31.6578   25.0715 C   0  0  0  0  0  0
  -25.3724  -31.3607   26.1432 C   0  0  0  0  0  0
  -27.0354  -30.3057   24.6062 C   0  0  0  0  0  0
  -27.6043  -32.4299   25.7493 C   0  0  0  0  0  0
  -27.5590  -37.1799   24.8454 C   0  0  0  0  0  0
  -21.4133  -29.3037   22.3703 N   0  0  0  0  0  0
  -26.4281  -37.3807   23.9428 N   0  0  0  0  0  0
  -24.6719  -31.0751   22.0984 N   0  0  0  0  0  0
  -23.4174  -28.8212   23.3037 O   0  0  0  0  0  0
  -28.4190  -26.6736   20.1274 O   0  0  0  0  0  0
  -26.5623  -34.8939   22.4708 O   0  0  0  0  0  0
  -23.5342  -32.1421   23.7453 O   0  0  0  0  0  0
  -30.3322  -19.7101   23.3050 C   0  0  0  0  0  0
  -29.9785  -20.5490   22.2444 C   0  0  0  0  0  0
  -30.1687  -18.3223   23.1796 C   0  0  0  0  0  0
  -29.4778  -20.0122   21.0443 C   0  0  0  0  0  0
  -29.6860  -17.7100   21.9944 C   0  0  0  0  0  0
  -29.3470  -18.5845   20.9006 C   0  0  0  0  0  0
  -27.8166  -23.2691   20.2707 C   0  0  0  0  0  0
  -28.7979  -18.0307   19.5895 C   0  0  0  0  0  0
  -25.7777  -20.9178   19.3856 C   0  0  0  0  0  0
  -28.5312  -15.8432   23.2724 C   0  0  0  0  0  0
  -32.7317  -16.4682   22.4557 C   0  0  0  0  0  0
  -31.5485  -14.9696   24.2141 C   0  0  0  0  0  0
  -29.0847  -21.0529   19.9686 C   0  0  0  0  0  0
  -29.0124  -24.1756   19.8902 C   0  0  0  0  0  0
  -26.6939  -21.1062   20.6049 C   0  0  0  0  0  0
  -28.6572  -25.5560   19.2365 C   0  0  0  0  0  0
  -29.4175  -16.1626   22.0353 C   0  0  2  0  0  0
  -31.7833  -15.2742   22.7225 C   0  0  0  0  0  0
  -27.9000  -21.8977   20.2866 N   0  0  0  0  0  0
  -30.5614  -15.1801   21.8602 N   0  0  0  0  0  0
  -26.7611  -23.8399   20.5613 O   0  0  0  0  0  0
  -31.4626  -12.4565   19.1227 H   0  0  0  0  0  0
  -30.3321  -11.3328   19.8056 H   0  0  0  0  0  0
  -29.7327  -11.8531   17.4231 H   0  0  0  0  0  0
  -29.6576  -13.5568   17.8015 H   0  0  0  0  0  0
  -27.8204  -11.3465   18.7954 H   0  0  0  0  0  0
  -27.3663  -12.7080   17.8004 H   0  0  0  0  0  0
  -27.7237  -14.2733   19.6274 H   0  0  0  0  0  0
  -28.6932  -11.9185   21.3085 H   0  0  0  0  0  0
  -28.4515  -13.5180   21.8918 H   0  0  0  0  0  0
  -25.2818   -9.5621   22.4845 H   0  0  0  0  0  0
  -23.9962   -7.4646   22.7549 H   0  0  0  0  0  0
  -21.0919   -8.8872   19.8945 H   0  0  0  0  0  0
  -22.3810  -10.9757   19.6266 H   0  0  0  0  0  0
  -21.1997   -7.6158   23.9672 H   0  0  0  0  0  0
  -21.1528   -6.0544   25.9062 H   0  0  0  0  0  0
  -22.0586   -2.7609   23.2822 H   0  0  0  0  0  0
  -22.4070  -11.9900   22.4811 H   0  0  0  0  0  0
  -21.1113  -13.1298   22.2500 H   0  0  0  0  0  0
  -24.6607  -15.8382   20.5432 H   0  0  0  0  0  0
  -26.2777  -15.6390   20.0963 H   0  0  0  0  0  0
  -26.7117  -32.5544   23.1160 H   0  0  0  0  0  0
  -25.0024  -33.9755   25.0438 H   0  0  0  0  0  0
  -22.6959  -31.3091   21.4100 H   0  0  0  0  0  0
  -23.3787  -35.9591   23.3233 H   0  0  0  0  0  0
  -24.3572  -36.9009   22.2066 H   0  0  0  0  0  0
  -23.7188  -37.6471   23.6706 H   0  0  0  0  0  0
  -26.0456  -31.5892   20.5910 H   0  0  0  0  0  0
  -26.8262  -30.8844   21.9765 H   0  0  0  0  0  0
  -28.1020  -29.0706   21.1670 H   0  0  0  0  0  0
  -25.9928  -25.9457   19.0443 H   0  0  0  0  0  0
  -23.9719  -27.2889   19.0437 H   0  0  0  0  0  0
  -23.7224  -30.5989   19.4028 H   0  0  0  0  0  0
  -22.7370  -29.2451   19.8710 H   0  0  0  0  0  0
  -25.1269  -36.1976   25.0839 H   0  0  0  0  0  0
  -20.9961  -28.3272   24.1435 H   0  0  0  0  0  0
  -20.5634  -26.2285   23.3628 H   0  0  0  0  0  0
  -21.6632  -26.7437   22.1264 H   0  0  0  0  0  0
  -19.6908  -25.6320   21.1212 H   0  0  0  0  0  0
  -19.6677  -27.3193   20.6746 H   0  0  0  0  0  0
  -17.4199  -26.6703   21.4003 H   0  0  0  0  0  0
  -18.0278  -26.0063   22.8993 H   0  0  0  0  0  0
  -19.7929  -30.7222   24.2323 H   0  0  0  0  0  0
  -17.5024  -31.6268   24.5190 H   0  0  0  0  0  0
  -15.5335  -30.3012   23.7630 H   0  0  0  0  0  0
  -15.8658  -28.0822   22.7054 H   0  0  0  0  0  0
  -24.6000  -30.6845   25.7747 H   0  0  0  0  0  0
  -24.8771  -32.2697   26.4843 H   0  0  0  0  0  0
  -25.8104  -30.8841   27.0205 H   0  0  0  0  0  0
  -26.2912  -29.6775   24.1149 H   0  0  0  0  0  0
  -27.4214  -29.7328   25.4498 H   0  0  0  0  0  0
  -27.8688  -30.4427   23.9168 H   0  0  0  0  0  0
  -27.2676  -33.3611   26.2048 H   0  0  0  0  0  0
  -28.3864  -32.6809   25.0325 H   0  0  0  0  0  0
  -28.0677  -31.8416   26.5413 H   0  0  0  0  0  0
  -28.2549  -38.0155   24.7631 H   0  0  0  0  0  0
  -28.1157  -36.2708   24.6147 H   0  0  0  0  0  0
  -27.2314  -37.1301   25.8851 H   0  0  0  0  0  0
  -20.9284  -29.8766   21.6935 H   0  0  0  0  0  0
  -26.0175  -38.2876   24.1506 H   0  0  0  0  0  0
  -30.7137  -20.1333   24.2243 H   0  0  0  0  0  0
  -30.0853  -21.6191   22.3660 H   0  0  0  0  0  0
  -30.4293  -17.7249   24.0377 H   0  0  0  0  0  0
  -29.3367  -18.4570   18.7428 H   0  0  0  0  0  0
  -27.7373  -18.2736   19.4875 H   0  0  0  0  0  0
  -28.9068  -16.9579   19.4712 H   0  0  0  0  0  0
  -24.9240  -20.2927   19.6475 H   0  0  0  0  0  0
  -26.2994  -20.4315   18.5612 H   0  0  0  0  0  0
  -25.3876  -21.8699   19.0255 H   0  0  0  0  0  0
  -27.5513  -16.3094   23.1544 H   0  0  0  0  0  0
  -28.9307  -16.2198   24.2106 H   0  0  0  0  0  0
  -28.3591  -14.7875   23.4486 H   0  0  0  0  0  0
  -33.7395  -16.2335   22.7997 H   0  0  0  0  0  0
  -32.4561  -17.3774   22.9774 H   0  0  0  0  0  0
  -32.8052  -16.7077   21.3952 H   0  0  0  0  0  0
  -32.5033  -14.8207   24.7214 H   0  0  0  0  0  0
  -30.9781  -14.0478   24.3457 H   0  0  0  0  0  0
  -31.0357  -15.7665   24.7454 H   0  0  0  0  0  0
  -28.9060  -20.5898   19.0003 H   0  0  0  0  0  0
  -29.9729  -21.6650   19.8199 H   0  0  0  0  0  0
  -29.6182  -23.6467   19.1565 H   0  0  0  0  0  0
  -29.6459  -24.3178   20.7656 H   0  0  0  0  0  0
  -26.9494  -20.1222   20.9962 H   0  0  0  0  0  0
  -26.1370  -21.5768   21.4159 H   0  0  0  0  0  0
  -27.9030  -25.4228   18.4665 H   0  0  0  0  0  0
  -29.5366  -25.8608   18.6687 H   0  0  0  0  0  0
  -28.7276  -15.9401   21.2255 H   0  0  0  0  0  0
  -32.4070  -14.4196   22.4429 H   0  0  0  0  0  0
  1 25  1  0  0  0
  1 30  2  0  0  0
  1 90  1  0  0  0
  2  3  1  0  0  0
  2 25  1  0  0  0
  2 92  1  0  0  0
  2 93  1  0  0  0
  3  4  1  0  0  0
  3 94  1  0  0  0
  3 95  1  0  0  0
  4  5  1  0  0  0
  4 96  1  0  0  0
  4 97  1  0  0  0
  5  6  1  0  0  0
  5 26  1  0  0  0
  5 98  1  0  0  0
  6 25  1  0  0  0
  6 99  1  0  0  0
  6100  1  0  0  0
  7  8  2  0  0  0
  7 26  1  0  0  0
  7 29  1  0  0  0
  8  9  1  0  0  0
  8 22  1  0  0  0
  9 10  1  0  0  0
  9 27  2  0  0  0
 10 11  2  0  0  0
 10 15  1  0  0  0
 11 12  1  0  0  0
 11101  1  0  0  0
 12 13  2  0  0  0
 12102  1  0  0  0
 13 14  1  0  0  0
 13 31  1  0  0  0
 14 15  2  0  0  0
 14103  1  0  0  0
 15104  1  0  0  0
 16 17  2  0  0  0
 16 21  1  0  0  0
 16 31  1  0  0  0
 17 18  1  0  0  0
 17105  1  0  0  0
 18 19  2  0  0  0
 18106  1  0  0  0
 19 20  1  0  0  0
 19 24  1  0  0  0
 20 21  2  0  0  0
 20107  1  0  0  0
 21 23  1  0  0  0
 22 28  1  0  0  0
 22 32  2  0  0  0
 26 27  1  0  0  0
 28108  1  0  0  0
 28109  1  0  0  0
 29110  1  0  0  0
 29111  1  0  0  0
 33 34  1  0  0  0
 33 66  1  0  0  0
 33 70  2  0  0  0
 34 36  1  0  0  0
 34 59  1  0  0  0
 34112  1  0  0  0
 35 44  2  0  0  0
 35 45  1  0  0  0
 35 68  1  0  0  0
 36 56  1  0  0  0
 36113  1  0  0  0
 37 39  1  0  0  0
 37 47  1  0  0  0
 37 66  1  0  0  0
 37114  1  0  0  0
 38 43  2  0  0  0
 38 46  1  0  0  0
 38 47  1  0  0  0
 39 64  1  0  0  0
 39 67  2  0  0  0
 40 52  1  0  0  0
 40 53  2  0  0  0
 40 58  1  0  0  0
 41115  1  0  0  0
 41116  1  0  0  0
 41117  1  0  0  0
 41 48  1  0  0  0
 42 43  1  0  0  0
 42 66  1  0  0  0
 42118  1  0  0  0
 42119  1  0  0  0
 43 44  1  0  0  0
 44120  1  0  0  0
 45 46  2  0  0  0
 45121  1  0  0  0
 46122  1  0  0  0
 47123  1  0  0  0
 47124  1  0  0  0
 48 56  1  0  0  0
 48 65  1  0  0  0
 48125  1  0  0  0
 49 50  1  0  0  0
 49 53  1  0  0  0
 49 64  1  0  0  0
 49126  1  0  0  0
 50 51  1  0  0  0
 50127  1  0  0  0
 50128  1  0  0  0
 51 52  1  0  0  0
 51129  1  0  0  0
 51130  1  0  0  0
 52131  1  0  0  0
 52132  1  0  0  0
 53 54  1  0  0  0
 54 55  2  0  0  0
 54133  1  0  0  0
 55 57  1  0  0  0
 55134  1  0  0  0
 56 69  2  0  0  0
 57 58  2  0  0  0
 57135  1  0  0  0
 58136  1  0  0  0
 59 60  1  0  0  0
 59 61  1  0  0  0
 59 62  1  0  0  0
 60137  1  0  0  0
 60138  1  0  0  0
 60139  1  0  0  0
 61140  1  0  0  0
 61141  1  0  0  0
 61142  1  0  0  0
 62143  1  0  0  0
 62144  1  0  0  0
 62145  1  0  0  0
 63 65  1  0  0  0
 63146  1  0  0  0
 63147  1  0  0  0
 63148  1  0  0  0
 64149  1  0  0  0
 65150  1  0  0  0
 68 86  1  0  0  0
 71 72  2  0  0  0
 71 73  1  0  0  0
 71151  1  0  0  0
 72 74  1  0  0  0
 72152  1  0  0  0
 73 75  2  0  0  0
 73153  1  0  0  0
 74 76  2  0  0  0
 74 83  1  0  0  0
 75 76  1  0  0  0
 75 87  1  0  0  0
 76 78  1  0  0  0
 77 84  1  0  0  0
 77 89  1  0  0  0
 77 91  2  0  0  0
 78154  1  0  0  0
 78155  1  0  0  0
 78156  1  0  0  0
 79 85  1  0  0  0
 79157  1  0  0  0
 79158  1  0  0  0
 79159  1  0  0  0
 80160  1  0  0  0
 80161  1  0  0  0
 80162  1  0  0  0
 80 87  1  0  0  0
 81163  1  0  0  0
 81164  1  0  0  0
 81165  1  0  0  0
 81 88  1  0  0  0
 82 88  1  0  0  0
 82166  1  0  0  0
 82167  1  0  0  0
 82168  1  0  0  0
 83 89  1  0  0  0
 83169  1  0  0  0
 83170  1  0  0  0
 84 86  1  0  0  0
 84171  1  0  0  0
 84172  1  0  0  0
 85 89  1  0  0  0
 85173  1  0  0  0
 85174  1  0  0  0
 86175  1  0  0  0
 86176  1  0  0  0
 87 90  1  0  0  0
 87177  1  0  0  0
 88 90  1  0  0  0
 88178  1  0  0  0
M  ISO  4   1 100  68 101  86 101  90 100
M  END
> <chiral flag>
0

> <version>
0

> <s_m_source_file>
/data/baiqing/PycharmProjects/Reinvent-master-3.2/result/LINK_invent/BTK/process_docking_weight1_custom_product_contain_oxygen_bond_distance_aromatic_linkinvent_7_9_3/rearranged_h_0055.sdf

> <i_m_source_file_index>
15

> <r_mmod_Potential_Energy-OPLS-2005>
289.263336181641

> <r_mmod_Stretch_Energy-OPLS-2005>
74.5044021606445

> <r_mmod_Bend_Energy-OPLS-2005>
172.011917114258

> <r_mmod_Torsional_Energy-OPLS-2005>
321.573760986328

> <r_mmod_Improper_Torsional_Energy-OPLS-2005>
9.71157360076904

> <r_mmod_Van_der_Waal_Energy-OPLS-2005>
165.7216796875

> <r_mmod_Electrostatic_Energy-OPLS-2005>
-266.123321533203

> <r_mmod_Solvation_Energy-OPLS-2005>
-203.679122924805

> <b_mmod_Minimization_Converged-OPLS-2005>
0

> <r_mmod_RMS_Derivative-OPLS-2005>
3.82296180725098

$$$$
15
                    3D
 Structure written by MMmdl.
165173  0  0  1  0            999 V2000
  -30.7591  -14.4131   20.6079 C   0  0  0  0  0  0
  -30.4054  -12.2843   19.4177 C   0  0  0  0  0  0
  -29.4854  -12.5067   18.2028 C   0  0  0  0  0  0
  -28.0085  -12.3704   18.6174 C   0  0  0  0  0  0
  -27.6602  -13.2096   19.8765 C   0  0  2  0  0  0
  -28.7007  -12.9933   20.9991 C   0  0  0  0  0  0
  -25.2574  -13.8170   20.5682 C   0  0  0  0  0  0
  -24.1828  -13.0442   20.9175 C   0  0  0  0  0  0
  -24.6386  -11.6911   20.8734 C   0  0  0  0  0  0
  -23.9056  -10.4294   21.0401 C   0  0  0  0  0  0
  -24.3610   -9.4211   21.9181 C   0  0  0  0  0  0
  -23.6288   -8.2245   22.0752 C   0  0  0  0  0  0
  -22.4270   -8.0280   21.3544 C   0  0  0  0  0  0
  -21.9903   -9.0251   20.4645 C   0  0  0  0  0  0
  -22.7227  -10.2134   20.3053 C   0  0  0  0  0  0
  -21.6852   -6.0732   22.5278 C   0  0  0  0  0  0
  -21.4014   -6.5639   23.8210 C   0  0  0  0  0  0
  -21.3660   -5.6792   24.9174 C   0  0  0  0  0  0
  -21.6043   -4.3054   24.7225 C   0  0  0  0  0  0
  -21.8818   -3.8146   23.4347 C   0  0  0  0  0  0
  -21.9192   -4.6962   22.3402 C   0  0  0  0  0  0
  -22.7851  -13.5244   21.1837 C   0  0  0  0  0  0
  -22.1660   -4.2147   21.0981 F   0  0  0  0  0  0
  -21.5631   -3.4541   25.7740 F   0  0  0  0  0  0
  -30.0346  -13.2734   20.4432 N   0  0  0  0  0  0
  -26.3015  -12.9346   20.3384 N   0  0  0  0  0  0
  -25.9317  -11.6502   20.5778 N   0  0  0  0  0  0
  -22.0494  -12.8231   22.0391 N   0  0  0  0  0  0
  -25.4299  -15.1884   20.4083 N   0  0  0  0  0  0
  -31.8713  -14.5441   20.0875 O   0  0  0  0  0  0
  -21.6640   -6.8874   21.4239 O   0  0  0  0  0  0
  -22.3536  -14.5554   20.6696 O   0  0  0  0  0  0
  -24.6120  -31.8706   23.2136 C   0  0  0  0  0  0
  -25.9029  -32.4835   23.8422 C   0  0  1  0  0  0
  -27.2275  -27.4609   20.0960 C   0  0  0  0  0  0
  -25.5904  -33.8635   24.2355 N   0  0  0  0  0  0
  -23.3983  -30.4954   21.5526 C   0  0  2  0  0  0
  -24.8445  -28.9645   20.1152 C   0  0  0  0  0  0
  -22.7394  -29.4679   22.5001 C   0  0  0  0  0  0
  -18.0272  -28.1390   22.8488 C   0  0  0  0  0  0
  -24.1485  -36.7320   23.2636 C   0  0  0  0  0  0
  -25.9245  -30.8422   21.3644 C   0  0  0  0  0  0
  -26.0010  -29.4766   20.7171 C   0  0  0  0  0  0
  -27.1970  -28.7278   20.7136 C   0  0  0  0  0  0
  -26.0659  -26.9662   19.4694 C   0  0  0  0  0  0
  -24.8687  -27.7044   19.4915 C   0  0  0  0  0  0
  -23.6052  -29.8282   20.1664 C   0  0  0  0  0  0
  -25.4103  -36.3121   24.0343 C   0  0  1  0  0  0
  -20.5855  -28.3676   23.1326 C   0  0  2  0  0  0
  -20.6770  -26.9413   22.5431 C   0  0  0  0  0  0
  -19.5756  -26.6398   21.5222 C   0  0  0  0  0  0
  -18.1922  -26.7943   22.1613 C   0  0  0  0  0  0
  -19.1516  -28.8849   23.2908 C   0  0  0  0  0  0
  -18.9448  -30.1453   23.8923 C   0  0  0  0  0  0
  -17.6451  -30.6599   24.0574 C   0  0  0  0  0  0
  -25.9034  -34.9485   23.5144 C   0  0  0  0  0  0
  -16.5343  -29.9104   23.6325 C   0  0  0  0  0  0
  -16.7261  -28.6519   23.0344 C   0  0  0  0  0  0
  -26.4468  -31.6596   25.0730 C   0  0  0  0  0  0
  -25.3744  -31.3681   26.1485 C   0  0  0  0  0  0
  -27.0289  -30.3039   24.6082 C   0  0  0  0  0  0
  -27.6066  -32.4302   25.7472 C   0  0  0  0  0  0
  -27.5581  -37.1806   24.8464 C   0  0  0  0  0  0
  -21.4125  -29.3040   22.3727 N   0  0  0  0  0  0
  -26.4292  -37.3801   23.9416 N   0  0  0  0  0  0
  -24.6629  -31.0834   22.1021 N   0  0  0  0  0  0
  -23.4174  -28.8221   23.3038 O   0  0  0  0  0  0
  -28.3786  -26.7153   20.0813 O   0  0  0  0  0  0
  -26.5586  -34.8934   22.4700 O   0  0  0  0  0  0
  -23.5319  -32.1450   23.7544 O   0  0  0  0  0  0
  -28.8009  -17.6854   22.8534 C   0  0  0  0  0  0
  -28.7936  -19.9728   21.2273 C   0  0  0  0  0  0
  -29.6707  -17.7461   21.7438 C   0  0  0  0  0  0
  -27.9523  -18.7699   23.1704 C   0  0  0  0  0  0
  -29.6534  -18.9011   20.9160 C   0  0  0  0  0  0
  -27.9463  -19.9310   22.3566 C   0  0  0  0  0  0
  -30.6566  -16.6367   21.5008 C   0  0  0  0  0  0
  -27.7756  -23.3597   21.9040 C   0  0  0  0  0  0
  -27.0760  -18.6789   24.4083 C   0  0  0  0  0  0
  -30.5418  -19.0296   19.6843 C   0  0  0  0  0  0
  -26.1439  -22.0308   20.5928 C   0  0  0  0  0  0
  -27.0503  -21.1251   22.7143 C   0  0  0  0  0  0
  -27.6288  -24.4849   20.8626 C   0  0  0  0  0  0
  -28.4707  -25.7527   21.1386 C   0  0  0  0  0  0
  -30.1340  -15.4216   21.2455 N   0  0  0  0  0  0
  -27.0330  -22.2348   21.7435 N   0  0  0  0  0  0
  -31.8634  -16.9086   21.5163 O   0  0  0  0  0  0
  -28.5455  -23.5142   22.8572 O   0  0  0  0  0  0
  -31.4517  -12.3515   19.1145 H   0  0  0  0  0  0
  -30.2815  -11.2738   19.8103 H   0  0  0  0  0  0
  -29.7197  -11.7904   17.4141 H   0  0  0  0  0  0
  -29.6610  -13.4973   17.7804 H   0  0  0  0  0  0
  -27.8166  -11.3143   18.8115 H   0  0  0  0  0  0
  -27.3573  -12.6495   17.7882 H   0  0  0  0  0  0
  -27.7052  -14.2577   19.5792 H   0  0  0  0  0  0
  -28.6653  -11.9619   21.3537 H   0  0  0  0  0  0
  -28.4666  -13.6075   21.8698 H   0  0  0  0  0  0
  -25.2755   -9.5690   22.4753 H   0  0  0  0  0  0
  -23.9998   -7.4637   22.7473 H   0  0  0  0  0  0
  -21.0834   -8.8763   19.8951 H   0  0  0  0  0  0
  -22.3681  -10.9671   19.6161 H   0  0  0  0  0  0
  -21.2005   -7.6146   23.9715 H   0  0  0  0  0  0
  -21.1485   -6.0523   25.9075 H   0  0  0  0  0  0
  -22.0598   -2.7609   23.2850 H   0  0  0  0  0  0
  -22.4105  -11.9894   22.4782 H   0  0  0  0  0  0
  -21.1110  -13.1255   22.2592 H   0  0  0  0  0  0
  -24.6649  -15.8449   20.5170 H   0  0  0  0  0  0
  -26.2838  -15.6289   20.0894 H   0  0  0  0  0  0
  -26.7105  -32.5562   23.1195 H   0  0  0  0  0  0
  -25.0061  -33.9804   25.0506 H   0  0  0  0  0  0
  -22.6868  -31.3120   21.4150 H   0  0  0  0  0  0
  -23.3752  -35.9648   23.3302 H   0  0  0  0  0  0
  -24.3580  -36.8926   22.2049 H   0  0  0  0  0  0
  -23.7233  -37.6527   23.6642 H   0  0  0  0  0  0
  -26.0345  -31.6050   20.5920 H   0  0  0  0  0  0
  -26.8149  -30.8983   21.9788 H   0  0  0  0  0  0
  -28.0902  -29.1141   21.1840 H   0  0  0  0  0  0
  -26.0875  -26.0096   18.9673 H   0  0  0  0  0  0
  -23.9812  -27.3073   19.0186 H   0  0  0  0  0  0
  -23.7103  -30.6046   19.4076 H   0  0  0  0  0  0
  -22.7297  -29.2462   19.8723 H   0  0  0  0  0  0
  -25.1273  -36.1989   25.0834 H   0  0  0  0  0  0
  -20.9949  -28.3259   24.1446 H   0  0  0  0  0  0
  -20.5684  -26.2287   23.3620 H   0  0  0  0  0  0
  -21.6643  -26.7467   22.1216 H   0  0  0  0  0  0
  -19.6926  -25.6316   21.1239 H   0  0  0  0  0  0
  -19.6710  -27.3222   20.6763 H   0  0  0  0  0  0
  -17.4200  -26.6704   21.4001 H   0  0  0  0  0  0
  -18.0305  -26.0081   22.8999 H   0  0  0  0  0  0
  -19.7926  -30.7259   24.2301 H   0  0  0  0  0  0
  -17.5009  -31.6275   24.5185 H   0  0  0  0  0  0
  -15.5347  -30.3015   23.7645 H   0  0  0  0  0  0
  -15.8655  -28.0853   22.7046 H   0  0  0  0  0  0
  -24.5978  -30.6944   25.7840 H   0  0  0  0  0  0
  -24.8856  -32.2812   26.4894 H   0  0  0  0  0  0
  -25.8124  -30.8914   27.0264 H   0  0  0  0  0  0
  -26.2823  -29.6810   24.1135 H   0  0  0  0  0  0
  -27.4069  -29.7259   25.4528 H   0  0  0  0  0  0
  -27.8660  -30.4370   23.9221 H   0  0  0  0  0  0
  -27.2722  -33.3607   26.2073 H   0  0  0  0  0  0
  -28.3855  -32.6847   25.0269 H   0  0  0  0  0  0
  -28.0761  -31.8403   26.5355 H   0  0  0  0  0  0
  -28.2603  -38.0099   24.7512 H   0  0  0  0  0  0
  -28.1070  -36.2632   24.6282 H   0  0  0  0  0  0
  -27.2301  -37.1452   25.8868 H   0  0  0  0  0  0
  -20.9292  -29.8733   21.6918 H   0  0  0  0  0  0
  -26.0186  -38.2879   24.1426 H   0  0  0  0  0  0
  -28.8212  -16.8131   23.4938 H   0  0  0  0  0  0
  -28.8085  -20.8444   20.5893 H   0  0  0  0  0  0
  -27.2492  -17.7506   24.9533 H   0  0  0  0  0  0
  -26.0201  -18.7135   24.1392 H   0  0  0  0  0  0
  -27.2879  -19.5022   25.0911 H   0  0  0  0  0  0
  -30.2546  -19.8837   19.0703 H   0  0  0  0  0  0
  -30.4725  -18.1425   19.0537 H   0  0  0  0  0  0
  -31.5837  -19.1685   19.9746 H   0  0  0  0  0  0
  -25.3224  -22.7480   20.6008 H   0  0  0  0  0  0
  -25.7037  -21.0331   20.5862 H   0  0  0  0  0  0
  -26.6854  -22.1345   19.6521 H   0  0  0  0  0  0
  -27.3414  -21.4873   23.7015 H   0  0  0  0  0  0
  -26.0277  -20.7673   22.8419 H   0  0  0  0  0  0
  -26.5739  -24.7492   20.8373 H   0  0  0  0  0  0
  -27.8930  -24.0929   19.8807 H   0  0  0  0  0  0
  -29.5222  -25.4804   21.2371 H   0  0  0  0  0  0
  -28.1821  -26.2067   22.0892 H   0  0  0  0  0  0
  -29.1563  -15.2978   21.4443 H   0  0  0  0  0  0
  1 25  1  0  0  0
  1 30  2  0  0  0
  1 85  1  0  0  0
  2  3  1  0  0  0
  2 25  1  0  0  0
  2 89  1  0  0  0
  2 90  1  0  0  0
  3  4  1  0  0  0
  3 91  1  0  0  0
  3 92  1  0  0  0
  4  5  1  0  0  0
  4 93  1  0  0  0
  4 94  1  0  0  0
  5  6  1  0  0  0
  5 26  1  0  0  0
  5 95  1  0  0  0
  6 25  1  0  0  0
  6 96  1  0  0  0
  6 97  1  0  0  0
  7  8  2  0  0  0
  7 26  1  0  0  0
  7 29  1  0  0  0
  8  9  1  0  0  0
  8 22  1  0  0  0
  9 10  1  0  0  0
  9 27  2  0  0  0
 10 11  2  0  0  0
 10 15  1  0  0  0
 11 12  1  0  0  0
 11 98  1  0  0  0
 12 13  2  0  0  0
 12 99  1  0  0  0
 13 14  1  0  0  0
 13 31  1  0  0  0
 14 15  2  0  0  0
 14100  1  0  0  0
 15101  1  0  0  0
 16 17  2  0  0  0
 16 21  1  0  0  0
 16 31  1  0  0  0
 17 18  1  0  0  0
 17102  1  0  0  0
 18 19  2  0  0  0
 18103  1  0  0  0
 19 20  1  0  0  0
 19 24  1  0  0  0
 20 21  2  0  0  0
 20104  1  0  0  0
 21 23  1  0  0  0
 22 28  1  0  0  0
 22 32  2  0  0  0
 26 27  1  0  0  0
 28105  1  0  0  0
 28106  1  0  0  0
 29107  1  0  0  0
 29108  1  0  0  0
 33 34  1  0  0  0
 33 66  1  0  0  0
 33 70  2  0  0  0
 34 36  1  0  0  0
 34 59  1  0  0  0
 34109  1  0  0  0
 35 44  2  0  0  0
 35 45  1  0  0  0
 35 68  1  0  0  0
 36 56  1  0  0  0
 36110  1  0  0  0
 37 39  1  0  0  0
 37 47  1  0  0  0
 37 66  1  0  0  0
 37111  1  0  0  0
 38 43  2  0  0  0
 38 46  1  0  0  0
 38 47  1  0  0  0
 39 64  1  0  0  0
 39 67  2  0  0  0
 40 52  1  0  0  0
 40 53  2  0  0  0
 40 58  1  0  0  0
 41112  1  0  0  0
 41113  1  0  0  0
 41114  1  0  0  0
 41 48  1  0  0  0
 42 43  1  0  0  0
 42 66  1  0  0  0
 42115  1  0  0  0
 42116  1  0  0  0
 43 44  1  0  0  0
 44117  1  0  0  0
 45 46  2  0  0  0
 45118  1  0  0  0
 46119  1  0  0  0
 47120  1  0  0  0
 47121  1  0  0  0
 48 56  1  0  0  0
 48 65  1  0  0  0
 48122  1  0  0  0
 49 50  1  0  0  0
 49 53  1  0  0  0
 49 64  1  0  0  0
 49123  1  0  0  0
 50 51  1  0  0  0
 50124  1  0  0  0
 50125  1  0  0  0
 51 52  1  0  0  0
 51126  1  0  0  0
 51127  1  0  0  0
 52128  1  0  0  0
 52129  1  0  0  0
 53 54  1  0  0  0
 54 55  2  0  0  0
 54130  1  0  0  0
 55 57  1  0  0  0
 55131  1  0  0  0
 56 69  2  0  0  0
 57 58  2  0  0  0
 57132  1  0  0  0
 58133  1  0  0  0
 59 60  1  0  0  0
 59 61  1  0  0  0
 59 62  1  0  0  0
 60134  1  0  0  0
 60135  1  0  0  0
 60136  1  0  0  0
 61137  1  0  0  0
 61138  1  0  0  0
 61139  1  0  0  0
 62140  1  0  0  0
 62141  1  0  0  0
 62142  1  0  0  0
 63 65  1  0  0  0
 63143  1  0  0  0
 63144  1  0  0  0
 63145  1  0  0  0
 64146  1  0  0  0
 65147  1  0  0  0
 68 84  1  0  0  0
 71 73  2  0  0  0
 71 74  1  0  0  0
 71148  1  0  0  0
 72 75  2  0  0  0
 72 76  1  0  0  0
 72149  1  0  0  0
 73 75  1  0  0  0
 73 77  1  0  0  0
 74 76  2  0  0  0
 74 79  1  0  0  0
 75 80  1  0  0  0
 76 82  1  0  0  0
 77 85  1  0  0  0
 77 87  2  0  0  0
 78 83  1  0  0  0
 78 86  1  0  0  0
 78 88  2  0  0  0
 79150  1  0  0  0
 79151  1  0  0  0
 79152  1  0  0  0
 80153  1  0  0  0
 80154  1  0  0  0
 80155  1  0  0  0
 81 86  1  0  0  0
 81156  1  0  0  0
 81157  1  0  0  0
 81158  1  0  0  0
 82 86  1  0  0  0
 82159  1  0  0  0
 82160  1  0  0  0
 83 84  1  0  0  0
 83161  1  0  0  0
 83162  1  0  0  0
 84163  1  0  0  0
 84164  1  0  0  0
 85165  1  0  0  0
M  ISO  4   1 100  68 101  84 101  85 100
M  END
> <chiral flag>
0

> <version>
0

> <s_m_source_file>
/data/baiqing/PycharmProjects/Reinvent-master-3.2/result/LINK_invent/BTK/process_docking_weight1_custom_product_contain_oxygen_bond_distance_aromatic_linkinvent_7_9_3/rearranged_h_0055.sdf

> <i_m_source_file_index>
16

> <r_mmod_Potential_Energy-OPLS-2005>
-110.704856872559

> <r_mmod_Stretch_Energy-OPLS-2005>
37.3293495178223

> <r_mmod_Bend_Energy-OPLS-2005>
91.4385681152344

> <r_mmod_Torsional_Energy-OPLS-2005>
253.677993774414

> <r_mmod_Improper_Torsional_Energy-OPLS-2005>
3.36781406402588

> <r_mmod_Van_der_Waal_Energy-OPLS-2005>
173.713958740234

> <r_mmod_Electrostatic_Energy-OPLS-2005>
-441.128601074219

> <r_mmod_Solvation_Energy-OPLS-2005>
-240.012771606445

> <b_mmod_Minimization_Converged-OPLS-2005>
0

> <r_mmod_RMS_Derivative-OPLS-2005>
0.951153874397278

$$$$
16
                    3D
 Structure written by MMmdl.
156164  0  0  1  0            999 V2000
  -30.6149  -14.6455   20.4993 C   0  0  0  0  0  0
  -30.4414  -12.3968   19.4498 C   0  0  0  0  0  0
  -29.5084  -12.5046   18.2230 C   0  0  0  0  0  0
  -28.0300  -12.3464   18.6344 C   0  0  0  0  0  0
  -27.6519  -13.2176   19.8618 C   0  0  2  0  0  0
  -28.6972  -13.0726   20.9907 C   0  0  0  0  0  0
  -25.2535  -13.8170   20.5680 C   0  0  0  0  0  0
  -24.1808  -13.0426   20.9180 C   0  0  0  0  0  0
  -24.6398  -11.6909   20.8738 C   0  0  0  0  0  0
  -23.9078  -10.4291   21.0411 C   0  0  0  0  0  0
  -24.3626   -9.4211   21.9200 C   0  0  0  0  0  0
  -23.6296   -8.2247   22.0763 C   0  0  0  0  0  0
  -22.4282   -8.0285   21.3550 C   0  0  0  0  0  0
  -21.9924   -9.0262   20.4657 C   0  0  0  0  0  0
  -22.7251  -10.2137   20.3064 C   0  0  0  0  0  0
  -21.6852   -6.0749   22.5287 C   0  0  0  0  0  0
  -21.4010   -6.5644   23.8222 C   0  0  0  0  0  0
  -21.3656   -5.6794   24.9181 C   0  0  0  0  0  0
  -21.6036   -4.3058   24.7225 C   0  0  0  0  0  0
  -21.8818   -3.8158   23.4346 C   0  0  0  0  0  0
  -21.9189   -4.6979   22.3408 C   0  0  0  0  0  0
  -22.7827  -13.5212   21.1855 C   0  0  0  0  0  0
  -22.1655   -4.2168   21.0986 F   0  0  0  0  0  0
  -21.5628   -3.4542   25.7736 F   0  0  0  0  0  0
  -30.0124  -13.4170   20.4259 N   0  0  0  0  0  0
  -26.2980  -12.9365   20.3315 N   0  0  0  0  0  0
  -25.9328  -11.6521   20.5765 N   0  0  0  0  0  0
  -22.0471  -12.8211   22.0416 N   0  0  0  0  0  0
  -25.4176  -15.1897   20.4124 N   0  0  0  0  0  0
  -31.7868  -14.8088   20.1435 O   0  0  0  0  0  0
  -21.6631   -6.8893   21.4251 O   0  0  0  0  0  0
  -22.3513  -14.5535   20.6731 O   0  0  0  0  0  0
  -24.6274  -31.8600   23.2000 C   0  0  0  0  0  0
  -25.9120  -32.4767   23.8339 C   0  0  1  0  0  0
  -27.2366  -27.3233   20.1208 C   0  0  0  0  0  0
  -25.5946  -33.8559   24.2277 N   0  0  0  0  0  0
  -23.4211  -30.4798   21.5435 C   0  0  2  0  0  0
  -24.8706  -28.9344   20.1092 C   0  0  0  0  0  0
  -22.7497  -29.4594   22.4942 C   0  0  0  0  0  0
  -18.0276  -28.1378   22.8452 C   0  0  0  0  0  0
  -24.1492  -36.7281   23.2641 C   0  0  0  0  0  0
  -25.9599  -30.7944   21.3680 C   0  0  0  0  0  0
  -26.0375  -29.4207   20.7123 C   0  0  0  0  0  0
  -27.2219  -28.6268   20.7075 C   0  0  0  0  0  0
  -26.0450  -26.8870   19.4977 C   0  0  0  0  0  0
  -24.8765  -27.6733   19.4919 C   0  0  0  0  0  0
  -23.6367  -29.8143   20.1579 C   0  0  0  0  0  0
  -25.4113  -36.3071   24.0336 C   0  0  1  0  0  0
  -20.5881  -28.3676   23.1276 C   0  0  2  0  0  0
  -20.6777  -26.9399   22.5405 C   0  0  0  0  0  0
  -19.5752  -26.6385   21.5194 C   0  0  0  0  0  0
  -18.1926  -26.7913   22.1605 C   0  0  0  0  0  0
  -19.1536  -28.8840   23.2847 C   0  0  0  0  0  0
  -18.9469  -30.1442   23.8863 C   0  0  0  0  0  0
  -17.6474  -30.6574   24.0551 C   0  0  0  0  0  0
  -25.9062  -34.9444   23.5103 C   0  0  0  0  0  0
  -16.5357  -29.9072   23.6330 C   0  0  0  0  0  0
  -16.7268  -28.6501   23.0320 C   0  0  0  0  0  0
  -26.4495  -31.6568   25.0707 C   0  0  0  0  0  0
  -25.3733  -31.3698   26.1443 C   0  0  0  0  0  0
  -27.0350  -30.3009   24.6127 C   0  0  0  0  0  0
  -27.6062  -32.4296   25.7484 C   0  0  0  0  0  0
  -27.5568  -37.1793   24.8469 C   0  0  0  0  0  0
  -21.4211  -29.3024   22.3688 N   0  0  0  0  0  0
  -26.4282  -37.3777   23.9417 N   0  0  0  0  0  0
  -24.6876  -31.0623   22.0941 N   0  0  0  0  0  0
  -23.4226  -28.8142   23.3025 O   0  0  0  0  0  0
  -28.3669  -26.4907   20.1708 O   0  0  0  0  0  0
  -26.5622  -34.8919   22.4663 O   0  0  0  0  0  0
  -23.5444  -32.1390   23.7342 O   0  0  0  0  0  0
  -28.7349  -19.3474   20.6655 C   0  0  0  0  0  0
  -31.1190  -17.8697   20.7492 C   0  0  0  0  0  0
  -29.9406  -20.0877   20.7759 C   0  0  0  0  0  0
  -31.1477  -19.3009   20.7806 C   0  0  0  0  0  0
  -29.9046  -17.1411   20.7071 C   0  0  0  0  0  0
  -28.7188  -17.9209   20.6418 C   0  0  0  0  0  0
  -29.9244  -21.5921   21.0230 C   0  0  0  0  0  0
  -32.5264  -19.9470   20.8447 C   0  0  0  0  0  0
  -29.3980  -24.0877   20.4689 C   0  0  0  0  0  0
  -28.1901  -25.0249   20.0342 C   0  0  0  0  0  0
  -30.6438  -22.0194   22.0579 N   0  0  0  0  0  0
  -29.7772  -15.6877   20.7872 N   0  0  0  0  0  0
  -29.2535  -22.5679   20.3248 N   0  3  0  0  0  0
  -27.5268  -17.2781   20.5831 F   0  0  0  0  0  0
  -31.4809  -12.5301   19.1440 H   0  0  0  0  0  0
  -30.3831  -11.4009   19.8916 H   0  0  0  0  0  0
  -29.7703  -11.7469   17.4835 H   0  0  0  0  0  0
  -29.6524  -13.4692   17.7346 H   0  0  0  0  0  0
  -27.8645  -11.2940   18.8660 H   0  0  0  0  0  0
  -27.3763  -12.5777   17.7925 H   0  0  0  0  0  0
  -27.6650  -14.2517   19.5180 H   0  0  0  0  0  0
  -28.7099  -12.0514   21.3750 H   0  0  0  0  0  0
  -28.4431  -13.7059   21.8418 H   0  0  0  0  0  0
  -25.2776   -9.5661   22.4784 H   0  0  0  0  0  0
  -23.9993   -7.4624   22.7476 H   0  0  0  0  0  0
  -21.0865   -8.8792   19.8955 H   0  0  0  0  0  0
  -22.3734  -10.9682   19.6167 H   0  0  0  0  0  0
  -21.2006   -7.6153   23.9731 H   0  0  0  0  0  0
  -21.1470   -6.0525   25.9083 H   0  0  0  0  0  0
  -22.0602   -2.7622   23.2846 H   0  0  0  0  0  0
  -22.4069  -11.9847   22.4778 H   0  0  0  0  0  0
  -21.1101  -13.1260   22.2645 H   0  0  0  0  0  0
  -24.6453  -15.8338   20.5441 H   0  0  0  0  0  0
  -26.2774  -15.6657   20.1642 H   0  0  0  0  0  0
  -26.7199  -32.5454   23.1108 H   0  0  0  0  0  0
  -25.0114  -33.9689   25.0435 H   0  0  0  0  0  0
  -22.7121  -31.2972   21.3991 H   0  0  0  0  0  0
  -23.3743  -35.9623   23.3308 H   0  0  0  0  0  0
  -24.3592  -36.8909   22.2057 H   0  0  0  0  0  0
  -23.7258  -37.6489   23.6660 H   0  0  0  0  0  0
  -26.0869  -31.5576   20.5978 H   0  0  0  0  0  0
  -26.8403  -30.8477   21.9949 H   0  0  0  0  0  0
  -28.1165  -28.9948   21.1904 H   0  0  0  0  0  0
  -25.9916  -25.9216   19.0161 H   0  0  0  0  0  0
  -23.9852  -27.2927   19.0117 H   0  0  0  0  0  0
  -23.7580  -30.5939   19.4037 H   0  0  0  0  0  0
  -22.7568  -29.2456   19.8524 H   0  0  0  0  0  0
  -25.1285  -36.1917   25.0828 H   0  0  0  0  0  0
  -20.9937  -28.3254   24.1409 H   0  0  0  0  0  0
  -20.5686  -26.2274   23.3601 H   0  0  0  0  0  0
  -21.6639  -26.7440   22.1177 H   0  0  0  0  0  0
  -19.6927  -25.6301   21.1202 H   0  0  0  0  0  0
  -19.6698  -27.3209   20.6729 H   0  0  0  0  0  0
  -17.4202  -26.6632   21.4011 H   0  0  0  0  0  0
  -18.0323  -26.0069   22.9016 H   0  0  0  0  0  0
  -19.7959  -30.7236   24.2230 H   0  0  0  0  0  0
  -17.5039  -31.6249   24.5157 H   0  0  0  0  0  0
  -15.5353  -30.2961   23.7683 H   0  0  0  0  0  0
  -15.8665  -28.0831   22.7023 H   0  0  0  0  0  0
  -24.5921  -30.7024   25.7787 H   0  0  0  0  0  0
  -24.8881  -32.2854   26.4837 H   0  0  0  0  0  0
  -25.8065  -30.8914   27.0237 H   0  0  0  0  0  0
  -26.2926  -29.6750   24.1165 H   0  0  0  0  0  0
  -27.4108  -29.7263   25.4599 H   0  0  0  0  0  0
  -27.8763  -30.4321   23.9314 H   0  0  0  0  0  0
  -27.2686  -33.3618   26.2021 H   0  0  0  0  0  0
  -28.3887  -32.6830   25.0314 H   0  0  0  0  0  0
  -28.0704  -31.8438   26.5424 H   0  0  0  0  0  0
  -28.2576  -38.0097   24.7507 H   0  0  0  0  0  0
  -28.1077  -36.2629   24.6299 H   0  0  0  0  0  0
  -27.2294  -37.1444   25.8876 H   0  0  0  0  0  0
  -20.9409  -29.8787   21.6918 H   0  0  0  0  0  0
  -26.0159  -38.2852   24.1420 H   0  0  0  0  0  0
  -27.7915  -19.8732   20.6577 H   0  0  0  0  0  0
  -32.0501  -17.3223   20.7954 H   0  0  0  0  0  0
  -33.2931  -19.2767   20.4565 H   0  0  0  0  0  0
  -32.7884  -20.1834   21.8766 H   0  0  0  0  0  0
  -32.5686  -20.8615   20.2519 H   0  0  0  0  0  0
  -29.6280  -24.3302   21.5069 H   0  0  0  0  0  0
  -30.2816  -24.3821   19.8979 H   0  0  0  0  0  0
  -27.3239  -24.7280   20.6265 H   0  0  0  0  0  0
  -27.9461  -24.8008   18.9962 H   0  0  0  0  0  0
  -31.0894  -21.3378   22.6524 H   0  0  0  0  0  0
  -30.7103  -22.9882   22.3175 H   0  0  0  0  0  0
  -28.8342  -15.3895   20.9814 H   0  0  0  0  0  0
  -28.7525  -22.2519   19.5018 H   0  0  0  0  0  0
  1 25  1  0  0  0
  1 30  2  0  0  0
  1 82  1  0  0  0
  2  3  1  0  0  0
  2 25  1  0  0  0
  2 85  1  0  0  0
  2 86  1  0  0  0
  3  4  1  0  0  0
  3 87  1  0  0  0
  3 88  1  0  0  0
  4  5  1  0  0  0
  4 89  1  0  0  0
  4 90  1  0  0  0
  5  6  1  0  0  0
  5 26  1  0  0  0
  5 91  1  0  0  0
  6 25  1  0  0  0
  6 92  1  0  0  0
  6 93  1  0  0  0
  7  8  2  0  0  0
  7 26  1  0  0  0
  7 29  1  0  0  0
  8  9  1  0  0  0
  8 22  1  0  0  0
  9 10  1  0  0  0
  9 27  2  0  0  0
 10 11  2  0  0  0
 10 15  1  0  0  0
 11 12  1  0  0  0
 11 94  1  0  0  0
 12 13  2  0  0  0
 12 95  1  0  0  0
 13 14  1  0  0  0
 13 31  1  0  0  0
 14 15  2  0  0  0
 14 96  1  0  0  0
 15 97  1  0  0  0
 16 17  2  0  0  0
 16 21  1  0  0  0
 16 31  1  0  0  0
 17 18  1  0  0  0
 17 98  1  0  0  0
 18 19  2  0  0  0
 18 99  1  0  0  0
 19 20  1  0  0  0
 19 24  1  0  0  0
 20 21  2  0  0  0
 20100  1  0  0  0
 21 23  1  0  0  0
 22 28  1  0  0  0
 22 32  2  0  0  0
 26 27  1  0  0  0
 28101  1  0  0  0
 28102  1  0  0  0
 29103  1  0  0  0
 29104  1  0  0  0
 33 34  1  0  0  0
 33 66  1  0  0  0
 33 70  2  0  0  0
 34 36  1  0  0  0
 34 59  1  0  0  0
 34105  1  0  0  0
 35 44  2  0  0  0
 35 45  1  0  0  0
 35 68  1  0  0  0
 36 56  1  0  0  0
 36106  1  0  0  0
 37 39  1  0  0  0
 37 47  1  0  0  0
 37 66  1  0  0  0
 37107  1  0  0  0
 38 43  2  0  0  0
 38 46  1  0  0  0
 38 47  1  0  0  0
 39 64  1  0  0  0
 39 67  2  0  0  0
 40 52  1  0  0  0
 40 53  2  0  0  0
 40 58  1  0  0  0
 41108  1  0  0  0
 41109  1  0  0  0
 41110  1  0  0  0
 41 48  1  0  0  0
 42 43  1  0  0  0
 42 66  1  0  0  0
 42111  1  0  0  0
 42112  1  0  0  0
 43 44  1  0  0  0
 44113  1  0  0  0
 45 46  2  0  0  0
 45114  1  0  0  0
 46115  1  0  0  0
 47116  1  0  0  0
 47117  1  0  0  0
 48 56  1  0  0  0
 48 65  1  0  0  0
 48118  1  0  0  0
 49 50  1  0  0  0
 49 53  1  0  0  0
 49 64  1  0  0  0
 49119  1  0  0  0
 50 51  1  0  0  0
 50120  1  0  0  0
 50121  1  0  0  0
 51 52  1  0  0  0
 51122  1  0  0  0
 51123  1  0  0  0
 52124  1  0  0  0
 52125  1  0  0  0
 53 54  1  0  0  0
 54 55  2  0  0  0
 54126  1  0  0  0
 55 57  1  0  0  0
 55127  1  0  0  0
 56 69  2  0  0  0
 57 58  2  0  0  0
 57128  1  0  0  0
 58129  1  0  0  0
 59 60  1  0  0  0
 59 61  1  0  0  0
 59 62  1  0  0  0
 60130  1  0  0  0
 60131  1  0  0  0
 60132  1  0  0  0
 61133  1  0  0  0
 61134  1  0  0  0
 61135  1  0  0  0
 62136  1  0  0  0
 62137  1  0  0  0
 62138  1  0  0  0
 63 65  1  0  0  0
 63139  1  0  0  0
 63140  1  0  0  0
 63141  1  0  0  0
 64142  1  0  0  0
 65143  1  0  0  0
 68 80  1  0  0  0
 71 73  2  0  0  0
 71 76  1  0  0  0
 71144  1  0  0  0
 72 74  2  0  0  0
 72 75  1  0  0  0
 72145  1  0  0  0
 73 74  1  0  0  0
 73 77  1  0  0  0
 74 78  1  0  0  0
 75 76  2  0  0  0
 75 82  1  0  0  0
 76 84  1  0  0  0
 77 81  1  0  0  0
 77 83  2  0  0  0
 78146  1  0  0  0
 78147  1  0  0  0
 78148  1  0  0  0
 79 80  1  0  0  0
 79 83  1  0  0  0
 79149  1  0  0  0
 79150  1  0  0  0
 80151  1  0  0  0
 80152  1  0  0  0
 81153  1  0  0  0
 81154  1  0  0  0
 82155  1  0  0  0
 83156  1  0  0  0
M  CHG  1  83   1
M  ISO  4   1 100  68 101  80 101  82 100
M  END
> <chiral flag>
0

> <version>
0

> <s_m_source_file>
/data/baiqing/PycharmProjects/Reinvent-master-3.2/result/LINK_invent/BTK/process_docking_weight1_custom_product_contain_oxygen_bond_distance_aromatic_linkinvent_7_9_3/rearranged_h_0055.sdf

> <i_m_source_file_index>
17

> <r_mmod_Potential_Energy-OPLS-2005>
-222.332489013672

> <r_mmod_Stretch_Energy-OPLS-2005>
81.9367446899414

> <r_mmod_Bend_Energy-OPLS-2005>
139.671737670898

> <r_mmod_Torsional_Energy-OPLS-2005>
216.725692749023

> <r_mmod_Improper_Torsional_Energy-OPLS-2005>
5.74104690551758

> <r_mmod_Van_der_Waal_Energy-OPLS-2005>
150.631256103516

> <r_mmod_Electrostatic_Energy-OPLS-2005>
-452.536102294922

> <r_mmod_Solvation_Energy-OPLS-2005>
-412.913848876953

> <b_mmod_Minimization_Converged-OPLS-2005>
0

> <r_mmod_RMS_Derivative-OPLS-2005>
2.20671844482422

$$$$
17
                    3D
 Structure written by MMmdl.
158166  0  0  1  0            999 V2000
  -30.7263  -14.4273   20.6148 C   0  0  0  0  0  0
  -30.4213  -12.2964   19.4082 C   0  0  0  0  0  0
  -29.4898  -12.5094   18.1988 C   0  0  0  0  0  0
  -28.0120  -12.3697   18.6140 C   0  0  0  0  0  0
  -27.6632  -13.2029   19.8762 C   0  0  2  0  0  0
  -28.7043  -12.9648   20.9929 C   0  0  0  0  0  0
  -25.2595  -13.8156   20.5671 C   0  0  0  0  0  0
  -24.1840  -13.0440   20.9171 C   0  0  0  0  0  0
  -24.6388  -11.6905   20.8733 C   0  0  0  0  0  0
  -23.9055  -10.4292   21.0404 C   0  0  0  0  0  0
  -24.3610   -9.4209   21.9181 C   0  0  0  0  0  0
  -23.6288   -8.2243   22.0754 C   0  0  0  0  0  0
  -22.4269   -8.0280   21.3545 C   0  0  0  0  0  0
  -21.9902   -9.0253   20.4646 C   0  0  0  0  0  0
  -22.7229  -10.2133   20.3054 C   0  0  0  0  0  0
  -21.6852   -6.0735   22.5281 C   0  0  0  0  0  0
  -21.4013   -6.5639   23.8214 C   0  0  0  0  0  0
  -21.3659   -5.6792   24.9175 C   0  0  0  0  0  0
  -21.6045   -4.3055   24.7225 C   0  0  0  0  0  0
  -21.8820   -3.8148   23.4346 C   0  0  0  0  0  0
  -21.9191   -4.6963   22.3402 C   0  0  0  0  0  0
  -22.7863  -13.5242   21.1840 C   0  0  0  0  0  0
  -22.1660   -4.2151   21.0980 F   0  0  0  0  0  0
  -21.5629   -3.4539   25.7737 F   0  0  0  0  0  0
  -30.0379  -13.2677   20.4429 N   0  0  0  0  0  0
  -26.3030  -12.9317   20.3368 N   0  0  0  0  0  0
  -25.9313  -11.6482   20.5764 N   0  0  0  0  0  0
  -22.0501  -12.8238   22.0398 N   0  0  0  0  0  0
  -25.4326  -15.1871   20.4064 N   0  0  0  0  0  0
  -31.8347  -14.6297   20.1084 O   0  0  0  0  0  0
  -21.6637   -6.8876   21.4241 O   0  0  0  0  0  0
  -22.3551  -14.5551   20.6691 O   0  0  0  0  0  0
  -24.6142  -31.8692   23.2112 C   0  0  0  0  0  0
  -25.9038  -32.4831   23.8402 C   0  0  1  0  0  0
  -27.2286  -27.4420   20.0900 C   0  0  0  0  0  0
  -25.5896  -33.8629   24.2331 N   0  0  0  0  0  0
  -23.4007  -30.4953   21.5519 C   0  0  2  0  0  0
  -24.8441  -28.9659   20.1133 C   0  0  0  0  0  0
  -22.7407  -29.4673   22.4991 C   0  0  0  0  0  0
  -18.0276  -28.1374   22.8494 C   0  0  0  0  0  0
  -24.1486  -36.7321   23.2638 C   0  0  0  0  0  0
  -25.9299  -30.8382   21.3627 C   0  0  0  0  0  0
  -26.0064  -29.4751   20.7059 C   0  0  0  0  0  0
  -27.2023  -28.7218   20.6886 C   0  0  0  0  0  0
  -26.0464  -26.9511   19.4856 C   0  0  0  0  0  0
  -24.8588  -27.7030   19.5002 C   0  0  0  0  0  0
  -23.6064  -29.8314   20.1652 C   0  0  0  0  0  0
  -25.4106  -36.3119   24.0338 C   0  0  1  0  0  0
  -20.5867  -28.3659   23.1317 C   0  0  2  0  0  0
  -20.6765  -26.9394   22.5416 C   0  0  0  0  0  0
  -19.5742  -26.6381   21.5213 C   0  0  0  0  0  0
  -18.1920  -26.7923   22.1622 C   0  0  0  0  0  0
  -19.1526  -28.8832   23.2905 C   0  0  0  0  0  0
  -18.9451  -30.1439   23.8913 C   0  0  0  0  0  0
  -17.6454  -30.6581   24.0564 C   0  0  0  0  0  0
  -25.9032  -34.9483   23.5131 C   0  0  0  0  0  0
  -16.5344  -29.9081   23.6329 C   0  0  0  0  0  0
  -16.7262  -28.6502   23.0346 C   0  0  0  0  0  0
  -26.4468  -31.6609   25.0731 C   0  0  0  0  0  0
  -25.3737  -31.3719   26.1485 C   0  0  0  0  0  0
  -27.0298  -30.3054   24.6101 C   0  0  0  0  0  0
  -27.6042  -32.4330   25.7491 C   0  0  0  0  0  0
  -27.5582  -37.1813   24.8465 C   0  0  0  0  0  0
  -21.4137  -29.3035   22.3730 N   0  0  0  0  0  0
  -26.4295  -37.3798   23.9408 N   0  0  0  0  0  0
  -24.6668  -31.0808   22.1003 N   0  0  0  0  0  0
  -23.4190  -28.8214   23.3022 O   0  0  0  0  0  0
  -28.3947  -26.7027   20.1163 O   0  0  0  0  0  0
  -26.5593  -34.8931   22.4694 O   0  0  0  0  0  0
  -23.5337  -32.1434   23.7519 O   0  0  0  0  0  0
  -32.1891  -18.2602   22.4264 C   0  0  0  0  0  0
  -31.7840  -16.9480   22.1183 C   0  0  0  0  0  0
  -31.3279  -19.3462   22.1795 C   0  0  0  0  0  0
  -29.6492  -17.8089   21.3104 C   0  0  0  0  0  0
  -30.5115  -16.7128   21.5500 C   0  0  0  0  0  0
  -30.0463  -19.1290   21.6244 C   0  0  0  0  0  0
  -29.6389  -22.4788   22.0587 C   0  0  0  0  0  0
  -27.4752  -21.2633   22.6496 C   0  0  0  0  0  0
  -29.4693  -24.5566   20.6884 C   0  0  0  0  0  0
  -28.2329  -25.2780   20.1254 C   0  0  0  0  0  0
  -28.9864  -21.1240   22.4089 C   0  0  1  0  0  0
  -30.0598  -15.3921   21.2732 N   0  0  0  0  0  0
  -29.1500  -23.1616   21.0134 N   0  0  0  0  0  0
  -30.5559  -22.9175   22.7557 O   0  0  0  0  0  0
  -29.1770  -20.1667   21.3611 O   0  0  0  0  0  0
  -31.4647  -12.3969   19.1041 H   0  0  0  0  0  0
  -30.3230  -11.2808   19.7951 H   0  0  0  0  0  0
  -29.7255  -11.7928   17.4111 H   0  0  0  0  0  0
  -29.6595  -13.4995   17.7726 H   0  0  0  0  0  0
  -27.8204  -11.3129   18.8042 H   0  0  0  0  0  0
  -27.3605  -12.6512   17.7858 H   0  0  0  0  0  0
  -27.7139  -14.2533   19.5890 H   0  0  0  0  0  0
  -28.6761  -11.9241   21.3195 H   0  0  0  0  0  0
  -28.4634  -13.5491   21.8820 H   0  0  0  0  0  0
  -25.2756   -9.5686   22.4754 H   0  0  0  0  0  0
  -24.0002   -7.4634   22.7470 H   0  0  0  0  0  0
  -21.0836   -8.8766   19.8950 H   0  0  0  0  0  0
  -22.3685  -10.9670   19.6162 H   0  0  0  0  0  0
  -21.2005   -7.6148   23.9717 H   0  0  0  0  0  0
  -21.1481   -6.0523   25.9079 H   0  0  0  0  0  0
  -22.0600   -2.7610   23.2845 H   0  0  0  0  0  0
  -22.4110  -11.9896   22.4786 H   0  0  0  0  0  0
  -21.1121  -13.1269   22.2604 H   0  0  0  0  0  0
  -24.6659  -15.8436   20.5073 H   0  0  0  0  0  0
  -26.2851  -15.6230   20.0780 H   0  0  0  0  0  0
  -26.7115  -32.5540   23.1167 H   0  0  0  0  0  0
  -25.0064  -33.9794   25.0491 H   0  0  0  0  0  0
  -22.6894  -31.3126   21.4158 H   0  0  0  0  0  0
  -23.3746  -35.9658   23.3316 H   0  0  0  0  0  0
  -24.3585  -36.8918   22.2051 H   0  0  0  0  0  0
  -23.7246  -37.6533   23.6641 H   0  0  0  0  0  0
  -26.0436  -31.6073   20.5972 H   0  0  0  0  0  0
  -26.8171  -30.8874   21.9820 H   0  0  0  0  0  0
  -28.0997  -29.1106   21.1501 H   0  0  0  0  0  0
  -26.0220  -25.9887   18.9963 H   0  0  0  0  0  0
  -23.9656  -27.3072   19.0367 H   0  0  0  0  0  0
  -23.7140  -30.6074   19.4067 H   0  0  0  0  0  0
  -22.7295  -29.2521   19.8705 H   0  0  0  0  0  0
  -25.1285  -36.1986   25.0832 H   0  0  0  0  0  0
  -20.9957  -28.3214   24.1438 H   0  0  0  0  0  0
  -20.5667  -26.2261   23.3598 H   0  0  0  0  0  0
  -21.6634  -26.7439   22.1203 H   0  0  0  0  0  0
  -19.6902  -25.6300   21.1223 H   0  0  0  0  0  0
  -19.6677  -27.3207   20.6756 H   0  0  0  0  0  0
  -17.4189  -26.6675   21.4022 H   0  0  0  0  0  0
  -18.0316  -26.0061   22.9015 H   0  0  0  0  0  0
  -19.7930  -30.7253   24.2275 H   0  0  0  0  0  0
  -17.5013  -31.6262   24.5164 H   0  0  0  0  0  0
  -15.5345  -30.2985   23.7649 H   0  0  0  0  0  0
  -15.8666  -28.0828   22.7040 H   0  0  0  0  0  0
  -24.5899  -30.7075   25.7828 H   0  0  0  0  0  0
  -24.8946  -32.2881   26.4948 H   0  0  0  0  0  0
  -25.8093  -30.8878   27.0235 H   0  0  0  0  0  0
  -26.2841  -29.6820   24.1152 H   0  0  0  0  0  0
  -27.4073  -29.7284   25.4553 H   0  0  0  0  0  0
  -27.8674  -30.4384   23.9249 H   0  0  0  0  0  0
  -27.2655  -33.3616   26.2100 H   0  0  0  0  0  0
  -28.3830  -32.6912   25.0305 H   0  0  0  0  0  0
  -28.0735  -31.8442   26.5381 H   0  0  0  0  0  0
  -28.2602  -38.0104   24.7512 H   0  0  0  0  0  0
  -28.1068  -36.2638   24.6287 H   0  0  0  0  0  0
  -27.2302  -37.1467   25.8866 H   0  0  0  0  0  0
  -20.9285  -29.8770   21.6974 H   0  0  0  0  0  0
  -26.0188  -38.2877   24.1407 H   0  0  0  0  0  0
  -33.1649  -18.4354   22.8568 H   0  0  0  0  0  0
  -32.4557  -16.1269   22.3284 H   0  0  0  0  0  0
  -31.6656  -20.3452   22.4156 H   0  0  0  0  0  0
  -28.6693  -17.6431   20.8853 H   0  0  0  0  0  0
  -27.2664  -22.0124   23.4142 H   0  0  0  0  0  0
  -27.0512  -20.3184   22.9892 H   0  0  0  0  0  0
  -26.9444  -21.5529   21.7425 H   0  0  0  0  0  0
  -29.8026  -25.0820   21.5850 H   0  0  0  0  0  0
  -30.2936  -24.5941   19.9760 H   0  0  0  0  0  0
  -27.3766  -25.0138   20.7501 H   0  0  0  0  0  0
  -28.0271  -24.9188   19.1161 H   0  0  0  0  0  0
  -29.4220  -20.7734   23.3471 H   0  0  0  0  0  0
  -29.1015  -15.1770   21.5034 H   0  0  0  0  0  0
  -28.4235  -22.7096   20.4742 H   0  0  0  0  0  0
  1 25  1  0  0  0
  1 30  2  0  0  0
  1 82  1  0  0  0
  2  3  1  0  0  0
  2 25  1  0  0  0
  2 86  1  0  0  0
  2 87  1  0  0  0
  3  4  1  0  0  0
  3 88  1  0  0  0
  3 89  1  0  0  0
  4  5  1  0  0  0
  4 90  1  0  0  0
  4 91  1  0  0  0
  5  6  1  0  0  0
  5 26  1  0  0  0
  5 92  1  0  0  0
  6 25  1  0  0  0
  6 93  1  0  0  0
  6 94  1  0  0  0
  7  8  2  0  0  0
  7 26  1  0  0  0
  7 29  1  0  0  0
  8  9  1  0  0  0
  8 22  1  0  0  0
  9 10  1  0  0  0
  9 27  2  0  0  0
 10 11  2  0  0  0
 10 15  1  0  0  0
 11 12  1  0  0  0
 11 95  1  0  0  0
 12 13  2  0  0  0
 12 96  1  0  0  0
 13 14  1  0  0  0
 13 31  1  0  0  0
 14 15  2  0  0  0
 14 97  1  0  0  0
 15 98  1  0  0  0
 16 17  2  0  0  0
 16 21  1  0  0  0
 16 31  1  0  0  0
 17 18  1  0  0  0
 17 99  1  0  0  0
 18 19  2  0  0  0
 18100  1  0  0  0
 19 20  1  0  0  0
 19 24  1  0  0  0
 20 21  2  0  0  0
 20101  1  0  0  0
 21 23  1  0  0  0
 22 28  1  0  0  0
 22 32  2  0  0  0
 26 27  1  0  0  0
 28102  1  0  0  0
 28103  1  0  0  0
 29104  1  0  0  0
 29105  1  0  0  0
 33 34  1  0  0  0
 33 66  1  0  0  0
 33 70  2  0  0  0
 34 36  1  0  0  0
 34 59  1  0  0  0
 34106  1  0  0  0
 35 44  2  0  0  0
 35 45  1  0  0  0
 35 68  1  0  0  0
 36 56  1  0  0  0
 36107  1  0  0  0
 37 39  1  0  0  0
 37 47  1  0  0  0
 37 66  1  0  0  0
 37108  1  0  0  0
 38 43  2  0  0  0
 38 46  1  0  0  0
 38 47  1  0  0  0
 39 64  1  0  0  0
 39 67  2  0  0  0
 40 52  1  0  0  0
 40 53  2  0  0  0
 40 58  1  0  0  0
 41109  1  0  0  0
 41110  1  0  0  0
 41111  1  0  0  0
 41 48  1  0  0  0
 42 43  1  0  0  0
 42 66  1  0  0  0
 42112  1  0  0  0
 42113  1  0  0  0
 43 44  1  0  0  0
 44114  1  0  0  0
 45 46  2  0  0  0
 45115  1  0  0  0
 46116  1  0  0  0
 47117  1  0  0  0
 47118  1  0  0  0
 48 56  1  0  0  0
 48 65  1  0  0  0
 48119  1  0  0  0
 49 50  1  0  0  0
 49 53  1  0  0  0
 49 64  1  0  0  0
 49120  1  0  0  0
 50 51  1  0  0  0
 50121  1  0  0  0
 50122  1  0  0  0
 51 52  1  0  0  0
 51123  1  0  0  0
 51124  1  0  0  0
 52125  1  0  0  0
 52126  1  0  0  0
 53 54  1  0  0  0
 54 55  2  0  0  0
 54127  1  0  0  0
 55 57  1  0  0  0
 55128  1  0  0  0
 56 69  2  0  0  0
 57 58  2  0  0  0
 57129  1  0  0  0
 58130  1  0  0  0
 59 60  1  0  0  0
 59 61  1  0  0  0
 59 62  1  0  0  0
 60131  1  0  0  0
 60132  1  0  0  0
 60133  1  0  0  0
 61134  1  0  0  0
 61135  1  0  0  0
 61136  1  0  0  0
 62137  1  0  0  0
 62138  1  0  0  0
 62139  1  0  0  0
 63 65  1  0  0  0
 63140  1  0  0  0
 63141  1  0  0  0
 63142  1  0  0  0
 64143  1  0  0  0
 65144  1  0  0  0
 68 80  1  0  0  0
 71 72  2  0  0  0
 71 73  1  0  0  0
 71145  1  0  0  0
 72 75  1  0  0  0
 72146  1  0  0  0
 73 76  2  0  0  0
 73147  1  0  0  0
 74 75  2  0  0  0
 74 76  1  0  0  0
 74148  1  0  0  0
 75 82  1  0  0  0
 76 85  1  0  0  0
 77 81  1  0  0  0
 77 83  1  0  0  0
 77 84  2  0  0  0
 78149  1  0  0  0
 78150  1  0  0  0
 78151  1  0  0  0
 78 81  1  0  0  0
 79 80  1  0  0  0
 79 83  1  0  0  0
 79152  1  0  0  0
 79153  1  0  0  0
 80154  1  0  0  0
 80155  1  0  0  0
 81 85  1  0  0  0
 81156  1  0  0  0
 82157  1  0  0  0
 83158  1  0  0  0
M  ISO  4   1 100  68 101  80 101  82 100
M  END
> <chiral flag>
0

> <version>
0

> <s_m_source_file>
/data/baiqing/PycharmProjects/Reinvent-master-3.2/result/LINK_invent/BTK/process_docking_weight1_custom_product_contain_oxygen_bond_distance_aromatic_linkinvent_7_9_3/rearranged_h_0055.sdf

> <i_m_source_file_index>
18

> <r_mmod_Potential_Energy-OPLS-2005>
-99.2071990966797

> <r_mmod_Stretch_Energy-OPLS-2005>
35.1674385070801

> <r_mmod_Bend_Energy-OPLS-2005>
90.5443115234375

> <r_mmod_Torsional_Energy-OPLS-2005>
248.321914672852

> <r_mmod_Improper_Torsional_Energy-OPLS-2005>
3.19655680656433

> <r_mmod_Van_der_Waal_Energy-OPLS-2005>
161.864807128906

> <r_mmod_Electrostatic_Energy-OPLS-2005>
-413.884185791016

> <r_mmod_Solvation_Energy-OPLS-2005>
-235.007843017578

> <b_mmod_Minimization_Converged-OPLS-2005>
0

> <r_mmod_RMS_Derivative-OPLS-2005>
0.669704616069794

$$$$
18
                    3D
 Structure written by MMmdl.
158166  0  0  1  0            999 V2000
  -30.5805  -14.8657   20.4381 C   0  0  0  0  0  0
  -30.4368  -12.5354   19.4818 C   0  0  0  0  0  0
  -29.5142  -12.5144   18.2426 C   0  0  0  0  0  0
  -28.0450  -12.3162   18.6632 C   0  0  0  0  0  0
  -27.6323  -13.2410   19.8387 C   0  0  2  0  0  0
  -28.6788  -13.2408   20.9733 C   0  0  0  0  0  0
  -25.2471  -13.8205   20.5700 C   0  0  0  0  0  0
  -24.1783  -13.0435   20.9226 C   0  0  0  0  0  0
  -24.6390  -11.6919   20.8756 C   0  0  0  0  0  0
  -23.9072  -10.4293   21.0408 C   0  0  0  0  0  0
  -24.3623   -9.4207   21.9183 C   0  0  0  0  0  0
  -23.6297   -8.2243   22.0749 C   0  0  0  0  0  0
  -22.4281   -8.0278   21.3540 C   0  0  0  0  0  0
  -21.9918   -9.0254   20.4642 C   0  0  0  0  0  0
  -22.7247  -10.2133   20.3055 C   0  0  0  0  0  0
  -21.6853   -6.0734   22.5278 C   0  0  0  0  0  0
  -21.4015   -6.5636   23.8212 C   0  0  0  0  0  0
  -21.3661   -5.6789   24.9173 C   0  0  0  0  0  0
  -21.6048   -4.3052   24.7225 C   0  0  0  0  0  0
  -21.8817   -3.8143   23.4345 C   0  0  0  0  0  0
  -21.9191   -4.6961   22.3402 C   0  0  0  0  0  0
  -22.7802  -13.5212   21.1882 C   0  0  0  0  0  0
  -22.1659   -4.2146   21.0980 F   0  0  0  0  0  0
  -21.5630   -3.4535   25.7737 F   0  0  0  0  0  0
  -29.9617  -13.6263   20.3728 N   0  0  0  0  0  0
  -26.2897  -12.9425   20.3248 N   0  0  0  0  0  0
  -25.9322  -11.6561   20.5746 N   0  0  0  0  0  0
  -22.0451  -12.8199   22.0437 N   0  0  0  0  0  0
  -25.4127  -15.1936   20.4110 N   0  0  0  0  0  0
  -31.7874  -14.9184   20.1826 O   0  0  0  0  0  0
  -21.6640   -6.8879   21.4239 O   0  0  0  0  0  0
  -22.3486  -14.5513   20.6721 O   0  0  0  0  0  0
  -24.6393  -31.8488   23.1924 C   0  0  0  0  0  0
  -25.9183  -32.4721   23.8300 C   0  0  1  0  0  0
  -27.2137  -27.1790   20.1495 C   0  0  0  0  0  0
  -25.5945  -33.8526   24.2217 N   0  0  0  0  0  0
  -23.4405  -30.4697   21.5375 C   0  0  2  0  0  0
  -24.8894  -28.9039   20.1126 C   0  0  0  0  0  0
  -22.7548  -29.4573   22.4882 C   0  0  0  0  0  0
  -18.0302  -28.1395   22.8480 C   0  0  0  0  0  0
  -24.1492  -36.7270   23.2641 C   0  0  0  0  0  0
  -25.9936  -30.7359   21.3858 C   0  0  0  0  0  0
  -26.0654  -29.3504   20.7299 C   0  0  0  0  0  0
  -27.2314  -28.5034   20.7323 C   0  0  0  0  0  0
  -26.0183  -26.8302   19.4842 C   0  0  0  0  0  0
  -24.8762  -27.6555   19.4745 C   0  0  0  0  0  0
  -23.6651  -29.8015   20.1559 C   0  0  0  0  0  0
  -25.4120  -36.3048   24.0321 C   0  0  1  0  0  0
  -20.5911  -28.3717   23.1246 C   0  0  2  0  0  0
  -20.6788  -26.9425   22.5404 C   0  0  0  0  0  0
  -19.5761  -26.6382   21.5213 C   0  0  0  0  0  0
  -18.1942  -26.7934   22.1624 C   0  0  0  0  0  0
  -19.1557  -28.8873   23.2856 C   0  0  0  0  0  0
  -18.9473  -30.1469   23.8882 C   0  0  0  0  0  0
  -17.6471  -30.6591   24.0558 C   0  0  0  0  0  0
  -25.9067  -34.9422   23.5076 C   0  0  0  0  0  0
  -16.5361  -29.9085   23.6332 C   0  0  0  0  0  0
  -16.7287  -28.6502   23.0354 C   0  0  0  0  0  0
  -26.4515  -31.6573   25.0725 C   0  0  0  0  0  0
  -25.3707  -31.3751   26.1424 C   0  0  0  0  0  0
  -27.0377  -30.2975   24.6277 C   0  0  0  0  0  0
  -27.6054  -32.4329   25.7507 C   0  0  0  0  0  0
  -27.5578  -37.1790   24.8464 C   0  0  0  0  0  0
  -21.4245  -29.3052   22.3627 N   0  0  0  0  0  0
  -26.4287  -37.3756   23.9409 N   0  0  0  0  0  0
  -24.7107  -31.0381   22.0940 N   0  0  0  0  0  0
  -23.4211  -28.8116   23.3012 O   0  0  0  0  0  0
  -28.2730  -26.2158   20.1855 O   0  0  0  0  0  0
  -26.5648  -34.8910   22.4651 O   0  0  0  0  0  0
  -23.5522  -32.1344   23.7167 O   0  0  0  0  0  0
  -31.7644  -19.1866   21.5074 C   0  0  0  0  0  0
  -31.4139  -17.8553   21.1964 C   0  0  0  0  0  0
  -29.2717  -18.6820   20.4331 C   0  0  0  0  0  0
  -30.8873  -20.2831   21.3222 C   0  0  0  0  0  0
  -30.1448  -17.5145   20.6809 C   0  0  0  0  0  0
  -29.6167  -20.0951   20.7090 C   0  0  0  0  0  0
  -28.8998  -23.4563   20.1094 C   0  0  0  0  0  0
  -31.3494  -21.6264   21.8664 C   0  0  0  0  0  0
  -31.8025  -23.0122   18.3077 C   0  0  0  0  0  0
  -27.9593  -24.7393   20.5253 C   0  0  0  0  0  0
  -27.3964  -21.2064   19.3701 N   0  0  0  0  0  0
  -29.9597  -23.7270   19.4513 N   0  0  0  0  0  0
  -29.7998  -16.0417   20.5281 N   0  0  0  0  0  0
  -27.7455  -21.6781   21.9065 O   0  0  0  0  0  0
  -30.6410  -22.5865   19.0072 O   0  0  0  0  0  0
  -28.3502  -21.5839   20.5635 S   0  0  1  0  0  0
  -31.4726  -12.6793   19.1707 H   0  0  0  0  0  0
  -30.4113  -11.5763   20.0017 H   0  0  0  0  0  0
  -29.8189  -11.7222   17.5574 H   0  0  0  0  0  0
  -29.6149  -13.4513   17.6923 H   0  0  0  0  0  0
  -27.9279  -11.2731   18.9585 H   0  0  0  0  0  0
  -27.3819  -12.4656   17.8105 H   0  0  0  0  0  0
  -27.6039  -14.2481   19.4224 H   0  0  0  0  0  0
  -28.7467  -12.2599   21.4458 H   0  0  0  0  0  0
  -28.3956  -13.9430   21.7591 H   0  0  0  0  0  0
  -25.2767   -9.5683   22.4761 H   0  0  0  0  0  0
  -24.0003   -7.4633   22.7469 H   0  0  0  0  0  0
  -21.0848   -8.8778   19.8950 H   0  0  0  0  0  0
  -22.3705  -10.9673   19.6166 H   0  0  0  0  0  0
  -21.2010   -7.6145   23.9715 H   0  0  0  0  0  0
  -21.1485   -6.0518   25.9076 H   0  0  0  0  0  0
  -22.0596   -2.7606   23.2845 H   0  0  0  0  0  0
  -22.4073  -11.9870   22.4842 H   0  0  0  0  0  0
  -21.1065  -13.1216   22.2632 H   0  0  0  0  0  0
  -24.6394  -15.8412   20.5178 H   0  0  0  0  0  0
  -26.2489  -15.6355   20.0526 H   0  0  0  0  0  0
  -26.7253  -32.5347   23.1040 H   0  0  0  0  0  0
  -25.0074  -33.9650   25.0350 H   0  0  0  0  0  0
  -22.7409  -31.2941   21.3857 H   0  0  0  0  0  0
  -23.3757  -35.9599   23.3291 H   0  0  0  0  0  0
  -24.3579  -36.8909   22.2057 H   0  0  0  0  0  0
  -23.7243  -37.6463   23.6680 H   0  0  0  0  0  0
  -26.1427  -31.4912   20.6127 H   0  0  0  0  0  0
  -26.8671  -30.7874   22.0243 H   0  0  0  0  0  0
  -28.1291  -28.8399   21.2318 H   0  0  0  0  0  0
  -25.9428  -25.8875   18.9636 H   0  0  0  0  0  0
  -23.9821  -27.3137   18.9715 H   0  0  0  0  0  0
  -23.7998  -30.5763   19.4002 H   0  0  0  0  0  0
  -22.7813  -29.2414   19.8456 H   0  0  0  0  0  0
  -25.1305  -36.1884   25.0812 H   0  0  0  0  0  0
  -21.0002  -28.3303   24.1366 H   0  0  0  0  0  0
  -20.5684  -26.2329   23.3619 H   0  0  0  0  0  0
  -21.6654  -26.7438   22.1196 H   0  0  0  0  0  0
  -19.6919  -25.6288   21.1254 H   0  0  0  0  0  0
  -19.6693  -27.3183   20.6734 H   0  0  0  0  0  0
  -17.4208  -26.6678   21.4030 H   0  0  0  0  0  0
  -18.0341  -26.0083   22.9027 H   0  0  0  0  0  0
  -19.7948  -30.7288   24.2246 H   0  0  0  0  0  0
  -17.5023  -31.6269   24.5165 H   0  0  0  0  0  0
  -15.5360  -30.2980   23.7663 H   0  0  0  0  0  0
  -15.8687  -28.0813   22.7079 H   0  0  0  0  0  0
  -24.5891  -30.7094   25.7741 H   0  0  0  0  0  0
  -24.8888  -32.2930   26.4800 H   0  0  0  0  0  0
  -25.7992  -30.8953   27.0232 H   0  0  0  0  0  0
  -26.2986  -29.6704   24.1277 H   0  0  0  0  0  0
  -27.3996  -29.7264   25.4838 H   0  0  0  0  0  0
  -27.8891  -30.4222   23.9584 H   0  0  0  0  0  0
  -27.2653  -33.3643   26.2048 H   0  0  0  0  0  0
  -28.3885  -32.6867   25.0351 H   0  0  0  0  0  0
  -28.0702  -31.8480   26.5455 H   0  0  0  0  0  0
  -28.2584  -38.0097   24.7514 H   0  0  0  0  0  0
  -28.1084  -36.2626   24.6286 H   0  0  0  0  0  0
  -27.2298  -37.1433   25.8868 H   0  0  0  0  0  0
  -20.9450  -29.8770   21.6815 H   0  0  0  0  0  0
  -26.0160  -38.2826   24.1408 H   0  0  0  0  0  0
  -32.7341  -19.3597   21.9545 H   0  0  0  0  0  0
  -32.1372  -17.0853   21.4228 H   0  0  0  0  0  0
  -28.2774  -18.5014   20.0518 H   0  0  0  0  0  0
  -31.9194  -22.1779   21.1212 H   0  0  0  0  0  0
  -32.0040  -21.4823   22.7267 H   0  0  0  0  0  0
  -30.5229  -22.2430   22.2144 H   0  0  0  0  0  0
  -32.3548  -22.1430   17.9488 H   0  0  0  0  0  0
  -32.4723  -23.5851   18.9518 H   0  0  0  0  0  0
  -31.5495  -23.6244   17.4400 H   0  0  0  0  0  0
  -27.8699  -24.7060   21.6109 H   0  0  0  0  0  0
  -26.9630  -24.4813   20.1755 H   0  0  0  0  0  0
  -26.7295  -21.9633   19.1835 H   0  0  0  0  0  0
  -28.8100  -15.8492   20.5134 H   0  0  0  0  0  0
  1 25  1  0  0  0
  1 30  2  0  0  0
  1 83  1  0  0  0
  2  3  1  0  0  0
  2 25  1  0  0  0
  2 87  1  0  0  0
  2 88  1  0  0  0
  3  4  1  0  0  0
  3 89  1  0  0  0
  3 90  1  0  0  0
  4  5  1  0  0  0
  4 91  1  0  0  0
  4 92  1  0  0  0
  5  6  1  0  0  0
  5 26  1  0  0  0
  5 93  1  0  0  0
  6 25  1  0  0  0
  6 94  1  0  0  0
  6 95  1  0  0  0
  7  8  2  0  0  0
  7 26  1  0  0  0
  7 29  1  0  0  0
  8  9  1  0  0  0
  8 22  1  0  0  0
  9 10  1  0  0  0
  9 27  2  0  0  0
 10 11  2  0  0  0
 10 15  1  0  0  0
 11 12  1  0  0  0
 11 96  1  0  0  0
 12 13  2  0  0  0
 12 97  1  0  0  0
 13 14  1  0  0  0
 13 31  1  0  0  0
 14 15  2  0  0  0
 14 98  1  0  0  0
 15 99  1  0  0  0
 16 17  2  0  0  0
 16 21  1  0  0  0
 16 31  1  0  0  0
 17 18  1  0  0  0
 17100  1  0  0  0
 18 19  2  0  0  0
 18101  1  0  0  0
 19 20  1  0  0  0
 19 24  1  0  0  0
 20 21  2  0  0  0
 20102  1  0  0  0
 21 23  1  0  0  0
 22 28  1  0  0  0
 22 32  2  0  0  0
 26 27  1  0  0  0
 28103  1  0  0  0
 28104  1  0  0  0
 29105  1  0  0  0
 29106  1  0  0  0
 33 34  1  0  0  0
 33 66  1  0  0  0
 33 70  2  0  0  0
 34 36  1  0  0  0
 34 59  1  0  0  0
 34107  1  0  0  0
 35 44  2  0  0  0
 35 45  1  0  0  0
 35 68  1  0  0  0
 36 56  1  0  0  0
 36108  1  0  0  0
 37 39  1  0  0  0
 37 47  1  0  0  0
 37 66  1  0  0  0
 37109  1  0  0  0
 38 43  2  0  0  0
 38 46  1  0  0  0
 38 47  1  0  0  0
 39 64  1  0  0  0
 39 67  2  0  0  0
 40 52  1  0  0  0
 40 53  2  0  0  0
 40 58  1  0  0  0
 41110  1  0  0  0
 41111  1  0  0  0
 41112  1  0  0  0
 41 48  1  0  0  0
 42 43  1  0  0  0
 42 66  1  0  0  0
 42113  1  0  0  0
 42114  1  0  0  0
 43 44  1  0  0  0
 44115  1  0  0  0
 45 46  2  0  0  0
 45116  1  0  0  0
 46117  1  0  0  0
 47118  1  0  0  0
 47119  1  0  0  0
 48 56  1  0  0  0
 48 65  1  0  0  0
 48120  1  0  0  0
 49 50  1  0  0  0
 49 53  1  0  0  0
 49 64  1  0  0  0
 49121  1  0  0  0
 50 51  1  0  0  0
 50122  1  0  0  0
 50123  1  0  0  0
 51 52  1  0  0  0
 51124  1  0  0  0
 51125  1  0  0  0
 52126  1  0  0  0
 52127  1  0  0  0
 53 54  1  0  0  0
 54 55  2  0  0  0
 54128  1  0  0  0
 55 57  1  0  0  0
 55129  1  0  0  0
 56 69  2  0  0  0
 57 58  2  0  0  0
 57130  1  0  0  0
 58131  1  0  0  0
 59 60  1  0  0  0
 59 61  1  0  0  0
 59 62  1  0  0  0
 60132  1  0  0  0
 60133  1  0  0  0
 60134  1  0  0  0
 61135  1  0  0  0
 61136  1  0  0  0
 61137  1  0  0  0
 62138  1  0  0  0
 62139  1  0  0  0
 62140  1  0  0  0
 63 65  1  0  0  0
 63141  1  0  0  0
 63142  1  0  0  0
 63143  1  0  0  0
 64144  1  0  0  0
 65145  1  0  0  0
 68 80  1  0  0  0
 71 72  2  0  0  0
 71 74  1  0  0  0
 71146  1  0  0  0
 72 75  1  0  0  0
 72147  1  0  0  0
 73 75  2  0  0  0
 73 76  1  0  0  0
 73148  1  0  0  0
 74 76  2  0  0  0
 74 78  1  0  0  0
 75 83  1  0  0  0
 76 86  1  0  0  0
 77 80  1  0  0  0
 77 82  2  0  0  0
 77 86  1  0  0  0
 78149  1  0  0  0
 78150  1  0  0  0
 78151  1  0  0  0
 79 85  1  0  0  0
 79152  1  0  0  0
 79153  1  0  0  0
 79154  1  0  0  0
 80155  1  0  0  0
 80156  1  0  0  0
 81 86  2  0  0  0
 81157  1  0  0  0
 82 85  1  0  0  0
 83158  1  0  0  0
 84 86  2  0  0  0
M  ISO  4   1 100  68 101  80 101  83 100
M  END
> <chiral flag>
0

> <version>
0

> <s_m_source_file>
/data/baiqing/PycharmProjects/Reinvent-master-3.2/result/LINK_invent/BTK/process_docking_weight1_custom_product_contain_oxygen_bond_distance_aromatic_linkinvent_7_9_3/rearranged_h_0055.sdf

> <i_m_source_file_index>
19

> <r_mmod_Potential_Energy-OPLS-2005>
517.037841796875

> <r_mmod_Stretch_Energy-OPLS-2005>
228.177062988281

> <r_mmod_Bend_Energy-OPLS-2005>
225.592956542969

> <r_mmod_Torsional_Energy-OPLS-2005>
227.55158996582

> <r_mmod_Improper_Torsional_Energy-OPLS-2005>
7.65750408172607

> <r_mmod_Van_der_Waal_Energy-OPLS-2005>
126.906745910645

> <r_mmod_Electrostatic_Energy-OPLS-2005>
-196.531112670898

> <r_mmod_Solvation_Energy-OPLS-2005>
-249.240417480469

> <b_mmod_Minimization_Converged-OPLS-2005>
0

> <r_mmod_RMS_Derivative-OPLS-2005>
0.593673408031464

$$$$
19
                    3D
 Structure written by MMmdl.
154162  0  0  1  0            999 V2000
  -30.6632  -14.5512   20.5418 C   0  0  0  0  0  0
  -30.4357  -12.3450   19.4350 C   0  0  0  0  0  0
  -29.5027  -12.4882   18.2134 C   0  0  0  0  0  0
  -28.0241  -12.3366   18.6282 C   0  0  0  0  0  0
  -27.6546  -13.2048   19.8600 C   0  0  2  0  0  0
  -28.6996  -13.0342   20.9866 C   0  0  0  0  0  0
  -25.2572  -13.8154   20.5672 C   0  0  0  0  0  0
  -24.1824  -13.0438   20.9189 C   0  0  0  0  0  0
  -24.6369  -11.6898   20.8723 C   0  0  0  0  0  0
  -23.9028  -10.4289   21.0388 C   0  0  0  0  0  0
  -24.3581   -9.4216   21.9176 C   0  0  0  0  0  0
  -23.6275   -8.2242   22.0743 C   0  0  0  0  0  0
  -22.4260   -8.0264   21.3533 C   0  0  0  0  0  0
  -21.9880   -9.0236   20.4642 C   0  0  0  0  0  0
  -22.7190  -10.2132   20.3051 C   0  0  0  0  0  0
  -21.6856   -6.0715   22.5275 C   0  0  0  0  0  0
  -21.4012   -6.5622   23.8205 C   0  0  0  0  0  0
  -21.3663   -5.6775   24.9170 C   0  0  0  0  0  0
  -21.6041   -4.3043   24.7223 C   0  0  0  0  0  0
  -21.8824   -3.8130   23.4340 C   0  0  0  0  0  0
  -21.9190   -4.6942   22.3395 C   0  0  0  0  0  0
  -22.7852  -13.5243   21.1838 C   0  0  0  0  0  0
  -22.1663   -4.2122   21.0977 F   0  0  0  0  0  0
  -21.5637   -3.4532   25.7741 F   0  0  0  0  0  0
  -30.0209  -13.3536   20.4234 N   0  0  0  0  0  0
  -26.2984  -12.9310   20.3290 N   0  0  0  0  0  0
  -25.9293  -11.6475   20.5735 N   0  0  0  0  0  0
  -22.0469  -12.8269   22.0399 N   0  0  0  0  0  0
  -25.4294  -15.1874   20.4094 N   0  0  0  0  0  0
  -31.8300  -14.7141   20.1746 O   0  0  0  0  0  0
  -21.6627   -6.8857   21.4238 O   0  0  0  0  0  0
  -22.3545  -14.5543   20.6660 O   0  0  0  0  0  0
  -24.6183  -31.8652   23.2067 C   0  0  0  0  0  0
  -25.9059  -32.4809   23.8383 C   0  0  1  0  0  0
  -27.2301  -27.3942   20.1104 C   0  0  0  0  0  0
  -25.5900  -33.8605   24.2309 N   0  0  0  0  0  0
  -23.4081  -30.4877   21.5479 C   0  0  2  0  0  0
  -24.8555  -28.9451   20.1182 C   0  0  0  0  0  0
  -22.7428  -29.4649   22.4977 C   0  0  0  0  0  0
  -18.0276  -28.1370   22.8495 C   0  0  0  0  0  0
  -24.1485  -36.7309   23.2636 C   0  0  0  0  0  0
  -25.9410  -30.8174   21.3672 C   0  0  0  0  0  0
  -26.0179  -29.4477   20.7181 C   0  0  0  0  0  0
  -27.2108  -28.6803   20.7095 C   0  0  0  0  0  0
  -26.0541  -26.9191   19.4964 C   0  0  0  0  0  0
  -24.8707  -27.6825   19.5013 C   0  0  0  0  0  0
  -23.6192  -29.8168   20.1651 C   0  0  0  0  0  0
  -25.4101  -36.3101   24.0343 C   0  0  1  0  0  0
  -20.5871  -28.3669   23.1301 C   0  0  2  0  0  0
  -20.6767  -26.9400   22.5409 C   0  0  0  0  0  0
  -19.5749  -26.6380   21.5203 C   0  0  0  0  0  0
  -18.1926  -26.7922   22.1613 C   0  0  0  0  0  0
  -19.1525  -28.8834   23.2897 C   0  0  0  0  0  0
  -18.9453  -30.1439   23.8910 C   0  0  0  0  0  0
  -17.6454  -30.6581   24.0556 C   0  0  0  0  0  0
  -25.9037  -34.9467   23.5124 C   0  0  0  0  0  0
  -16.5346  -29.9081   23.6319 C   0  0  0  0  0  0
  -16.7262  -28.6489   23.0357 C   0  0  0  0  0  0
  -26.4476  -31.6602   25.0726 C   0  0  0  0  0  0
  -25.3734  -31.3724   26.1470 C   0  0  0  0  0  0
  -27.0318  -30.3041   24.6127 C   0  0  0  0  0  0
  -27.6060  -32.4327   25.7464 C   0  0  0  0  0  0
  -27.5598  -37.1773   24.8442 C   0  0  0  0  0  0
  -21.4149  -29.3035   22.3706 N   0  0  0  0  0  0
  -26.4276  -37.3800   23.9441 N   0  0  0  0  0  0
  -24.6739  -31.0728   22.0982 N   0  0  0  0  0  0
  -23.4179  -28.8200   23.3036 O   0  0  0  0  0  0
  -28.3753  -26.6181   20.0640 O   0  0  0  0  0  0
  -26.5605  -34.8928   22.4687 O   0  0  0  0  0  0
  -23.5362  -32.1411   23.7446 O   0  0  0  0  0  0
  -31.4328  -18.6884   22.3437 C   0  0  0  0  0  0
  -30.7631  -19.7176   21.6494 C   0  0  0  0  0  0
  -31.1702  -17.3317   22.0561 C   0  0  0  0  0  0
  -29.5338  -18.0294   20.3932 C   0  0  0  0  0  0
  -29.8180  -19.4056   20.6500 C   0  0  0  0  0  0
  -30.2122  -16.9799   21.0798 C   0  0  0  0  0  0
  -28.9054  -23.0309   20.1310 C   0  0  0  0  0  0
  -29.2001  -20.5322   19.7908 C   0  0  0  0  0  0
  -27.9045  -24.1140   20.6241 C   0  0  0  0  0  0
  -28.4618  -25.5293   21.0183 C   0  0  0  0  0  0
  -29.8633  -15.6012   20.8598 N   0  0  0  0  0  0
  -28.6824  -21.7390   20.4812 N   0  0  0  0  0  0
  -29.8291  -23.3516   19.3810 O   0  0  0  0  0  0
  -31.4772  -12.4645   19.1313 H   0  0  0  0  0  0
  -30.3616  -11.3445   19.8643 H   0  0  0  0  0  0
  -29.7591  -11.7416   17.4605 H   0  0  0  0  0  0
  -29.6566  -13.4618   17.7438 H   0  0  0  0  0  0
  -27.8567  -11.2845   18.8599 H   0  0  0  0  0  0
  -27.3684  -12.5694   17.7881 H   0  0  0  0  0  0
  -27.6818  -14.2409   19.5249 H   0  0  0  0  0  0
  -28.6936  -12.0090   21.3612 H   0  0  0  0  0  0
  -28.4538  -13.6636   21.8433 H   0  0  0  0  0  0
  -25.2724   -9.5718   22.4748 H   0  0  0  0  0  0
  -23.9987   -7.4642   22.7475 H   0  0  0  0  0  0
  -21.0801   -8.8752   19.8963 H   0  0  0  0  0  0
  -22.3629  -10.9664   19.6161 H   0  0  0  0  0  0
  -21.2007   -7.6131   23.9705 H   0  0  0  0  0  0
  -21.1484   -6.0504   25.9073 H   0  0  0  0  0  0
  -22.0600   -2.7588   23.2846 H   0  0  0  0  0  0
  -22.4050  -11.9947   22.4846 H   0  0  0  0  0  0
  -21.1094  -13.1342   22.2567 H   0  0  0  0  0  0
  -24.6608  -15.8406   20.5200 H   0  0  0  0  0  0
  -26.2728  -15.6285   20.0666 H   0  0  0  0  0  0
  -26.7126  -32.5510   23.1139 H   0  0  0  0  0  0
  -25.0049  -33.9758   25.0455 H   0  0  0  0  0  0
  -22.6988  -31.3057   21.4059 H   0  0  0  0  0  0
  -23.3765  -35.9616   23.3238 H   0  0  0  0  0  0
  -24.3601  -36.8984   22.2063 H   0  0  0  0  0  0
  -23.7196  -37.6480   23.6687 H   0  0  0  0  0  0
  -26.0605  -31.5805   20.5971 H   0  0  0  0  0  0
  -26.8258  -30.8700   21.9897 H   0  0  0  0  0  0
  -28.1103  -29.0689   21.1661 H   0  0  0  0  0  0
  -26.0527  -25.9597   19.0013 H   0  0  0  0  0  0
  -23.9806  -27.2955   19.0234 H   0  0  0  0  0  0
  -23.7274  -30.5877   19.4019 H   0  0  0  0  0  0
  -22.7434  -29.2364   19.8718 H   0  0  0  0  0  0
  -25.1262  -36.1949   25.0832 H   0  0  0  0  0  0
  -20.9965  -28.3237   24.1421 H   0  0  0  0  0  0
  -20.5655  -26.2278   23.3602 H   0  0  0  0  0  0
  -21.6641  -26.7433   22.1209 H   0  0  0  0  0  0
  -19.6911  -25.6291   21.1235 H   0  0  0  0  0  0
  -19.6695  -27.3186   20.6735 H   0  0  0  0  0  0
  -17.4199  -26.6672   21.4010 H   0  0  0  0  0  0
  -18.0330  -26.0054   22.8998 H   0  0  0  0  0  0
  -19.7928  -30.7245   24.2294 H   0  0  0  0  0  0
  -17.5009  -31.6268   24.5150 H   0  0  0  0  0  0
  -15.5346  -30.2985   23.7636 H   0  0  0  0  0  0
  -15.8664  -28.0803   22.7082 H   0  0  0  0  0  0
  -24.5882  -30.7104   25.7797 H   0  0  0  0  0  0
  -24.8955  -32.2890   26.4939 H   0  0  0  0  0  0
  -25.8073  -30.8859   27.0215 H   0  0  0  0  0  0
  -26.2870  -29.6777   24.1200 H   0  0  0  0  0  0
  -27.4102  -29.7304   25.4599 H   0  0  0  0  0  0
  -27.8700  -30.4358   23.9279 H   0  0  0  0  0  0
  -27.2695  -33.3622   26.2061 H   0  0  0  0  0  0
  -28.3839  -32.6891   25.0264 H   0  0  0  0  0  0
  -28.0761  -31.8441   26.5348 H   0  0  0  0  0  0
  -28.2534  -38.0155   24.7628 H   0  0  0  0  0  0
  -28.1180  -36.2698   24.6077 H   0  0  0  0  0  0
  -27.2352  -37.1189   25.8847 H   0  0  0  0  0  0
  -20.9319  -29.8746   21.6915 H   0  0  0  0  0  0
  -26.0161  -38.2860   24.1515 H   0  0  0  0  0  0
  -32.1620  -18.9431   23.1011 H   0  0  0  0  0  0
  -31.0023  -20.7519   21.8651 H   0  0  0  0  0  0
  -31.6955  -16.5650   22.6092 H   0  0  0  0  0  0
  -28.8014  -17.7763   19.6402 H   0  0  0  0  0  0
  -28.3794  -20.1190   19.2031 H   0  0  0  0  0  0
  -29.9575  -20.8220   19.0607 H   0  0  0  0  0  0
  -27.4040  -23.7024   21.5009 H   0  0  0  0  0  0
  -27.1228  -24.2122   19.8735 H   0  0  0  0  0  0
  -29.5137  -25.4288   21.2889 H   0  0  0  0  0  0
  -27.9734  -25.8446   21.9419 H   0  0  0  0  0  0
  -28.8819  -15.3798   20.9223 H   0  0  0  0  0  0
  -27.9251  -21.5722   21.1302 H   0  0  0  0  0  0
  1 25  1  0  0  0
  1 30  2  0  0  0
  1 81  1  0  0  0
  2  3  1  0  0  0
  2 25  1  0  0  0
  2 84  1  0  0  0
  2 85  1  0  0  0
  3  4  1  0  0  0
  3 86  1  0  0  0
  3 87  1  0  0  0
  4  5  1  0  0  0
  4 88  1  0  0  0
  4 89  1  0  0  0
  5  6  1  0  0  0
  5 26  1  0  0  0
  5 90  1  0  0  0
  6 25  1  0  0  0
  6 91  1  0  0  0
  6 92  1  0  0  0
  7  8  2  0  0  0
  7 26  1  0  0  0
  7 29  1  0  0  0
  8  9  1  0  0  0
  8 22  1  0  0  0
  9 10  1  0  0  0
  9 27  2  0  0  0
 10 11  2  0  0  0
 10 15  1  0  0  0
 11 12  1  0  0  0
 11 93  1  0  0  0
 12 13  2  0  0  0
 12 94  1  0  0  0
 13 14  1  0  0  0
 13 31  1  0  0  0
 14 15  2  0  0  0
 14 95  1  0  0  0
 15 96  1  0  0  0
 16 17  2  0  0  0
 16 21  1  0  0  0
 16 31  1  0  0  0
 17 18  1  0  0  0
 17 97  1  0  0  0
 18 19  2  0  0  0
 18 98  1  0  0  0
 19 20  1  0  0  0
 19 24  1  0  0  0
 20 21  2  0  0  0
 20 99  1  0  0  0
 21 23  1  0  0  0
 22 28  1  0  0  0
 22 32  2  0  0  0
 26 27  1  0  0  0
 28100  1  0  0  0
 28101  1  0  0  0
 29102  1  0  0  0
 29103  1  0  0  0
 33 34  1  0  0  0
 33 66  1  0  0  0
 33 70  2  0  0  0
 34 36  1  0  0  0
 34 59  1  0  0  0
 34104  1  0  0  0
 35 44  2  0  0  0
 35 45  1  0  0  0
 35 68  1  0  0  0
 36 56  1  0  0  0
 36105  1  0  0  0
 37 39  1  0  0  0
 37 47  1  0  0  0
 37 66  1  0  0  0
 37106  1  0  0  0
 38 43  2  0  0  0
 38 46  1  0  0  0
 38 47  1  0  0  0
 39 64  1  0  0  0
 39 67  2  0  0  0
 40 52  1  0  0  0
 40 53  2  0  0  0
 40 58  1  0  0  0
 41107  1  0  0  0
 41108  1  0  0  0
 41109  1  0  0  0
 41 48  1  0  0  0
 42 43  1  0  0  0
 42 66  1  0  0  0
 42110  1  0  0  0
 42111  1  0  0  0
 43 44  1  0  0  0
 44112  1  0  0  0
 45 46  2  0  0  0
 45113  1  0  0  0
 46114  1  0  0  0
 47115  1  0  0  0
 47116  1  0  0  0
 48 56  1  0  0  0
 48 65  1  0  0  0
 48117  1  0  0  0
 49 50  1  0  0  0
 49 53  1  0  0  0
 49 64  1  0  0  0
 49118  1  0  0  0
 50 51  1  0  0  0
 50119  1  0  0  0
 50120  1  0  0  0
 51 52  1  0  0  0
 51121  1  0  0  0
 51122  1  0  0  0
 52123  1  0  0  0
 52124  1  0  0  0
 53 54  1  0  0  0
 54 55  2  0  0  0
 54125  1  0  0  0
 55 57  1  0  0  0
 55126  1  0  0  0
 56 69  2  0  0  0
 57 58  2  0  0  0
 57127  1  0  0  0
 58128  1  0  0  0
 59 60  1  0  0  0
 59 61  1  0  0  0
 59 62  1  0  0  0
 60129  1  0  0  0
 60130  1  0  0  0
 60131  1  0  0  0
 61132  1  0  0  0
 61133  1  0  0  0
 61134  1  0  0  0
 62135  1  0  0  0
 62136  1  0  0  0
 62137  1  0  0  0
 63 65  1  0  0  0
 63138  1  0  0  0
 63139  1  0  0  0
 63140  1  0  0  0
 64141  1  0  0  0
 65142  1  0  0  0
 68 80  1  0  0  0
 71 72  2  0  0  0
 71 73  1  0  0  0
 71143  1  0  0  0
 72 75  1  0  0  0
 72144  1  0  0  0
 73 76  2  0  0  0
 73145  1  0  0  0
 74 75  2  0  0  0
 74 76  1  0  0  0
 74146  1  0  0  0
 75 78  1  0  0  0
 76 81  1  0  0  0
 77 79  1  0  0  0
 77 82  1  0  0  0
 77 83  2  0  0  0
 78 82  1  0  0  0
 78147  1  0  0  0
 78148  1  0  0  0
 79 80  1  0  0  0
 79149  1  0  0  0
 79150  1  0  0  0
 80151  1  0  0  0
 80152  1  0  0  0
 81153  1  0  0  0
 82154  1  0  0  0
M  ISO  4   1 100  68 101  80 101  81 100
M  END
> <chiral flag>
0

> <version>
0

> <s_m_source_file>
/data/baiqing/PycharmProjects/Reinvent-master-3.2/result/LINK_invent/BTK/process_docking_weight1_custom_product_contain_oxygen_bond_distance_aromatic_linkinvent_7_9_3/rearranged_h_0055.sdf

> <i_m_source_file_index>
20

> <r_mmod_Potential_Energy-OPLS-2005>
-92.7453842163086

> <r_mmod_Stretch_Energy-OPLS-2005>
48.0562591552734

> <r_mmod_Bend_Energy-OPLS-2005>
107.80362701416

> <r_mmod_Torsional_Energy-OPLS-2005>
253.35368347168

> <r_mmod_Improper_Torsional_Energy-OPLS-2005>
6.87163639068604

> <r_mmod_Van_der_Waal_Energy-OPLS-2005>
140.314483642578

> <r_mmod_Electrostatic_Energy-OPLS-2005>
-425.889587402344

> <r_mmod_Solvation_Energy-OPLS-2005>
-247.014984130859

> <b_mmod_Minimization_Converged-OPLS-2005>
0

> <r_mmod_RMS_Derivative-OPLS-2005>
1.8361736536026

$$$$
20
                    3D
 Structure written by MMmdl.
159167  0  0  1  0            999 V2000
  -30.6936  -14.4457   20.5442 C   0  0  0  0  0  0
  -30.4204  -12.2809   19.4115 C   0  0  0  0  0  0
  -29.4907  -12.4930   18.1972 C   0  0  0  0  0  0
  -28.0078  -12.3707   18.6088 C   0  0  0  0  0  0
  -27.6593  -13.2008   19.8753 C   0  0  2  0  0  0
  -28.7053  -12.9645   20.9898 C   0  0  0  0  0  0
  -25.2560  -13.8112   20.5668 C   0  0  0  0  0  0
  -24.1812  -13.0412   20.9189 C   0  0  0  0  0  0
  -24.6349  -11.6883   20.8743 C   0  0  0  0  0  0
  -23.9015  -10.4279   21.0400 C   0  0  0  0  0  0
  -24.3582   -9.4204   21.9176 C   0  0  0  0  0  0
  -23.6269   -8.2231   22.0742 C   0  0  0  0  0  0
  -22.4249   -8.0264   21.3538 C   0  0  0  0  0  0
  -21.9880   -9.0236   20.4637 C   0  0  0  0  0  0
  -22.7193  -10.2120   20.3049 C   0  0  0  0  0  0
  -21.6842   -6.0720   22.5284 C   0  0  0  0  0  0
  -21.4003   -6.5628   23.8216 C   0  0  0  0  0  0
  -21.3659   -5.6787   24.9182 C   0  0  0  0  0  0
  -21.6043   -4.3048   24.7234 C   0  0  0  0  0  0
  -21.8818   -3.8136   23.4353 C   0  0  0  0  0  0
  -21.9188   -4.6950   22.3408 C   0  0  0  0  0  0
  -22.7833  -13.5221   21.1860 C   0  0  0  0  0  0
  -22.1658   -4.2135   21.0986 F   0  0  0  0  0  0
  -21.5636   -3.4533   25.7746 F   0  0  0  0  0  0
  -30.0327  -13.2649   20.4318 N   0  0  0  0  0  0
  -26.2999  -12.9284   20.3381 N   0  0  0  0  0  0
  -25.9281  -11.6450   20.5774 N   0  0  0  0  0  0
  -22.0471  -12.8228   22.0422 N   0  0  0  0  0  0
  -25.4279  -15.1793   20.3999 N   0  0  0  0  0  0
  -31.8382  -14.6251   20.1245 O   0  0  0  0  0  0
  -21.6629   -6.8853   21.4234 O   0  0  0  0  0  0
  -22.3513  -14.5532   20.6707 O   0  0  0  0  0  0
  -24.6136  -31.8694   23.2121 C   0  0  0  0  0  0
  -25.9038  -32.4835   23.8396 C   0  0  1  0  0  0
  -27.2334  -27.4484   20.0870 C   0  0  0  0  0  0
  -25.5910  -33.8632   24.2344 N   0  0  0  0  0  0
  -23.4002  -30.4950   21.5519 C   0  0  2  0  0  0
  -24.8432  -28.9610   20.1170 C   0  0  0  0  0  0
  -22.7397  -29.4709   22.5018 C   0  0  0  0  0  0
  -18.0300  -28.1384   22.8442 C   0  0  0  0  0  0
  -24.1489  -36.7323   23.2636 C   0  0  0  0  0  0
  -25.9268  -30.8361   21.3637 C   0  0  0  0  0  0
  -26.0024  -29.4708   20.7137 C   0  0  0  0  0  0
  -27.1986  -28.7206   20.6990 C   0  0  0  0  0  0
  -26.0552  -26.9499   19.4825 C   0  0  0  0  0  0
  -24.8640  -27.6993   19.4973 C   0  0  0  0  0  0
  -23.6051  -29.8262   20.1668 C   0  0  0  0  0  0
  -25.4111  -36.3123   24.0335 C   0  0  1  0  0  0
  -20.5865  -28.3728   23.1357 C   0  0  2  0  0  0
  -20.6802  -26.9466   22.5463 C   0  0  0  0  0  0
  -19.5844  -26.6465   21.5183 C   0  0  0  0  0  0
  -18.1984  -26.7937   22.1554 C   0  0  0  0  0  0
  -19.1518  -28.8864   23.2884 C   0  0  0  0  0  0
  -18.9433  -30.1451   23.8904 C   0  0  0  0  0  0
  -17.6419  -30.6563   24.0580 C   0  0  0  0  0  0
  -25.9036  -34.9487   23.5138 C   0  0  0  0  0  0
  -16.5329  -29.9051   23.6286 C   0  0  0  0  0  0
  -16.7280  -28.6489   23.0284 C   0  0  0  0  0  0
  -26.4457  -31.6600   25.0720 C   0  0  0  0  0  0
  -25.3739  -31.3673   26.1483 C   0  0  0  0  0  0
  -27.0303  -30.3059   24.6077 C   0  0  0  0  0  0
  -27.6042  -32.4311   25.7480 C   0  0  0  0  0  0
  -27.5580  -37.1822   24.8467 C   0  0  0  0  0  0
  -21.4118  -29.3129   22.3784 N   0  0  0  0  0  0
  -26.4298  -37.3802   23.9401 N   0  0  0  0  0  0
  -24.6653  -31.0810   22.1017 N   0  0  0  0  0  0
  -23.4177  -28.8232   23.3042 O   0  0  0  0  0  0
  -28.4195  -26.7440   20.0804 O   0  0  0  0  0  0
  -26.5581  -34.8939   22.4694 O   0  0  0  0  0  0
  -23.5331  -32.1420   23.7532 O   0  0  0  0  0  0
  -31.2297  -19.5403   21.8119 C   0  0  0  0  0  0
  -30.1300  -20.4090   21.7263 C   0  0  0  0  0  0
  -31.0249  -18.1571   21.9225 C   0  0  0  0  0  0
  -28.8078  -19.9079   21.7423 C   0  0  0  0  0  0
  -29.7215  -17.6241   21.9421 C   0  0  0  0  0  0
  -28.6021  -18.5003   21.8441 C   0  0  0  0  0  0
  -28.3842  -25.3872   19.8751 C   0  0  0  0  0  0
  -28.1919  -24.4908   20.8648 C   0  0  0  0  0  0
  -28.1340  -23.0647   20.5443 C   0  0  0  0  0  0
  -27.1940  -17.9123   21.8361 C   0  0  0  0  0  0
  -27.6174  -20.8757   21.6474 C   0  0  0  0  0  0
  -29.5868  -16.1027   22.0175 C   0  0  0  0  0  0
  -27.9216  -22.3067   21.6281 N   0  0  0  0  0  0
  -29.9073  -15.5124   20.7240 N   0  0  0  0  0  0
  -28.2319  -22.5807   19.4150 O   0  0  0  0  0  0
  -28.0426  -24.9059   22.1332 O   0  0  0  0  0  0
  -31.4643  -12.3756   19.1095 H   0  0  0  0  0  0
  -30.3168  -11.2685   19.8059 H   0  0  0  0  0  0
  -29.7239  -11.7739   17.4105 H   0  0  0  0  0  0
  -29.6664  -13.4809   17.7691 H   0  0  0  0  0  0
  -27.7991  -11.3164   18.7924 H   0  0  0  0  0  0
  -27.3628  -12.6691   17.7807 H   0  0  0  0  0  0
  -27.7032  -14.2512   19.5883 H   0  0  0  0  0  0
  -28.6760  -11.9272   21.3263 H   0  0  0  0  0  0
  -28.4808  -13.5599   21.8734 H   0  0  0  0  0  0
  -25.2722   -9.5696   22.4747 H   0  0  0  0  0  0
  -23.9996   -7.4616   22.7448 H   0  0  0  0  0  0
  -21.0821   -8.8737   19.8925 H   0  0  0  0  0  0
  -22.3643  -10.9660   19.6159 H   0  0  0  0  0  0
  -21.1992   -7.6135   23.9719 H   0  0  0  0  0  0
  -21.1485   -6.0513   25.9087 H   0  0  0  0  0  0
  -22.0598   -2.7595   23.2859 H   0  0  0  0  0  0
  -22.4072  -11.9882   22.4828 H   0  0  0  0  0  0
  -21.1079  -13.1241   22.2610 H   0  0  0  0  0  0
  -24.6694  -15.8418   20.5138 H   0  0  0  0  0  0
  -26.2871  -15.6051   20.0789 H   0  0  0  0  0  0
  -26.7106  -32.5557   23.1149 H   0  0  0  0  0  0
  -25.0102  -33.9770   25.0518 H   0  0  0  0  0  0
  -22.6906  -31.3134   21.4119 H   0  0  0  0  0  0
  -23.3742  -35.9662   23.3315 H   0  0  0  0  0  0
  -24.3576  -36.8916   22.2043 H   0  0  0  0  0  0
  -23.7240  -37.6538   23.6633 H   0  0  0  0  0  0
  -26.0394  -31.5971   20.5904 H   0  0  0  0  0  0
  -26.8162  -30.8905   21.9801 H   0  0  0  0  0  0
  -28.0992  -29.1123   21.1522 H   0  0  0  0  0  0
  -26.0463  -25.9868   18.9927 H   0  0  0  0  0  0
  -23.9755  -27.3074   19.0209 H   0  0  0  0  0  0
  -23.7125  -30.5994   19.4048 H   0  0  0  0  0  0
  -22.7306  -29.2435   19.8723 H   0  0  0  0  0  0
  -25.1286  -36.1993   25.0823 H   0  0  0  0  0  0
  -20.9934  -28.3349   24.1485 H   0  0  0  0  0  0
  -20.5659  -26.2345   23.3654 H   0  0  0  0  0  0
  -21.6717  -26.7522   22.1370 H   0  0  0  0  0  0
  -19.7037  -25.6381   21.1197 H   0  0  0  0  0  0
  -19.6827  -27.3330   20.6755 H   0  0  0  0  0  0
  -17.4269  -26.6690   21.3936 H   0  0  0  0  0  0
  -18.0411  -26.0041   22.8915 H   0  0  0  0  0  0
  -19.7913  -30.7237   24.2318 H   0  0  0  0  0  0
  -17.4930  -31.6189   24.5279 H   0  0  0  0  0  0
  -15.5308  -30.2886   23.7610 H   0  0  0  0  0  0
  -15.8695  -28.0806   22.6951 H   0  0  0  0  0  0
  -24.5922  -30.6998   25.7819 H   0  0  0  0  0  0
  -24.8922  -32.2824   26.4958 H   0  0  0  0  0  0
  -25.8126  -30.8834   27.0225 H   0  0  0  0  0  0
  -26.2842  -29.6813   24.1152 H   0  0  0  0  0  0
  -27.4110  -29.7287   25.4509 H   0  0  0  0  0  0
  -27.8658  -30.4388   23.9199 H   0  0  0  0  0  0
  -27.2665  -33.3591   26.2105 H   0  0  0  0  0  0
  -28.3839  -32.6898   25.0303 H   0  0  0  0  0  0
  -28.0737  -31.8411   26.5361 H   0  0  0  0  0  0
  -28.2622  -38.0098   24.7521 H   0  0  0  0  0  0
  -28.1054  -36.2638   24.6298 H   0  0  0  0  0  0
  -27.2310  -37.1495   25.8874 H   0  0  0  0  0  0
  -20.9262  -29.8886   21.7041 H   0  0  0  0  0  0
  -26.0198  -38.2887   24.1381 H   0  0  0  0  0  0
  -32.2360  -19.9367   21.7905 H   0  0  0  0  0  0
  -30.3243  -21.4675   21.6441 H   0  0  0  0  0  0
  -31.8799  -17.4973   21.9890 H   0  0  0  0  0  0
  -28.5225  -25.1287   18.8321 H   0  0  0  0  0  0
  -26.4065  -18.6208   21.5889 H   0  0  0  0  0  0
  -26.9556  -17.4811   22.8095 H   0  0  0  0  0  0
  -27.1357  -17.1228   21.0899 H   0  0  0  0  0  0
  -26.9736  -20.7056   22.5118 H   0  0  0  0  0  0
  -27.0278  -20.6312   20.7623 H   0  0  0  0  0  0
  -28.5912  -15.7982   22.3350 H   0  0  0  0  0  0
  -30.2656  -15.7287   22.7864 H   0  0  0  0  0  0
  -27.8439  -22.8168   22.4993 H   0  0  0  0  0  0
  -30.1897  -16.2528   20.1009 H   0  0  0  0  0  0
  -28.0958  -25.8531   22.1181 H   0  0  0  0  0  0
  1 25  1  0  0  0
  1 30  2  0  0  0
  1 84  1  0  0  0
  2  3  1  0  0  0
  2 25  1  0  0  0
  2 87  1  0  0  0
  2 88  1  0  0  0
  3  4  1  0  0  0
  3 89  1  0  0  0
  3 90  1  0  0  0
  4  5  1  0  0  0
  4 91  1  0  0  0
  4 92  1  0  0  0
  5  6  1  0  0  0
  5 26  1  0  0  0
  5 93  1  0  0  0
  6 25  1  0  0  0
  6 94  1  0  0  0
  6 95  1  0  0  0
  7  8  2  0  0  0
  7 26  1  0  0  0
  7 29  1  0  0  0
  8  9  1  0  0  0
  8 22  1  0  0  0
  9 10  1  0  0  0
  9 27  2  0  0  0
 10 11  2  0  0  0
 10 15  1  0  0  0
 11 12  1  0  0  0
 11 96  1  0  0  0
 12 13  2  0  0  0
 12 97  1  0  0  0
 13 14  1  0  0  0
 13 31  1  0  0  0
 14 15  2  0  0  0
 14 98  1  0  0  0
 15 99  1  0  0  0
 16 17  2  0  0  0
 16 21  1  0  0  0
 16 31  1  0  0  0
 17 18  1  0  0  0
 17100  1  0  0  0
 18 19  2  0  0  0
 18101  1  0  0  0
 19 20  1  0  0  0
 19 24  1  0  0  0
 20 21  2  0  0  0
 20102  1  0  0  0
 21 23  1  0  0  0
 22 28  1  0  0  0
 22 32  2  0  0  0
 26 27  1  0  0  0
 28103  1  0  0  0
 28104  1  0  0  0
 29105  1  0  0  0
 29106  1  0  0  0
 33 34  1  0  0  0
 33 66  1  0  0  0
 33 70  2  0  0  0
 34 36  1  0  0  0
 34 59  1  0  0  0
 34107  1  0  0  0
 35 44  2  0  0  0
 35 45  1  0  0  0
 35 68  1  0  0  0
 36 56  1  0  0  0
 36108  1  0  0  0
 37 39  1  0  0  0
 37 47  1  0  0  0
 37 66  1  0  0  0
 37109  1  0  0  0
 38 43  2  0  0  0
 38 46  1  0  0  0
 38 47  1  0  0  0
 39 64  1  0  0  0
 39 67  2  0  0  0
 40 52  1  0  0  0
 40 53  2  0  0  0
 40 58  1  0  0  0
 41110  1  0  0  0
 41111  1  0  0  0
 41112  1  0  0  0
 41 48  1  0  0  0
 42 43  1  0  0  0
 42 66  1  0  0  0
 42113  1  0  0  0
 42114  1  0  0  0
 43 44  1  0  0  0
 44115  1  0  0  0
 45 46  2  0  0  0
 45116  1  0  0  0
 46117  1  0  0  0
 47118  1  0  0  0
 47119  1  0  0  0
 48 56  1  0  0  0
 48 65  1  0  0  0
 48120  1  0  0  0
 49 50  1  0  0  0
 49 53  1  0  0  0
 49 64  1  0  0  0
 49121  1  0  0  0
 50 51  1  0  0  0
 50122  1  0  0  0
 50123  1  0  0  0
 51 52  1  0  0  0
 51124  1  0  0  0
 51125  1  0  0  0
 52126  1  0  0  0
 52127  1  0  0  0
 53 54  1  0  0  0
 54 55  2  0  0  0
 54128  1  0  0  0
 55 57  1  0  0  0
 55129  1  0  0  0
 56 69  2  0  0  0
 57 58  2  0  0  0
 57130  1  0  0  0
 58131  1  0  0  0
 59 60  1  0  0  0
 59 61  1  0  0  0
 59 62  1  0  0  0
 60132  1  0  0  0
 60133  1  0  0  0
 60134  1  0  0  0
 61135  1  0  0  0
 61136  1  0  0  0
 61137  1  0  0  0
 62138  1  0  0  0
 62139  1  0  0  0
 62140  1  0  0  0
 63 65  1  0  0  0
 63141  1  0  0  0
 63142  1  0  0  0
 63143  1  0  0  0
 64144  1  0  0  0
 65145  1  0  0  0
 68 77  1  0  0  0
 71 72  2  0  0  0
 71 73  1  0  0  0
 71146  1  0  0  0
 72 74  1  0  0  0
 72147  1  0  0  0
 73 75  2  0  0  0
 73148  1  0  0  0
 74 76  2  0  0  0
 74 81  1  0  0  0
 75 76  1  0  0  0
 75 82  1  0  0  0
 76 80  1  0  0  0
 77 78  2  0  0  0
 77149  1  0  0  0
 78 79  1  0  0  0
 78 86  1  0  0  0
 79 83  1  0  0  0
 79 85  2  0  0  0
 80150  1  0  0  0
 80151  1  0  0  0
 80152  1  0  0  0
 81 83  1  0  0  0
 81153  1  0  0  0
 81154  1  0  0  0
 82 84  1  0  0  0
 82155  1  0  0  0
 82156  1  0  0  0
 83157  1  0  0  0
 84158  1  0  0  0
 86159  1  0  0  0
M  ISO  4   1 100  68 101  77 101  84 100
M  END
> <chiral flag>
0

> <version>
0

> <s_m_source_file>
/data/baiqing/PycharmProjects/Reinvent-master-3.2/result/LINK_invent/BTK/process_docking_weight1_custom_product_contain_oxygen_bond_distance_aromatic_linkinvent_7_9_3/rearranged_h_0055.sdf

> <i_m_source_file_index>
21

> <r_mmod_Potential_Energy-OPLS-2005>
-161.557723999023

> <r_mmod_Stretch_Energy-OPLS-2005>
35.3306274414062

> <r_mmod_Bend_Energy-OPLS-2005>
103.463035583496

> <r_mmod_Torsional_Energy-OPLS-2005>
251.915573120117

> <r_mmod_Improper_Torsional_Energy-OPLS-2005>
17.5332546234131

> <r_mmod_Van_der_Waal_Energy-OPLS-2005>
164.627624511719

> <r_mmod_Electrostatic_Energy-OPLS-2005>
-526.228271484375

> <r_mmod_Solvation_Energy-OPLS-2005>
-220.11408996582

> <b_mmod_Minimization_Converged-OPLS-2005>
0

> <r_mmod_RMS_Derivative-OPLS-2005>
2.81540465354919

$$$$
21
                    3D
 Structure written by MMmdl.
154162  0  0  1  0            999 V2000
  -30.7224  -14.5230   20.5959 C   0  0  0  0  0  0
  -30.4190  -12.3451   19.4290 C   0  0  0  0  0  0
  -29.4903  -12.5114   18.2105 C   0  0  0  0  0  0
  -28.0147  -12.3631   18.6299 C   0  0  0  0  0  0
  -27.6587  -13.2155   19.8749 C   0  0  2  0  0  0
  -28.7054  -13.0327   20.9972 C   0  0  0  0  0  0
  -25.2535  -13.8171   20.5662 C   0  0  0  0  0  0
  -24.1817  -13.0449   20.9219 C   0  0  0  0  0  0
  -24.6381  -11.6915   20.8789 C   0  0  0  0  0  0
  -23.9061  -10.4294   21.0435 C   0  0  0  0  0  0
  -24.3617   -9.4196   21.9187 C   0  0  0  0  0  0
  -23.6285   -8.2238   22.0758 C   0  0  0  0  0  0
  -22.4266   -8.0283   21.3555 C   0  0  0  0  0  0
  -21.9914   -9.0261   20.4658 C   0  0  0  0  0  0
  -22.7256  -10.2130   20.3067 C   0  0  0  0  0  0
  -21.6850   -6.0722   22.5276 C   0  0  0  0  0  0
  -21.4007   -6.5638   23.8201 C   0  0  0  0  0  0
  -21.3658   -5.6797   24.9169 C   0  0  0  0  0  0
  -21.6032   -4.3056   24.7224 C   0  0  0  0  0  0
  -21.8822   -3.8142   23.4355 C   0  0  0  0  0  0
  -21.9183   -4.6947   22.3406 C   0  0  0  0  0  0
  -22.7840  -13.5248   21.1847 C   0  0  0  0  0  0
  -22.1659   -4.2145   21.0979 F   0  0  0  0  0  0
  -21.5627   -3.4537   25.7734 F   0  0  0  0  0  0
  -30.0306  -13.3509   20.4420 N   0  0  0  0  0  0
  -26.3013  -12.9379   20.3386 N   0  0  0  0  0  0
  -25.9322  -11.6535   20.5841 N   0  0  0  0  0  0
  -22.0472  -12.8244   22.0394 N   0  0  0  0  0  0
  -25.4192  -15.1892   20.3953 N   0  0  0  0  0  0
  -31.8434  -14.6789   20.1052 O   0  0  0  0  0  0
  -21.6641   -6.8879   21.4248 O   0  0  0  0  0  0
  -22.3537  -14.5547   20.6666 O   0  0  0  0  0  0
  -24.6153  -31.8640   23.2087 C   0  0  0  0  0  0
  -25.9056  -32.4819   23.8367 C   0  0  1  0  0  0
  -27.2554  -27.4168   20.1068 C   0  0  0  0  0  0
  -25.5888  -33.8609   24.2271 N   0  0  0  0  0  0
  -23.4045  -30.4879   21.5482 C   0  0  2  0  0  0
  -24.8570  -28.9518   20.1137 C   0  0  0  0  0  0
  -22.7426  -29.4673   22.4972 C   0  0  0  0  0  0
  -18.0300  -28.1457   22.8412 C   0  0  0  0  0  0
  -24.1493  -36.7309   23.2635 C   0  0  0  0  0  0
  -25.9324  -30.8288   21.3640 C   0  0  0  0  0  0
  -26.0166  -29.4622   20.7086 C   0  0  0  0  0  0
  -27.2149  -28.7030   20.7002 C   0  0  0  0  0  0
  -26.0745  -26.9400   19.4861 C   0  0  0  0  0  0
  -24.8857  -27.6922   19.4908 C   0  0  0  0  0  0
  -23.6143  -29.8139   20.1656 C   0  0  0  0  0  0
  -25.4119  -36.3093   24.0320 C   0  0  1  0  0  0
  -20.5861  -28.3736   23.1330 C   0  0  2  0  0  0
  -20.6770  -26.9426   22.5546 C   0  0  0  0  0  0
  -19.5838  -26.6416   21.5248 C   0  0  0  0  0  0
  -18.1997  -26.7976   22.1578 C   0  0  0  0  0  0
  -19.1532  -28.8906   23.2851 C   0  0  0  0  0  0
  -18.9471  -30.1503   23.8862 C   0  0  0  0  0  0
  -17.6502  -30.6625   24.0529 C   0  0  0  0  0  0
  -25.9036  -34.9476   23.5096 C   0  0  0  0  0  0
  -16.5403  -29.9119   23.6306 C   0  0  0  0  0  0
  -16.7297  -28.6555   23.0324 C   0  0  0  0  0  0
  -26.4485  -31.6606   25.0685 C   0  0  0  0  0  0
  -25.3693  -31.3722   26.1377 C   0  0  0  0  0  0
  -27.0316  -30.3046   24.6071 C   0  0  0  0  0  0
  -27.6069  -32.4312   25.7440 C   0  0  0  0  0  0
  -27.5577  -37.1807   24.8464 C   0  0  0  0  0  0
  -21.4147  -29.3017   22.3653 N   0  0  0  0  0  0
  -26.4300  -37.3780   23.9395 N   0  0  0  0  0  0
  -24.6689  -31.0760   22.0980 N   0  0  0  0  0  0
  -23.4158  -28.8256   23.3083 O   0  0  0  0  0  0
  -28.4318  -26.6777   20.1576 O   0  0  0  0  0  0
  -26.5612  -34.8922   22.4660 O   0  0  0  0  0  0
  -23.5365  -32.1397   23.7487 O   0  0  0  0  0  0
  -30.3871  -19.4659   21.2563 C   0  0  0  0  0  0
  -28.1948  -20.5163   21.1516 C   0  0  0  0  0  0
  -28.3894  -18.0715   21.2218 C   0  0  0  0  0  0
  -29.6001  -20.6557   21.1623 C   0  0  0  0  0  0
  -29.7940  -18.1637   21.2917 C   0  0  0  0  0  0
  -27.6015  -19.2391   21.1718 C   0  0  0  0  0  0
  -29.5385  -24.4466   20.4597 C   0  0  0  0  0  0
  -30.2345  -22.0672   21.1105 C   0  0  0  0  0  0
  -30.6774  -16.9055   21.4561 C   0  0  0  0  0  0
  -28.3868  -25.2712   19.8137 C   0  0  0  0  0  0
  -29.3610  -23.1065   20.5236 N   0  0  0  0  0  0
  -30.0949  -15.5507   21.2252 N   0  0  0  0  0  0
  -30.5548  -25.0033   20.8883 O   0  0  0  0  0  0
  -25.8829  -19.1102   21.1378 Cl  0  0  0  0  0  0
  -31.4598  -12.4330   19.1205 H   0  0  0  0  0  0
  -30.3207  -11.3381   19.8345 H   0  0  0  0  0  0
  -29.7373  -11.7757   17.4430 H   0  0  0  0  0  0
  -29.6462  -13.4951   17.7612 H   0  0  0  0  0  0
  -27.8394  -11.3053   18.8386 H   0  0  0  0  0  0
  -27.3612  -12.6226   17.7972 H   0  0  0  0  0  0
  -27.6938  -14.2637   19.5709 H   0  0  0  0  0  0
  -28.6919  -12.0003   21.3525 H   0  0  0  0  0  0
  -28.4575  -13.6537   21.8557 H   0  0  0  0  0  0
  -25.2780   -9.5644   22.4733 H   0  0  0  0  0  0
  -23.9991   -7.4635   22.7481 H   0  0  0  0  0  0
  -21.0842   -8.8795   19.8967 H   0  0  0  0  0  0
  -22.3749  -10.9660   19.6151 H   0  0  0  0  0  0
  -21.2013   -7.6145   23.9722 H   0  0  0  0  0  0
  -21.1476   -6.0510   25.9074 H   0  0  0  0  0  0
  -22.0603   -2.7608   23.2848 H   0  0  0  0  0  0
  -22.4119  -11.9970   22.4865 H   0  0  0  0  0  0
  -21.1076  -13.1215   22.2576 H   0  0  0  0  0  0
  -24.6365  -15.8274   20.4758 H   0  0  0  0  0  0
  -26.2385  -15.6220   19.9861 H   0  0  0  0  0  0
  -26.7101  -32.5554   23.1117 H   0  0  0  0  0  0
  -25.0019  -33.9756   25.0401 H   0  0  0  0  0  0
  -22.6954  -31.3056   21.4089 H   0  0  0  0  0  0
  -23.3746  -35.9653   23.3317 H   0  0  0  0  0  0
  -24.3568  -36.8907   22.2041 H   0  0  0  0  0  0
  -23.7279  -37.6521   23.6647 H   0  0  0  0  0  0
  -26.0474  -31.5969   20.5975 H   0  0  0  0  0  0
  -26.8187  -30.8808   21.9853 H   0  0  0  0  0  0
  -28.1057  -29.1009   21.1685 H   0  0  0  0  0  0
  -26.0448  -25.9831   18.9845 H   0  0  0  0  0  0
  -24.0028  -27.2939   19.0091 H   0  0  0  0  0  0
  -23.7087  -30.5829   19.3992 H   0  0  0  0  0  0
  -22.7429  -29.2220   19.8817 H   0  0  0  0  0  0
  -25.1330  -36.1932   25.0819 H   0  0  0  0  0  0
  -20.9860  -28.3484   24.1486 H   0  0  0  0  0  0
  -20.5534  -26.2438   23.3819 H   0  0  0  0  0  0
  -21.6685  -26.7366   22.1495 H   0  0  0  0  0  0
  -19.6838  -27.3254   20.6808 H   0  0  0  0  0  0
  -19.7000  -25.6348   21.1237 H   0  0  0  0  0  0
  -17.4314  -26.6686   21.3950 H   0  0  0  0  0  0
  -18.0417  -26.0164   22.9024 H   0  0  0  0  0  0
  -19.7980  -30.7297   24.2225 H   0  0  0  0  0  0
  -17.5036  -31.6269   24.5212 H   0  0  0  0  0  0
  -15.5408  -30.3010   23.7680 H   0  0  0  0  0  0
  -15.8641  -28.0918   22.7108 H   0  0  0  0  0  0
  -24.5908  -30.7054   25.7650 H   0  0  0  0  0  0
  -24.8836  -32.2867   26.4764 H   0  0  0  0  0  0
  -25.7955  -30.8896   27.0174 H   0  0  0  0  0  0
  -26.2867  -29.6766   24.1150 H   0  0  0  0  0  0
  -27.4099  -29.7345   25.4565 H   0  0  0  0  0  0
  -27.8692  -30.4365   23.9219 H   0  0  0  0  0  0
  -27.2739  -33.3635   26.2029 H   0  0  0  0  0  0
  -28.3876  -32.6818   25.0236 H   0  0  0  0  0  0
  -28.0725  -31.8393   26.5329 H   0  0  0  0  0  0
  -28.2631  -38.0065   24.7488 H   0  0  0  0  0  0
  -28.1038  -36.2603   24.6351 H   0  0  0  0  0  0
  -27.2272  -37.1533   25.8856 H   0  0  0  0  0  0
  -20.9365  -29.8492   21.6641 H   0  0  0  0  0  0
  -26.0186  -38.2865   24.1338 H   0  0  0  0  0  0
  -31.4641  -19.5521   21.3107 H   0  0  0  0  0  0
  -27.5516  -21.3869   21.1318 H   0  0  0  0  0  0
  -27.8964  -17.1066   21.2254 H   0  0  0  0  0  0
  -31.1737  -22.0218   20.5562 H   0  0  0  0  0  0
  -30.4832  -22.3733   22.1277 H   0  0  0  0  0  0
  -31.5511  -17.0572   20.8238 H   0  0  0  0  0  0
  -31.0480  -16.9310   22.4828 H   0  0  0  0  0  0
  -27.4555  -24.8100   20.1506 H   0  0  0  0  0  0
  -28.4438  -25.1776   18.7257 H   0  0  0  0  0  0
  -28.4861  -22.7660   20.1563 H   0  0  0  0  0  0
  -29.1848  -15.3578   21.6155 H   0  0  0  0  0  0
  1 25  1  0  0  0
  1 30  2  0  0  0
  1 82  1  0  0  0
  2  3  1  0  0  0
  2 25  1  0  0  0
  2 85  1  0  0  0
  2 86  1  0  0  0
  3  4  1  0  0  0
  3 87  1  0  0  0
  3 88  1  0  0  0
  4  5  1  0  0  0
  4 89  1  0  0  0
  4 90  1  0  0  0
  5  6  1  0  0  0
  5 26  1  0  0  0
  5 91  1  0  0  0
  6 25  1  0  0  0
  6 92  1  0  0  0
  6 93  1  0  0  0
  7  8  2  0  0  0
  7 26  1  0  0  0
  7 29  1  0  0  0
  8  9  1  0  0  0
  8 22  1  0  0  0
  9 10  1  0  0  0
  9 27  2  0  0  0
 10 11  2  0  0  0
 10 15  1  0  0  0
 11 12  1  0  0  0
 11 94  1  0  0  0
 12 13  2  0  0  0
 12 95  1  0  0  0
 13 14  1  0  0  0
 13 31  1  0  0  0
 14 15  2  0  0  0
 14 96  1  0  0  0
 15 97  1  0  0  0
 16 17  2  0  0  0
 16 21  1  0  0  0
 16 31  1  0  0  0
 17 18  1  0  0  0
 17 98  1  0  0  0
 18 19  2  0  0  0
 18 99  1  0  0  0
 19 20  1  0  0  0
 19 24  1  0  0  0
 20 21  2  0  0  0
 20100  1  0  0  0
 21 23  1  0  0  0
 22 28  1  0  0  0
 22 32  2  0  0  0
 26 27  1  0  0  0
 28101  1  0  0  0
 28102  1  0  0  0
 29103  1  0  0  0
 29104  1  0  0  0
 33 34  1  0  0  0
 33 66  1  0  0  0
 33 70  2  0  0  0
 34 36  1  0  0  0
 34 59  1  0  0  0
 34105  1  0  0  0
 35 44  2  0  0  0
 35 45  1  0  0  0
 35 68  1  0  0  0
 36 56  1  0  0  0
 36106  1  0  0  0
 37 39  1  0  0  0
 37 47  1  0  0  0
 37 66  1  0  0  0
 37107  1  0  0  0
 38 43  2  0  0  0
 38 46  1  0  0  0
 38 47  1  0  0  0
 39 64  1  0  0  0
 39 67  2  0  0  0
 40 52  1  0  0  0
 40 53  2  0  0  0
 40 58  1  0  0  0
 41108  1  0  0  0
 41109  1  0  0  0
 41110  1  0  0  0
 41 48  1  0  0  0
 42 43  1  0  0  0
 42 66  1  0  0  0
 42111  1  0  0  0
 42112  1  0  0  0
 43 44  1  0  0  0
 44113  1  0  0  0
 45 46  2  0  0  0
 45114  1  0  0  0
 46115  1  0  0  0
 47116  1  0  0  0
 47117  1  0  0  0
 48 56  1  0  0  0
 48 65  1  0  0  0
 48118  1  0  0  0
 49 50  1  0  0  0
 49 53  1  0  0  0
 49 64  1  0  0  0
 49119  1  0  0  0
 50 51  1  0  0  0
 50120  1  0  0  0
 50121  1  0  0  0
 51 52  1  0  0  0
 51122  1  0  0  0
 51123  1  0  0  0
 52124  1  0  0  0
 52125  1  0  0  0
 53 54  1  0  0  0
 54 55  2  0  0  0
 54126  1  0  0  0
 55 57  1  0  0  0
 55127  1  0  0  0
 56 69  2  0  0  0
 57 58  2  0  0  0
 57128  1  0  0  0
 58129  1  0  0  0
 59 60  1  0  0  0
 59 61  1  0  0  0
 59 62  1  0  0  0
 60130  1  0  0  0
 60131  1  0  0  0
 60132  1  0  0  0
 61133  1  0  0  0
 61134  1  0  0  0
 61135  1  0  0  0
 62136  1  0  0  0
 62137  1  0  0  0
 62138  1  0  0  0
 63 65  1  0  0  0
 63139  1  0  0  0
 63140  1  0  0  0
 63141  1  0  0  0
 64142  1  0  0  0
 65143  1  0  0  0
 68 80  1  0  0  0
 71 74  2  0  0  0
 71 75  1  0  0  0
 71144  1  0  0  0
 72 74  1  0  0  0
 72 76  2  0  0  0
 72145  1  0  0  0
 73 75  2  0  0  0
 73 76  1  0  0  0
 73146  1  0  0  0
 74 78  1  0  0  0
 75 79  1  0  0  0
 76 84  1  0  0  0
 77 80  1  0  0  0
 77 81  1  0  0  0
 77 83  2  0  0  0
 78 81  1  0  0  0
 78147  1  0  0  0
 78148  1  0  0  0
 79 82  1  0  0  0
 79149  1  0  0  0
 79150  1  0  0  0
 80151  1  0  0  0
 80152  1  0  0  0
 81153  1  0  0  0
 82154  1  0  0  0
M  ISO  4   1 100  68 101  80 101  82 100
M  END
> <chiral flag>
0

> <version>
0

> <s_m_source_file>
/data/baiqing/PycharmProjects/Reinvent-master-3.2/result/LINK_invent/BTK/process_docking_weight1_custom_product_contain_oxygen_bond_distance_aromatic_linkinvent_7_9_3/rearranged_h_0055.sdf

> <i_m_source_file_index>
22

> <r_mmod_Potential_Energy-OPLS-2005>
-183.763397216797

> <r_mmod_Stretch_Energy-OPLS-2005>
49.4899978637695

> <r_mmod_Bend_Energy-OPLS-2005>
106.697380065918

> <r_mmod_Torsional_Energy-OPLS-2005>
185.523025512695

> <r_mmod_Improper_Torsional_Energy-OPLS-2005>
2.89176940917969

> <r_mmod_Van_der_Waal_Energy-OPLS-2005>
149.292236328125

> <r_mmod_Electrostatic_Energy-OPLS-2005>
-450.223693847656

> <r_mmod_Solvation_Energy-OPLS-2005>
-245.730560302734

> <b_mmod_Minimization_Converged-OPLS-2005>
0

> <r_mmod_RMS_Derivative-OPLS-2005>
6.86665439605713

$$$$
22
                    3D
 Structure written by MMmdl.
164172  0  0  1  0            999 V2000
  -30.7934  -14.5609   20.4335 C   0  0  0  0  0  0
  -30.4271  -12.3275   19.4589 C   0  0  0  0  0  0
  -29.5084  -12.4909   18.2382 C   0  0  0  0  0  0
  -28.0388  -12.3507   18.6529 C   0  0  0  0  0  0
  -27.6674  -13.2488   19.8666 C   0  0  2  0  0  0
  -28.7298  -13.1515   20.9959 C   0  0  0  0  0  0
  -25.2499  -13.8280   20.5642 C   0  0  0  0  0  0
  -24.1871  -13.0445   20.9253 C   0  0  0  0  0  0
  -24.6588  -11.6953   20.8864 C   0  0  0  0  0  0
  -23.9320  -10.4298   21.0422 C   0  0  0  0  0  0
  -24.3717   -9.4201   21.9245 C   0  0  0  0  0  0
  -23.6360   -8.2230   22.0752 C   0  0  0  0  0  0
  -22.4284   -8.0326   21.3634 C   0  0  0  0  0  0
  -22.0033   -9.0309   20.4676 C   0  0  0  0  0  0
  -22.7427  -10.2191   20.3128 C   0  0  0  0  0  0
  -21.6816   -6.0808   22.5297 C   0  0  0  0  0  0
  -21.4017   -6.5694   23.8241 C   0  0  0  0  0  0
  -21.3641   -5.6846   24.9198 C   0  0  0  0  0  0
  -21.6027   -4.3104   24.7248 C   0  0  0  0  0  0
  -21.8806   -3.8208   23.4351 C   0  0  0  0  0  0
  -21.9197   -4.7049   22.3414 C   0  0  0  0  0  0
  -22.7891  -13.5194   21.1921 C   0  0  0  0  0  0
  -22.1642   -4.2223   21.0984 F   0  0  0  0  0  0
  -21.5624   -3.4519   25.7745 F   0  0  0  0  0  0
  -30.0716  -13.3930   20.4167 N   0  0  0  0  0  0
  -26.3102  -12.9562   20.3470 N   0  0  0  0  0  0
  -25.9527  -11.6678   20.5888 N   0  0  0  0  0  0
  -22.0485  -12.8173   22.0402 N   0  0  0  0  0  0
  -25.4122  -15.2035   20.4110 N   0  0  0  0  0  0
  -31.9420  -14.6441   19.9855 O   0  0  0  0  0  0
  -21.6621   -6.8923   21.4263 O   0  0  0  0  0  0
  -22.3502  -14.5445   20.6696 O   0  0  0  0  0  0
  -24.5898  -31.8806   23.2191 C   0  0  0  0  0  0
  -25.8838  -32.4963   23.8500 C   0  0  1  0  0  0
  -27.2606  -27.4395   20.1869 C   0  0  0  0  0  0
  -25.5866  -33.8806   24.2415 N   0  0  0  0  0  0
  -23.3844  -30.4796   21.5646 C   0  0  2  0  0  0
  -24.8475  -28.9690   20.1151 C   0  0  0  0  0  0
  -22.7389  -29.4521   22.5162 C   0  0  0  0  0  0
  -18.0241  -28.1197   22.8593 C   0  0  0  0  0  0
  -24.1379  -36.7280   23.2643 C   0  0  0  0  0  0
  -25.9084  -30.8467   21.3902 C   0  0  0  0  0  0
  -25.9936  -29.4857   20.7335 C   0  0  0  0  0  0
  -27.2016  -28.7294   20.7548 C   0  0  0  0  0  0
  -26.0918  -26.9667   19.5325 C   0  0  0  0  0  0
  -24.8885  -27.7096   19.5123 C   0  0  0  0  0  0
  -23.5832  -29.8007   20.1884 C   0  0  0  0  0  0
  -25.4028  -36.3223   24.0323 C   0  0  1  0  0  0
  -20.5821  -28.3419   23.1384 C   0  0  2  0  0  0
  -20.6575  -26.9173   22.5365 C   0  0  0  0  0  0
  -19.5563  -26.6267   21.5138 C   0  0  0  0  0  0
  -18.1806  -26.7747   22.1673 C   0  0  0  0  0  0
  -19.1495  -28.8614   23.2978 C   0  0  0  0  0  0
  -18.9449  -30.1297   23.8902 C   0  0  0  0  0  0
  -17.6422  -30.6473   24.0459 C   0  0  0  0  0  0
  -25.8977  -34.9629   23.5168 C   0  0  0  0  0  0
  -16.5324  -29.8946   23.6330 C   0  0  0  0  0  0
  -16.7236  -28.6332   23.0458 C   0  0  0  0  0  0
  -26.4333  -31.6727   25.0792 C   0  0  0  0  0  0
  -25.3661  -31.3651   26.1517 C   0  0  0  0  0  0
  -27.0079  -30.3185   24.6049 C   0  0  0  0  0  0
  -27.5952  -32.4377   25.7560 C   0  0  0  0  0  0
  -27.5520  -37.1799   24.8471 C   0  0  0  0  0  0
  -21.4054  -29.2847   22.3903 N   0  0  0  0  0  0
  -26.4287  -37.3822   23.9366 N   0  0  0  0  0  0
  -24.6404  -31.0857   22.1142 N   0  0  0  0  0  0
  -23.4185  -28.8154   23.3149 O   0  0  0  0  0  0
  -28.4103  -26.6504   20.2835 O   0  0  0  0  0  0
  -26.5589  -34.9094   22.4716 O   0  0  0  0  0  0
  -23.5087  -32.1694   23.7586 O   0  0  0  0  0  0
  -28.9490  -20.4053   20.6071 C   0  0  0  0  0  0
  -29.1305  -19.1533   20.0283 C   0  0  0  0  0  0
  -31.3659  -18.9856   20.9613 C   0  0  0  0  0  0
  -29.9571  -20.9686   21.3850 C   0  0  0  0  0  0
  -30.2375  -18.3370   20.3049 C   0  0  0  0  0  0
  -31.2222  -20.3161   21.4772 C   0  0  0  0  0  0
  -29.4762  -22.0303   22.2736 C   0  0  0  0  0  0
  -29.8602  -23.7039   19.5016 C   0  0  0  0  0  0
  -32.3675  -21.0760   22.1445 C   0  0  0  0  0  0
  -31.0317  -24.4625   18.9025 C   0  0  0  0  0  0
  -30.0082  -16.8520   19.8175 C   0  0  0  0  0  0
  -28.1542  -25.2448   20.5227 C   0  0  0  0  0  0
  -29.3364  -24.2502   20.8395 C   0  0  1  0  0  0
  -29.3515  -21.6358   23.5432 N   0  0  0  0  0  0
  -30.1331  -15.6833   20.7503 N   0  0  0  0  0  0
  -29.0219  -23.2600   21.9239 N   0  3  0  0  0  0
  -29.2918  -22.8247   18.8532 O   0  0  0  0  0  0
  -31.4648  -12.3646   19.1451 H   0  0  0  0  0  0
  -30.2972  -11.3437   19.9070 H   0  0  0  0  0  0
  -29.7374  -11.7449   17.4843 H   0  0  0  0  0  0
  -29.6813  -13.4593   17.7700 H   0  0  0  0  0  0
  -27.8721  -11.3101   18.9221 H   0  0  0  0  0  0
  -27.3718  -12.5611   17.8145 H   0  0  0  0  0  0
  -27.6800  -14.2796   19.5101 H   0  0  0  0  0  0
  -28.6856  -12.1719   21.4745 H   0  0  0  0  0  0
  -28.5108  -13.8726   21.7899 H   0  0  0  0  0  0
  -25.2834   -9.5568   22.4827 H   0  0  0  0  0  0
  -24.0012   -7.4584   22.7495 H   0  0  0  0  0  0
  -21.0901   -8.8953   19.8961 H   0  0  0  0  0  0
  -22.3948  -10.9759   19.6206 H   0  0  0  0  0  0
  -21.1980   -7.6158   23.9804 H   0  0  0  0  0  0
  -21.1463   -6.0514   25.9126 H   0  0  0  0  0  0
  -22.0599   -2.7630   23.2827 H   0  0  0  0  0  0
  -22.4010  -11.9852   22.4869 H   0  0  0  0  0  0
  -21.1137  -13.1293   22.2621 H   0  0  0  0  0  0
  -24.6273  -15.8388   20.5174 H   0  0  0  0  0  0
  -26.2604  -15.6617   20.0882 H   0  0  0  0  0  0
  -26.6852  -32.5799   23.1233 H   0  0  0  0  0  0
  -25.0177  -33.9954   25.0731 H   0  0  0  0  0  0
  -22.6511  -31.2859   21.4463 H   0  0  0  0  0  0
  -23.3832  -35.9464   23.3405 H   0  0  0  0  0  0
  -24.3454  -36.8793   22.2064 H   0  0  0  0  0  0
  -23.6959  -37.6412   23.6633 H   0  0  0  0  0  0
  -26.0518  -31.6343   20.6411 H   0  0  0  0  0  0
  -26.7620  -30.8609   22.0530 H   0  0  0  0  0  0
  -28.0592  -29.1298   21.2791 H   0  0  0  0  0  0
  -26.0739  -25.9994   19.0584 H   0  0  0  0  0  0
  -24.0192  -27.2930   19.0303 H   0  0  0  0  0  0
  -23.6081  -30.5646   19.4125 H   0  0  0  0  0  0
  -22.7130  -29.1896   19.9586 H   0  0  0  0  0  0
  -25.1217  -36.2084   25.0828 H   0  0  0  0  0  0
  -20.9897  -28.2760   24.1528 H   0  0  0  0  0  0
  -20.5266  -26.2045   23.3515 H   0  0  0  0  0  0
  -21.6419  -26.7005   22.1290 H   0  0  0  0  0  0
  -19.6596  -25.6199   21.1176 H   0  0  0  0  0  0
  -19.6401  -27.3023   20.6600 H   0  0  0  0  0  0
  -17.3995  -26.6565   21.4162 H   0  0  0  0  0  0
  -18.0195  -25.9851   22.9030 H   0  0  0  0  0  0
  -19.7906  -30.7098   24.2248 H   0  0  0  0  0  0
  -17.4977  -31.6210   24.4933 H   0  0  0  0  0  0
  -15.5289  -30.2792   23.7578 H   0  0  0  0  0  0
  -15.8688  -28.0533   22.7260 H   0  0  0  0  0  0
  -24.5941  -30.6900   25.7762 H   0  0  0  0  0  0
  -24.8904  -32.2796   26.5073 H   0  0  0  0  0  0
  -25.8085  -30.8761   27.0190 H   0  0  0  0  0  0
  -26.2637  -29.7154   24.0690 H   0  0  0  0  0  0
  -27.3589  -29.7129   25.4437 H   0  0  0  0  0  0
  -27.8709  -30.4514   23.9501 H   0  0  0  0  0  0
  -27.2615  -33.3712   26.2034 H   0  0  0  0  0  0
  -28.3842  -32.6749   25.0443 H   0  0  0  0  0  0
  -28.0479  -31.8529   26.5544 H   0  0  0  0  0  0
  -28.2634  -38.0008   24.7622 H   0  0  0  0  0  0
  -28.0869  -36.2610   24.6232 H   0  0  0  0  0  0
  -27.2260  -37.1332   25.8856 H   0  0  0  0  0  0
  -20.9067  -29.8794   21.7423 H   0  0  0  0  0  0
  -26.0232  -38.2863   24.1530 H   0  0  0  0  0  0
  -27.9933  -20.8961   20.4954 H   0  0  0  0  0  0
  -28.3466  -18.7836   19.3906 H   0  0  0  0  0  0
  -32.3169  -18.4755   21.0818 H   0  0  0  0  0  0
  -32.3142  -21.0777   23.2386 H   0  0  0  0  0  0
  -32.3720  -22.1179   21.8098 H   0  0  0  0  0  0
  -33.3395  -20.6973   21.8595 H   0  0  0  0  0  0
  -30.8562  -24.7001   17.8489 H   0  0  0  0  0  0
  -31.9722  -23.9117   18.9937 H   0  0  0  0  0  0
  -31.1277  -25.3966   19.4659 H   0  0  0  0  0  0
  -28.9333  -16.7376   19.6119 H   0  0  0  0  0  0
  -30.4017  -16.6739   18.7999 H   0  0  0  0  0  0
  -27.3941  -25.1434   21.2854 H   0  0  0  0  0  0
  -27.6867  -24.8721   19.6101 H   0  0  0  0  0  0
  -30.1689  -24.7996   21.2713 H   0  0  0  0  0  0
  -29.5507  -20.6597   23.7385 H   0  0  0  0  0  0
  -29.2328  -22.2528   24.3323 H   0  0  0  0  0  0
  -29.2975  -15.4954   21.2721 H   0  0  0  0  0  0
  -28.3301  -23.6154   22.5709 H   0  0  0  0  0  0
  1 25  1  0  0  0
  1 30  2  0  0  0
  1 85  1  0  0  0
  2  3  1  0  0  0
  2 25  1  0  0  0
  2 88  1  0  0  0
  2 89  1  0  0  0
  3  4  1  0  0  0
  3 90  1  0  0  0
  3 91  1  0  0  0
  4  5  1  0  0  0
  4 92  1  0  0  0
  4 93  1  0  0  0
  5  6  1  0  0  0
  5 26  1  0  0  0
  5 94  1  0  0  0
  6 25  1  0  0  0
  6 95  1  0  0  0
  6 96  1  0  0  0
  7  8  2  0  0  0
  7 26  1  0  0  0
  7 29  1  0  0  0
  8  9  1  0  0  0
  8 22  1  0  0  0
  9 10  1  0  0  0
  9 27  2  0  0  0
 10 11  2  0  0  0
 10 15  1  0  0  0
 11 12  1  0  0  0
 11 97  1  0  0  0
 12 13  2  0  0  0
 12 98  1  0  0  0
 13 14  1  0  0  0
 13 31  1  0  0  0
 14 15  2  0  0  0
 14 99  1  0  0  0
 15100  1  0  0  0
 16 17  2  0  0  0
 16 21  1  0  0  0
 16 31  1  0  0  0
 17 18  1  0  0  0
 17101  1  0  0  0
 18 19  2  0  0  0
 18102  1  0  0  0
 19 20  1  0  0  0
 19 24  1  0  0  0
 20 21  2  0  0  0
 20103  1  0  0  0
 21 23  1  0  0  0
 22 28  1  0  0  0
 22 32  2  0  0  0
 26 27  1  0  0  0
 28104  1  0  0  0
 28105  1  0  0  0
 29106  1  0  0  0
 29107  1  0  0  0
 33 34  1  0  0  0
 33 66  1  0  0  0
 33 70  2  0  0  0
 34 36  1  0  0  0
 34 59  1  0  0  0
 34108  1  0  0  0
 35 44  2  0  0  0
 35 45  1  0  0  0
 35 68  1  0  0  0
 36 56  1  0  0  0
 36109  1  0  0  0
 37 39  1  0  0  0
 37 47  1  0  0  0
 37 66  1  0  0  0
 37110  1  0  0  0
 38 43  2  0  0  0
 38 46  1  0  0  0
 38 47  1  0  0  0
 39 64  1  0  0  0
 39 67  2  0  0  0
 40 52  1  0  0  0
 40 53  2  0  0  0
 40 58  1  0  0  0
 41111  1  0  0  0
 41112  1  0  0  0
 41113  1  0  0  0
 41 48  1  0  0  0
 42 43  1  0  0  0
 42 66  1  0  0  0
 42114  1  0  0  0
 42115  1  0  0  0
 43 44  1  0  0  0
 44116  1  0  0  0
 45 46  2  0  0  0
 45117  1  0  0  0
 46118  1  0  0  0
 47119  1  0  0  0
 47120  1  0  0  0
 48 56  1  0  0  0
 48 65  1  0  0  0
 48121  1  0  0  0
 49 50  1  0  0  0
 49 53  1  0  0  0
 49 64  1  0  0  0
 49122  1  0  0  0
 50 51  1  0  0  0
 50123  1  0  0  0
 50124  1  0  0  0
 51 52  1  0  0  0
 51125  1  0  0  0
 51126  1  0  0  0
 52127  1  0  0  0
 52128  1  0  0  0
 53 54  1  0  0  0
 54 55  2  0  0  0
 54129  1  0  0  0
 55 57  1  0  0  0
 55130  1  0  0  0
 56 69  2  0  0  0
 57 58  2  0  0  0
 57131  1  0  0  0
 58132  1  0  0  0
 59 60  1  0  0  0
 59 61  1  0  0  0
 59 62  1  0  0  0
 60133  1  0  0  0
 60134  1  0  0  0
 60135  1  0  0  0
 61136  1  0  0  0
 61137  1  0  0  0
 61138  1  0  0  0
 62139  1  0  0  0
 62140  1  0  0  0
 62141  1  0  0  0
 63 65  1  0  0  0
 63142  1  0  0  0
 63143  1  0  0  0
 63144  1  0  0  0
 64145  1  0  0  0
 65146  1  0  0  0
 68 82  1  0  0  0
 71 72  2  0  0  0
 71 74  1  0  0  0
 71147  1  0  0  0
 72 75  1  0  0  0
 72148  1  0  0  0
 73 75  2  0  0  0
 73 76  1  0  0  0
 73149  1  0  0  0
 74 76  2  0  0  0
 74 77  1  0  0  0
 75 81  1  0  0  0
 76 79  1  0  0  0
 77 84  1  0  0  0
 77 86  2  0  0  0
 78 80  1  0  0  0
 78 83  1  0  0  0
 78 87  2  0  0  0
 79150  1  0  0  0
 79151  1  0  0  0
 79152  1  0  0  0
 80153  1  0  0  0
 80154  1  0  0  0
 80155  1  0  0  0
 81 85  1  0  0  0
 81156  1  0  0  0
 81157  1  0  0  0
 82158  1  0  0  0
 82159  1  0  0  0
 82 83  1  0  0  0
 83 86  1  0  0  0
 83160  1  0  0  0
 84161  1  0  0  0
 84162  1  0  0  0
 85163  1  0  0  0
 86164  1  0  0  0
M  CHG  1  86   1
M  ISO  4   1 100  68 101  82 101  85 100
M  END
> <chiral flag>
0

> <version>
0

> <s_m_source_file>
/data/baiqing/PycharmProjects/Reinvent-master-3.2/result/LINK_invent/BTK/process_docking_weight1_custom_product_contain_oxygen_bond_distance_aromatic_linkinvent_7_9_3/rearranged_h_0055.sdf

> <i_m_source_file_index>
23

> <r_mmod_Potential_Energy-OPLS-2005>
-134.646392822266

> <r_mmod_Stretch_Energy-OPLS-2005>
67.0210723876953

> <r_mmod_Bend_Energy-OPLS-2005>
190.690231323242

> <r_mmod_Torsional_Energy-OPLS-2005>
301.470397949219

> <r_mmod_Improper_Torsional_Energy-OPLS-2005>
14.7306232452393

> <r_mmod_Van_der_Waal_Energy-OPLS-2005>
156.19319152832

> <r_mmod_Electrostatic_Energy-OPLS-2005>
-461.924041748047

> <r_mmod_Solvation_Energy-OPLS-2005>
-441.206512451172

> <b_mmod_Minimization_Converged-OPLS-2005>
0

> <r_mmod_RMS_Derivative-OPLS-2005>
23.6577949523926

$$$$
23
                    3D
 Structure written by MMmdl.
171180  0  0  1  0            999 V2000
  -30.7350  -14.3626   20.6807 C   0  0  0  0  0  0
  -30.4208  -12.2826   19.3841 C   0  0  0  0  0  0
  -29.4857  -12.5300   18.1850 C   0  0  0  0  0  0
  -28.0083  -12.3833   18.5971 C   0  0  0  0  0  0
  -27.6657  -13.1964   19.8714 C   0  0  2  0  0  0
  -28.6993  -12.9109   20.9815 C   0  0  0  0  0  0
  -25.2634  -13.8146   20.5687 C   0  0  0  0  0  0
  -24.1868  -13.0435   20.9140 C   0  0  0  0  0  0
  -24.6396  -11.6897   20.8692 C   0  0  0  0  0  0
  -23.9051  -10.4302   21.0397 C   0  0  0  0  0  0
  -24.3612   -9.4242   21.9190 C   0  0  0  0  0  0
  -23.6304   -8.2272   22.0767 C   0  0  0  0  0  0
  -22.4295   -8.0289   21.3544 C   0  0  0  0  0  0
  -21.9897   -9.0275   20.4658 C   0  0  0  0  0  0
  -22.7224  -10.2156   20.3054 C   0  0  0  0  0  0
  -21.6855   -6.0739   22.5294 C   0  0  0  0  0  0
  -21.4030   -6.5636   23.8230 C   0  0  0  0  0  0
  -21.3647   -5.6780   24.9182 C   0  0  0  0  0  0
  -21.6032   -4.3044   24.7222 C   0  0  0  0  0  0
  -21.8807   -3.8141   23.4341 C   0  0  0  0  0  0
  -21.9198   -4.6971   22.3406 C   0  0  0  0  0  0
  -22.7880  -13.5233   21.1857 C   0  0  0  0  0  0
  -22.1676   -4.2167   21.0977 F   0  0  0  0  0  0
  -21.5630   -3.4505   25.7726 F   0  0  0  0  0  0
  -30.0479  -13.2148   20.4548 N   0  0  0  0  0  0
  -26.3038  -12.9295   20.3288 N   0  0  0  0  0  0
  -25.9301  -11.6461   20.5669 N   0  0  0  0  0  0
  -22.0477  -12.8240   22.0391 N   0  0  0  0  0  0
  -25.4414  -15.1881   20.4277 N   0  0  0  0  0  0
  -31.7639  -14.6819   20.0757 O   0  0  0  0  0  0
  -21.6654   -6.8887   21.4256 O   0  0  0  0  0  0
  -22.3588  -14.5563   20.6732 O   0  0  0  0  0  0
  -24.6116  -31.8711   23.2157 C   0  0  0  0  0  0
  -25.9046  -32.4819   23.8445 C   0  0  1  0  0  0
  -27.2368  -27.4865   20.0729 C   0  0  0  0  0  0
  -25.5952  -33.8622   24.2395 N   0  0  0  0  0  0
  -23.3991  -30.4955   21.5538 C   0  0  2  0  0  0
  -24.8456  -28.9668   20.1154 C   0  0  0  0  0  0
  -22.7425  -29.4672   22.5001 C   0  0  0  0  0  0
  -18.0295  -28.1348   22.8532 C   0  0  0  0  0  0
  -24.1485  -36.7298   23.2648 C   0  0  0  0  0  0
  -25.9236  -30.8482   21.3635 C   0  0  0  0  0  0
  -26.0027  -29.4894   20.7066 C   0  0  0  0  0  0
  -27.2037  -28.7545   20.6867 C   0  0  0  0  0  0
  -26.0715  -26.9670   19.4762 C   0  0  0  0  0  0
  -24.8715  -27.7016   19.5009 C   0  0  0  0  0  0
  -23.6052  -29.8285   20.1675 C   0  0  0  0  0  0
  -25.4109  -36.3112   24.0355 C   0  0  1  0  0  0
  -20.5897  -28.3650   23.1302 C   0  0  2  0  0  0
  -20.6810  -26.9418   22.5315 C   0  0  0  0  0  0
  -19.5705  -26.6338   21.5212 C   0  0  0  0  0  0
  -18.1926  -26.7875   22.1708 C   0  0  0  0  0  0
  -19.1553  -28.8808   23.2908 C   0  0  0  0  0  0
  -18.9486  -30.1411   23.8920 C   0  0  0  0  0  0
  -17.6493  -30.6569   24.0577 C   0  0  0  0  0  0
  -25.9037  -34.9473   23.5161 C   0  0  0  0  0  0
  -16.5379  -29.9084   23.6332 C   0  0  0  0  0  0
  -16.7288  -28.6491   23.0378 C   0  0  0  0  0  0
  -26.4505  -31.6572   25.0747 C   0  0  0  0  0  0
  -25.3837  -31.3628   26.1540 C   0  0  0  0  0  0
  -27.0334  -30.3033   24.6066 C   0  0  0  0  0  0
  -27.6083  -32.4294   25.7489 C   0  0  0  0  0  0
  -27.5585  -37.1806   24.8481 C   0  0  0  0  0  0
  -21.4158  -29.3059   22.3746 N   0  0  0  0  0  0
  -26.4292  -37.3800   23.9430 N   0  0  0  0  0  0
  -24.6627  -31.0851   22.1031 N   0  0  0  0  0  0
  -23.4203  -28.8198   23.3027 O   0  0  0  0  0  0
  -28.3710  -26.7187   20.0830 O   0  0  0  0  0  0
  -26.5548  -34.8904   22.4690 O   0  0  0  0  0  0
  -23.5310  -32.1443   23.7561 O   0  0  0  0  0  0
  -29.1480  -16.4706   24.0642 C   0  0  0  0  0  0
  -27.4474  -18.1320   24.5523 C   0  0  0  0  0  0
  -29.4482  -17.1071   22.8382 C   0  0  0  0  0  0
  -28.7154  -18.2650   22.4544 C   0  0  0  0  0  0
  -27.7454  -18.8006   23.3450 C   0  0  0  0  0  0
  -28.1448  -16.9696   24.9109 C   0  0  0  0  0  0
  -26.8096  -25.6844   22.9579 C   0  0  0  0  0  0
  -27.5989  -25.3239   21.9311 C   0  0  0  0  0  0
  -26.9963  -21.0979   23.8027 C   0  0  0  0  0  0
  -25.6900  -24.8313   23.5197 C   0  0  0  0  0  0
  -27.4294  -23.9926   21.2292 C   0  0  0  0  0  0
  -26.1826  -23.4994   24.1152 C   0  0  0  0  0  0
  -27.7723  -22.8253   22.1583 C   0  0  0  0  0  0
  -26.6061  -22.4062   23.0933 C   0  0  1  0  0  0
  -28.9771  -18.9576   21.1160 C   0  0  0  0  0  0
  -30.5533  -16.4918   21.9843 C   0  0  0  0  0  0
  -28.6958  -26.2293   21.3829 C   0  0  0  0  0  0
  -27.0794  -20.0111   23.0169 N   0  0  0  0  0  0
  -30.1923  -15.1340   21.6234 N   0  0  0  0  0  0
  -27.2115  -21.0789   25.0187 O   0  0  0  0  0  0
  -27.7760  -16.1662   26.3945 Cl  0  0  0  0  0  0
  -31.4650  -12.3864   19.0835 H   0  0  0  0  0  0
  -30.3211  -11.2573   19.7430 H   0  0  0  0  0  0
  -29.7176  -11.8354   17.3771 H   0  0  0  0  0  0
  -29.6518  -13.5325   17.7867 H   0  0  0  0  0  0
  -27.8090  -11.3242   18.7672 H   0  0  0  0  0  0
  -27.3595  -12.6834   17.7741 H   0  0  0  0  0  0
  -27.7291  -14.2524   19.6116 H   0  0  0  0  0  0
  -28.6578  -11.8588   21.2646 H   0  0  0  0  0  0
  -28.4383  -13.4557   21.8877 H   0  0  0  0  0  0
  -25.2736   -9.5754   22.4783 H   0  0  0  0  0  0
  -24.0025   -7.4684   22.7508 H   0  0  0  0  0  0
  -21.0795   -8.8809   19.8976 H   0  0  0  0  0  0
  -22.3671  -10.9716   19.6180 H   0  0  0  0  0  0
  -21.2043   -7.6144   23.9765 H   0  0  0  0  0  0
  -21.1469   -6.0485   25.9092 H   0  0  0  0  0  0
  -22.0588   -2.7599   23.2844 H   0  0  0  0  0  0
  -22.3924  -11.9773   22.4689 H   0  0  0  0  0  0
  -21.1143  -13.1421   22.2616 H   0  0  0  0  0  0
  -24.6973  -15.8468   20.6296 H   0  0  0  0  0  0
  -26.3160  -15.6401   20.1906 H   0  0  0  0  0  0
  -26.7120  -32.5541   23.1206 H   0  0  0  0  0  0
  -25.0212  -33.9797   25.0619 H   0  0  0  0  0  0
  -22.6877  -31.3124   21.4177 H   0  0  0  0  0  0
  -23.3747  -35.9635   23.3332 H   0  0  0  0  0  0
  -24.3587  -36.8875   22.2058 H   0  0  0  0  0  0
  -23.7216  -37.6513   23.6620 H   0  0  0  0  0  0
  -26.0395  -31.6213   20.6022 H   0  0  0  0  0  0
  -26.8108  -30.8949   21.9818 H   0  0  0  0  0  0
  -28.0994  -29.1566   21.1381 H   0  0  0  0  0  0
  -26.0911  -25.9863   19.0210 H   0  0  0  0  0  0
  -23.9792  -27.2894   19.0495 H   0  0  0  0  0  0
  -23.7145  -30.6062   19.4117 H   0  0  0  0  0  0
  -22.7307  -29.2492   19.8629 H   0  0  0  0  0  0
  -25.1264  -36.1998   25.0841 H   0  0  0  0  0  0
  -20.9984  -28.3151   24.1419 H   0  0  0  0  0  0
  -20.5882  -26.2240   23.3477 H   0  0  0  0  0  0
  -21.6635  -26.7551   22.0969 H   0  0  0  0  0  0
  -19.6829  -25.6227   21.1292 H   0  0  0  0  0  0
  -19.6558  -27.3106   20.6696 H   0  0  0  0  0  0
  -17.4143  -26.6569   21.4169 H   0  0  0  0  0  0
  -18.0409  -26.0031   22.9136 H   0  0  0  0  0  0
  -19.7982  -30.7201   24.2275 H   0  0  0  0  0  0
  -17.5066  -31.6243   24.5191 H   0  0  0  0  0  0
  -15.5381  -30.3000   23.7623 H   0  0  0  0  0  0
  -15.8677  -28.0812   22.7123 H   0  0  0  0  0  0
  -24.5994  -30.6969   25.7919 H   0  0  0  0  0  0
  -24.9045  -32.2752   26.5096 H   0  0  0  0  0  0
  -25.8272  -30.8753   27.0234 H   0  0  0  0  0  0
  -26.2833  -29.6750   24.1231 H   0  0  0  0  0  0
  -27.4283  -29.7282   25.4455 H   0  0  0  0  0  0
  -27.8596  -30.4404   23.9082 H   0  0  0  0  0  0
  -27.2712  -33.3569   26.2126 H   0  0  0  0  0  0
  -28.3848  -32.6899   25.0291 H   0  0  0  0  0  0
  -28.0811  -31.8403   26.5356 H   0  0  0  0  0  0
  -28.2610  -38.0094   24.7511 H   0  0  0  0  0  0
  -28.1061  -36.2619   24.6310 H   0  0  0  0  0  0
  -27.2308  -37.1470   25.8888 H   0  0  0  0  0  0
  -20.9309  -29.8873   21.7052 H   0  0  0  0  0  0
  -26.0180  -38.2879   24.1431 H   0  0  0  0  0  0
  -29.6870  -15.5822   24.3648 H   0  0  0  0  0  0
  -26.6900  -18.5188   25.2177 H   0  0  0  0  0  0
  -26.9505  -26.6519   23.4224 H   0  0  0  0  0  0
  -24.9303  -24.6589   22.7557 H   0  0  0  0  0  0
  -25.2057  -25.4180   24.3023 H   0  0  0  0  0  0
  -28.0685  -23.9658   20.3448 H   0  0  0  0  0  0
  -26.4058  -23.8980   20.8612 H   0  0  0  0  0  0
  -25.3652  -23.0954   24.7155 H   0  0  0  0  0  0
  -26.9939  -23.7046   24.8149 H   0  0  0  0  0  0
  -28.6665  -23.0578   22.7382 H   0  0  0  0  0  0
  -28.0549  -21.9900   21.5158 H   0  0  0  0  0  0
  -25.7337  -22.1732   22.4776 H   0  0  0  0  0  0
  -28.1161  -19.5261   20.7634 H   0  0  0  0  0  0
  -29.1840  -18.2440   20.3190 H   0  0  0  0  0  0
  -29.8205  -19.6417   21.2022 H   0  0  0  0  0  0
  -31.4710  -16.4640   22.5736 H   0  0  0  0  0  0
  -30.7901  -17.0713   21.0931 H   0  0  0  0  0  0
  -29.6174  -25.6514   21.3152 H   0  0  0  0  0  0
  -28.8977  -27.0529   22.0698 H   0  0  0  0  0  0
  -26.9070  -20.1794   22.0351 H   0  0  0  0  0  0
  -29.3884  -14.7533   22.0969 H   0  0  0  0  0  0
  1 25  1  0  0  0
  1 30  2  0  0  0
  1 89  1  0  0  0
  2  3  1  0  0  0
  2 25  1  0  0  0
  2 92  1  0  0  0
  2 93  1  0  0  0
  3  4  1  0  0  0
  3 94  1  0  0  0
  3 95  1  0  0  0
  4  5  1  0  0  0
  4 96  1  0  0  0
  4 97  1  0  0  0
  5  6  1  0  0  0
  5 26  1  0  0  0
  5 98  1  0  0  0
  6 25  1  0  0  0
  6 99  1  0  0  0
  6100  1  0  0  0
  7  8  2  0  0  0
  7 26  1  0  0  0
  7 29  1  0  0  0
  8  9  1  0  0  0
  8 22  1  0  0  0
  9 10  1  0  0  0
  9 27  2  0  0  0
 10 11  2  0  0  0
 10 15  1  0  0  0
 11 12  1  0  0  0
 11101  1  0  0  0
 12 13  2  0  0  0
 12102  1  0  0  0
 13 14  1  0  0  0
 13 31  1  0  0  0
 14 15  2  0  0  0
 14103  1  0  0  0
 15104  1  0  0  0
 16 17  2  0  0  0
 16 21  1  0  0  0
 16 31  1  0  0  0
 17 18  1  0  0  0
 17105  1  0  0  0
 18 19  2  0  0  0
 18106  1  0  0  0
 19 20  1  0  0  0
 19 24  1  0  0  0
 20 21  2  0  0  0
 20107  1  0  0  0
 21 23  1  0  0  0
 22 28  1  0  0  0
 22 32  2  0  0  0
 26 27  1  0  0  0
 28108  1  0  0  0
 28109  1  0  0  0
 29110  1  0  0  0
 29111  1  0  0  0
 33 34  1  0  0  0
 33 66  1  0  0  0
 33 70  2  0  0  0
 34 36  1  0  0  0
 34 59  1  0  0  0
 34112  1  0  0  0
 35 44  2  0  0  0
 35 45  1  0  0  0
 35 68  1  0  0  0
 36 56  1  0  0  0
 36113  1  0  0  0
 37 39  1  0  0  0
 37 47  1  0  0  0
 37 66  1  0  0  0
 37114  1  0  0  0
 38 43  2  0  0  0
 38 46  1  0  0  0
 38 47  1  0  0  0
 39 64  1  0  0  0
 39 67  2  0  0  0
 40 52  1  0  0  0
 40 53  2  0  0  0
 40 58  1  0  0  0
 41115  1  0  0  0
 41116  1  0  0  0
 41117  1  0  0  0
 41 48  1  0  0  0
 42 43  1  0  0  0
 42 66  1  0  0  0
 42118  1  0  0  0
 42119  1  0  0  0
 43 44  1  0  0  0
 44120  1  0  0  0
 45 46  2  0  0  0
 45121  1  0  0  0
 46122  1  0  0  0
 47123  1  0  0  0
 47124  1  0  0  0
 48 56  1  0  0  0
 48 65  1  0  0  0
 48125  1  0  0  0
 49 50  1  0  0  0
 49 53  1  0  0  0
 49 64  1  0  0  0
 49126  1  0  0  0
 50 51  1  0  0  0
 50127  1  0  0  0
 50128  1  0  0  0
 51 52  1  0  0  0
 51129  1  0  0  0
 51130  1  0  0  0
 52131  1  0  0  0
 52132  1  0  0  0
 53 54  1  0  0  0
 54 55  2  0  0  0
 54133  1  0  0  0
 55 57  1  0  0  0
 55134  1  0  0  0
 56 69  2  0  0  0
 57 58  2  0  0  0
 57135  1  0  0  0
 58136  1  0  0  0
 59 60  1  0  0  0
 59 61  1  0  0  0
 59 62  1  0  0  0
 60137  1  0  0  0
 60138  1  0  0  0
 60139  1  0  0  0
 61140  1  0  0  0
 61141  1  0  0  0
 61142  1  0  0  0
 62143  1  0  0  0
 62144  1  0  0  0
 62145  1  0  0  0
 63 65  1  0  0  0
 63146  1  0  0  0
 63147  1  0  0  0
 63148  1  0  0  0
 64149  1  0  0  0
 65150  1  0  0  0
 68 87  1  0  0  0
 71 73  2  0  0  0
 71 76  1  0  0  0
 71151  1  0  0  0
 72 75  1  0  0  0
 72 76  2  0  0  0
 72152  1  0  0  0
 73 74  1  0  0  0
 73 86  1  0  0  0
 74 75  2  0  0  0
 74 85  1  0  0  0
 75 88  1  0  0  0
 76 91  1  0  0  0
 77 78  2  0  0  0
 77 80  1  0  0  0
 77153  1  0  0  0
 78 81  1  0  0  0
 78 87  1  0  0  0
 79 88  1  0  0  0
 79 90  2  0  0  0
 79 84  1  0  0  0
 80 82  1  0  0  0
 80154  1  0  0  0
 80155  1  0  0  0
 81 83  1  0  0  0
 81156  1  0  0  0
 81157  1  0  0  0
 82 84  1  0  0  0
 82158  1  0  0  0
 82159  1  0  0  0
 83 84  1  0  0  0
 83160  1  0  0  0
 83161  1  0  0  0
 84162  1  0  0  0
 85163  1  0  0  0
 85164  1  0  0  0
 85165  1  0  0  0
 86 89  1  0  0  0
 86166  1  0  0  0
 86167  1  0  0  0
 87168  1  0  0  0
 87169  1  0  0  0
 88170  1  0  0  0
 89171  1  0  0  0
M  ISO  4   1 100  68 101  87 101  89 100
M  END
> <chiral flag>
0

> <version>
0

> <s_m_source_file>
/data/baiqing/PycharmProjects/Reinvent-master-3.2/result/LINK_invent/BTK/process_docking_weight1_custom_product_contain_oxygen_bond_distance_aromatic_linkinvent_7_9_3/rearranged_h_0055.sdf

> <i_m_source_file_index>
24

> <r_mmod_Potential_Energy-OPLS-2005>
-96.7353897094727

> <r_mmod_Stretch_Energy-OPLS-2005>
34.8427658081055

> <r_mmod_Bend_Energy-OPLS-2005>
94.4516983032227

> <r_mmod_Torsional_Energy-OPLS-2005>
278.371459960938

> <r_mmod_Improper_Torsional_Energy-OPLS-2005>
2.76837873458862

> <r_mmod_Van_der_Waal_Energy-OPLS-2005>
159.196517944336

> <r_mmod_Electrostatic_Energy-OPLS-2005>
-452.118804931641

> <r_mmod_Solvation_Energy-OPLS-2005>
-221.593444824219

> <b_mmod_Minimization_Converged-OPLS-2005>
0

> <r_mmod_RMS_Derivative-OPLS-2005>
3.65143799781799

$$$$
24
                    3D
 Structure written by MMmdl.
157165  0  0  1  0            999 V2000
  -30.5989  -14.7883   20.3985 C   0  0  0  0  0  0
  -30.4294  -12.4587   19.4856 C   0  0  0  0  0  0
  -29.5148  -12.4946   18.2395 C   0  0  0  0  0  0
  -28.0435  -12.3150   18.6591 C   0  0  0  0  0  0
  -27.6486  -13.2283   19.8492 C   0  0  2  0  0  0
  -28.6974  -13.1969   20.9868 C   0  0  0  0  0  0
  -25.2574  -13.8192   20.5627 C   0  0  0  0  0  0
  -24.1878  -13.0473   20.9162 C   0  0  0  0  0  0
  -24.6458  -11.6930   20.8761 C   0  0  0  0  0  0
  -23.9104  -10.4329   21.0402 C   0  0  0  0  0  0
  -24.3644   -9.4233   21.9173 C   0  0  0  0  0  0
  -23.6332   -8.2258   22.0723 C   0  0  0  0  0  0
  -22.4312   -8.0288   21.3502 C   0  0  0  0  0  0
  -21.9953   -9.0278   20.4619 C   0  0  0  0  0  0
  -22.7279  -10.2169   20.3048 C   0  0  0  0  0  0
  -21.6882   -6.0754   22.5261 C   0  0  0  0  0  0
  -21.4032   -6.5643   23.8196 C   0  0  0  0  0  0
  -21.3663   -5.6783   24.9139 C   0  0  0  0  0  0
  -21.6058   -4.3049   24.7184 C   0  0  0  0  0  0
  -21.8836   -3.8145   23.4300 C   0  0  0  0  0  0
  -21.9198   -4.6976   22.3358 C   0  0  0  0  0  0
  -22.7884  -13.5241   21.1807 C   0  0  0  0  0  0
  -22.1651   -4.2148   21.0938 F   0  0  0  0  0  0
  -21.5631   -3.4527   25.7692 F   0  0  0  0  0  0
  -29.9930  -13.5455   20.3983 N   0  0  0  0  0  0
  -26.3006  -12.9390   20.3275 N   0  0  0  0  0  0
  -25.9399  -11.6548   20.5785 N   0  0  0  0  0  0
  -22.0507  -12.8279   22.0364 N   0  0  0  0  0  0
  -25.4409  -15.1912   20.3998 N   0  0  0  0  0  0
  -31.7764  -14.8784   20.0346 O   0  0  0  0  0  0
  -21.6650   -6.8908   21.4228 O   0  0  0  0  0  0
  -22.3587  -14.5545   20.6618 O   0  0  0  0  0  0
  -24.6317  -31.8533   23.1943 C   0  0  0  0  0  0
  -25.9174  -32.4701   23.8231 C   0  0  1  0  0  0
  -27.2013  -27.2587   20.1443 C   0  0  0  0  0  0
  -25.5984  -33.8501   24.2171 N   0  0  0  0  0  0
  -23.4190  -30.4786   21.5405 C   0  0  2  0  0  0
  -24.8594  -28.9267   20.0944 C   0  0  0  0  0  0
  -22.7468  -29.4599   22.4909 C   0  0  0  0  0  0
  -18.0286  -28.1336   22.8486 C   0  0  0  0  0  0
  -24.1509  -36.7288   23.2627 C   0  0  0  0  0  0
  -25.9617  -30.7639   21.3710 C   0  0  0  0  0  0
  -26.0276  -29.3877   20.7160 C   0  0  0  0  0  0
  -27.1987  -28.5690   20.7290 C   0  0  0  0  0  0
  -26.0231  -26.8742   19.4631 C   0  0  0  0  0  0
  -24.8669  -27.6806   19.4452 C   0  0  0  0  0  0
  -23.6301  -29.8170   20.1516 C   0  0  0  0  0  0
  -25.4132  -36.3020   24.0297 C   0  0  1  0  0  0
  -20.5882  -28.3671   23.1269 C   0  0  2  0  0  0
  -20.6779  -26.9397   22.5398 C   0  0  0  0  0  0
  -19.5768  -26.6352   21.5186 C   0  0  0  0  0  0
  -18.1946  -26.7887   22.1598 C   0  0  0  0  0  0
  -19.1526  -28.8813   23.2878 C   0  0  0  0  0  0
  -18.9451  -30.1416   23.8906 C   0  0  0  0  0  0
  -17.6459  -30.6567   24.0528 C   0  0  0  0  0  0
  -25.9089  -34.9409   23.5031 C   0  0  0  0  0  0
  -16.5349  -29.9055   23.6312 C   0  0  0  0  0  0
  -16.7269  -28.6444   23.0385 C   0  0  0  0  0  0
  -26.4540  -31.6518   25.0628 C   0  0  0  0  0  0
  -25.3769  -31.3673   26.1348 C   0  0  0  0  0  0
  -27.0363  -30.2923   24.6089 C   0  0  0  0  0  0
  -27.6071  -32.4266   25.7435 C   0  0  0  0  0  0
  -27.5585  -37.1782   24.8455 C   0  0  0  0  0  0
  -21.4178  -29.3040   22.3668 N   0  0  0  0  0  0
  -26.4289  -37.3734   23.9404 N   0  0  0  0  0  0
  -24.6896  -31.0509   22.0918 N   0  0  0  0  0  0
  -23.4190  -28.8180   23.3023 O   0  0  0  0  0  0
  -28.2934  -26.3670   20.2611 O   0  0  0  0  0  0
  -26.5666  -34.8900   22.4605 O   0  0  0  0  0  0
  -23.5496  -32.1381   23.7276 O   0  0  0  0  0  0
  -30.3897  -18.7360   18.1545 C   0  0  0  0  0  0
  -30.2535  -17.4695   18.7546 C   0  0  0  0  0  0
  -29.6984  -18.5787   20.8374 C   0  0  0  0  0  0
  -29.8249  -19.9167   20.2397 C   0  0  0  0  0  0
  -30.2457  -19.9386   18.8796 C   0  0  0  0  0  0
  -29.9572  -17.3252   20.1271 C   0  0  0  0  0  0
  -29.7100  -21.2654   21.0311 C   0  0  0  0  0  0
  -30.6476  -21.2236   18.1505 C   0  0  0  0  0  0
  -28.4988  -23.9628   22.4578 C   0  0  0  0  0  0
  -28.1043  -24.8810   20.0924 C   0  0  0  0  0  0
  -28.9606  -23.8266   20.9841 C   0  0  2  0  0  0
  -29.8415  -15.9327   20.6709 N   0  0  0  0  0  0
  -28.9813  -22.3484   20.5467 N   0  0  0  0  0  0
  -30.3648  -21.3714   22.0709 O   0  0  0  0  0  0
  -31.4777  -12.5400   19.1966 H   0  0  0  0  0  0
  -30.3377  -11.4901   19.9834 H   0  0  0  0  0  0
  -29.7995  -11.7124   17.5352 H   0  0  0  0  0  0
  -29.6410  -13.4418   17.7119 H   0  0  0  0  0  0
  -27.9155  -11.2703   18.9412 H   0  0  0  0  0  0
  -27.3780  -12.4803   17.8103 H   0  0  0  0  0  0
  -27.6382  -14.2427   19.4502 H   0  0  0  0  0  0
  -28.7469  -12.2138   21.4564 H   0  0  0  0  0  0
  -28.4385  -13.9057   21.7747 H   0  0  0  0  0  0
  -25.2802   -9.5698   22.4748 H   0  0  0  0  0  0
  -24.0045   -7.4655   22.7463 H   0  0  0  0  0  0
  -21.0864   -8.8830   19.8949 H   0  0  0  0  0  0
  -22.3752  -10.9705   19.6154 H   0  0  0  0  0  0
  -21.2043   -7.6152   23.9700 H   0  0  0  0  0  0
  -21.1461   -6.0482   25.9044 H   0  0  0  0  0  0
  -22.0624   -2.7603   23.2764 H   0  0  0  0  0  0
  -22.4114  -11.9990   22.4854 H   0  0  0  0  0  0
  -21.1094  -13.1307   22.2482 H   0  0  0  0  0  0
  -24.6917  -15.8647   20.5142 H   0  0  0  0  0  0
  -26.3039  -15.6125   20.0805 H   0  0  0  0  0  0
  -26.7222  -32.5313   23.0936 H   0  0  0  0  0  0
  -25.0102  -33.9593   25.0292 H   0  0  0  0  0  0
  -22.7153  -31.3031   21.4038 H   0  0  0  0  0  0
  -23.3734  -35.9656   23.3268 H   0  0  0  0  0  0
  -24.3592  -36.8955   22.2048 H   0  0  0  0  0  0
  -23.7323  -37.6492   23.6696 H   0  0  0  0  0  0
  -26.1029  -31.5164   20.5928 H   0  0  0  0  0  0
  -26.8426  -30.8024   22.0015 H   0  0  0  0  0  0
  -28.0851  -28.9208   21.2355 H   0  0  0  0  0  0
  -25.9650  -25.9295   18.9413 H   0  0  0  0  0  0
  -23.9902  -27.3315   18.9163 H   0  0  0  0  0  0
  -23.7465  -30.5984   19.3988 H   0  0  0  0  0  0
  -22.7418  -29.2563   19.8527 H   0  0  0  0  0  0
  -25.1322  -36.1805   25.0784 H   0  0  0  0  0  0
  -20.9968  -28.3241   24.1385 H   0  0  0  0  0  0
  -20.5631  -26.2303   23.3606 H   0  0  0  0  0  0
  -21.6661  -26.7416   22.1226 H   0  0  0  0  0  0
  -19.6954  -25.6252   21.1247 H   0  0  0  0  0  0
  -19.6713  -27.3130   20.6690 H   0  0  0  0  0  0
  -17.4239  -26.6638   21.3989 H   0  0  0  0  0  0
  -18.0355  -25.9995   22.8950 H   0  0  0  0  0  0
  -19.7928  -30.7192   24.2322 H   0  0  0  0  0  0
  -17.5013  -31.6258   24.5093 H   0  0  0  0  0  0
  -15.5344  -30.2961   23.7586 H   0  0  0  0  0  0
  -15.8674  -28.0707   22.7173 H   0  0  0  0  0  0
  -24.5925  -30.7049   25.7672 H   0  0  0  0  0  0
  -24.8992  -32.2850   26.4773 H   0  0  0  0  0  0
  -25.8079  -30.8825   27.0113 H   0  0  0  0  0  0
  -26.2891  -29.6647   24.1208 H   0  0  0  0  0  0
  -27.4154  -29.7188   25.4556 H   0  0  0  0  0  0
  -27.8736  -30.4169   23.9223 H   0  0  0  0  0  0
  -27.2636  -33.3564   26.1969 H   0  0  0  0  0  0
  -28.3913  -32.6820   25.0303 H   0  0  0  0  0  0
  -28.0695  -31.8416   26.5388 H   0  0  0  0  0  0
  -28.2568  -38.0107   24.7492 H   0  0  0  0  0  0
  -28.1108  -36.2627   24.6274 H   0  0  0  0  0  0
  -27.2309  -37.1435   25.8859 H   0  0  0  0  0  0
  -20.9352  -29.8742   21.6864 H   0  0  0  0  0  0
  -26.0144  -38.2796   24.1368 H   0  0  0  0  0  0
  -30.6522  -18.7888   17.1050 H   0  0  0  0  0  0
  -30.3999  -16.6001   18.1308 H   0  0  0  0  0  0
  -29.4251  -18.5248   21.8805 H   0  0  0  0  0  0
  -31.2595  -20.9892   17.2809 H   0  0  0  0  0  0
  -31.2689  -21.8698   18.7715 H   0  0  0  0  0  0
  -29.7791  -21.7811   17.8015 H   0  0  0  0  0  0
  -28.3854  -25.0084   22.7524 H   0  0  0  0  0  0
  -29.1947  -23.5175   23.1705 H   0  0  0  0  0  0
  -27.5335  -23.4831   22.6109 H   0  0  0  0  0  0
  -27.0594  -24.6204   20.2654 H   0  0  0  0  0  0
  -28.2595  -24.6756   19.0328 H   0  0  0  0  0  0
  -29.9981  -24.1592   20.9341 H   0  0  0  0  0  0
  -28.9670  -15.7303   21.1301 H   0  0  0  0  0  0
  -28.4335  -22.1355   19.7283 H   0  0  0  0  0  0
  1 25  1  0  0  0
  1 30  2  0  0  0
  1 82  1  0  0  0
  2  3  1  0  0  0
  2 25  1  0  0  0
  2 85  1  0  0  0
  2 86  1  0  0  0
  3  4  1  0  0  0
  3 87  1  0  0  0
  3 88  1  0  0  0
  4  5  1  0  0  0
  4 89  1  0  0  0
  4 90  1  0  0  0
  5  6  1  0  0  0
  5 26  1  0  0  0
  5 91  1  0  0  0
  6 25  1  0  0  0
  6 92  1  0  0  0
  6 93  1  0  0  0
  7  8  2  0  0  0
  7 26  1  0  0  0
  7 29  1  0  0  0
  8  9  1  0  0  0
  8 22  1  0  0  0
  9 10  1  0  0  0
  9 27  2  0  0  0
 10 11  2  0  0  0
 10 15  1  0  0  0
 11 12  1  0  0  0
 11 94  1  0  0  0
 12 13  2  0  0  0
 12 95  1  0  0  0
 13 14  1  0  0  0
 13 31  1  0  0  0
 14 15  2  0  0  0
 14 96  1  0  0  0
 15 97  1  0  0  0
 16 17  2  0  0  0
 16 21  1  0  0  0
 16 31  1  0  0  0
 17 18  1  0  0  0
 17 98  1  0  0  0
 18 19  2  0  0  0
 18 99  1  0  0  0
 19 20  1  0  0  0
 19 24  1  0  0  0
 20 21  2  0  0  0
 20100  1  0  0  0
 21 23  1  0  0  0
 22 28  1  0  0  0
 22 32  2  0  0  0
 26 27  1  0  0  0
 28101  1  0  0  0
 28102  1  0  0  0
 29103  1  0  0  0
 29104  1  0  0  0
 33 34  1  0  0  0
 33 66  1  0  0  0
 33 70  2  0  0  0
 34 36  1  0  0  0
 34 59  1  0  0  0
 34105  1  0  0  0
 35 44  2  0  0  0
 35 45  1  0  0  0
 35 68  1  0  0  0
 36 56  1  0  0  0
 36106  1  0  0  0
 37 39  1  0  0  0
 37 47  1  0  0  0
 37 66  1  0  0  0
 37107  1  0  0  0
 38 43  2  0  0  0
 38 46  1  0  0  0
 38 47  1  0  0  0
 39 64  1  0  0  0
 39 67  2  0  0  0
 40 52  1  0  0  0
 40 53  2  0  0  0
 40 58  1  0  0  0
 41108  1  0  0  0
 41109  1  0  0  0
 41110  1  0  0  0
 41 48  1  0  0  0
 42 43  1  0  0  0
 42 66  1  0  0  0
 42111  1  0  0  0
 42112  1  0  0  0
 43 44  1  0  0  0
 44113  1  0  0  0
 45 46  2  0  0  0
 45114  1  0  0  0
 46115  1  0  0  0
 47116  1  0  0  0
 47117  1  0  0  0
 48 56  1  0  0  0
 48 65  1  0  0  0
 48118  1  0  0  0
 49 50  1  0  0  0
 49 53  1  0  0  0
 49 64  1  0  0  0
 49119  1  0  0  0
 50 51  1  0  0  0
 50120  1  0  0  0
 50121  1  0  0  0
 51 52  1  0  0  0
 51122  1  0  0  0
 51123  1  0  0  0
 52124  1  0  0  0
 52125  1  0  0  0
 53 54  1  0  0  0
 54 55  2  0  0  0
 54126  1  0  0  0
 55 57  1  0  0  0
 55127  1  0  0  0
 56 69  2  0  0  0
 57 58  2  0  0  0
 57128  1  0  0  0
 58129  1  0  0  0
 59 60  1  0  0  0
 59 61  1  0  0  0
 59 62  1  0  0  0
 60130  1  0  0  0
 60131  1  0  0  0
 60132  1  0  0  0
 61133  1  0  0  0
 61134  1  0  0  0
 61135  1  0  0  0
 62136  1  0  0  0
 62137  1  0  0  0
 62138  1  0  0  0
 63 65  1  0  0  0
 63139  1  0  0  0
 63140  1  0  0  0
 63141  1  0  0  0
 64142  1  0  0  0
 65143  1  0  0  0
 68 80  1  0  0  0
 71 72  2  0  0  0
 71 75  1  0  0  0
 71144  1  0  0  0
 72 76  1  0  0  0
 72145  1  0  0  0
 73 74  1  0  0  0
 73 76  2  0  0  0
 73146  1  0  0  0
 74 75  2  0  0  0
 74 77  1  0  0  0
 75 78  1  0  0  0
 76 82  1  0  0  0
 77 83  1  0  0  0
 77 84  2  0  0  0
 78147  1  0  0  0
 78148  1  0  0  0
 78149  1  0  0  0
 79150  1  0  0  0
 79151  1  0  0  0
 79152  1  0  0  0
 79 81  1  0  0  0
 80 81  1  0  0  0
 80153  1  0  0  0
 80154  1  0  0  0
 81 83  1  0  0  0
 81155  1  0  0  0
 82156  1  0  0  0
 83157  1  0  0  0
M  ISO  4   1 100  68 101  80 101  82 100
M  END
> <chiral flag>
0

> <version>
0

> <s_m_source_file>
/data/baiqing/PycharmProjects/Reinvent-master-3.2/result/LINK_invent/BTK/process_docking_weight1_custom_product_contain_oxygen_bond_distance_aromatic_linkinvent_7_9_3/rearranged_h_0055.sdf

> <i_m_source_file_index>
25

> <r_mmod_Potential_Energy-OPLS-2005>
149.406936645508

> <r_mmod_Stretch_Energy-OPLS-2005>
138.192153930664

> <r_mmod_Bend_Energy-OPLS-2005>
162.876739501953

> <r_mmod_Torsional_Energy-OPLS-2005>
254.575973510742

> <r_mmod_Improper_Torsional_Energy-OPLS-2005>
5.58797693252563

> <r_mmod_Van_der_Waal_Energy-OPLS-2005>
138.835800170898

> <r_mmod_Electrostatic_Energy-OPLS-2005>
-416.928070068359

> <r_mmod_Solvation_Energy-OPLS-2005>
-234.880477905273

> <b_mmod_Minimization_Converged-OPLS-2005>
0

> <r_mmod_RMS_Derivative-OPLS-2005>
6.60859394073486

$$$$
25
                    3D
 Structure written by MMmdl.
168176  0  0  1  0            999 V2000
  -30.6545  -14.5139   20.5156 C   0  0  0  0  0  0
  -30.4276  -12.3150   19.4267 C   0  0  0  0  0  0
  -29.4897  -12.4831   18.2083 C   0  0  0  0  0  0
  -28.0162  -12.3202   18.6294 C   0  0  0  0  0  0
  -27.6524  -13.1841   19.8618 C   0  0  2  0  0  0
  -28.6962  -13.0036   20.9870 C   0  0  0  0  0  0
  -25.2587  -13.8083   20.5721 C   0  0  0  0  0  0
  -24.1833  -13.0374   20.9143 C   0  0  0  0  0  0
  -24.6347  -11.6825   20.8658 C   0  0  0  0  0  0
  -23.8963  -10.4269   21.0362 C   0  0  0  0  0  0
  -24.3521   -9.4226   21.9180 C   0  0  0  0  0  0
  -23.6236   -8.2259   22.0750 C   0  0  0  0  0  0
  -22.4222   -8.0289   21.3536 C   0  0  0  0  0  0
  -21.9818   -9.0237   20.4621 C   0  0  0  0  0  0
  -22.7115  -10.2133   20.3036 C   0  0  0  0  0  0
  -21.6875   -6.0691   22.5256 C   0  0  0  0  0  0
  -21.4025   -6.5611   23.8188 C   0  0  0  0  0  0
  -21.3665   -5.6773   24.9164 C   0  0  0  0  0  0
  -21.6065   -4.3039   24.7237 C   0  0  0  0  0  0
  -21.8844   -3.8105   23.4382 C   0  0  0  0  0  0
  -21.9207   -4.6905   22.3413 C   0  0  0  0  0  0
  -22.7869  -13.5177   21.1857 C   0  0  0  0  0  0
  -22.1674   -4.2081   21.0996 F   0  0  0  0  0  0
  -21.5639   -3.4533   25.7762 F   0  0  0  0  0  0
  -30.0228  -13.3115   20.4265 N   0  0  0  0  0  0
  -26.2972  -12.9196   20.3262 N   0  0  0  0  0  0
  -25.9267  -11.6375   20.5697 N   0  0  0  0  0  0
  -22.0570  -12.8136   22.0428 N   0  0  0  0  0  0
  -25.4311  -15.1846   20.4313 N   0  0  0  0  0  0
  -31.8251  -14.6916   20.1655 O   0  0  0  0  0  0
  -21.6644   -6.8842   21.4226 O   0  0  0  0  0  0
  -22.3527  -14.5493   20.6719 O   0  0  0  0  0  0
  -24.6130  -31.8671   23.2104 C   0  0  0  0  0  0
  -25.9020  -32.4835   23.8392 C   0  0  1  0  0  0
  -27.2437  -27.4397   20.1051 C   0  0  0  0  0  0
  -25.5867  -33.8626   24.2328 N   0  0  0  0  0  0
  -23.4034  -30.4880   21.5517 C   0  0  2  0  0  0
  -24.8527  -28.9433   20.1273 C   0  0  0  0  0  0
  -22.7408  -29.4664   22.5024 C   0  0  0  0  0  0
  -18.0313  -28.1360   22.8451 C   0  0  0  0  0  0
  -24.1484  -36.7317   23.2643 C   0  0  0  0  0  0
  -25.9326  -30.8315   21.3655 C   0  0  0  0  0  0
  -26.0127  -29.4627   20.7205 C   0  0  0  0  0  0
  -27.2126  -28.7167   20.7071 C   0  0  0  0  0  0
  -26.0726  -26.9284   19.5084 C   0  0  0  0  0  0
  -24.8774  -27.6721   19.5239 C   0  0  0  0  0  0
  -23.6138  -29.8089   20.1717 C   0  0  0  0  0  0
  -25.4111  -36.3116   24.0341 C   0  0  1  0  0  0
  -20.5886  -28.3635   23.1331 C   0  0  2  0  0  0
  -20.6837  -26.9407   22.5351 C   0  0  0  0  0  0
  -19.5850  -26.6479   21.5108 C   0  0  0  0  0  0
  -18.2002  -26.7963   22.1474 C   0  0  0  0  0  0
  -19.1544  -28.8821   23.2908 C   0  0  0  0  0  0
  -18.9434  -30.1449   23.8879 C   0  0  0  0  0  0
  -17.6416  -30.6531   24.0531 C   0  0  0  0  0  0
  -25.9028  -34.9486   23.5130 C   0  0  0  0  0  0
  -16.5325  -29.9012   23.6281 C   0  0  0  0  0  0
  -16.7298  -28.6461   23.0247 C   0  0  0  0  0  0
  -26.4457  -31.6616   25.0730 C   0  0  0  0  0  0
  -25.3702  -31.3707   26.1462 C   0  0  0  0  0  0
  -27.0285  -30.3070   24.6094 C   0  0  0  0  0  0
  -27.6040  -32.4327   25.7456 C   0  0  0  0  0  0
  -27.5587  -37.1821   24.8474 C   0  0  0  0  0  0
  -21.4130  -29.3085   22.3824 N   0  0  0  0  0  0
  -26.4312  -37.3799   23.9396 N   0  0  0  0  0  0
  -24.6690  -31.0744   22.1023 N   0  0  0  0  0  0
  -23.4198  -28.8157   23.3009 O   0  0  0  0  0  0
  -28.4251  -26.7415   20.0111 O   0  0  0  0  0  0
  -26.5593  -34.8928   22.4705 O   0  0  0  0  0  0
  -23.5317  -32.1418   23.7504 O   0  0  0  0  0  0
  -31.3003  -18.8433   21.7169 C   0  0  0  0  0  0
  -30.5199  -19.7368   20.9591 C   0  0  0  0  0  0
  -31.0894  -17.4576   21.6164 C   0  0  0  0  0  0
  -29.5227  -19.2612   20.0820 C   0  0  0  0  0  0
  -29.2930  -17.8503   19.9869 C   0  0  0  0  0  0
  -30.0881  -16.9463   20.7618 C   0  0  0  0  0  0
  -28.8167  -20.2545   19.2327 C   0  0  0  0  0  0
  -26.4230  -21.7818   21.4833 C   0  0  0  0  0  0
  -28.1856  -17.3150   19.0742 C   0  0  0  0  0  0
  -24.3113  -20.7631   21.0921 C   0  0  0  0  0  0
  -28.0632  -24.3300   20.5057 C   0  0  0  0  0  0
  -28.5890  -23.1361   21.3520 C   0  0  0  0  0  0
  -28.6439  -25.6891   20.9534 C   0  0  0  0  0  0
  -27.9210  -21.7549   21.0940 C   0  0  2  0  0  0
  -28.8873  -20.1124   17.9120 N   0  0  0  0  0  0
  -29.8185  -15.5431   20.7738 N   0  0  0  0  0  0
  -28.1359  -21.3231   19.6949 N   0  3  0  0  0  0
  -25.9463  -22.5654   22.3084 O   0  0  0  0  0  0
  -25.7070  -20.8494   20.8315 O   0  0  0  0  0  0
  -31.4709  -12.4277   19.1290 H   0  0  0  0  0  0
  -30.3404  -11.3115   19.8474 H   0  0  0  0  0  0
  -29.7366  -11.7604   17.4314 H   0  0  0  0  0  0
  -29.6286  -13.4693   17.7656 H   0  0  0  0  0  0
  -27.8515  -11.2684   18.8589 H   0  0  0  0  0  0
  -27.3498  -12.5488   17.7972 H   0  0  0  0  0  0
  -27.6797  -14.2161   19.5287 H   0  0  0  0  0  0
  -28.6744  -11.9788   21.3571 H   0  0  0  0  0  0
  -28.4557  -13.6296   21.8460 H   0  0  0  0  0  0
  -25.2688   -9.5704   22.4738 H   0  0  0  0  0  0
  -24.0010   -7.4628   22.7402 H   0  0  0  0  0  0
  -21.0790   -8.8682   19.8865 H   0  0  0  0  0  0
  -22.3581  -10.9672   19.6142 H   0  0  0  0  0  0
  -21.2025   -7.6119   23.9678 H   0  0  0  0  0  0
  -21.1434   -6.0501   25.9053 H   0  0  0  0  0  0
  -22.0600   -2.7560   23.2908 H   0  0  0  0  0  0
  -22.4225  -11.9786   22.4786 H   0  0  0  0  0  0
  -21.1174  -13.1095   22.2663 H   0  0  0  0  0  0
  -24.6647  -15.8331   20.5736 H   0  0  0  0  0  0
  -26.2542  -15.6242   20.0484 H   0  0  0  0  0  0
  -26.7093  -32.5545   23.1156 H   0  0  0  0  0  0
  -25.0003  -33.9795   25.0460 H   0  0  0  0  0  0
  -22.6913  -31.3034   21.4083 H   0  0  0  0  0  0
  -23.3749  -35.9650   23.3331 H   0  0  0  0  0  0
  -24.3580  -36.8889   22.2051 H   0  0  0  0  0  0
  -23.7230  -37.6535   23.6633 H   0  0  0  0  0  0
  -26.0444  -31.5914   20.5916 H   0  0  0  0  0  0
  -26.8224  -30.8905   21.9799 H   0  0  0  0  0  0
  -28.1172  -29.1172   21.1465 H   0  0  0  0  0  0
  -26.0869  -25.9633   19.0196 H   0  0  0  0  0  0
  -23.9870  -27.2634   19.0655 H   0  0  0  0  0  0
  -23.7203  -30.5786   19.4043 H   0  0  0  0  0  0
  -22.7384  -29.2222   19.8823 H   0  0  0  0  0  0
  -25.1291  -36.2001   25.0835 H   0  0  0  0  0  0
  -21.0005  -28.3151   24.1460 H   0  0  0  0  0  0
  -20.5763  -26.2181   23.3458 H   0  0  0  0  0  0
  -21.6725  -26.7540   22.1103 H   0  0  0  0  0  0
  -19.7021  -25.6442   21.1025 H   0  0  0  0  0  0
  -19.6799  -27.3379   20.6720 H   0  0  0  0  0  0
  -17.4325  -26.6840   21.3778 H   0  0  0  0  0  0
  -18.0301  -26.0010   22.8758 H   0  0  0  0  0  0
  -19.7871  -30.7367   24.2187 H   0  0  0  0  0  0
  -17.4925  -31.6215   24.5128 H   0  0  0  0  0  0
  -15.5311  -30.2874   23.7615 H   0  0  0  0  0  0
  -15.8755  -28.0779   22.6847 H   0  0  0  0  0  0
  -24.5874  -30.7079   25.7782 H   0  0  0  0  0  0
  -24.8905  -32.2845   26.4965 H   0  0  0  0  0  0
  -25.8032  -30.8832   27.0196 H   0  0  0  0  0  0
  -26.2838  -29.6837   24.1146 H   0  0  0  0  0  0
  -27.4061  -29.7315   25.4550 H   0  0  0  0  0  0
  -27.8656  -30.4421   23.9241 H   0  0  0  0  0  0
  -27.2701  -33.3612   26.2087 H   0  0  0  0  0  0
  -28.3803  -32.6903   25.0242 H   0  0  0  0  0  0
  -28.0766  -31.8426   26.5312 H   0  0  0  0  0  0
  -28.2636  -38.0091   24.7498 H   0  0  0  0  0  0
  -28.1048  -36.2624   24.6331 H   0  0  0  0  0  0
  -27.2299  -37.1497   25.8877 H   0  0  0  0  0  0
  -20.9264  -29.8928   21.7175 H   0  0  0  0  0  0
  -26.0208  -38.2885   24.1389 H   0  0  0  0  0  0
  -32.0644  -19.2182   22.3805 H   0  0  0  0  0  0
  -30.7203  -20.7977   21.0380 H   0  0  0  0  0  0
  -31.6893  -16.7948   22.2204 H   0  0  0  0  0  0
  -27.2117  -17.6551   19.4248 H   0  0  0  0  0  0
  -28.1572  -16.2349   19.0155 H   0  0  0  0  0  0
  -28.3038  -17.6436   18.0436 H   0  0  0  0  0  0
  -23.8437  -19.9984   20.4729 H   0  0  0  0  0  0
  -23.8230  -21.7179   20.8909 H   0  0  0  0  0  0
  -24.1295  -20.5061   22.1357 H   0  0  0  0  0  0
  -26.9766  -24.3878   20.5622 H   0  0  0  0  0  0
  -28.3129  -24.1690   19.4559 H   0  0  0  0  0  0
  -28.4689  -23.3719   22.4107 H   0  0  0  0  0  0
  -29.6667  -23.0466   21.2067 H   0  0  0  0  0  0
  -29.7261  -25.5887   21.0515 H   0  0  0  0  0  0
  -28.2757  -25.9693   21.9412 H   0  0  0  0  0  0
  -28.3957  -21.0339   21.7567 H   0  0  0  0  0  0
  -29.4406  -19.3565   17.5396 H   0  0  0  0  0  0
  -28.5497  -20.8050   17.2643 H   0  0  0  0  0  0
  -28.8508  -15.2778   20.8501 H   0  0  0  0  0  0
  -27.5520  -21.8120   19.0316 H   0  0  0  0  0  0
  1 25  1  0  0  0
  1 30  2  0  0  0
  1 86  1  0  0  0
  2  3  1  0  0  0
  2 25  1  0  0  0
  2 90  1  0  0  0
  2 91  1  0  0  0
  3  4  1  0  0  0
  3 92  1  0  0  0
  3 93  1  0  0  0
  4  5  1  0  0  0
  4 94  1  0  0  0
  4 95  1  0  0  0
  5  6  1  0  0  0
  5 26  1  0  0  0
  5 96  1  0  0  0
  6 25  1  0  0  0
  6 97  1  0  0  0
  6 98  1  0  0  0
  7  8  2  0  0  0
  7 26  1  0  0  0
  7 29  1  0  0  0
  8  9  1  0  0  0
  8 22  1  0  0  0
  9 10  1  0  0  0
  9 27  2  0  0  0
 10 11  2  0  0  0
 10 15  1  0  0  0
 11 12  1  0  0  0
 11 99  1  0  0  0
 12 13  2  0  0  0
 12100  1  0  0  0
 13 14  1  0  0  0
 13 31  1  0  0  0
 14 15  2  0  0  0
 14101  1  0  0  0
 15102  1  0  0  0
 16 17  2  0  0  0
 16 21  1  0  0  0
 16 31  1  0  0  0
 17 18  1  0  0  0
 17103  1  0  0  0
 18 19  2  0  0  0
 18104  1  0  0  0
 19 20  1  0  0  0
 19 24  1  0  0  0
 20 21  2  0  0  0
 20105  1  0  0  0
 21 23  1  0  0  0
 22 28  1  0  0  0
 22 32  2  0  0  0
 26 27  1  0  0  0
 28106  1  0  0  0
 28107  1  0  0  0
 29108  1  0  0  0
 29109  1  0  0  0
 33 34  1  0  0  0
 33 66  1  0  0  0
 33 70  2  0  0  0
 34 36  1  0  0  0
 34 59  1  0  0  0
 34110  1  0  0  0
 35 44  2  0  0  0
 35 45  1  0  0  0
 35 68  1  0  0  0
 36 56  1  0  0  0
 36111  1  0  0  0
 37 39  1  0  0  0
 37 47  1  0  0  0
 37 66  1  0  0  0
 37112  1  0  0  0
 38 43  2  0  0  0
 38 46  1  0  0  0
 38 47  1  0  0  0
 39 64  1  0  0  0
 39 67  2  0  0  0
 40 52  1  0  0  0
 40 53  2  0  0  0
 40 58  1  0  0  0
 41113  1  0  0  0
 41114  1  0  0  0
 41115  1  0  0  0
 41 48  1  0  0  0
 42 43  1  0  0  0
 42 66  1  0  0  0
 42116  1  0  0  0
 42117  1  0  0  0
 43 44  1  0  0  0
 44118  1  0  0  0
 45 46  2  0  0  0
 45119  1  0  0  0
 46120  1  0  0  0
 47121  1  0  0  0
 47122  1  0  0  0
 48 56  1  0  0  0
 48 65  1  0  0  0
 48123  1  0  0  0
 49 50  1  0  0  0
 49 53  1  0  0  0
 49 64  1  0  0  0
 49124  1  0  0  0
 50 51  1  0  0  0
 50125  1  0  0  0
 50126  1  0  0  0
 51 52  1  0  0  0
 51127  1  0  0  0
 51128  1  0  0  0
 52129  1  0  0  0
 52130  1  0  0  0
 53 54  1  0  0  0
 54 55  2  0  0  0
 54131  1  0  0  0
 55 57  1  0  0  0
 55132  1  0  0  0
 56 69  2  0  0  0
 57 58  2  0  0  0
 57133  1  0  0  0
 58134  1  0  0  0
 59 60  1  0  0  0
 59 61  1  0  0  0
 59 62  1  0  0  0
 60135  1  0  0  0
 60136  1  0  0  0
 60137  1  0  0  0
 61138  1  0  0  0
 61139  1  0  0  0
 61140  1  0  0  0
 62141  1  0  0  0
 62142  1  0  0  0
 62143  1  0  0  0
 63 65  1  0  0  0
 63144  1  0  0  0
 63145  1  0  0  0
 63146  1  0  0  0
 64147  1  0  0  0
 65148  1  0  0  0
 68 83  1  0  0  0
 71 72  2  0  0  0
 71 73  1  0  0  0
 71149  1  0  0  0
 72 74  1  0  0  0
 72150  1  0  0  0
 73 76  2  0  0  0
 73151  1  0  0  0
 74 75  2  0  0  0
 74 77  1  0  0  0
 75 76  1  0  0  0
 75 79  1  0  0  0
 76 86  1  0  0  0
 77 85  1  0  0  0
 77 87  2  0  0  0
 78 84  1  0  0  0
 78 88  2  0  0  0
 78 89  1  0  0  0
 79152  1  0  0  0
 79153  1  0  0  0
 79154  1  0  0  0
 80 89  1  0  0  0
 80155  1  0  0  0
 80156  1  0  0  0
 80157  1  0  0  0
 81 82  1  0  0  0
 81 83  1  0  0  0
 81158  1  0  0  0
 81159  1  0  0  0
 82160  1  0  0  0
 82161  1  0  0  0
 82 84  1  0  0  0
 83162  1  0  0  0
 83163  1  0  0  0
 84 87  1  0  0  0
 84164  1  0  0  0
 85165  1  0  0  0
 85166  1  0  0  0
 86167  1  0  0  0
 87168  1  0  0  0
M  CHG  1  87   1
M  ISO  4   1 100  68 101  83 101  86 100
M  END
> <chiral flag>
0

> <version>
0

> <s_m_source_file>
/data/baiqing/PycharmProjects/Reinvent-master-3.2/result/LINK_invent/BTK/process_docking_weight1_custom_product_contain_oxygen_bond_distance_aromatic_linkinvent_7_9_3/rearranged_h_0055.sdf

> <i_m_source_file_index>
26

> <r_mmod_Potential_Energy-OPLS-2005>
-301.934417724609

> <r_mmod_Stretch_Energy-OPLS-2005>
41.9823799133301

> <r_mmod_Bend_Energy-OPLS-2005>
102.646537780762

> <r_mmod_Torsional_Energy-OPLS-2005>
263.038391113281

> <r_mmod_Improper_Torsional_Energy-OPLS-2005>
7.5363655090332

> <r_mmod_Van_der_Waal_Energy-OPLS-2005>
154.256561279297

> <r_mmod_Electrostatic_Energy-OPLS-2005>
-448.688201904297

> <r_mmod_Solvation_Energy-OPLS-2005>
-440.359985351562

> <b_mmod_Minimization_Converged-OPLS-2005>
0

> <r_mmod_RMS_Derivative-OPLS-2005>
4.66336250305176

$$$$
26
                    3D
 Structure written by MMmdl.
159168  0  0  1  0            999 V2000
  -30.7172  -14.4872   20.5727 C   0  0  0  0  0  0
  -30.4230  -12.3201   19.4265 C   0  0  0  0  0  0
  -29.4949  -12.4981   18.2081 C   0  0  0  0  0  0
  -28.0177  -12.3573   18.6254 C   0  0  0  0  0  0
  -27.6591  -13.2112   19.8713 C   0  0  2  0  0  0
  -28.7028  -13.0187   20.9944 C   0  0  0  0  0  0
  -25.2577  -13.8172   20.5680 C   0  0  0  0  0  0
  -24.1830  -13.0434   20.9177 C   0  0  0  0  0  0
  -24.6392  -11.6904   20.8734 C   0  0  0  0  0  0
  -23.9052  -10.4293   21.0405 C   0  0  0  0  0  0
  -24.3603   -9.4216   21.9188 C   0  0  0  0  0  0
  -23.6281   -8.2252   22.0759 C   0  0  0  0  0  0
  -22.4268   -8.0286   21.3546 C   0  0  0  0  0  0
  -21.9897   -9.0255   20.4648 C   0  0  0  0  0  0
  -22.7222  -10.2136   20.3058 C   0  0  0  0  0  0
  -21.6855   -6.0730   22.5273 C   0  0  0  0  0  0
  -21.4017   -6.5634   23.8206 C   0  0  0  0  0  0
  -21.3659   -5.6789   24.9167 C   0  0  0  0  0  0
  -21.6043   -4.3052   24.7220 C   0  0  0  0  0  0
  -21.8820   -3.8140   23.4344 C   0  0  0  0  0  0
  -21.9193   -4.6955   22.3399 C   0  0  0  0  0  0
  -22.7856  -13.5235   21.1837 C   0  0  0  0  0  0
  -22.1664   -4.2141   21.0977 F   0  0  0  0  0  0
  -21.5627   -3.4535   25.7735 F   0  0  0  0  0  0
  -30.0307  -13.3188   20.4335 N   0  0  0  0  0  0
  -26.3013  -12.9344   20.3356 N   0  0  0  0  0  0
  -25.9325  -11.6497   20.5762 N   0  0  0  0  0  0
  -22.0497  -12.8234   22.0406 N   0  0  0  0  0  0
  -25.4291  -15.1887   20.4089 N   0  0  0  0  0  0
  -31.8594  -14.6413   20.1307 O   0  0  0  0  0  0
  -21.6637   -6.8877   21.4241 O   0  0  0  0  0  0
  -22.3543  -14.5543   20.6696 O   0  0  0  0  0  0
  -24.6192  -31.8684   23.2125 C   0  0  0  0  0  0
  -25.9072  -32.4829   23.8422 C   0  0  1  0  0  0
  -27.2184  -27.3954   20.0850 C   0  0  0  0  0  0
  -25.5917  -33.8630   24.2344 N   0  0  0  0  0  0
  -23.4084  -30.4968   21.5540 C   0  0  2  0  0  0
  -24.8513  -28.9735   20.1077 C   0  0  0  0  0  0
  -22.7439  -29.4666   22.4976 C   0  0  0  0  0  0
  -18.0283  -28.1385   22.8484 C   0  0  0  0  0  0
  -24.1493  -36.7322   23.2634 C   0  0  0  0  0  0
  -25.9465  -30.8192   21.3775 C   0  0  0  0  0  0
  -26.0174  -29.4551   20.7157 C   0  0  0  0  0  0
  -27.2024  -28.6729   20.7066 C   0  0  0  0  0  0
  -26.0303  -26.9660   19.4385 C   0  0  0  0  0  0
  -24.8555  -27.7306   19.4648 C   0  0  0  0  0  0
  -23.6170  -29.8430   20.1644 C   0  0  0  0  0  0
  -25.4113  -36.3119   24.0335 C   0  0  1  0  0  0
  -20.5875  -28.3671   23.1305 C   0  0  2  0  0  0
  -20.6774  -26.9407   22.5405 C   0  0  0  0  0  0
  -19.5751  -26.6387   21.5203 C   0  0  0  0  0  0
  -18.1930  -26.7927   22.1618 C   0  0  0  0  0  0
  -19.1534  -28.8844   23.2889 C   0  0  0  0  0  0
  -18.9454  -30.1447   23.8901 C   0  0  0  0  0  0
  -17.6455  -30.6583   24.0560 C   0  0  0  0  0  0
  -25.9040  -34.9481   23.5132 C   0  0  0  0  0  0
  -16.5346  -29.9086   23.6323 C   0  0  0  0  0  0
  -16.7269  -28.6505   23.0342 C   0  0  0  0  0  0
  -26.4482  -31.6612   25.0758 C   0  0  0  0  0  0
  -25.3733  -31.3718   26.1490 C   0  0  0  0  0  0
  -27.0309  -30.3048   24.6163 C   0  0  0  0  0  0
  -27.6063  -32.4326   25.7517 C   0  0  0  0  0  0
  -27.5584  -37.1820   24.8464 C   0  0  0  0  0  0
  -21.4164  -29.3047   22.3725 N   0  0  0  0  0  0
  -26.4301  -37.3797   23.9401 N   0  0  0  0  0  0
  -24.6767  -31.0745   22.1058 N   0  0  0  0  0  0
  -23.4200  -28.8182   23.3005 O   0  0  0  0  0  0
  -28.3564  -26.5907   20.1349 O   0  0  0  0  0  0
  -26.5593  -34.8927   22.4689 O   0  0  0  0  0  0
  -23.5370  -32.1470   23.7481 O   0  0  0  0  0  0
  -32.0166  -18.3961   22.4213 C   0  0  0  0  0  0
  -31.5108  -19.4800   21.6777 C   0  0  0  0  0  0
  -31.5328  -17.0923   22.2075 C   0  0  0  0  0  0
  -29.9833  -17.9628   20.5383 C   0  0  0  0  0  0
  -30.5017  -19.2867   20.7035 C   0  0  0  0  0  0
  -30.5155  -16.8591   21.2588 C   0  0  0  0  0  0
  -29.1827  -22.8658   19.8593 C   0  0  0  0  0  0
  -29.8224  -20.2832   18.5715 C   0  0  0  0  0  0
  -29.1489  -24.1653   20.2625 C   0  0  0  0  0  0
  -28.3428  -22.3351   18.7109 C   0  0  0  0  0  0
  -30.0649  -21.7861   20.5189 C   0  0  0  0  0  0
  -29.2093  -21.4583   17.8056 C   0  0  0  0  0  0
  -28.1833  -25.2156   19.7036 C   0  0  0  0  0  0
  -30.0503  -20.4175   19.9091 N   0  0  0  0  0  0
  -30.0171  -15.5318   21.0639 N   0  0  0  0  0  0
  -30.0852  -19.2635   17.9244 O   0  0  0  0  0  0
  -31.4666  -12.4185   19.1215 H   0  0  0  0  0  0
  -30.3261  -11.3153   19.8416 H   0  0  0  0  0  0
  -29.7364  -11.7596   17.4421 H   0  0  0  0  0  0
  -29.6592  -13.4763   17.7527 H   0  0  0  0  0  0
  -27.8380  -11.3027   18.8367 H   0  0  0  0  0  0
  -27.3618  -12.6140   17.7935 H   0  0  0  0  0  0
  -27.6955  -14.2546   19.5587 H   0  0  0  0  0  0
  -28.6823  -11.9909   21.3580 H   0  0  0  0  0  0
  -28.4662  -13.6432   21.8574 H   0  0  0  0  0  0
  -25.2754   -9.5691   22.4751 H   0  0  0  0  0  0
  -23.9994   -7.4640   22.7472 H   0  0  0  0  0  0
  -21.0833   -8.8762   19.8947 H   0  0  0  0  0  0
  -22.3683  -10.9665   19.6157 H   0  0  0  0  0  0
  -21.2021   -7.6144   23.9707 H   0  0  0  0  0  0
  -21.1479   -6.0520   25.9068 H   0  0  0  0  0  0
  -22.0604   -2.7603   23.2842 H   0  0  0  0  0  0
  -22.4101  -11.9897   22.4799 H   0  0  0  0  0  0
  -21.1112  -13.1259   22.2594 H   0  0  0  0  0  0
  -24.6621  -15.8438   20.5165 H   0  0  0  0  0  0
  -26.2794  -15.6267   20.0779 H   0  0  0  0  0  0
  -26.7137  -32.5525   23.1176 H   0  0  0  0  0  0
  -25.0073  -33.9798   25.0493 H   0  0  0  0  0  0
  -22.6991  -31.3166   21.4199 H   0  0  0  0  0  0
  -23.3750  -35.9658   23.3315 H   0  0  0  0  0  0
  -24.3580  -36.8926   22.2043 H   0  0  0  0  0  0
  -23.7258  -37.6536   23.6641 H   0  0  0  0  0  0
  -26.0700  -31.5886   20.6132 H   0  0  0  0  0  0
  -26.8305  -30.8635   22.0028 H   0  0  0  0  0  0
  -28.0966  -29.0373   21.1931 H   0  0  0  0  0  0
  -25.9627  -26.0359   18.8943 H   0  0  0  0  0  0
  -23.9643  -27.3649   18.9732 H   0  0  0  0  0  0
  -23.7318  -30.6258   19.4140 H   0  0  0  0  0  0
  -22.7396  -29.2696   19.8575 H   0  0  0  0  0  0
  -25.1292  -36.1985   25.0826 H   0  0  0  0  0  0
  -20.9958  -28.3226   24.1429 H   0  0  0  0  0  0
  -20.5675  -26.2274   23.3591 H   0  0  0  0  0  0
  -21.6644  -26.7452   22.1195 H   0  0  0  0  0  0
  -19.6913  -25.6297   21.1233 H   0  0  0  0  0  0
  -19.6690  -27.3196   20.6734 H   0  0  0  0  0  0
  -17.4197  -26.6663   21.4028 H   0  0  0  0  0  0
  -18.0343  -26.0073   22.9021 H   0  0  0  0  0  0
  -19.7927  -30.7263   24.2277 H   0  0  0  0  0  0
  -17.5008  -31.6259   24.5169 H   0  0  0  0  0  0
  -15.5348  -30.2987   23.7646 H   0  0  0  0  0  0
  -15.8668  -28.0824   22.7057 H   0  0  0  0  0  0
  -24.5910  -30.7066   25.7821 H   0  0  0  0  0  0
  -24.8914  -32.2865   26.4947 H   0  0  0  0  0  0
  -25.8070  -30.8881   27.0250 H   0  0  0  0  0  0
  -26.2860  -29.6818   24.1196 H   0  0  0  0  0  0
  -27.4048  -29.7286   25.4637 H   0  0  0  0  0  0
  -27.8723  -30.4362   23.9356 H   0  0  0  0  0  0
  -27.2693  -33.3618   26.2121 H   0  0  0  0  0  0
  -28.3853  -32.6903   25.0330 H   0  0  0  0  0  0
  -28.0749  -31.8435   26.5409 H   0  0  0  0  0  0
  -28.2612  -38.0110   24.7501 H   0  0  0  0  0  0
  -28.1076  -36.2641   24.6302 H   0  0  0  0  0  0
  -27.2295  -37.1487   25.8867 H   0  0  0  0  0  0
  -20.9334  -29.8786   21.6958 H   0  0  0  0  0  0
  -26.0198  -38.2880   24.1387 H   0  0  0  0  0  0
  -32.7933  -18.5645   23.1534 H   0  0  0  0  0  0
  -31.9362  -20.4586   21.8504 H   0  0  0  0  0  0
  -31.9454  -16.2760   22.7840 H   0  0  0  0  0  0
  -29.1928  -17.7808   19.8237 H   0  0  0  0  0  0
  -29.7599  -24.4778   21.0964 H   0  0  0  0  0  0
  -27.8872  -23.1215   18.1133 H   0  0  0  0  0  0
  -27.5174  -21.7484   19.1164 H   0  0  0  0  0  0
  -29.7514  -21.7039   21.5605 H   0  0  0  0  0  0
  -31.0913  -22.1554   20.5238 H   0  0  0  0  0  0
  -28.6127  -21.0749   16.9772 H   0  0  0  0  0  0
  -30.0155  -22.0478   17.3666 H   0  0  0  0  0  0
  -27.2239  -24.8264   20.0469 H   0  0  0  0  0  0
  -28.1943  -25.1946   18.6144 H   0  0  0  0  0  0
  -29.0408  -15.3677   21.2575 H   0  0  0  0  0  0
  1 25  1  0  0  0
  1 30  2  0  0  0
  1 85  1  0  0  0
  2  3  1  0  0  0
  2 25  1  0  0  0
  2 87  1  0  0  0
  2 88  1  0  0  0
  3  4  1  0  0  0
  3 89  1  0  0  0
  3 90  1  0  0  0
  4  5  1  0  0  0
  4 91  1  0  0  0
  4 92  1  0  0  0
  5  6  1  0  0  0
  5 26  1  0  0  0
  5 93  1  0  0  0
  6 25  1  0  0  0
  6 94  1  0  0  0
  6 95  1  0  0  0
  7  8  2  0  0  0
  7 26  1  0  0  0
  7 29  1  0  0  0
  8  9  1  0  0  0
  8 22  1  0  0  0
  9 10  1  0  0  0
  9 27  2  0  0  0
 10 11  2  0  0  0
 10 15  1  0  0  0
 11 12  1  0  0  0
 11 96  1  0  0  0
 12 13  2  0  0  0
 12 97  1  0  0  0
 13 14  1  0  0  0
 13 31  1  0  0  0
 14 15  2  0  0  0
 14 98  1  0  0  0
 15 99  1  0  0  0
 16 17  2  0  0  0
 16 21  1  0  0  0
 16 31  1  0  0  0
 17 18  1  0  0  0
 17100  1  0  0  0
 18 19  2  0  0  0
 18101  1  0  0  0
 19 20  1  0  0  0
 19 24  1  0  0  0
 20 21  2  0  0  0
 20102  1  0  0  0
 21 23  1  0  0  0
 22 28  1  0  0  0
 22 32  2  0  0  0
 26 27  1  0  0  0
 28103  1  0  0  0
 28104  1  0  0  0
 29105  1  0  0  0
 29106  1  0  0  0
 33 34  1  0  0  0
 33 66  1  0  0  0
 33 70  2  0  0  0
 34 36  1  0  0  0
 34 59  1  0  0  0
 34107  1  0  0  0
 35 44  2  0  0  0
 35 45  1  0  0  0
 35 68  1  0  0  0
 36 56  1  0  0  0
 36108  1  0  0  0
 37 39  1  0  0  0
 37 47  1  0  0  0
 37 66  1  0  0  0
 37109  1  0  0  0
 38 43  2  0  0  0
 38 46  1  0  0  0
 38 47  1  0  0  0
 39 64  1  0  0  0
 39 67  2  0  0  0
 40 52  1  0  0  0
 40 53  2  0  0  0
 40 58  1  0  0  0
 41110  1  0  0  0
 41111  1  0  0  0
 41112  1  0  0  0
 41 48  1  0  0  0
 42 43  1  0  0  0
 42 66  1  0  0  0
 42113  1  0  0  0
 42114  1  0  0  0
 43 44  1  0  0  0
 44115  1  0  0  0
 45 46  2  0  0  0
 45116  1  0  0  0
 46117  1  0  0  0
 47118  1  0  0  0
 47119  1  0  0  0
 48 56  1  0  0  0
 48 65  1  0  0  0
 48120  1  0  0  0
 49 50  1  0  0  0
 49 53  1  0  0  0
 49 64  1  0  0  0
 49121  1  0  0  0
 50 51  1  0  0  0
 50122  1  0  0  0
 50123  1  0  0  0
 51 52  1  0  0  0
 51124  1  0  0  0
 51125  1  0  0  0
 52126  1  0  0  0
 52127  1  0  0  0
 53 54  1  0  0  0
 54 55  2  0  0  0
 54128  1  0  0  0
 55 57  1  0  0  0
 55129  1  0  0  0
 56 69  2  0  0  0
 57 58  2  0  0  0
 57130  1  0  0  0
 58131  1  0  0  0
 59 60  1  0  0  0
 59 61  1  0  0  0
 59 62  1  0  0  0
 60132  1  0  0  0
 60133  1  0  0  0
 60134  1  0  0  0
 61135  1  0  0  0
 61136  1  0  0  0
 61137  1  0  0  0
 62138  1  0  0  0
 62139  1  0  0  0
 62140  1  0  0  0
 63 65  1  0  0  0
 63141  1  0  0  0
 63142  1  0  0  0
 63143  1  0  0  0
 64144  1  0  0  0
 65145  1  0  0  0
 68 83  1  0  0  0
 71 72  2  0  0  0
 71 73  1  0  0  0
 71146  1  0  0  0
 72 75  1  0  0  0
 72147  1  0  0  0
 73 76  2  0  0  0
 73148  1  0  0  0
 74 75  2  0  0  0
 74 76  1  0  0  0
 74149  1  0  0  0
 75 84  1  0  0  0
 76 85  1  0  0  0
 77 79  2  0  0  0
 77 80  1  0  0  0
 77 81  1  0  0  0
 78 82  1  0  0  0
 78 84  1  0  0  0
 78 86  2  0  0  0
 79 83  1  0  0  0
 79150  1  0  0  0
 80 82  1  0  0  0
 80151  1  0  0  0
 80152  1  0  0  0
 81 84  1  0  0  0
 81153  1  0  0  0
 81154  1  0  0  0
 82155  1  0  0  0
 82156  1  0  0  0
 83157  1  0  0  0
 83158  1  0  0  0
 85159  1  0  0  0
M  ISO  4   1 100  68 101  83 101  85 100
M  END
> <chiral flag>
0

> <version>
0

> <s_m_source_file>
/data/baiqing/PycharmProjects/Reinvent-master-3.2/result/LINK_invent/BTK/process_docking_weight1_custom_product_contain_oxygen_bond_distance_aromatic_linkinvent_7_9_3/rearranged_h_0055.sdf

> <i_m_source_file_index>
27

> <r_mmod_Potential_Energy-OPLS-2005>
81.4534149169922

> <r_mmod_Stretch_Energy-OPLS-2005>
52.1763305664062

> <r_mmod_Bend_Energy-OPLS-2005>
104.887283325195

> <r_mmod_Torsional_Energy-OPLS-2005>
282.334381103516

> <r_mmod_Improper_Torsional_Energy-OPLS-2005>
4.12595129013062

> <r_mmod_Van_der_Waal_Energy-OPLS-2005>
183.286163330078

> <r_mmod_Electrostatic_Energy-OPLS-2005>
-340.5908203125

> <r_mmod_Solvation_Energy-OPLS-2005>
-225.661148071289

> <b_mmod_Minimization_Converged-OPLS-2005>
0

> <r_mmod_RMS_Derivative-OPLS-2005>
1.49890613555908

$$$$
27
                    3D
 Structure written by MMmdl.
158166  0  0  1  0            999 V2000
  -30.7709  -14.3420   20.5571 C   0  0  0  0  0  0
  -30.4180  -12.2749   19.3044 C   0  0  0  0  0  0
  -29.4648  -12.5982   18.1379 C   0  0  0  0  0  0
  -28.0069  -12.4291   18.6053 C   0  0  0  0  0  0
  -27.6880  -13.2191   19.9023 C   0  0  2  0  0  0
  -28.7443  -12.9031   20.9817 C   0  0  0  0  0  0
  -25.2713  -13.8243   20.5581 C   0  0  0  0  0  0
  -24.1955  -13.0428   20.9228 C   0  0  0  0  0  0
  -24.6488  -11.6928   20.8775 C   0  0  0  0  0  0
  -23.9052  -10.4288   21.0368 C   0  0  0  0  0  0
  -24.3509   -9.4324   21.9283 C   0  0  0  0  0  0
  -23.6191   -8.2350   22.0861 C   0  0  0  0  0  0
  -22.4257   -8.0304   21.3489 C   0  0  0  0  0  0
  -21.9969   -9.0157   20.4467 C   0  0  0  0  0  0
  -22.7287  -10.2065   20.2914 C   0  0  0  0  0  0
  -21.6820   -6.0780   22.5231 C   0  0  0  0  0  0
  -21.3985   -6.5665   23.8153 C   0  0  0  0  0  0
  -21.3649   -5.6796   24.9109 C   0  0  0  0  0  0
  -21.6069   -4.3064   24.7154 C   0  0  0  0  0  0
  -21.8829   -3.8179   23.4274 C   0  0  0  0  0  0
  -21.9169   -4.7018   22.3343 C   0  0  0  0  0  0
  -22.7996  -13.5148   21.1893 C   0  0  0  0  0  0
  -22.1635   -4.2216   21.0916 F   0  0  0  0  0  0
  -21.5642   -3.4521   25.7651 F   0  0  0  0  0  0
  -30.0859  -13.1814   20.4102 N   0  0  0  0  0  0
  -26.3221  -12.9417   20.3559 N   0  0  0  0  0  0
  -25.9472  -11.6553   20.5981 N   0  0  0  0  0  0
  -22.0588  -12.8115   22.0479 N   0  0  0  0  0  0
  -25.4413  -15.1918   20.3654 N   0  0  0  0  0  0
  -31.8465  -14.5943   20.0101 O   0  0  0  0  0  0
  -21.6558   -6.8942   21.4234 O   0  0  0  0  0  0
  -22.3653  -14.5399   20.6698 O   0  0  0  0  0  0
  -24.6174  -31.8705   23.2103 C   0  0  0  0  0  0
  -25.9045  -32.4847   23.8414 C   0  0  1  0  0  0
  -27.2149  -27.4445   20.0886 C   0  0  0  0  0  0
  -25.5898  -33.8639   24.2361 N   0  0  0  0  0  0
  -23.4067  -30.4951   21.5524 C   0  0  2  0  0  0
  -24.8459  -28.9761   20.1092 C   0  0  0  0  0  0
  -22.7440  -29.4675   22.4990 C   0  0  0  0  0  0
  -18.0280  -28.1378   22.8490 C   0  0  0  0  0  0
  -24.1465  -36.7345   23.2645 C   0  0  0  0  0  0
  -25.9330  -30.8422   21.3592 C   0  0  0  0  0  0
  -26.0093  -29.4789   20.7066 C   0  0  0  0  0  0
  -27.1998  -28.7180   20.6998 C   0  0  0  0  0  0
  -26.0388  -26.9790   19.4441 C   0  0  0  0  0  0
  -24.8529  -27.7284   19.4765 C   0  0  0  0  0  0
  -23.6100  -29.8351   20.1655 C   0  0  0  0  0  0
  -25.4081  -36.3136   24.0355 C   0  0  1  0  0  0
  -20.5877  -28.3667   23.1316 C   0  0  2  0  0  0
  -20.6744  -26.9394   22.5422 C   0  0  0  0  0  0
  -19.5728  -26.6378   21.5207 C   0  0  0  0  0  0
  -18.1905  -26.7927   22.1608 C   0  0  0  0  0  0
  -19.1538  -28.8829   23.2901 C   0  0  0  0  0  0
  -18.9463  -30.1426   23.8921 C   0  0  0  0  0  0
  -17.6465  -30.6579   24.0562 C   0  0  0  0  0  0
  -25.9019  -34.9496   23.5168 C   0  0  0  0  0  0
  -16.5351  -29.9087   23.6317 C   0  0  0  0  0  0
  -16.7264  -28.6501   23.0343 C   0  0  0  0  0  0
  -26.4463  -31.6629   25.0748 C   0  0  0  0  0  0
  -25.3721  -31.3724   26.1495 C   0  0  0  0  0  0
  -27.0309  -30.3089   24.6096 C   0  0  0  0  0  0
  -27.6025  -32.4357   25.7526 C   0  0  0  0  0  0
  -27.5568  -37.1822   24.8462 C   0  0  0  0  0  0
  -21.4165  -29.3056   22.3741 N   0  0  0  0  0  0
  -26.4270  -37.3814   23.9427 N   0  0  0  0  0  0
  -24.6721  -31.0807   22.1015 N   0  0  0  0  0  0
  -23.4206  -28.8220   23.3038 O   0  0  0  0  0  0
  -28.3260  -26.6339   20.2107 O   0  0  0  0  0  0
  -26.5555  -34.8943   22.4715 O   0  0  0  0  0  0
  -23.5366  -32.1428   23.7500 O   0  0  0  0  0  0
  -27.5458  -18.8944   22.6768 C   0  0  0  0  0  0
  -26.7966  -17.9543   23.4160 C   0  0  0  0  0  0
  -28.5724  -16.3466   23.1825 C   0  0  0  0  0  0
  -28.7605  -18.5182   22.0439 C   0  0  0  0  0  0
  -29.2541  -17.2036   22.2873 C   0  0  0  0  0  0
  -27.3059  -16.6752   23.6709 C   0  0  0  0  0  0
  -28.5754  -23.0572   21.1363 C   0  0  0  0  0  0
  -28.9269  -24.3585   21.1397 C   0  0  0  0  0  0
  -29.3607  -21.9366   21.6019 C   0  0  0  0  0  0
  -29.4851  -19.4790   21.0887 C   0  0  0  0  0  0
  -30.4678  -16.6230   21.5818 C   0  0  0  0  0  0
  -27.9056  -25.3152   20.5688 C   0  0  0  0  0  0
  -28.9294  -20.8246   20.9957 N   0  0  0  0  0  0
  -30.1360  -15.2439   21.2817 N   0  0  0  0  0  0
  -30.2860  -21.9660   22.4148 O   0  0  0  0  0  0
  -26.5859  -15.7640   24.3665 F   0  0  0  0  0  0
  -31.4613  -12.3464   18.9825 H   0  0  0  0  0  0
  -30.2738  -11.2349   19.5993 H   0  0  0  0  0  0
  -29.6655  -11.9773   17.2586 H   0  0  0  0  0  0
  -29.6035  -13.6334   17.8091 H   0  0  0  0  0  0
  -27.8150  -11.3690   18.7679 H   0  0  0  0  0  0
  -27.3271  -12.7449   17.8172 H   0  0  0  0  0  0
  -27.7574  -14.2826   19.6874 H   0  0  0  0  0  0
  -28.6783  -11.8459   21.2375 H   0  0  0  0  0  0
  -28.5252  -13.4372   21.9097 H   0  0  0  0  0  0
  -25.2521   -9.5991   22.4984 H   0  0  0  0  0  0
  -23.9755   -7.4855   22.7790 H   0  0  0  0  0  0
  -21.0967   -8.8607   19.8712 H   0  0  0  0  0  0
  -22.3702  -10.9561   19.5986 H   0  0  0  0  0  0
  -21.1947   -7.6167   23.9634 H   0  0  0  0  0  0
  -21.1484   -6.0565   25.9004 H   0  0  0  0  0  0
  -22.0621   -2.7664   23.2701 H   0  0  0  0  0  0
  -22.4138  -11.9889   22.5145 H   0  0  0  0  0  0
  -21.1252  -13.1284   22.2745 H   0  0  0  0  0  0
  -24.6507  -15.8258   20.4044 H   0  0  0  0  0  0
  -26.2532  -15.5954   19.9057 H   0  0  0  0  0  0
  -26.7132  -32.5548   23.1203 H   0  0  0  0  0  0
  -25.0040  -33.9806   25.0496 H   0  0  0  0  0  0
  -22.6985  -31.3121   21.4132 H   0  0  0  0  0  0
  -23.3713  -35.9700   23.3339 H   0  0  0  0  0  0
  -24.3544  -36.8911   22.2052 H   0  0  0  0  0  0
  -23.7230  -37.6578   23.6614 H   0  0  0  0  0  0
  -26.0275  -31.6024   20.5822 H   0  0  0  0  0  0
  -26.8305  -30.9118   21.9631 H   0  0  0  0  0  0
  -28.0892  -29.0736   21.2024 H   0  0  0  0  0  0
  -25.9944  -26.0226   18.9374 H   0  0  0  0  0  0
  -23.9497  -27.3574   19.0100 H   0  0  0  0  0  0
  -23.7013  -30.6024   19.3962 H   0  0  0  0  0  0
  -22.7422  -29.2394   19.8799 H   0  0  0  0  0  0
  -25.1252  -36.2033   25.0846 H   0  0  0  0  0  0
  -20.9951  -28.3203   24.1443 H   0  0  0  0  0  0
  -20.5602  -26.2277   23.3620 H   0  0  0  0  0  0
  -21.6620  -26.7383   22.1256 H   0  0  0  0  0  0
  -19.6887  -25.6295   21.1219 H   0  0  0  0  0  0
  -19.6676  -27.3198   20.6755 H   0  0  0  0  0  0
  -17.4188  -26.6708   21.3988 H   0  0  0  0  0  0
  -18.0278  -26.0044   22.8981 H   0  0  0  0  0  0
  -19.7940  -30.7221   24.2318 H   0  0  0  0  0  0
  -17.5029  -31.6264   24.5168 H   0  0  0  0  0  0
  -15.5357  -30.3003   23.7626 H   0  0  0  0  0  0
  -15.8659  -28.0818   22.7062 H   0  0  0  0  0  0
  -24.6002  -30.6922   25.7881 H   0  0  0  0  0  0
  -24.8769  -32.2859   26.4811 H   0  0  0  0  0  0
  -25.8104  -30.9066   27.0337 H   0  0  0  0  0  0
  -26.2866  -29.6877   24.1107 H   0  0  0  0  0  0
  -27.4073  -29.7295   25.4541 H   0  0  0  0  0  0
  -27.8693  -30.4454   23.9257 H   0  0  0  0  0  0
  -27.2617  -33.3627   26.2163 H   0  0  0  0  0  0
  -28.3815  -32.6986   25.0351 H   0  0  0  0  0  0
  -28.0735  -31.8460   26.5410 H   0  0  0  0  0  0
  -28.2626  -38.0081   24.7486 H   0  0  0  0  0  0
  -28.1022  -36.2626   24.6304 H   0  0  0  0  0  0
  -27.2299  -37.1506   25.8866 H   0  0  0  0  0  0
  -20.9344  -29.8808   21.6973 H   0  0  0  0  0  0
  -26.0186  -38.2910   24.1414 H   0  0  0  0  0  0
  -27.1371  -19.8950   22.5942 H   0  0  0  0  0  0
  -25.8225  -18.2057   23.7981 H   0  0  0  0  0  0
  -29.0046  -15.4009   23.4699 H   0  0  0  0  0  0
  -27.5961  -22.8246   20.7371 H   0  0  0  0  0  0
  -29.8678  -24.7422   21.5201 H   0  0  0  0  0  0
  -29.3740  -19.0667   20.0851 H   0  0  0  0  0  0
  -30.5614  -19.5157   21.2751 H   0  0  0  0  0  0
  -30.6906  -17.1508   20.6551 H   0  0  0  0  0  0
  -31.3381  -16.7099   22.2385 H   0  0  0  0  0  0
  -27.0914  -25.3579   21.2974 H   0  0  0  0  0  0
  -27.5295  -24.8324   19.6675 H   0  0  0  0  0  0
  -28.2261  -20.9501   20.2795 H   0  0  0  0  0  0
  -29.2044  -14.9828   21.5599 H   0  0  0  0  0  0
  1 25  1  0  0  0
  1 30  2  0  0  0
  1 84  1  0  0  0
  2  3  1  0  0  0
  2 25  1  0  0  0
  2 87  1  0  0  0
  2 88  1  0  0  0
  3  4  1  0  0  0
  3 89  1  0  0  0
  3 90  1  0  0  0
  4  5  1  0  0  0
  4 91  1  0  0  0
  4 92  1  0  0  0
  5  6  1  0  0  0
  5 26  1  0  0  0
  5 93  1  0  0  0
  6 25  1  0  0  0
  6 94  1  0  0  0
  6 95  1  0  0  0
  7  8  2  0  0  0
  7 26  1  0  0  0
  7 29  1  0  0  0
  8  9  1  0  0  0
  8 22  1  0  0  0
  9 10  1  0  0  0
  9 27  2  0  0  0
 10 11  2  0  0  0
 10 15  1  0  0  0
 11 12  1  0  0  0
 11 96  1  0  0  0
 12 13  2  0  0  0
 12 97  1  0  0  0
 13 14  1  0  0  0
 13 31  1  0  0  0
 14 15  2  0  0  0
 14 98  1  0  0  0
 15 99  1  0  0  0
 16 17  2  0  0  0
 16 21  1  0  0  0
 16 31  1  0  0  0
 17 18  1  0  0  0
 17100  1  0  0  0
 18 19  2  0  0  0
 18101  1  0  0  0
 19 20  1  0  0  0
 19 24  1  0  0  0
 20 21  2  0  0  0
 20102  1  0  0  0
 21 23  1  0  0  0
 22 28  1  0  0  0
 22 32  2  0  0  0
 26 27  1  0  0  0
 28103  1  0  0  0
 28104  1  0  0  0
 29105  1  0  0  0
 29106  1  0  0  0
 33 34  1  0  0  0
 33 66  1  0  0  0
 33 70  2  0  0  0
 34 36  1  0  0  0
 34 59  1  0  0  0
 34107  1  0  0  0
 35 44  2  0  0  0
 35 45  1  0  0  0
 35 68  1  0  0  0
 36 56  1  0  0  0
 36108  1  0  0  0
 37 39  1  0  0  0
 37 47  1  0  0  0
 37 66  1  0  0  0
 37109  1  0  0  0
 38 43  2  0  0  0
 38 46  1  0  0  0
 38 47  1  0  0  0
 39 64  1  0  0  0
 39 67  2  0  0  0
 40 52  1  0  0  0
 40 53  2  0  0  0
 40 58  1  0  0  0
 41110  1  0  0  0
 41111  1  0  0  0
 41112  1  0  0  0
 41 48  1  0  0  0
 42 43  1  0  0  0
 42 66  1  0  0  0
 42113  1  0  0  0
 42114  1  0  0  0
 43 44  1  0  0  0
 44115  1  0  0  0
 45 46  2  0  0  0
 45116  1  0  0  0
 46117  1  0  0  0
 47118  1  0  0  0
 47119  1  0  0  0
 48 56  1  0  0  0
 48 65  1  0  0  0
 48120  1  0  0  0
 49 50  1  0  0  0
 49 53  1  0  0  0
 49 64  1  0  0  0
 49121  1  0  0  0
 50 51  1  0  0  0
 50122  1  0  0  0
 50123  1  0  0  0
 51 52  1  0  0  0
 51124  1  0  0  0
 51125  1  0  0  0
 52126  1  0  0  0
 52127  1  0  0  0
 53 54  1  0  0  0
 54 55  2  0  0  0
 54128  1  0  0  0
 55 57  1  0  0  0
 55129  1  0  0  0
 56 69  2  0  0  0
 57 58  2  0  0  0
 57130  1  0  0  0
 58131  1  0  0  0
 59 60  1  0  0  0
 59 61  1  0  0  0
 59 62  1  0  0  0
 60132  1  0  0  0
 60133  1  0  0  0
 60134  1  0  0  0
 61135  1  0  0  0
 61136  1  0  0  0
 61137  1  0  0  0
 62138  1  0  0  0
 62139  1  0  0  0
 62140  1  0  0  0
 63 65  1  0  0  0
 63141  1  0  0  0
 63142  1  0  0  0
 63143  1  0  0  0
 64144  1  0  0  0
 65145  1  0  0  0
 68 82  1  0  0  0
 71 72  2  0  0  0
 71 74  1  0  0  0
 71146  1  0  0  0
 72 76  1  0  0  0
 72147  1  0  0  0
 73 75  1  0  0  0
 73 76  2  0  0  0
 73148  1  0  0  0
 74 75  2  0  0  0
 74 80  1  0  0  0
 75 81  1  0  0  0
 76 86  1  0  0  0
 77 78  2  0  0  0
 77 79  1  0  0  0
 77149  1  0  0  0
 78 82  1  0  0  0
 78150  1  0  0  0
 79 83  1  0  0  0
 79 85  2  0  0  0
 80 83  1  0  0  0
 80151  1  0  0  0
 80152  1  0  0  0
 81 84  1  0  0  0
 81153  1  0  0  0
 81154  1  0  0  0
 82155  1  0  0  0
 82156  1  0  0  0
 83157  1  0  0  0
 84158  1  0  0  0
M  ISO  4   1 100  68 101  82 101  84 100
M  END
> <chiral flag>
0

> <version>
0

> <s_m_source_file>
/data/baiqing/PycharmProjects/Reinvent-master-3.2/result/LINK_invent/BTK/process_docking_weight1_custom_product_contain_oxygen_bond_distance_aromatic_linkinvent_7_9_3/rearranged_h_0055.sdf

> <i_m_source_file_index>
28

> <r_mmod_Potential_Energy-OPLS-2005>
-173.561019897461

> <r_mmod_Stretch_Energy-OPLS-2005>
35.6636199951172

> <r_mmod_Bend_Energy-OPLS-2005>
123.515632629395

> <r_mmod_Torsional_Energy-OPLS-2005>
219.26171875

> <r_mmod_Improper_Torsional_Energy-OPLS-2005>
4.60942554473877

> <r_mmod_Van_der_Waal_Energy-OPLS-2005>
176.363357543945

> <r_mmod_Electrostatic_Energy-OPLS-2005>
-513.491455078125

> <r_mmod_Solvation_Energy-OPLS-2005>
-238.320831298828

> <b_mmod_Minimization_Converged-OPLS-2005>
0

> <r_mmod_RMS_Derivative-OPLS-2005>
12.8863868713379

$$$$
28
                    3D
 Structure written by MMmdl.
160168  0  0  1  0            999 V2000
  -30.6859  -14.4711   20.4744 C   0  0  0  0  0  0
  -30.4157  -12.2772   19.4254 C   0  0  0  0  0  0
  -29.4897  -12.4667   18.2054 C   0  0  0  0  0  0
  -28.0094  -12.3419   18.6210 C   0  0  0  0  0  0
  -27.6542  -13.2003   19.8654 C   0  0  2  0  0  0
  -28.7005  -13.0120   20.9877 C   0  0  0  0  0  0
  -25.2579  -13.8153   20.5695 C   0  0  0  0  0  0
  -24.1825  -13.0440   20.9192 C   0  0  0  0  0  0
  -24.6368  -11.6901   20.8753 C   0  0  0  0  0  0
  -23.9026  -10.4295   21.0410 C   0  0  0  0  0  0
  -24.3583   -9.4213   21.9185 C   0  0  0  0  0  0
  -23.6269   -8.2245   22.0751 C   0  0  0  0  0  0
  -22.4254   -8.0281   21.3537 C   0  0  0  0  0  0
  -21.9885   -9.0252   20.4644 C   0  0  0  0  0  0
  -22.7202  -10.2141   20.3057 C   0  0  0  0  0  0
  -21.6852   -6.0729   22.5275 C   0  0  0  0  0  0
  -21.4015   -6.5634   23.8211 C   0  0  0  0  0  0
  -21.3662   -5.6785   24.9173 C   0  0  0  0  0  0
  -21.6043   -4.3046   24.7219 C   0  0  0  0  0  0
  -21.8822   -3.8139   23.4343 C   0  0  0  0  0  0
  -21.9194   -4.6957   22.3400 C   0  0  0  0  0  0
  -22.7854  -13.5253   21.1858 C   0  0  0  0  0  0
  -22.1658   -4.2144   21.0974 F   0  0  0  0  0  0
  -21.5625   -3.4529   25.7734 F   0  0  0  0  0  0
  -30.0275  -13.2852   20.4200 N   0  0  0  0  0  0
  -26.2991  -12.9299   20.3359 N   0  0  0  0  0  0
  -25.9290  -11.6467   20.5786 N   0  0  0  0  0  0
  -22.0485  -12.8267   22.0424 N   0  0  0  0  0  0
  -25.4335  -15.1866   20.4120 N   0  0  0  0  0  0
  -31.8779  -14.6008   20.1945 O   0  0  0  0  0  0
  -21.6630   -6.8873   21.4236 O   0  0  0  0  0  0
  -22.3546  -14.5558   20.6702 O   0  0  0  0  0  0
  -24.6131  -31.8684   23.2107 C   0  0  0  0  0  0
  -25.9033  -32.4828   23.8390 C   0  0  1  0  0  0
  -27.2328  -27.4489   20.0967 C   0  0  0  0  0  0
  -25.5899  -33.8627   24.2326 N   0  0  0  0  0  0
  -23.4001  -30.4908   21.5512 C   0  0  2  0  0  0
  -24.8468  -28.9545   20.1186 C   0  0  0  0  0  0
  -22.7403  -29.4656   22.5004 C   0  0  0  0  0  0
  -18.0278  -28.1378   22.8494 C   0  0  0  0  0  0
  -24.1484  -36.7316   23.2635 C   0  0  0  0  0  0
  -25.9267  -30.8382   21.3611 C   0  0  0  0  0  0
  -26.0057  -29.4715   20.7135 C   0  0  0  0  0  0
  -27.2042  -28.7252   20.7006 C   0  0  0  0  0  0
  -26.0636  -26.9388   19.4994 C   0  0  0  0  0  0
  -24.8693  -27.6859   19.5106 C   0  0  0  0  0  0
  -23.6080  -29.8205   20.1668 C   0  0  0  0  0  0
  -25.4111  -36.3117   24.0333 C   0  0  1  0  0  0
  -20.5865  -28.3661   23.1335 C   0  0  2  0  0  0
  -20.6779  -26.9405   22.5426 C   0  0  0  0  0  0
  -19.5764  -26.6397   21.5214 C   0  0  0  0  0  0
  -18.1939  -26.7927   22.1618 C   0  0  0  0  0  0
  -19.1524  -28.8838   23.2912 C   0  0  0  0  0  0
  -18.9452  -30.1443   23.8922 C   0  0  0  0  0  0
  -17.6455  -30.6583   24.0575 C   0  0  0  0  0  0
  -25.9041  -34.9483   23.5131 C   0  0  0  0  0  0
  -16.5347  -29.9090   23.6326 C   0  0  0  0  0  0
  -16.7268  -28.6509   23.0344 C   0  0  0  0  0  0
  -26.4473  -31.6603   25.0713 C   0  0  0  0  0  0
  -25.3747  -31.3705   26.1468 C   0  0  0  0  0  0
  -27.0290  -30.3050   24.6064 C   0  0  0  0  0  0
  -27.6046  -32.4319   25.7471 C   0  0  0  0  0  0
  -27.5581  -37.1815   24.8466 C   0  0  0  0  0  0
  -21.4133  -29.3025   22.3742 N   0  0  0  0  0  0
  -26.4298  -37.3802   23.9408 N   0  0  0  0  0  0
  -24.6647  -31.0798   22.1000 N   0  0  0  0  0  0
  -23.4182  -28.8210   23.3050 O   0  0  0  0  0  0
  -28.3920  -26.7135   20.0665 O   0  0  0  0  0  0
  -26.5588  -34.8931   22.4682 O   0  0  0  0  0  0
  -23.5331  -32.1419   23.7521 O   0  0  0  0  0  0
  -29.3263  -16.1461   22.6361 C   0  0  0  0  0  0
  -28.6757  -17.0343   23.5118 C   0  0  0  0  0  0
  -28.5490  -17.4855   20.7508 C   0  0  0  0  0  0
  -27.8929  -18.3847   21.6225 C   0  0  0  0  0  0
  -29.2612  -16.3695   21.2440 C   0  0  0  0  0  0
  -27.9605  -18.1431   23.0155 C   0  0  0  0  0  0
  -28.2066  -21.7332   21.0099 C   0  0  0  0  0  0
  -26.3600  -21.3054   22.6106 C   0  0  0  0  0  0
  -27.0651  -19.5285   21.0203 C   0  0  0  0  0  0
  -28.3893  -23.1668   21.5609 C   0  0  0  0  0  0
  -28.2521  -24.2723   20.4845 C   0  0  0  0  0  0
  -28.4739  -25.6876   21.0598 C   0  0  0  0  0  0
  -29.8916  -15.5362   20.2871 N   0  0  0  0  0  0
  -27.2962  -20.8859   21.5607 N   0  0  0  0  0  0
  -28.9249  -21.3911   20.0658 O   0  0  0  0  0  0
  -27.3269  -18.9509   23.8948 F   0  0  0  0  0  0
  -31.4609  -12.3669   19.1257 H   0  0  0  0  0  0
  -30.3060  -11.2731   19.8388 H   0  0  0  0  0  0
  -29.7231  -11.7264   17.4391 H   0  0  0  0  0  0
  -29.6621  -13.4424   17.7491 H   0  0  0  0  0  0
  -27.8169  -11.2895   18.8329 H   0  0  0  0  0  0
  -27.3590  -12.6028   17.7856 H   0  0  0  0  0  0
  -27.6830  -14.2409   19.5440 H   0  0  0  0  0  0
  -28.6693  -11.9937   21.3783 H   0  0  0  0  0  0
  -28.4821  -13.6664   21.8306 H   0  0  0  0  0  0
  -25.2724   -9.5703   22.4761 H   0  0  0  0  0  0
  -23.9988   -7.4639   22.7468 H   0  0  0  0  0  0
  -21.0819   -8.8763   19.8948 H   0  0  0  0  0  0
  -22.3645  -10.9681   19.6170 H   0  0  0  0  0  0
  -21.2006   -7.6139   23.9717 H   0  0  0  0  0  0
  -21.1478   -6.0508   25.9078 H   0  0  0  0  0  0
  -22.0601   -2.7600   23.2835 H   0  0  0  0  0  0
  -22.4080  -11.9923   22.4824 H   0  0  0  0  0  0
  -21.1110  -13.1316   22.2634 H   0  0  0  0  0  0
  -24.6739  -15.8466   20.5352 H   0  0  0  0  0  0
  -26.3054  -15.6256   20.1443 H   0  0  0  0  0  0
  -26.7106  -32.5549   23.1155 H   0  0  0  0  0  0
  -25.0080  -33.9793   25.0491 H   0  0  0  0  0  0
  -22.6884  -31.3077   21.4136 H   0  0  0  0  0  0
  -23.3745  -35.9652   23.3319 H   0  0  0  0  0  0
  -24.3575  -36.8907   22.2045 H   0  0  0  0  0  0
  -23.7238  -37.6530   23.6631 H   0  0  0  0  0  0
  -26.0343  -31.6021   20.5897 H   0  0  0  0  0  0
  -26.8170  -30.8944   21.9760 H   0  0  0  0  0  0
  -28.1029  -29.1223   21.1521 H   0  0  0  0  0  0
  -26.0777  -25.9700   19.0211 H   0  0  0  0  0  0
  -23.9789  -27.2825   19.0488 H   0  0  0  0  0  0
  -23.7142  -30.5936   19.4045 H   0  0  0  0  0  0
  -22.7321  -29.2379   19.8745 H   0  0  0  0  0  0
  -25.1294  -36.1983   25.0826 H   0  0  0  0  0  0
  -20.9960  -28.3221   24.1453 H   0  0  0  0  0  0
  -20.5687  -26.2273   23.3607 H   0  0  0  0  0  0
  -21.6653  -26.7463   22.1223 H   0  0  0  0  0  0
  -19.6925  -25.6317   21.1222 H   0  0  0  0  0  0
  -19.6715  -27.3232   20.6768 H   0  0  0  0  0  0
  -17.4221  -26.6681   21.4009 H   0  0  0  0  0  0
  -18.0342  -26.0059   22.9004 H   0  0  0  0  0  0
  -19.7928  -30.7254   24.2300 H   0  0  0  0  0  0
  -17.5012  -31.6258   24.5182 H   0  0  0  0  0  0
  -15.5348  -30.2997   23.7655 H   0  0  0  0  0  0
  -15.8663  -28.0849   22.7034 H   0  0  0  0  0  0
  -24.5912  -30.7061   25.7808 H   0  0  0  0  0  0
  -24.8955  -32.2863   26.4936 H   0  0  0  0  0  0
  -25.8115  -30.8858   27.0209 H   0  0  0  0  0  0
  -26.2819  -29.6820   24.1131 H   0  0  0  0  0  0
  -27.4084  -29.7274   25.4505 H   0  0  0  0  0  0
  -27.8647  -30.4379   23.9188 H   0  0  0  0  0  0
  -27.2662  -33.3598   26.2095 H   0  0  0  0  0  0
  -28.3833  -32.6915   25.0285 H   0  0  0  0  0  0
  -28.0741  -31.8415   26.5349 H   0  0  0  0  0  0
  -28.2623  -38.0091   24.7511 H   0  0  0  0  0  0
  -28.1056  -36.2629   24.6305 H   0  0  0  0  0  0
  -27.2299  -37.1487   25.8868 H   0  0  0  0  0  0
  -20.9286  -29.8727   21.6955 H   0  0  0  0  0  0
  -26.0189  -38.2883   24.1400 H   0  0  0  0  0  0
  -29.8677  -15.3066   23.0480 H   0  0  0  0  0  0
  -28.7176  -16.8615   24.5771 H   0  0  0  0  0  0
  -28.4894  -17.6490   19.6837 H   0  0  0  0  0  0
  -25.7612  -22.1552   22.2808 H   0  0  0  0  0  0
  -26.8963  -21.5853   23.5185 H   0  0  0  0  0  0
  -25.6596  -20.5189   22.8903 H   0  0  0  0  0  0
  -26.0158  -19.2573   21.1362 H   0  0  0  0  0  0
  -27.2067  -19.5435   19.9379 H   0  0  0  0  0  0
  -29.3880  -23.2114   21.9961 H   0  0  0  0  0  0
  -27.7109  -23.3940   22.3795 H   0  0  0  0  0  0
  -27.2619  -24.2094   20.0318 H   0  0  0  0  0  0
  -28.9699  -24.1001   19.6814 H   0  0  0  0  0  0
  -27.7772  -25.8738   21.8802 H   0  0  0  0  0  0
  -29.4718  -25.7435   21.4958 H   0  0  0  0  0  0
  -30.1671  -16.0508   19.4644 H   0  0  0  0  0  0
  1 25  1  0  0  0
  1 30  2  0  0  0
  1 83  1  0  0  0
  2  3  1  0  0  0
  2 25  1  0  0  0
  2 87  1  0  0  0
  2 88  1  0  0  0
  3  4  1  0  0  0
  3 89  1  0  0  0
  3 90  1  0  0  0
  4  5  1  0  0  0
  4 91  1  0  0  0
  4 92  1  0  0  0
  5  6  1  0  0  0
  5 26  1  0  0  0
  5 93  1  0  0  0
  6 25  1  0  0  0
  6 94  1  0  0  0
  6 95  1  0  0  0
  7  8  2  0  0  0
  7 26  1  0  0  0
  7 29  1  0  0  0
  8  9  1  0  0  0
  8 22  1  0  0  0
  9 10  1  0  0  0
  9 27  2  0  0  0
 10 11  2  0  0  0
 10 15  1  0  0  0
 11 12  1  0  0  0
 11 96  1  0  0  0
 12 13  2  0  0  0
 12 97  1  0  0  0
 13 14  1  0  0  0
 13 31  1  0  0  0
 14 15  2  0  0  0
 14 98  1  0  0  0
 15 99  1  0  0  0
 16 17  2  0  0  0
 16 21  1  0  0  0
 16 31  1  0  0  0
 17 18  1  0  0  0
 17100  1  0  0  0
 18 19  2  0  0  0
 18101  1  0  0  0
 19 20  1  0  0  0
 19 24  1  0  0  0
 20 21  2  0  0  0
 20102  1  0  0  0
 21 23  1  0  0  0
 22 28  1  0  0  0
 22 32  2  0  0  0
 26 27  1  0  0  0
 28103  1  0  0  0
 28104  1  0  0  0
 29105  1  0  0  0
 29106  1  0  0  0
 33 34  1  0  0  0
 33 66  1  0  0  0
 33 70  2  0  0  0
 34 36  1  0  0  0
 34 59  1  0  0  0
 34107  1  0  0  0
 35 44  2  0  0  0
 35 45  1  0  0  0
 35 68  1  0  0  0
 36 56  1  0  0  0
 36108  1  0  0  0
 37 39  1  0  0  0
 37 47  1  0  0  0
 37 66  1  0  0  0
 37109  1  0  0  0
 38 43  2  0  0  0
 38 46  1  0  0  0
 38 47  1  0  0  0
 39 64  1  0  0  0
 39 67  2  0  0  0
 40 52  1  0  0  0
 40 53  2  0  0  0
 40 58  1  0  0  0
 41110  1  0  0  0
 41111  1  0  0  0
 41112  1  0  0  0
 41 48  1  0  0  0
 42 43  1  0  0  0
 42 66  1  0  0  0
 42113  1  0  0  0
 42114  1  0  0  0
 43 44  1  0  0  0
 44115  1  0  0  0
 45 46  2  0  0  0
 45116  1  0  0  0
 46117  1  0  0  0
 47118  1  0  0  0
 47119  1  0  0  0
 48 56  1  0  0  0
 48 65  1  0  0  0
 48120  1  0  0  0
 49 50  1  0  0  0
 49 53  1  0  0  0
 49 64  1  0  0  0
 49121  1  0  0  0
 50 51  1  0  0  0
 50122  1  0  0  0
 50123  1  0  0  0
 51 52  1  0  0  0
 51124  1  0  0  0
 51125  1  0  0  0
 52126  1  0  0  0
 52127  1  0  0  0
 53 54  1  0  0  0
 54 55  2  0  0  0
 54128  1  0  0  0
 55 57  1  0  0  0
 55129  1  0  0  0
 56 69  2  0  0  0
 57 58  2  0  0  0
 57130  1  0  0  0
 58131  1  0  0  0
 59 60  1  0  0  0
 59 61  1  0  0  0
 59 62  1  0  0  0
 60132  1  0  0  0
 60133  1  0  0  0
 60134  1  0  0  0
 61135  1  0  0  0
 61136  1  0  0  0
 61137  1  0  0  0
 62138  1  0  0  0
 62139  1  0  0  0
 62140  1  0  0  0
 63 65  1  0  0  0
 63141  1  0  0  0
 63142  1  0  0  0
 63143  1  0  0  0
 64144  1  0  0  0
 65145  1  0  0  0
 68 82  1  0  0  0
 71 72  2  0  0  0
 71 75  1  0  0  0
 71146  1  0  0  0
 72 76  1  0  0  0
 72147  1  0  0  0
 73 74  1  0  0  0
 73 75  2  0  0  0
 73148  1  0  0  0
 74 76  2  0  0  0
 74 79  1  0  0  0
 75 83  1  0  0  0
 76 86  1  0  0  0
 77 80  1  0  0  0
 77 84  1  0  0  0
 77 85  2  0  0  0
 78 84  1  0  0  0
 78149  1  0  0  0
 78150  1  0  0  0
 78151  1  0  0  0
 79 84  1  0  0  0
 79152  1  0  0  0
 79153  1  0  0  0
 80 81  1  0  0  0
 80154  1  0  0  0
 80155  1  0  0  0
 81 82  1  0  0  0
 81156  1  0  0  0
 81157  1  0  0  0
 82158  1  0  0  0
 82159  1  0  0  0
 83160  1  0  0  0
M  ISO  4   1 100  68 101  82 101  83 100
M  END
> <chiral flag>
0

> <version>
0

> <s_m_source_file>
/data/baiqing/PycharmProjects/Reinvent-master-3.2/result/LINK_invent/BTK/process_docking_weight1_custom_product_contain_oxygen_bond_distance_aromatic_linkinvent_7_9_3/rearranged_h_0055.sdf

> <i_m_source_file_index>
29

> <r_mmod_Potential_Energy-OPLS-2005>
-13.0485563278198

> <r_mmod_Stretch_Energy-OPLS-2005>
36.1057434082031

> <r_mmod_Bend_Energy-OPLS-2005>
104.65983581543

> <r_mmod_Torsional_Energy-OPLS-2005>
298.033935546875

> <r_mmod_Improper_Torsional_Energy-OPLS-2005>
21.0724239349365

> <r_mmod_Van_der_Waal_Energy-OPLS-2005>
150.493057250977

> <r_mmod_Electrostatic_Energy-OPLS-2005>
-424.750244140625

> <r_mmod_Solvation_Energy-OPLS-2005>
-216.431137084961

> <b_mmod_Minimization_Converged-OPLS-2005>
0

> <r_mmod_RMS_Derivative-OPLS-2005>
1.38279461860657

$$$$
29
                    3D
 Structure written by MMmdl.
168177  0  0  1  0            999 V2000
  -30.6333  -14.6054   20.5286 C   0  0  0  0  0  0
  -30.4419  -12.3803   19.4417 C   0  0  0  0  0  0
  -29.5056  -12.5177   18.2208 C   0  0  0  0  0  0
  -28.0278  -12.3589   18.6308 C   0  0  0  0  0  0
  -27.6586  -13.2120   19.8725 C   0  0  2  0  0  0
  -28.7040  -13.0358   20.9982 C   0  0  0  0  0  0
  -25.2565  -13.8150   20.5652 C   0  0  0  0  0  0
  -24.1832  -13.0431   20.9191 C   0  0  0  0  0  0
  -24.6393  -11.6904   20.8752 C   0  0  0  0  0  0
  -23.9056  -10.4293   21.0416 C   0  0  0  0  0  0
  -24.3606   -9.4207   21.9197 C   0  0  0  0  0  0
  -23.6280   -8.2244   22.0758 C   0  0  0  0  0  0
  -22.4268   -8.0278   21.3544 C   0  0  0  0  0  0
  -21.9901   -9.0251   20.4646 C   0  0  0  0  0  0
  -22.7226  -10.2138   20.3061 C   0  0  0  0  0  0
  -21.6848   -6.0730   22.5272 C   0  0  0  0  0  0
  -21.4015   -6.5636   23.8207 C   0  0  0  0  0  0
  -21.3664   -5.6791   24.9167 C   0  0  0  0  0  0
  -21.6042   -4.3049   24.7220 C   0  0  0  0  0  0
  -21.8822   -3.8145   23.4337 C   0  0  0  0  0  0
  -21.9195   -4.6960   22.3393 C   0  0  0  0  0  0
  -22.7856  -13.5234   21.1853 C   0  0  0  0  0  0
  -22.1656   -4.2141   21.0969 F   0  0  0  0  0  0
  -21.5638   -3.4540   25.7736 F   0  0  0  0  0  0
  -30.0253  -13.3812   20.4428 N   0  0  0  0  0  0
  -26.3011  -12.9329   20.3348 N   0  0  0  0  0  0
  -25.9329  -11.6495   20.5787 N   0  0  0  0  0  0
  -22.0491  -12.8224   22.0398 N   0  0  0  0  0  0
  -25.4279  -15.1852   20.3972 N   0  0  0  0  0  0
  -31.7790  -14.7930   20.1099 O   0  0  0  0  0  0
  -21.6634   -6.8872   21.4234 O   0  0  0  0  0  0
  -22.3545  -14.5544   20.6696 O   0  0  0  0  0  0
  -24.6230  -31.8611   23.2040 C   0  0  0  0  0  0
  -25.9085  -32.4790   23.8353 C   0  0  1  0  0  0
  -27.2289  -27.3441   20.0983 C   0  0  0  0  0  0
  -25.5906  -33.8594   24.2273 N   0  0  0  0  0  0
  -23.4148  -30.4835   21.5476 C   0  0  2  0  0  0
  -24.8607  -28.9433   20.1106 C   0  0  0  0  0  0
  -22.7442  -29.4627   22.4963 C   0  0  0  0  0  0
  -18.0275  -28.1384   22.8518 C   0  0  0  0  0  0
  -24.1495  -36.7312   23.2637 C   0  0  0  0  0  0
  -25.9543  -30.7943   21.3751 C   0  0  0  0  0  0
  -26.0273  -29.4246   20.7162 C   0  0  0  0  0  0
  -27.2094  -28.6331   20.7083 C   0  0  0  0  0  0
  -26.0362  -26.9112   19.4703 C   0  0  0  0  0  0
  -24.8647  -27.6899   19.4823 C   0  0  0  0  0  0
  -23.6262  -29.8163   20.1637 C   0  0  0  0  0  0
  -25.4123  -36.3093   24.0317 C   0  0  1  0  0  0
  -20.5867  -28.3686   23.1324 C   0  0  2  0  0  0
  -20.6764  -26.9413   22.5438 C   0  0  0  0  0  0
  -19.5732  -26.6391   21.5247 C   0  0  0  0  0  0
  -18.1908  -26.7940   22.1640 C   0  0  0  0  0  0
  -19.1522  -28.8850   23.2920 C   0  0  0  0  0  0
  -18.9448  -30.1466   23.8922 C   0  0  0  0  0  0
  -17.6445  -30.6597   24.0572 C   0  0  0  0  0  0
  -25.9054  -34.9457   23.5096 C   0  0  0  0  0  0
  -16.5341  -29.9092   23.6341 C   0  0  0  0  0  0
  -16.7264  -28.6501   23.0387 C   0  0  0  0  0  0
  -26.4486  -31.6591   25.0711 C   0  0  0  0  0  0
  -25.3734  -31.3715   26.1445 C   0  0  0  0  0  0
  -27.0331  -30.3020   24.6156 C   0  0  0  0  0  0
  -27.6049  -32.4333   25.7469 C   0  0  0  0  0  0
  -27.5591  -37.1796   24.8453 C   0  0  0  0  0  0
  -21.4158  -29.3043   22.3712 N   0  0  0  0  0  0
  -26.4303  -37.3776   23.9400 N   0  0  0  0  0  0
  -24.6825  -31.0617   22.0991 N   0  0  0  0  0  0
  -23.4168  -28.8161   23.3033 O   0  0  0  0  0  0
  -28.3740  -26.5371   20.1514 O   0  0  0  0  0  0
  -26.5606  -34.8911   22.4658 O   0  0  0  0  0  0
  -23.5405  -32.1408   23.7384 O   0  0  0  0  0  0
  -30.8150  -19.2914   20.3937 C   0  0  0  0  0  0
  -30.9531  -17.8903   20.6342 C   0  0  0  0  0  0
  -28.5596  -17.6715   20.5585 C   0  0  0  0  0  0
  -29.5501  -19.9168   20.1967 C   0  0  0  0  0  0
  -28.4085  -19.0616   20.2797 C   0  0  0  0  0  0
  -29.8190  -17.0440   20.7116 C   0  0  0  0  0  0
  -30.4150  -23.7191   20.3435 C   0  0  0  0  0  0
  -33.2303  -23.4594   22.7344 C   0  0  0  0  0  0
  -31.5701  -23.9550   20.9983 C   0  0  0  0  0  0
  -32.1142  -23.1314   22.0646 C   0  0  0  0  0  0
  -29.8116  -24.6412   19.2686 C   0  0  0  0  0  0
  -27.5130  -24.0797   20.1999 C   0  0  0  0  0  0
  -28.2253  -23.1078   21.1904 C   0  0  0  0  0  0
  -28.3855  -25.1982   19.5438 C   0  0  1  0  0  0
  -29.4673  -21.4135   19.7089 C   0  0  0  0  0  0
  -27.0015  -19.5781   19.9849 C   0  0  0  0  0  0
  -29.8342  -15.6144   20.9812 N   0  0  0  0  0  0
  -29.5217  -22.5589   20.6986 N   0  3  1  0  0  0
  -26.0559  -18.7567   20.4435 F   0  0  0  0  0  0
  -26.8408  -19.7295   18.6711 F   0  0  0  0  0  0
  -31.4805  -12.5142   19.1330 H   0  0  0  0  0  0
  -30.3817  -11.3760   19.8634 H   0  0  0  0  0  0
  -29.7638  -11.7804   17.4597 H   0  0  0  0  0  0
  -29.6492  -13.4958   17.7589 H   0  0  0  0  0  0
  -27.8524  -11.3035   18.8409 H   0  0  0  0  0  0
  -27.3757  -12.6124   17.7944 H   0  0  0  0  0  0
  -27.6865  -14.2530   19.5530 H   0  0  0  0  0  0
  -28.7083  -12.0050   21.3545 H   0  0  0  0  0  0
  -28.4498  -13.6418   21.8690 H   0  0  0  0  0  0
  -25.2755   -9.5676   22.4763 H   0  0  0  0  0  0
  -23.9988   -7.4635   22.7477 H   0  0  0  0  0  0
  -21.0835   -8.8770   19.8943 H   0  0  0  0  0  0
  -22.3692  -10.9676   19.6163 H   0  0  0  0  0  0
  -21.2000   -7.6146   23.9701 H   0  0  0  0  0  0
  -21.1487   -6.0526   25.9069 H   0  0  0  0  0  0
  -22.0595   -2.7607   23.2849 H   0  0  0  0  0  0
  -22.4090  -11.9877   22.4777 H   0  0  0  0  0  0
  -21.1110  -13.1260   22.2604 H   0  0  0  0  0  0
  -24.6543  -15.8365   20.4738 H   0  0  0  0  0  0
  -26.2518  -15.5988   19.9834 H   0  0  0  0  0  0
  -26.7138  -32.5461   23.1086 H   0  0  0  0  0  0
  -25.0043  -33.9751   25.0409 H   0  0  0  0  0  0
  -22.7103  -31.3052   21.4039 H   0  0  0  0  0  0
  -23.3770  -35.9631   23.3274 H   0  0  0  0  0  0
  -24.3589  -36.8980   22.2061 H   0  0  0  0  0  0
  -23.7232  -37.6493   23.6697 H   0  0  0  0  0  0
  -26.0843  -31.5581   20.6079 H   0  0  0  0  0  0
  -26.8352  -30.8409   22.0035 H   0  0  0  0  0  0
  -28.1042  -28.9963   21.1941 H   0  0  0  0  0  0
  -25.9677  -25.9570   18.9722 H   0  0  0  0  0  0
  -23.9686  -27.3142   19.0064 H   0  0  0  0  0  0
  -23.7351  -30.5904   19.4037 H   0  0  0  0  0  0
  -22.7492  -29.2377   19.8683 H   0  0  0  0  0  0
  -25.1305  -36.1949   25.0811 H   0  0  0  0  0  0
  -20.9965  -28.3259   24.1444 H   0  0  0  0  0  0
  -20.5726  -26.2273   23.3622 H   0  0  0  0  0  0
  -21.6627  -26.7474   22.1203 H   0  0  0  0  0  0
  -19.6895  -25.6314   21.1256 H   0  0  0  0  0  0
  -19.6676  -27.3225   20.6796 H   0  0  0  0  0  0
  -17.4190  -26.6756   21.4020 H   0  0  0  0  0  0
  -18.0263  -26.0067   22.9006 H   0  0  0  0  0  0
  -19.7922  -30.7304   24.2283 H   0  0  0  0  0  0
  -17.4988  -31.6281   24.5182 H   0  0  0  0  0  0
  -15.5340  -30.2998   23.7650 H   0  0  0  0  0  0
  -15.8667  -28.0819   22.7107 H   0  0  0  0  0  0
  -24.5900  -30.7075   25.7762 H   0  0  0  0  0  0
  -24.8935  -32.2882   26.4890 H   0  0  0  0  0  0
  -25.8063  -30.8865   27.0203 H   0  0  0  0  0  0
  -26.2884  -29.6751   24.1232 H   0  0  0  0  0  0
  -27.4089  -29.7289   25.4642 H   0  0  0  0  0  0
  -27.8729  -30.4313   23.9325 H   0  0  0  0  0  0
  -27.2679  -33.3667   26.1991 H   0  0  0  0  0  0
  -28.3879  -32.6841   25.0300 H   0  0  0  0  0  0
  -28.0684  -31.8487   26.5426 H   0  0  0  0  0  0
  -28.2580  -38.0122   24.7545 H   0  0  0  0  0  0
  -28.1120  -36.2648   24.6244 H   0  0  0  0  0  0
  -27.2299  -37.1408   25.8850 H   0  0  0  0  0  0
  -20.9312  -29.8763   21.6938 H   0  0  0  0  0  0
  -26.0195  -38.2851   24.1419 H   0  0  0  0  0  0
  -31.7175  -19.8824   20.3111 H   0  0  0  0  0  0
  -31.9436  -17.4741   20.7554 H   0  0  0  0  0  0
  -27.6751  -17.0541   20.6135 H   0  0  0  0  0  0
  -33.6127  -22.8251   23.5233 H   0  0  0  0  0  0
  -33.7833  -24.3627   22.5132 H   0  0  0  0  0  0
  -32.1255  -24.8385   20.7142 H   0  0  0  0  0  0
  -31.6208  -22.2120   22.3472 H   0  0  0  0  0  0
  -29.7764  -24.0578   18.3474 H   0  0  0  0  0  0
  -30.4951  -25.4644   19.0584 H   0  0  0  0  0  0
  -26.6486  -24.5182   20.6973 H   0  0  0  0  0  0
  -27.0982  -23.4717   19.3951 H   0  0  0  0  0  0
  -27.5611  -22.3027   21.4964 H   0  0  0  0  0  0
  -28.4402  -23.6635   22.1038 H   0  0  0  0  0  0
  -27.9846  -25.3601   18.5424 H   0  0  0  0  0  0
  -28.6137  -21.5472   19.0449 H   0  0  0  0  0  0
  -30.3283  -21.5359   19.0488 H   0  0  0  0  0  0
  -26.8015  -20.5382   20.4524 H   0  0  0  0  0  0
  -28.9570  -15.2555   21.3252 H   0  0  0  0  0  0
  -29.9362  -22.1280   21.5110 H   0  0  0  0  0  0
  1 25  1  0  0  0
  1 30  2  0  0  0
  1 87  1  0  0  0
  2  3  1  0  0  0
  2 25  1  0  0  0
  2 91  1  0  0  0
  2 92  1  0  0  0
  3  4  1  0  0  0
  3 93  1  0  0  0
  3 94  1  0  0  0
  4  5  1  0  0  0
  4 95  1  0  0  0
  4 96  1  0  0  0
  5  6  1  0  0  0
  5 26  1  0  0  0
  5 97  1  0  0  0
  6 25  1  0  0  0
  6 98  1  0  0  0
  6 99  1  0  0  0
  7  8  2  0  0  0
  7 26  1  0  0  0
  7 29  1  0  0  0
  8  9  1  0  0  0
  8 22  1  0  0  0
  9 10  1  0  0  0
  9 27  2  0  0  0
 10 11  2  0  0  0
 10 15  1  0  0  0
 11 12  1  0  0  0
 11100  1  0  0  0
 12 13  2  0  0  0
 12101  1  0  0  0
 13 14  1  0  0  0
 13 31  1  0  0  0
 14 15  2  0  0  0
 14102  1  0  0  0
 15103  1  0  0  0
 16 17  2  0  0  0
 16 21  1  0  0  0
 16 31  1  0  0  0
 17 18  1  0  0  0
 17104  1  0  0  0
 18 19  2  0  0  0
 18105  1  0  0  0
 19 20  1  0  0  0
 19 24  1  0  0  0
 20 21  2  0  0  0
 20106  1  0  0  0
 21 23  1  0  0  0
 22 28  1  0  0  0
 22 32  2  0  0  0
 26 27  1  0  0  0
 28107  1  0  0  0
 28108  1  0  0  0
 29109  1  0  0  0
 29110  1  0  0  0
 33 34  1  0  0  0
 33 66  1  0  0  0
 33 70  2  0  0  0
 34 36  1  0  0  0
 34 59  1  0  0  0
 34111  1  0  0  0
 35 44  2  0  0  0
 35 45  1  0  0  0
 35 68  1  0  0  0
 36 56  1  0  0  0
 36112  1  0  0  0
 37 39  1  0  0  0
 37 47  1  0  0  0
 37 66  1  0  0  0
 37113  1  0  0  0
 38 43  2  0  0  0
 38 46  1  0  0  0
 38 47  1  0  0  0
 39 64  1  0  0  0
 39 67  2  0  0  0
 40 52  1  0  0  0
 40 53  2  0  0  0
 40 58  1  0  0  0
 41114  1  0  0  0
 41115  1  0  0  0
 41116  1  0  0  0
 41 48  1  0  0  0
 42 43  1  0  0  0
 42 66  1  0  0  0
 42117  1  0  0  0
 42118  1  0  0  0
 43 44  1  0  0  0
 44119  1  0  0  0
 45 46  2  0  0  0
 45120  1  0  0  0
 46121  1  0  0  0
 47122  1  0  0  0
 47123  1  0  0  0
 48 56  1  0  0  0
 48 65  1  0  0  0
 48124  1  0  0  0
 49 50  1  0  0  0
 49 53  1  0  0  0
 49 64  1  0  0  0
 49125  1  0  0  0
 50 51  1  0  0  0
 50126  1  0  0  0
 50127  1  0  0  0
 51 52  1  0  0  0
 51128  1  0  0  0
 51129  1  0  0  0
 52130  1  0  0  0
 52131  1  0  0  0
 53 54  1  0  0  0
 54 55  2  0  0  0
 54132  1  0  0  0
 55 57  1  0  0  0
 55133  1  0  0  0
 56 69  2  0  0  0
 57 58  2  0  0  0
 57134  1  0  0  0
 58135  1  0  0  0
 59 60  1  0  0  0
 59 61  1  0  0  0
 59 62  1  0  0  0
 60136  1  0  0  0
 60137  1  0  0  0
 60138  1  0  0  0
 61139  1  0  0  0
 61140  1  0  0  0
 61141  1  0  0  0
 62142  1  0  0  0
 62143  1  0  0  0
 62144  1  0  0  0
 63 65  1  0  0  0
 63145  1  0  0  0
 63146  1  0  0  0
 63147  1  0  0  0
 64148  1  0  0  0
 65149  1  0  0  0
 68 84  1  0  0  0
 71 72  2  0  0  0
 71 74  1  0  0  0
 71150  1  0  0  0
 72 76  1  0  0  0
 72151  1  0  0  0
 73 75  1  0  0  0
 73 76  2  0  0  0
 73152  1  0  0  0
 74 75  2  0  0  0
 74 85  1  0  0  0
 75 86  1  0  0  0
 76 87  1  0  0  0
 77 79  2  0  0  0
 77 81  1  0  0  0
 77 88  1  0  0  0
 78 80  2  0  0  0
 78153  1  0  0  0
 78154  1  0  0  0
 79 80  1  0  0  0
 79155  1  0  0  0
 80156  1  0  0  0
 81 84  1  0  0  0
 81157  1  0  0  0
 81158  1  0  0  0
 82 83  1  0  0  0
 82 84  1  0  0  0
 82159  1  0  0  0
 82160  1  0  0  0
 83 88  1  0  0  0
 83161  1  0  0  0
 83162  1  0  0  0
 84163  1  0  0  0
 85164  1  0  0  0
 85165  1  0  0  0
 85 88  1  0  0  0
 86 89  1  0  0  0
 86 90  1  0  0  0
 86166  1  0  0  0
 87167  1  0  0  0
 88168  1  0  0  0
M  CHG  1  88   1
M  ISO  4   1 100  68 101  84 101  87 100
M  END
> <chiral flag>
0

> <version>
0

> <s_m_source_file>
/data/baiqing/PycharmProjects/Reinvent-master-3.2/result/LINK_invent/BTK/process_docking_weight1_custom_product_contain_oxygen_bond_distance_aromatic_linkinvent_7_9_3/rearranged_h_0055.sdf

> <i_m_source_file_index>
30

> <r_mmod_Potential_Energy-OPLS-2005>
-48.9362297058105

> <r_mmod_Stretch_Energy-OPLS-2005>
68.958740234375

> <r_mmod_Bend_Energy-OPLS-2005>
160.783599853516

> <r_mmod_Torsional_Energy-OPLS-2005>
239.521820068359

> <r_mmod_Improper_Torsional_Energy-OPLS-2005>
5.8954005241394

> <r_mmod_Van_der_Waal_Energy-OPLS-2005>
143.67578125

> <r_mmod_Electrostatic_Energy-OPLS-2005>
-257.730377197266

> <r_mmod_Solvation_Energy-OPLS-2005>
-446.787109375

> <b_mmod_Minimization_Converged-OPLS-2005>
0

> <r_mmod_RMS_Derivative-OPLS-2005>
2.00384759902954

$$$$
30
                    3D
 Structure written by MMmdl.
154162  0  0  1  0            999 V2000
  -30.6603  -14.5826   20.5041 C   0  0  0  0  0  0
  -30.4307  -12.3536   19.4512 C   0  0  0  0  0  0
  -29.5050  -12.4890   18.2224 C   0  0  0  0  0  0
  -28.0271  -12.3401   18.6353 C   0  0  0  0  0  0
  -27.6554  -13.2126   19.8647 C   0  0  2  0  0  0
  -28.6992  -13.0581   20.9948 C   0  0  0  0  0  0
  -25.2564  -13.8167   20.5656 C   0  0  0  0  0  0
  -24.1823  -13.0445   20.9175 C   0  0  0  0  0  0
  -24.6376  -11.6913   20.8734 C   0  0  0  0  0  0
  -23.9042  -10.4298   21.0405 C   0  0  0  0  0  0
  -24.3598   -9.4218   21.9187 C   0  0  0  0  0  0
  -23.6282   -8.2252   22.0762 C   0  0  0  0  0  0
  -22.4274   -8.0274   21.3544 C   0  0  0  0  0  0
  -21.9894   -9.0244   20.4651 C   0  0  0  0  0  0
  -22.7213  -10.2132   20.3058 C   0  0  0  0  0  0
  -21.6849   -6.0728   22.5276 C   0  0  0  0  0  0
  -21.4011   -6.5635   23.8207 C   0  0  0  0  0  0
  -21.3663   -5.6793   24.9173 C   0  0  0  0  0  0
  -21.6047   -4.3054   24.7226 C   0  0  0  0  0  0
  -21.8819   -3.8140   23.4346 C   0  0  0  0  0  0
  -21.9193   -4.6956   22.3401 C   0  0  0  0  0  0
  -22.7850  -13.5247   21.1843 C   0  0  0  0  0  0
  -22.1661   -4.2140   21.0978 F   0  0  0  0  0  0
  -21.5635   -3.4539   25.7737 F   0  0  0  0  0  0
  -30.0228  -13.3746   20.4329 N   0  0  0  0  0  0
  -26.2993  -12.9340   20.3317 N   0  0  0  0  0  0
  -25.9305  -11.6500   20.5766 N   0  0  0  0  0  0
  -22.0478  -12.8252   22.0407 N   0  0  0  0  0  0
  -25.4295  -15.1880   20.4024 N   0  0  0  0  0  0
  -31.8184  -14.7252   20.1020 O   0  0  0  0  0  0
  -21.6643   -6.8868   21.4240 O   0  0  0  0  0  0
  -22.3540  -14.5559   20.6702 O   0  0  0  0  0  0
  -24.6247  -31.8635   23.2008 C   0  0  0  0  0  0
  -25.9111  -32.4788   23.8333 C   0  0  1  0  0  0
  -27.2331  -27.3502   20.1108 C   0  0  0  0  0  0
  -25.5940  -33.8584   24.2278 N   0  0  0  0  0  0
  -23.4162  -30.4878   21.5430 C   0  0  2  0  0  0
  -24.8634  -28.9448   20.1117 C   0  0  0  0  0  0
  -22.7467  -29.4668   22.4931 C   0  0  0  0  0  0
  -18.0311  -28.1386   22.8511 C   0  0  0  0  0  0
  -24.1501  -36.7277   23.2640 C   0  0  0  0  0  0
  -25.9567  -30.7984   21.3727 C   0  0  0  0  0  0
  -26.0304  -29.4301   20.7151 C   0  0  0  0  0  0
  -27.2169  -28.6434   20.7081 C   0  0  0  0  0  0
  -26.0393  -26.9097   19.4878 C   0  0  0  0  0  0
  -24.8678  -27.6870   19.4920 C   0  0  0  0  0  0
  -23.6300  -29.8209   20.1594 C   0  0  0  0  0  0
  -25.4122  -36.3075   24.0338 C   0  0  1  0  0  0
  -20.5908  -28.3694   23.1282 C   0  0  2  0  0  0
  -20.6802  -26.9421   22.5410 C   0  0  0  0  0  0
  -19.5759  -26.6390   21.5225 C   0  0  0  0  0  0
  -18.1942  -26.7938   22.1633 C   0  0  0  0  0  0
  -19.1559  -28.8855   23.2900 C   0  0  0  0  0  0
  -18.9488  -30.1458   23.8903 C   0  0  0  0  0  0
  -17.6486  -30.6588   24.0576 C   0  0  0  0  0  0
  -25.9046  -34.9452   23.5098 C   0  0  0  0  0  0
  -16.5377  -29.9095   23.6324 C   0  0  0  0  0  0
  -16.7296  -28.6513   23.0347 C   0  0  0  0  0  0
  -26.4501  -31.6577   25.0687 C   0  0  0  0  0  0
  -25.3735  -31.3779   26.1419 C   0  0  0  0  0  0
  -27.0355  -30.2996   24.6145 C   0  0  0  0  0  0
  -27.6041  -32.4330   25.7455 C   0  0  0  0  0  0
  -27.5587  -37.1798   24.8469 C   0  0  0  0  0  0
  -21.4187  -29.3060   22.3675 N   0  0  0  0  0  0
  -26.4306  -37.3764   23.9412 N   0  0  0  0  0  0
  -24.6837  -31.0671   22.0946 N   0  0  0  0  0  0
  -23.4214  -28.8219   23.3007 O   0  0  0  0  0  0
  -28.3663  -26.5284   20.1572 O   0  0  0  0  0  0
  -26.5605  -34.8922   22.4655 O   0  0  0  0  0  0
  -23.5417  -32.1442   23.7352 O   0  0  0  0  0  0
  -30.9987  -17.6688   19.8474 C   0  0  0  0  0  0
  -31.1423  -19.0797   19.7713 C   0  0  0  0  0  0
  -29.2979  -17.9575   21.5358 C   0  0  0  0  0  0
  -29.4327  -19.3773   21.4654 C   0  0  0  0  0  0
  -30.0912  -17.0715   20.7596 C   0  0  0  0  0  0
  -30.3865  -19.9626   20.5851 C   0  0  0  0  0  0
  -29.2832  -24.1344   20.4243 C   0  0  0  0  0  0
  -29.4383  -22.8433   20.0046 C   0  0  0  0  0  0
  -28.5463  -20.2388   22.3505 C   0  0  0  0  0  0
  -28.1466  -25.0873   19.9932 C   0  0  0  0  0  0
  -29.8961  -15.6379   20.9039 N   0  0  0  0  0  0
  -31.1765  -22.1933   21.9297 O   0  0  0  0  0  0
  -31.8718  -21.9393   19.5227 O   0  0  0  0  0  0
  -30.8343  -21.7694   20.5590 S   0  0  0  0  0  0
  -31.4748  -12.4570   19.1526 H   0  0  0  0  0  0
  -30.3450  -11.3577   19.8891 H   0  0  0  0  0  0
  -29.7602  -11.7339   17.4774 H   0  0  0  0  0  0
  -29.6594  -13.4565   17.7416 H   0  0  0  0  0  0
  -27.8595  -11.2879   18.8681 H   0  0  0  0  0  0
  -27.3726  -12.5703   17.7937 H   0  0  0  0  0  0
  -27.6808  -14.2494   19.5281 H   0  0  0  0  0  0
  -28.6933  -12.0377   21.3816 H   0  0  0  0  0  0
  -28.4497  -13.6970   21.8433 H   0  0  0  0  0  0
  -25.2740   -9.5703   22.4764 H   0  0  0  0  0  0
  -23.9994   -7.4643   22.7478 H   0  0  0  0  0  0
  -21.0833   -8.8746   19.8952 H   0  0  0  0  0  0
  -22.3659  -10.9663   19.6169 H   0  0  0  0  0  0
  -21.1998   -7.6142   23.9703 H   0  0  0  0  0  0
  -21.1491   -6.0525   25.9071 H   0  0  0  0  0  0
  -22.0597   -2.7603   23.2847 H   0  0  0  0  0  0
  -22.4074  -11.9901   22.4793 H   0  0  0  0  0  0
  -21.1104  -13.1303   22.2622 H   0  0  0  0  0  0
  -24.6600  -15.8427   20.4864 H   0  0  0  0  0  0
  -26.2795  -15.6191   20.0620 H   0  0  0  0  0  0
  -26.7166  -32.5455   23.1070 H   0  0  0  0  0  0
  -25.0144  -33.9723   25.0465 H   0  0  0  0  0  0
  -22.7092  -31.3078   21.3989 H   0  0  0  0  0  0
  -23.3764  -35.9604   23.3295 H   0  0  0  0  0  0
  -24.3611  -36.8890   22.2054 H   0  0  0  0  0  0
  -23.7253  -37.6485   23.6653 H   0  0  0  0  0  0
  -26.0942  -31.5622   20.6068 H   0  0  0  0  0  0
  -26.8369  -30.8409   22.0035 H   0  0  0  0  0  0
  -28.1121  -29.0132   21.1886 H   0  0  0  0  0  0
  -25.9791  -25.9510   18.9961 H   0  0  0  0  0  0
  -23.9742  -27.3047   19.0169 H   0  0  0  0  0  0
  -23.7502  -30.5972   19.4023 H   0  0  0  0  0  0
  -22.7501  -29.2507   19.8554 H   0  0  0  0  0  0
  -25.1307  -36.1908   25.0835 H   0  0  0  0  0  0
  -21.0018  -28.3269   24.1392 H   0  0  0  0  0  0
  -20.5729  -26.2305   23.3618 H   0  0  0  0  0  0
  -21.6667  -26.7476   22.1166 H   0  0  0  0  0  0
  -19.6914  -25.6312   21.1233 H   0  0  0  0  0  0
  -19.6663  -27.3229   20.6775 H   0  0  0  0  0  0
  -17.4224  -26.6719   21.4017 H   0  0  0  0  0  0
  -18.0304  -26.0083   22.9010 H   0  0  0  0  0  0
  -19.7963  -30.7284   24.2248 H   0  0  0  0  0  0
  -17.5047  -31.6260   24.5193 H   0  0  0  0  0  0
  -15.5375  -30.3001   23.7642 H   0  0  0  0  0  0
  -15.8702  -28.0837   22.7026 H   0  0  0  0  0  0
  -24.5836  -30.7208   25.7757 H   0  0  0  0  0  0
  -24.9024  -32.2999   26.4824 H   0  0  0  0  0  0
  -25.8032  -30.8940   27.0187 H   0  0  0  0  0  0
  -26.2944  -29.6717   24.1187 H   0  0  0  0  0  0
  -27.4092  -29.7259   25.4625 H   0  0  0  0  0  0
  -27.8774  -30.4278   23.9347 H   0  0  0  0  0  0
  -27.2613  -33.3610   26.2031 H   0  0  0  0  0  0
  -28.3839  -32.6932   25.0289 H   0  0  0  0  0  0
  -28.0716  -31.8475   26.5372 H   0  0  0  0  0  0
  -28.2605  -38.0094   24.7520 H   0  0  0  0  0  0
  -28.1095  -36.2632   24.6291 H   0  0  0  0  0  0
  -27.2323  -37.1429   25.8879 H   0  0  0  0  0  0
  -20.9351  -29.8785   21.6898 H   0  0  0  0  0  0
  -26.0179  -38.2843   24.1386 H   0  0  0  0  0  0
  -31.6097  -17.0600   19.1969 H   0  0  0  0  0  0
  -31.8799  -19.4873   19.0956 H   0  0  0  0  0  0
  -28.5771  -17.5392   22.2243 H   0  0  0  0  0  0
  -29.9997  -24.5344   21.1271 H   0  0  0  0  0  0
  -28.7619  -22.3597   19.3170 H   0  0  0  0  0  0
  -28.0290  -19.6366   23.0988 H   0  0  0  0  0  0
  -27.7893  -20.7457   21.7509 H   0  0  0  0  0  0
  -29.1224  -20.9917   22.8878 H   0  0  0  0  0  0
  -27.2785  -24.7866   20.5821 H   0  0  0  0  0  0
  -27.9194  -24.8746   18.9473 H   0  0  0  0  0  0
  -29.0138  -15.3625   21.3076 H   0  0  0  0  0  0
  1 25  1  0  0  0
  1 30  2  0  0  0
  1 81  1  0  0  0
  2  3  1  0  0  0
  2 25  1  0  0  0
  2 85  1  0  0  0
  2 86  1  0  0  0
  3  4  1  0  0  0
  3 87  1  0  0  0
  3 88  1  0  0  0
  4  5  1  0  0  0
  4 89  1  0  0  0
  4 90  1  0  0  0
  5  6  1  0  0  0
  5 26  1  0  0  0
  5 91  1  0  0  0
  6 25  1  0  0  0
  6 92  1  0  0  0
  6 93  1  0  0  0
  7  8  2  0  0  0
  7 26  1  0  0  0
  7 29  1  0  0  0
  8  9  1  0  0  0
  8 22  1  0  0  0
  9 10  1  0  0  0
  9 27  2  0  0  0
 10 11  2  0  0  0
 10 15  1  0  0  0
 11 12  1  0  0  0
 11 94  1  0  0  0
 12 13  2  0  0  0
 12 95  1  0  0  0
 13 14  1  0  0  0
 13 31  1  0  0  0
 14 15  2  0  0  0
 14 96  1  0  0  0
 15 97  1  0  0  0
 16 17  2  0  0  0
 16 21  1  0  0  0
 16 31  1  0  0  0
 17 18  1  0  0  0
 17 98  1  0  0  0
 18 19  2  0  0  0
 18 99  1  0  0  0
 19 20  1  0  0  0
 19 24  1  0  0  0
 20 21  2  0  0  0
 20100  1  0  0  0
 21 23  1  0  0  0
 22 28  1  0  0  0
 22 32  2  0  0  0
 26 27  1  0  0  0
 28101  1  0  0  0
 28102  1  0  0  0
 29103  1  0  0  0
 29104  1  0  0  0
 33 34  1  0  0  0
 33 66  1  0  0  0
 33 70  2  0  0  0
 34 36  1  0  0  0
 34 59  1  0  0  0
 34105  1  0  0  0
 35 44  2  0  0  0
 35 45  1  0  0  0
 35 68  1  0  0  0
 36 56  1  0  0  0
 36106  1  0  0  0
 37 39  1  0  0  0
 37 47  1  0  0  0
 37 66  1  0  0  0
 37107  1  0  0  0
 38 43  2  0  0  0
 38 46  1  0  0  0
 38 47  1  0  0  0
 39 64  1  0  0  0
 39 67  2  0  0  0
 40 52  1  0  0  0
 40 53  2  0  0  0
 40 58  1  0  0  0
 41108  1  0  0  0
 41109  1  0  0  0
 41110  1  0  0  0
 41 48  1  0  0  0
 42 43  1  0  0  0
 42 66  1  0  0  0
 42111  1  0  0  0
 42112  1  0  0  0
 43 44  1  0  0  0
 44113  1  0  0  0
 45 46  2  0  0  0
 45114  1  0  0  0
 46115  1  0  0  0
 47116  1  0  0  0
 47117  1  0  0  0
 48 56  1  0  0  0
 48 65  1  0  0  0
 48118  1  0  0  0
 49 50  1  0  0  0
 49 53  1  0  0  0
 49 64  1  0  0  0
 49119  1  0  0  0
 50 51  1  0  0  0
 50120  1  0  0  0
 50121  1  0  0  0
 51 52  1  0  0  0
 51122  1  0  0  0
 51123  1  0  0  0
 52124  1  0  0  0
 52125  1  0  0  0
 53 54  1  0  0  0
 54 55  2  0  0  0
 54126  1  0  0  0
 55 57  1  0  0  0
 55127  1  0  0  0
 56 69  2  0  0  0
 57 58  2  0  0  0
 57128  1  0  0  0
 58129  1  0  0  0
 59 60  1  0  0  0
 59 61  1  0  0  0
 59 62  1  0  0  0
 60130  1  0  0  0
 60131  1  0  0  0
 60132  1  0  0  0
 61133  1  0  0  0
 61134  1  0  0  0
 61135  1  0  0  0
 62136  1  0  0  0
 62137  1  0  0  0
 62138  1  0  0  0
 63 65  1  0  0  0
 63139  1  0  0  0
 63140  1  0  0  0
 63141  1  0  0  0
 64142  1  0  0  0
 65143  1  0  0  0
 68 80  1  0  0  0
 71 72  2  0  0  0
 71 75  1  0  0  0
 71144  1  0  0  0
 72 76  1  0  0  0
 72145  1  0  0  0
 73 74  1  0  0  0
 73 75  2  0  0  0
 73146  1  0  0  0
 74 76  2  0  0  0
 74 79  1  0  0  0
 75 81  1  0  0  0
 76 84  1  0  0  0
 77 78  2  0  0  0
 77 80  1  0  0  0
 77147  1  0  0  0
 78148  1  0  0  0
 78 84  1  0  0  0
 79149  1  0  0  0
 79150  1  0  0  0
 79151  1  0  0  0
 80152  1  0  0  0
 80153  1  0  0  0
 81154  1  0  0  0
 82 84  2  0  0  0
 83 84  2  0  0  0
M  ISO  4   1 100  68 101  80 101  81 100
M  END
> <chiral flag>
0

> <version>
0

> <s_m_source_file>
/data/baiqing/PycharmProjects/Reinvent-master-3.2/result/LINK_invent/BTK/process_docking_weight1_custom_product_contain_oxygen_bond_distance_aromatic_linkinvent_7_9_3/rearranged_h_0055.sdf

> <i_m_source_file_index>
31

> <r_mmod_Potential_Energy-OPLS-2005>
-1.85536015033722

> <r_mmod_Stretch_Energy-OPLS-2005>
62.081672668457

> <r_mmod_Bend_Energy-OPLS-2005>
124.084365844727

> <r_mmod_Torsional_Energy-OPLS-2005>
204.852447509766

> <r_mmod_Improper_Torsional_Energy-OPLS-2005>
4.04861974716187

> <r_mmod_Van_der_Waal_Energy-OPLS-2005>
146.808792114258

> <r_mmod_Electrostatic_Energy-OPLS-2005>
-324.952362060547

> <r_mmod_Solvation_Energy-OPLS-2005>
-253.554733276367

> <b_mmod_Minimization_Converged-OPLS-2005>
0

> <r_mmod_RMS_Derivative-OPLS-2005>
2.31638884544373

$$$$
31
                    3D
 Structure written by MMmdl.
160169  0  0  1  0            999 V2000
  -30.5431  -14.7671   20.5075 C   0  0  0  0  0  0
  -30.4440  -12.4820   19.4854 C   0  0  0  0  0  0
  -29.5063  -12.4856   18.2560 C   0  0  0  0  0  0
  -28.0376  -12.2779   18.6839 C   0  0  0  0  0  0
  -27.6332  -13.2078   19.8525 C   0  0  2  0  0  0
  -28.6678  -13.1370   20.9970 C   0  0  0  0  0  0
  -25.2489  -13.8148   20.5737 C   0  0  0  0  0  0
  -24.1759  -13.0411   20.9266 C   0  0  0  0  0  0
  -24.6294  -11.6877   20.8758 C   0  0  0  0  0  0
  -23.8963  -10.4274   21.0410 C   0  0  0  0  0  0
  -24.3531   -9.4210   21.9199 C   0  0  0  0  0  0
  -23.6266   -8.2218   22.0754 C   0  0  0  0  0  0
  -22.4251   -8.0234   21.3541 C   0  0  0  0  0  0
  -21.9840   -9.0188   20.4634 C   0  0  0  0  0  0
  -22.7119  -10.2106   20.3070 C   0  0  0  0  0  0
  -21.6839   -6.0721   22.5274 C   0  0  0  0  0  0
  -21.4010   -6.5641   23.8198 C   0  0  0  0  0  0
  -21.3649   -5.6809   24.9169 C   0  0  0  0  0  0
  -21.6048   -4.3065   24.7229 C   0  0  0  0  0  0
  -21.8808   -3.8138   23.4343 C   0  0  0  0  0  0
  -21.9188   -4.6955   22.3400 C   0  0  0  0  0  0
  -22.7783  -13.5211   21.1934 C   0  0  0  0  0  0
  -22.1656   -4.2133   21.0977 F   0  0  0  0  0  0
  -21.5619   -3.4537   25.7744 F   0  0  0  0  0  0
  -29.9624  -13.5225   20.4317 N   0  0  0  0  0  0
  -26.2837  -12.9285   20.3263 N   0  0  0  0  0  0
  -25.9193  -11.6452   20.5740 N   0  0  0  0  0  0
  -22.0391  -12.8226   22.0462 N   0  0  0  0  0  0
  -25.4297  -15.1830   20.4070 N   0  0  0  0  0  0
  -31.7216  -14.9060   20.1726 O   0  0  0  0  0  0
  -21.6633   -6.8824   21.4223 O   0  0  0  0  0  0
  -22.3531  -14.5528   20.6763 O   0  0  0  0  0  0
  -24.6302  -31.8491   23.1914 C   0  0  0  0  0  0
  -25.9150  -32.4696   23.8218 C   0  0  1  0  0  0
  -27.2029  -27.2487   20.1730 C   0  0  0  0  0  0
  -25.5921  -33.8499   24.2163 N   0  0  0  0  0  0
  -23.4257  -30.4770   21.5286 C   0  0  2  0  0  0
  -24.8728  -28.9143   20.1074 C   0  0  0  0  0  0
  -22.7431  -29.4615   22.4853 C   0  0  0  0  0  0
  -18.0267  -28.1519   22.8213 C   0  0  0  0  0  0
  -24.1498  -36.7265   23.2628 C   0  0  0  0  0  0
  -25.9647  -30.7728   21.3614 C   0  0  0  0  0  0
  -26.0377  -29.3884   20.7214 C   0  0  0  0  0  0
  -27.2074  -28.5643   20.7460 C   0  0  0  0  0  0
  -26.0224  -26.8371   19.5265 C   0  0  0  0  0  0
  -24.8661  -27.6434   19.5062 C   0  0  0  0  0  0
  -23.6455  -29.7999   20.1453 C   0  0  0  0  0  0
  -25.4122  -36.3011   24.0301 C   0  0  1  0  0  0
  -20.5797  -28.3672   23.1050 C   0  0  2  0  0  0
  -20.6679  -26.9459   22.4942 C   0  0  0  0  0  0
  -19.5551  -26.6212   21.4840 C   0  0  0  0  0  0
  -18.1710  -26.8201   22.1032 C   0  0  0  0  0  0
  -19.1483  -28.8892   23.2733 C   0  0  0  0  0  0
  -18.9347  -30.1355   23.9019 C   0  0  0  0  0  0
  -17.6337  -30.6469   24.0817 C   0  0  0  0  0  0
  -25.9062  -34.9391   23.5030 C   0  0  0  0  0  0
  -16.5200  -29.9026   23.6411 C   0  0  0  0  0  0
  -16.7231  -28.6632   23.0146 C   0  0  0  0  0  0
  -26.4507  -31.6530   25.0613 C   0  0  0  0  0  0
  -25.3737  -31.3741   26.1356 C   0  0  0  0  0  0
  -27.0414  -30.2967   24.6121 C   0  0  0  0  0  0
  -27.6037  -32.4250   25.7469 C   0  0  0  0  0  0
  -27.5578  -37.1783   24.8466 C   0  0  0  0  0  0
  -21.4143  -29.2978   22.3477 N   0  0  0  0  0  0
  -26.4276  -37.3750   23.9415 N   0  0  0  0  0  0
  -24.6902  -31.0558   22.0834 N   0  0  0  0  0  0
  -23.4043  -28.8211   23.3065 O   0  0  0  0  0  0
  -28.3000  -26.3604   20.1933 O   0  0  0  0  0  0
  -26.5670  -34.8839   22.4640 O   0  0  0  0  0  0
  -23.5475  -32.1275   23.7209 O   0  0  0  0  0  0
  -26.7537  -19.3382   20.1069 C   0  0  0  0  0  0
  -27.7079  -18.2988   20.1931 C   0  0  0  0  0  0
  -27.0674  -20.6769   20.4250 C   0  0  0  0  0  0
  -29.3241  -19.9573   20.9618 C   0  0  0  0  0  0
  -29.0230  -18.5571   20.6491 C   0  0  0  0  0  0
  -28.3568  -21.0486   20.8557 C   0  0  0  0  0  0
  -28.1106  -22.6295   22.6987 C   0  0  0  0  0  0
  -28.1762  -21.6754   23.6412 C   0  0  0  0  0  0
  -27.5305  -23.9894   23.1108 C   0  0  0  0  0  0
  -27.1380  -24.9514   21.9838 C   0  0  0  0  0  0
  -28.4403  -23.5783   20.3634 C   0  0  0  0  0  0
  -28.2848  -25.0707   20.9845 C   0  0  1  0  0  0
  -30.0888  -17.3624   20.7621 C   0  0  0  0  0  0
  -28.4953  -22.4108   21.3571 N   0  0  0  0  0  0
  -29.7297  -15.8684   20.7843 N   0  0  0  0  0  0
  -31.4681  -12.6608   19.1650 H   0  0  0  0  0  0
  -30.4596  -11.5027   19.9659 H   0  0  0  0  0  0
  -29.7873  -11.6979   17.5553 H   0  0  0  0  0  0
  -29.6042  -13.4290   17.7213 H   0  0  0  0  0  0
  -27.9326  -11.2361   19.0038 H   0  0  0  0  0  0
  -27.3602  -12.3981   17.8364 H   0  0  0  0  0  0
  -27.6312  -14.2213   19.4469 H   0  0  0  0  0  0
  -28.7247  -12.1281   21.4131 H   0  0  0  0  0  0
  -28.3849  -13.7879   21.8248 H   0  0  0  0  0  0
  -25.2649   -9.5739   22.4792 H   0  0  0  0  0  0
  -23.9966   -7.4640   22.7480 H   0  0  0  0  0  0
  -21.0765   -8.8660   19.8972 H   0  0  0  0  0  0
  -22.3503  -10.9640   19.6197 H   0  0  0  0  0  0
  -21.2007   -7.6141   23.9694 H   0  0  0  0  0  0
  -21.1490   -6.0537   25.9070 H   0  0  0  0  0  0
  -22.0604   -2.7593   23.2849 H   0  0  0  0  0  0
  -22.3972  -11.9854   22.4817 H   0  0  0  0  0  0
  -21.1027  -13.1277   22.2659 H   0  0  0  0  0  0
  -24.6683  -15.8427   20.5185 H   0  0  0  0  0  0
  -26.2264  -15.5760   19.9245 H   0  0  0  0  0  0
  -26.7189  -32.5298   23.0920 H   0  0  0  0  0  0
  -25.0047  -33.9626   25.0290 H   0  0  0  0  0  0
  -22.7137  -31.2951   21.3708 H   0  0  0  0  0  0
  -23.3745  -35.9636   23.3275 H   0  0  0  0  0  0
  -24.3569  -36.8917   22.2045 H   0  0  0  0  0  0
  -23.7278  -37.6454   23.6687 H   0  0  0  0  0  0
  -26.1055  -31.5312   20.5893 H   0  0  0  0  0  0
  -26.8496  -30.8259   21.9809 H   0  0  0  0  0  0
  -28.1044  -28.9169   21.2335 H   0  0  0  0  0  0
  -25.9851  -25.8641   19.0575 H   0  0  0  0  0  0
  -23.9667  -27.2687   19.0364 H   0  0  0  0  0  0
  -23.7560  -30.5661   19.3769 H   0  0  0  0  0  0
  -22.7686  -29.2193   19.8499 H   0  0  0  0  0  0
  -25.1319  -36.1823   25.0807 H   0  0  0  0  0  0
  -20.9933  -28.3006   24.1126 H   0  0  0  0  0  0
  -21.6515  -26.7835   22.0544 H   0  0  0  0  0  0
  -20.5885  -26.2309   23.3142 H   0  0  0  0  0  0
  -19.6485  -27.2536   20.6022 H   0  0  0  0  0  0
  -19.6444  -25.5996   21.1224 H   0  0  0  0  0  0
  -17.4229  -26.7575   21.3077 H   0  0  0  0  0  0
  -17.9596  -26.0177   22.8093 H   0  0  0  0  0  0
  -19.7913  -30.6983   24.2472 H   0  0  0  0  0  0
  -17.4693  -31.5982   24.5608 H   0  0  0  0  0  0
  -15.5168  -30.2804   23.7717 H   0  0  0  0  0  0
  -15.8644  -28.1178   22.6483 H   0  0  0  0  0  0
  -24.5919  -30.7068   25.7706 H   0  0  0  0  0  0
  -24.8925  -32.2946   26.4667 H   0  0  0  0  0  0
  -25.8050  -30.8997   27.0194 H   0  0  0  0  0  0
  -26.3039  -29.6653   24.1160 H   0  0  0  0  0  0
  -27.4156  -29.7274   25.4634 H   0  0  0  0  0  0
  -27.8858  -30.4255   23.9367 H   0  0  0  0  0  0
  -27.2649  -33.3563   26.2045 H   0  0  0  0  0  0
  -28.3942  -32.6779   25.0387 H   0  0  0  0  0  0
  -28.0619  -31.8352   26.5417 H   0  0  0  0  0  0
  -28.2584  -38.0077   24.7502 H   0  0  0  0  0  0
  -28.1063  -36.2603   24.6312 H   0  0  0  0  0  0
  -27.2288  -37.1471   25.8861 H   0  0  0  0  0  0
  -20.9458  -29.8288   21.6321 H   0  0  0  0  0  0
  -26.0111  -38.2819   24.1451 H   0  0  0  0  0  0
  -25.7461  -19.1054   19.8010 H   0  0  0  0  0  0
  -27.4217  -17.2981   19.9063 H   0  0  0  0  0  0
  -26.2795  -21.4155   20.3981 H   0  0  0  0  0  0
  -30.3147  -20.1938   21.3360 H   0  0  0  0  0  0
  -27.8341  -21.8765   24.6474 H   0  0  0  0  0  0
  -28.5632  -20.6840   23.4575 H   0  0  0  0  0  0
  -28.2663  -24.4613   23.7687 H   0  0  0  0  0  0
  -26.6450  -23.8192   23.7303 H   0  0  0  0  0  0
  -26.8690  -25.9102   22.4246 H   0  0  0  0  0  0
  -26.2466  -24.5866   21.4628 H   0  0  0  0  0  0
  -29.3401  -23.5635   19.7436 H   0  0  0  0  0  0
  -27.6031  -23.3836   19.6868 H   0  0  0  0  0  0
  -29.1922  -25.1928   21.5780 H   0  0  0  0  0  0
  -30.7551  -17.4966   19.9116 H   0  0  0  0  0  0
  -30.6956  -17.5675   21.6425 H   0  0  0  0  0  0
  -28.7854  -15.6381   21.0585 H   0  0  0  0  0  0
  1 25  1  0  0  0
  1 30  2  0  0  0
  1 85  1  0  0  0
  2  3  1  0  0  0
  2 25  1  0  0  0
  2 86  1  0  0  0
  2 87  1  0  0  0
  3  4  1  0  0  0
  3 88  1  0  0  0
  3 89  1  0  0  0
  4  5  1  0  0  0
  4 90  1  0  0  0
  4 91  1  0  0  0
  5  6  1  0  0  0
  5 26  1  0  0  0
  5 92  1  0  0  0
  6 25  1  0  0  0
  6 93  1  0  0  0
  6 94  1  0  0  0
  7  8  2  0  0  0
  7 26  1  0  0  0
  7 29  1  0  0  0
  8  9  1  0  0  0
  8 22  1  0  0  0
  9 10  1  0  0  0
  9 27  2  0  0  0
 10 11  2  0  0  0
 10 15  1  0  0  0
 11 12  1  0  0  0
 11 95  1  0  0  0
 12 13  2  0  0  0
 12 96  1  0  0  0
 13 14  1  0  0  0
 13 31  1  0  0  0
 14 15  2  0  0  0
 14 97  1  0  0  0
 15 98  1  0  0  0
 16 17  2  0  0  0
 16 21  1  0  0  0
 16 31  1  0  0  0
 17 18  1  0  0  0
 17 99  1  0  0  0
 18 19  2  0  0  0
 18100  1  0  0  0
 19 20  1  0  0  0
 19 24  1  0  0  0
 20 21  2  0  0  0
 20101  1  0  0  0
 21 23  1  0  0  0
 22 28  1  0  0  0
 22 32  2  0  0  0
 26 27  1  0  0  0
 28102  1  0  0  0
 28103  1  0  0  0
 29104  1  0  0  0
 29105  1  0  0  0
 33 34  1  0  0  0
 33 66  1  0  0  0
 33 70  2  0  0  0
 34 36  1  0  0  0
 34 59  1  0  0  0
 34106  1  0  0  0
 35 44  2  0  0  0
 35 45  1  0  0  0
 35 68  1  0  0  0
 36 56  1  0  0  0
 36107  1  0  0  0
 37 39  1  0  0  0
 37 47  1  0  0  0
 37 66  1  0  0  0
 37108  1  0  0  0
 38 43  2  0  0  0
 38 46  1  0  0  0
 38 47  1  0  0  0
 39 64  1  0  0  0
 39 67  2  0  0  0
 40 52  1  0  0  0
 40 53  2  0  0  0
 40 58  1  0  0  0
 41109  1  0  0  0
 41110  1  0  0  0
 41111  1  0  0  0
 41 48  1  0  0  0
 42 43  1  0  0  0
 42 66  1  0  0  0
 42112  1  0  0  0
 42113  1  0  0  0
 43 44  1  0  0  0
 44114  1  0  0  0
 45 46  2  0  0  0
 45115  1  0  0  0
 46116  1  0  0  0
 47117  1  0  0  0
 47118  1  0  0  0
 48 56  1  0  0  0
 48 65  1  0  0  0
 48119  1  0  0  0
 49 50  1  0  0  0
 49 53  1  0  0  0
 49 64  1  0  0  0
 49120  1  0  0  0
 50 51  1  0  0  0
 50121  1  0  0  0
 50122  1  0  0  0
 51 52  1  0  0  0
 51123  1  0  0  0
 51124  1  0  0  0
 52125  1  0  0  0
 52126  1  0  0  0
 53 54  1  0  0  0
 54 55  2  0  0  0
 54127  1  0  0  0
 55 57  1  0  0  0
 55128  1  0  0  0
 56 69  2  0  0  0
 57 58  2  0  0  0
 57129  1  0  0  0
 58130  1  0  0  0
 59 60  1  0  0  0
 59 61  1  0  0  0
 59 62  1  0  0  0
 60131  1  0  0  0
 60132  1  0  0  0
 60133  1  0  0  0
 61134  1  0  0  0
 61135  1  0  0  0
 61136  1  0  0  0
 62137  1  0  0  0
 62138  1  0  0  0
 62139  1  0  0  0
 63 65  1  0  0  0
 63140  1  0  0  0
 63141  1  0  0  0
 63142  1  0  0  0
 64143  1  0  0  0
 65144  1  0  0  0
 68 82  1  0  0  0
 71 72  2  0  0  0
 71 73  1  0  0  0
 71145  1  0  0  0
 72 75  1  0  0  0
 72146  1  0  0  0
 73 76  2  0  0  0
 73147  1  0  0  0
 74 75  2  0  0  0
 74 76  1  0  0  0
 74148  1  0  0  0
 75 83  1  0  0  0
 76 84  1  0  0  0
 77 78  2  0  0  0
 77 79  1  0  0  0
 77 84  1  0  0  0
 78149  1  0  0  0
 78150  1  0  0  0
 79 80  1  0  0  0
 79151  1  0  0  0
 79152  1  0  0  0
 80 82  1  0  0  0
 80153  1  0  0  0
 80154  1  0  0  0
 81 82  1  0  0  0
 81 84  1  0  0  0
 81155  1  0  0  0
 81156  1  0  0  0
 82157  1  0  0  0
 83 85  1  0  0  0
 83158  1  0  0  0
 83159  1  0  0  0
 85160  1  0  0  0
M  ISO  4   1 100  68 101  82 101  85 100
M  END
> <chiral flag>
0

> <version>
0

> <s_m_source_file>
/data/baiqing/PycharmProjects/Reinvent-master-3.2/result/LINK_invent/BTK/process_docking_weight1_custom_product_contain_oxygen_bond_distance_aromatic_linkinvent_7_9_3/rearranged_h_0055.sdf

> <i_m_source_file_index>
32

> <r_mmod_Potential_Energy-OPLS-2005>
206.806243896484

> <r_mmod_Stretch_Energy-OPLS-2005>
137.752410888672

> <r_mmod_Bend_Energy-OPLS-2005>
187.666244506836

> <r_mmod_Torsional_Energy-OPLS-2005>
274.922424316406

> <r_mmod_Improper_Torsional_Energy-OPLS-2005>
7.82207250595093

> <r_mmod_Van_der_Waal_Energy-OPLS-2005>
139.736068725586

> <r_mmod_Electrostatic_Energy-OPLS-2005>
-434.824066162109

> <r_mmod_Solvation_Energy-OPLS-2005>
-205.036483764648

> <b_mmod_Minimization_Converged-OPLS-2005>
0

> <r_mmod_RMS_Derivative-OPLS-2005>
10.5935039520264

$$$$
32
                    3D
 Structure written by MMmdl.
157165  0  0  1  0            999 V2000
  -30.7066  -14.4714   20.5451 C   0  0  0  0  0  0
  -30.4222  -12.2927   19.4406 C   0  0  0  0  0  0
  -29.5023  -12.4920   18.2160 C   0  0  0  0  0  0
  -28.0185  -12.3815   18.6158 C   0  0  0  0  0  0
  -27.6657  -13.2143   19.8779 C   0  0  2  0  0  0
  -28.7054  -13.0030   21.0046 C   0  0  0  0  0  0
  -25.2594  -13.8182   20.5664 C   0  0  0  0  0  0
  -24.1838  -13.0470   20.9175 C   0  0  0  0  0  0
  -24.6395  -11.6932   20.8734 C   0  0  0  0  0  0
  -23.9053  -10.4318   21.0400 C   0  0  0  0  0  0
  -24.3617   -9.4237   21.9167 C   0  0  0  0  0  0
  -23.6311   -8.2259   22.0726 C   0  0  0  0  0  0
  -22.4302   -8.0272   21.3513 C   0  0  0  0  0  0
  -21.9935   -9.0253   20.4627 C   0  0  0  0  0  0
  -22.7238  -10.2152   20.3039 C   0  0  0  0  0  0
  -21.6867   -6.0734   22.5252 C   0  0  0  0  0  0
  -21.4027   -6.5631   23.8190 C   0  0  0  0  0  0
  -21.3663   -5.6783   24.9153 C   0  0  0  0  0  0
  -21.6050   -4.3044   24.7213 C   0  0  0  0  0  0
  -21.8815   -3.8144   23.4325 C   0  0  0  0  0  0
  -21.9201   -4.6962   22.3389 C   0  0  0  0  0  0
  -22.7849  -13.5249   21.1828 C   0  0  0  0  0  0
  -22.1655   -4.2140   21.0971 F   0  0  0  0  0  0
  -21.5643   -3.4522   25.7729 F   0  0  0  0  0  0
  -30.0418  -13.2880   20.4552 N   0  0  0  0  0  0
  -26.3034  -12.9362   20.3359 N   0  0  0  0  0  0
  -25.9326  -11.6519   20.5762 N   0  0  0  0  0  0
  -22.0490  -12.8230   22.0379 N   0  0  0  0  0  0
  -25.4360  -15.1880   20.4037 N   0  0  0  0  0  0
  -31.8410  -14.6388   20.0880 O   0  0  0  0  0  0
  -21.6640   -6.8879   21.4221 O   0  0  0  0  0  0
  -22.3510  -14.5561   20.6695 O   0  0  0  0  0  0
  -24.6142  -31.8686   23.2112 C   0  0  0  0  0  0
  -25.9042  -32.4821   23.8394 C   0  0  1  0  0  0
  -27.2086  -27.4075   20.1007 C   0  0  0  0  0  0
  -25.5910  -33.8621   24.2319 N   0  0  0  0  0  0
  -23.4008  -30.5010   21.5520 C   0  0  2  0  0  0
  -24.8437  -28.9743   20.1096 C   0  0  0  0  0  0
  -22.7385  -29.4689   22.4943 C   0  0  0  0  0  0
  -18.0278  -28.1339   22.8503 C   0  0  0  0  0  0
  -24.1492  -36.7313   23.2638 C   0  0  0  0  0  0
  -25.9358  -30.8292   21.3705 C   0  0  0  0  0  0
  -26.0101  -29.4670   20.7082 C   0  0  0  0  0  0
  -27.1987  -28.6926   20.6996 C   0  0  0  0  0  0
  -26.0223  -26.9541   19.4736 C   0  0  0  0  0  0
  -24.8465  -27.7186   19.4880 C   0  0  0  0  0  0
  -23.6086  -29.8437   20.1627 C   0  0  0  0  0  0
  -25.4110  -36.3100   24.0336 C   0  0  1  0  0  0
  -20.5869  -28.3640   23.1284 C   0  0  2  0  0  0
  -20.6753  -26.9368   22.5393 C   0  0  0  0  0  0
  -19.5737  -26.6352   21.5184 C   0  0  0  0  0  0
  -18.1920  -26.7894   22.1619 C   0  0  0  0  0  0
  -19.1525  -28.8804   23.2909 C   0  0  0  0  0  0
  -18.9463  -30.1411   23.8916 C   0  0  0  0  0  0
  -17.6470  -30.6565   24.0547 C   0  0  0  0  0  0
  -25.9036  -34.9470   23.5115 C   0  0  0  0  0  0
  -16.5356  -29.9060   23.6317 C   0  0  0  0  0  0
  -16.7274  -28.6460   23.0371 C   0  0  0  0  0  0
  -26.4469  -31.6605   25.0727 C   0  0  0  0  0  0
  -25.3750  -31.3747   26.1496 C   0  0  0  0  0  0
  -27.0299  -30.3035   24.6131 C   0  0  0  0  0  0
  -27.6020  -32.4348   25.7514 C   0  0  0  0  0  0
  -27.5579  -37.1808   24.8462 C   0  0  0  0  0  0
  -21.4110  -29.3042   22.3689 N   0  0  0  0  0  0
  -26.4286  -37.3783   23.9404 N   0  0  0  0  0  0
  -24.6689  -31.0785   22.1021 N   0  0  0  0  0  0
  -23.4162  -28.8195   23.2951 O   0  0  0  0  0  0
  -28.3293  -26.5918   20.1674 O   0  0  0  0  0  0
  -26.5595  -34.8921   22.4673 O   0  0  0  0  0  0
  -23.5337  -32.1452   23.7513 O   0  0  0  0  0  0
  -30.1419  -18.3718   18.5893 C   0  0  0  0  0  0
  -29.7785  -19.4535   19.4119 C   0  0  0  0  0  0
  -30.2441  -17.0765   19.1246 C   0  0  0  0  0  0
  -29.6190  -17.9358   21.3153 C   0  0  0  0  0  0
  -29.5323  -19.2487   20.7868 C   0  0  0  0  0  0
  -29.9841  -16.8369   20.4963 C   0  0  0  0  0  0
  -28.6714  -22.8027   21.1228 C   0  0  0  0  0  0
  -30.9970  -21.9543   21.0713 C   0  0  0  0  0  0
  -29.1412  -20.4182   21.7024 C   0  0  0  0  0  0
  -29.1708  -24.2263   20.7406 C   0  0  0  0  0  0
  -28.0092  -25.1966   20.4042 C   0  0  0  0  0  0
  -29.9991  -15.5102   21.0353 N   0  0  0  0  0  0
  -29.5537  -21.7769   21.2659 N   0  0  0  0  0  0
  -27.4603  -22.6312   21.3047 O   0  0  0  0  0  0
  -31.4674  -12.3799   19.1423 H   0  0  0  0  0  0
  -30.3101  -11.2852   19.8456 H   0  0  0  0  0  0
  -29.7452  -11.7566   17.4487 H   0  0  0  0  0  0
  -29.6884  -13.4696   17.7681 H   0  0  0  0  0  0
  -27.7971  -11.3281   18.7853 H   0  0  0  0  0  0
  -27.3888  -12.6855   17.7800 H   0  0  0  0  0  0
  -27.7144  -14.2627   19.5859 H   0  0  0  0  0  0
  -28.6703  -11.9752   21.3657 H   0  0  0  0  0  0
  -28.4693  -13.6249   21.8698 H   0  0  0  0  0  0
  -25.2766   -9.5726   22.4730 H   0  0  0  0  0  0
  -24.0022   -7.4667   22.7453 H   0  0  0  0  0  0
  -21.0849   -8.8754   19.8972 H   0  0  0  0  0  0
  -22.3652  -10.9669   19.6141 H   0  0  0  0  0  0
  -21.1998   -7.6148   23.9689 H   0  0  0  0  0  0
  -21.1495   -6.0517   25.9055 H   0  0  0  0  0  0
  -22.0605   -2.7606   23.2823 H   0  0  0  0  0  0
  -22.4134  -11.9933   22.4823 H   0  0  0  0  0  0
  -21.1099  -13.1252   22.2556 H   0  0  0  0  0  0
  -24.6823  -15.8551   20.5162 H   0  0  0  0  0  0
  -26.2980  -15.6192   20.0912 H   0  0  0  0  0  0
  -26.7104  -32.5524   23.1147 H   0  0  0  0  0  0
  -25.0057  -33.9788   25.0464 H   0  0  0  0  0  0
  -22.6908  -31.3204   21.4187 H   0  0  0  0  0  0
  -23.3738  -35.9659   23.3307 H   0  0  0  0  0  0
  -24.3589  -36.8915   22.2047 H   0  0  0  0  0  0
  -23.7251  -37.6528   23.6651 H   0  0  0  0  0  0
  -26.0598  -31.6030   20.6118 H   0  0  0  0  0  0
  -26.8178  -30.8706   21.9964 H   0  0  0  0  0  0
  -28.0929  -29.0585   21.1855 H   0  0  0  0  0  0
  -25.9654  -26.0030   18.9688 H   0  0  0  0  0  0
  -23.9500  -27.3345   19.0209 H   0  0  0  0  0  0
  -23.7150  -30.6235   19.4080 H   0  0  0  0  0  0
  -22.7294  -29.2705   19.8670 H   0  0  0  0  0  0
  -25.1284  -36.1953   25.0824 H   0  0  0  0  0  0
  -21.0019  -28.3204   24.1387 H   0  0  0  0  0  0
  -20.5590  -26.2262   23.3587 H   0  0  0  0  0  0
  -21.6625  -26.7360   22.1225 H   0  0  0  0  0  0
  -19.6885  -25.6254   21.1217 H   0  0  0  0  0  0
  -19.6666  -27.3144   20.6695 H   0  0  0  0  0  0
  -17.4181  -26.6644   21.4028 H   0  0  0  0  0  0
  -18.0346  -26.0009   22.8991 H   0  0  0  0  0  0
  -19.7949  -30.7201   24.2290 H   0  0  0  0  0  0
  -17.5040  -31.6266   24.5116 H   0  0  0  0  0  0
  -15.5352  -30.2974   23.7623 H   0  0  0  0  0  0
  -15.8680  -28.0766   22.7106 H   0  0  0  0  0  0
  -24.5863  -30.7162   25.7844 H   0  0  0  0  0  0
  -24.9035  -32.2944   26.4980 H   0  0  0  0  0  0
  -25.8112  -30.8875   27.0229 H   0  0  0  0  0  0
  -26.2854  -29.6811   24.1160 H   0  0  0  0  0  0
  -27.4019  -29.7254   25.4600 H   0  0  0  0  0  0
  -27.8716  -30.4321   23.9320 H   0  0  0  0  0  0
  -27.2578  -33.3604   26.2148 H   0  0  0  0  0  0
  -28.3817  -32.6995   25.0360 H   0  0  0  0  0  0
  -28.0719  -31.8462   26.5405 H   0  0  0  0  0  0
  -28.2590  -38.0111   24.7500 H   0  0  0  0  0  0
  -28.1080  -36.2636   24.6293 H   0  0  0  0  0  0
  -27.2313  -37.1468   25.8872 H   0  0  0  0  0  0
  -20.9208  -29.8848   21.7023 H   0  0  0  0  0  0
  -26.0176  -38.2860   24.1405 H   0  0  0  0  0  0
  -30.3315  -18.5367   17.5387 H   0  0  0  0  0  0
  -29.6917  -20.4362   18.9712 H   0  0  0  0  0  0
  -30.5080  -16.2691   18.4567 H   0  0  0  0  0  0
  -29.4106  -17.7724   22.3637 H   0  0  0  0  0  0
  -31.3588  -22.8620   21.5526 H   0  0  0  0  0  0
  -31.2341  -22.0049   20.0066 H   0  0  0  0  0  0
  -31.5658  -21.1267   21.4966 H   0  0  0  0  0  0
  -29.5716  -20.2456   22.6903 H   0  0  0  0  0  0
  -28.0622  -20.3474   21.8501 H   0  0  0  0  0  0
  -29.8316  -24.1513   19.8776 H   0  0  0  0  0  0
  -29.7560  -24.6241   21.5700 H   0  0  0  0  0  0
  -27.2861  -25.1572   21.2233 H   0  0  0  0  0  0
  -27.5191  -24.7753   19.5266 H   0  0  0  0  0  0
  -29.2126  -15.2637   21.6166 H   0  0  0  0  0  0
  1 25  1  0  0  0
  1 30  2  0  0  0
  1 82  1  0  0  0
  2  3  1  0  0  0
  2 25  1  0  0  0
  2 85  1  0  0  0
  2 86  1  0  0  0
  3  4  1  0  0  0
  3 87  1  0  0  0
  3 88  1  0  0  0
  4  5  1  0  0  0
  4 89  1  0  0  0
  4 90  1  0  0  0
  5  6  1  0  0  0
  5 26  1  0  0  0
  5 91  1  0  0  0
  6 25  1  0  0  0
  6 92  1  0  0  0
  6 93  1  0  0  0
  7  8  2  0  0  0
  7 26  1  0  0  0
  7 29  1  0  0  0
  8  9  1  0  0  0
  8 22  1  0  0  0
  9 10  1  0  0  0
  9 27  2  0  0  0
 10 11  2  0  0  0
 10 15  1  0  0  0
 11 12  1  0  0  0
 11 94  1  0  0  0
 12 13  2  0  0  0
 12 95  1  0  0  0
 13 14  1  0  0  0
 13 31  1  0  0  0
 14 15  2  0  0  0
 14 96  1  0  0  0
 15 97  1  0  0  0
 16 17  2  0  0  0
 16 21  1  0  0  0
 16 31  1  0  0  0
 17 18  1  0  0  0
 17 98  1  0  0  0
 18 19  2  0  0  0
 18 99  1  0  0  0
 19 20  1  0  0  0
 19 24  1  0  0  0
 20 21  2  0  0  0
 20100  1  0  0  0
 21 23  1  0  0  0
 22 28  1  0  0  0
 22 32  2  0  0  0
 26 27  1  0  0  0
 28101  1  0  0  0
 28102  1  0  0  0
 29103  1  0  0  0
 29104  1  0  0  0
 33 34  1  0  0  0
 33 66  1  0  0  0
 33 70  2  0  0  0
 34 36  1  0  0  0
 34 59  1  0  0  0
 34105  1  0  0  0
 35 44  2  0  0  0
 35 45  1  0  0  0
 35 68  1  0  0  0
 36 56  1  0  0  0
 36106  1  0  0  0
 37 39  1  0  0  0
 37 47  1  0  0  0
 37 66  1  0  0  0
 37107  1  0  0  0
 38 43  2  0  0  0
 38 46  1  0  0  0
 38 47  1  0  0  0
 39 64  1  0  0  0
 39 67  2  0  0  0
 40 52  1  0  0  0
 40 53  2  0  0  0
 40 58  1  0  0  0
 41108  1  0  0  0
 41109  1  0  0  0
 41110  1  0  0  0
 41 48  1  0  0  0
 42 43  1  0  0  0
 42 66  1  0  0  0
 42111  1  0  0  0
 42112  1  0  0  0
 43 44  1  0  0  0
 44113  1  0  0  0
 45 46  2  0  0  0
 45114  1  0  0  0
 46115  1  0  0  0
 47116  1  0  0  0
 47117  1  0  0  0
 48 56  1  0  0  0
 48 65  1  0  0  0
 48118  1  0  0  0
 49 50  1  0  0  0
 49 53  1  0  0  0
 49 64  1  0  0  0
 49119  1  0  0  0
 50 51  1  0  0  0
 50120  1  0  0  0
 50121  1  0  0  0
 51 52  1  0  0  0
 51122  1  0  0  0
 51123  1  0  0  0
 52124  1  0  0  0
 52125  1  0  0  0
 53 54  1  0  0  0
 54 55  2  0  0  0
 54126  1  0  0  0
 55 57  1  0  0  0
 55127  1  0  0  0
 56 69  2  0  0  0
 57 58  2  0  0  0
 57128  1  0  0  0
 58129  1  0  0  0
 59 60  1  0  0  0
 59 61  1  0  0  0
 59 62  1  0  0  0
 60130  1  0  0  0
 60131  1  0  0  0
 60132  1  0  0  0
 61133  1  0  0  0
 61134  1  0  0  0
 61135  1  0  0  0
 62136  1  0  0  0
 62137  1  0  0  0
 62138  1  0  0  0
 63 65  1  0  0  0
 63139  1  0  0  0
 63140  1  0  0  0
 63141  1  0  0  0
 64142  1  0  0  0
 65143  1  0  0  0
 68 81  1  0  0  0
 71 72  2  0  0  0
 71 73  1  0  0  0
 71144  1  0  0  0
 72 75  1  0  0  0
 72145  1  0  0  0
 73 76  2  0  0  0
 73146  1  0  0  0
 74 75  2  0  0  0
 74 76  1  0  0  0
 74147  1  0  0  0
 75 79  1  0  0  0
 76 82  1  0  0  0
 77 80  1  0  0  0
 77 83  1  0  0  0
 77 84  2  0  0  0
 78 83  1  0  0  0
 78148  1  0  0  0
 78149  1  0  0  0
 78150  1  0  0  0
 79 83  1  0  0  0
 79151  1  0  0  0
 79152  1  0  0  0
 80 81  1  0  0  0
 80153  1  0  0  0
 80154  1  0  0  0
 81155  1  0  0  0
 81156  1  0  0  0
 82157  1  0  0  0
M  ISO  4   1 100  68 101  81 101  82 100
M  END
> <chiral flag>
0

> <version>
0

> <s_m_source_file>
/data/baiqing/PycharmProjects/Reinvent-master-3.2/result/LINK_invent/BTK/process_docking_weight1_custom_product_contain_oxygen_bond_distance_aromatic_linkinvent_7_9_3/rearranged_h_0055.sdf

> <i_m_source_file_index>
33

> <r_mmod_Potential_Energy-OPLS-2005>
-38.1307678222656

> <r_mmod_Stretch_Energy-OPLS-2005>
43.8576850891113

> <r_mmod_Bend_Energy-OPLS-2005>
95.3992691040039

> <r_mmod_Torsional_Energy-OPLS-2005>
245.196868896484

> <r_mmod_Improper_Torsional_Energy-OPLS-2005>
4.75518465042114

> <r_mmod_Van_der_Waal_Energy-OPLS-2005>
173.766723632812

> <r_mmod_Electrostatic_Energy-OPLS-2005>
-392.342407226562

> <r_mmod_Solvation_Energy-OPLS-2005>
-227.919067382812

> <b_mmod_Minimization_Converged-OPLS-2005>
0

> <r_mmod_RMS_Derivative-OPLS-2005>
3.65159678459167

$$$$
33
                    3D
 Structure written by MMmdl.
170179  0  0  1  0            999 V2000
  -30.7357  -14.4299   20.5863 C   0  0  0  0  0  0
  -30.4118  -12.2878   19.4093 C   0  0  0  0  0  0
  -29.4804  -12.4922   18.1978 C   0  0  0  0  0  0
  -28.0029  -12.3784   18.6139 C   0  0  0  0  0  0
  -27.6652  -13.2085   19.8815 C   0  0  2  0  0  0
  -28.7110  -12.9803   20.9966 C   0  0  0  0  0  0
  -25.2590  -13.8152   20.5689 C   0  0  0  0  0  0
  -24.1852  -13.0452   20.9152 C   0  0  0  0  0  0
  -24.6399  -11.6921   20.8739 C   0  0  0  0  0  0
  -23.9070  -10.4317   21.0436 C   0  0  0  0  0  0
  -24.3644   -9.4206   21.9188 C   0  0  0  0  0  0
  -23.6313   -8.2240   22.0769 C   0  0  0  0  0  0
  -22.4271   -8.0287   21.3575 C   0  0  0  0  0  0
  -21.9920   -9.0246   20.4660 C   0  0  0  0  0  0
  -22.7259  -10.2127   20.3069 C   0  0  0  0  0  0
  -21.6855   -6.0713   22.5275 C   0  0  0  0  0  0
  -21.4021   -6.5620   23.8201 C   0  0  0  0  0  0
  -21.3651   -5.6792   24.9179 C   0  0  0  0  0  0
  -21.6050   -4.3063   24.7231 C   0  0  0  0  0  0
  -21.8835   -3.8141   23.4356 C   0  0  0  0  0  0
  -21.9211   -4.6948   22.3405 C   0  0  0  0  0  0
  -22.7868  -13.5216   21.1838 C   0  0  0  0  0  0
  -22.1689   -4.2132   21.0989 F   0  0  0  0  0  0
  -21.5616   -3.4554   25.7752 F   0  0  0  0  0  0
  -30.0387  -13.2747   20.4352 N   0  0  0  0  0  0
  -26.3064  -12.9343   20.3449 N   0  0  0  0  0  0
  -25.9338  -11.6500   20.5828 N   0  0  0  0  0  0
  -22.0544  -12.8189   22.0373 N   0  0  0  0  0  0
  -25.4262  -15.1882   20.4102 N   0  0  0  0  0  0
  -31.8364  -14.6093   20.0542 O   0  0  0  0  0  0
  -21.6653   -6.8862   21.4251 O   0  0  0  0  0  0
  -22.3531  -14.5526   20.6692 O   0  0  0  0  0  0
  -24.6165  -31.8671   23.2099 C   0  0  0  0  0  0
  -25.9049  -32.4807   23.8409 C   0  0  1  0  0  0
  -27.2037  -27.4413   20.1142 C   0  0  0  0  0  0
  -25.5918  -33.8609   24.2345 N   0  0  0  0  0  0
  -23.4023  -30.4950   21.5454 C   0  0  2  0  0  0
  -24.8498  -28.9857   20.0879 C   0  0  0  0  0  0
  -22.7418  -29.4665   22.4922 C   0  0  0  0  0  0
  -18.0288  -28.1367   22.8489 C   0  0  0  0  0  0
  -24.1491  -36.7324   23.2639 C   0  0  0  0  0  0
  -25.9294  -30.8510   21.3525 C   0  0  0  0  0  0
  -26.0106  -29.4933   20.6875 C   0  0  0  0  0  0
  -27.2015  -28.7327   20.6876 C   0  0  0  0  0  0
  -26.0432  -26.9661   19.4687 C   0  0  0  0  0  0
  -24.8629  -27.7273   19.4642 C   0  0  0  0  0  0
  -23.6044  -29.8358   20.1542 C   0  0  0  0  0  0
  -25.4107  -36.3098   24.0339 C   0  0  1  0  0  0
  -20.5879  -28.3666   23.1299 C   0  0  2  0  0  0
  -20.6774  -26.9391   22.5420 C   0  0  0  0  0  0
  -19.5754  -26.6372   21.5219 C   0  0  0  0  0  0
  -18.1921  -26.7925   22.1603 C   0  0  0  0  0  0
  -19.1531  -28.8838   23.2895 C   0  0  0  0  0  0
  -18.9448  -30.1442   23.8904 C   0  0  0  0  0  0
  -17.6438  -30.6567   24.0570 C   0  0  0  0  0  0
  -25.9026  -34.9461   23.5133 C   0  0  0  0  0  0
  -16.5341  -29.9061   23.6316 C   0  0  0  0  0  0
  -16.7272  -28.6487   23.0337 C   0  0  0  0  0  0
  -26.4509  -31.6570   25.0719 C   0  0  0  0  0  0
  -25.3836  -31.3667   26.1517 C   0  0  0  0  0  0
  -27.0305  -30.3002   24.6066 C   0  0  0  0  0  0
  -27.6082  -32.4299   25.7482 C   0  0  0  0  0  0
  -27.5580  -37.1806   24.8456 C   0  0  0  0  0  0
  -21.4140  -29.3042   22.3690 N   0  0  0  0  0  0
  -26.4287  -37.3779   23.9413 N   0  0  0  0  0  0
  -24.6675  -31.0813   22.0958 N   0  0  0  0  0  0
  -23.4199  -28.8212   23.2949 O   0  0  0  0  0  0
  -28.2607  -26.5841   20.2987 O   0  0  0  0  0  0
  -26.5544  -34.8908   22.4661 O   0  0  0  0  0  0
  -23.5356  -32.1407   23.7491 O   0  0  0  0  0  0
  -29.9902  -17.8452   20.8604 C   0  0  0  0  0  0
  -30.5957  -19.1245   20.8766 C   0  0  0  0  0  0
  -31.8650  -19.2878   21.5084 C   0  0  0  0  0  0
  -32.4931  -18.1638   22.1197 C   0  0  0  0  0  0
  -30.6483  -16.7236   21.4077 C   0  0  0  0  0  0
  -31.8768  -16.8971   22.0766 C   0  0  0  0  0  0
  -28.6291  -21.6595   21.5966 C   0  0  0  0  0  0
  -28.0612  -23.0629   21.9340 C   0  0  0  0  0  0
  -29.1232  -23.8650   19.8071 C   0  0  0  0  0  0
  -30.1040  -22.6915   19.8878 C   0  0  0  0  0  0
  -28.7481  -24.2688   21.2285 C   0  0  1  0  0  0
  -33.8713  -18.2641   22.7646 C   0  0  0  0  0  0
  -32.3208  -21.4380   22.7836 C   0  0  0  0  0  0
  -32.5920  -20.6303   21.5057 C   0  0  0  0  0  0
  -29.9115  -20.2154   20.0324 C   0  0  0  0  0  0
  -27.8885  -25.5569   21.2551 C   0  0  0  0  0  0
  -29.5641  -21.5283   20.6211 N   0  0  0  0  0  0
  -30.1023  -15.4237   21.2364 N   0  0  0  0  0  0
  -28.1612  -20.6862   22.1951 O   0  0  0  0  0  0
  -32.4809  -15.8330   22.6666 F   0  0  0  0  0  0
  -31.4530  -12.3750   19.0920 H   0  0  0  0  0  0
  -30.3094  -11.2790   19.8110 H   0  0  0  0  0  0
  -29.6991  -11.7603   17.4184 H   0  0  0  0  0  0
  -29.6601  -13.4726   17.7538 H   0  0  0  0  0  0
  -27.7876  -11.3241   18.7918 H   0  0  0  0  0  0
  -27.3621  -12.6837   17.7862 H   0  0  0  0  0  0
  -27.7155  -14.2577   19.5948 H   0  0  0  0  0  0
  -28.6835  -11.9465   21.3379 H   0  0  0  0  0  0
  -28.4873  -13.5822   21.8775 H   0  0  0  0  0  0
  -25.2803   -9.5642   22.4739 H   0  0  0  0  0  0
  -24.0014   -7.4611   22.7477 H   0  0  0  0  0  0
  -21.0855   -8.8753   19.8946 H   0  0  0  0  0  0
  -22.3724  -10.9655   19.6160 H   0  0  0  0  0  0
  -21.2005   -7.6140   23.9681 H   0  0  0  0  0  0
  -21.1455   -6.0548   25.9069 H   0  0  0  0  0  0
  -22.0617   -2.7601   23.2886 H   0  0  0  0  0  0
  -22.4254  -11.9893   22.4750 H   0  0  0  0  0  0
  -21.1155  -13.1120   22.2633 H   0  0  0  0  0  0
  -24.6524  -15.8370   20.5079 H   0  0  0  0  0  0
  -26.2747  -15.6330   20.0872 H   0  0  0  0  0  0
  -26.7119  -32.5526   23.1180 H   0  0  0  0  0  0
  -25.0186  -33.9780   25.0571 H   0  0  0  0  0  0
  -22.6936  -31.3131   21.4080 H   0  0  0  0  0  0
  -23.3740  -35.9660   23.3275 H   0  0  0  0  0  0
  -24.3604  -36.8971   22.2057 H   0  0  0  0  0  0
  -23.7249  -37.6527   23.6676 H   0  0  0  0  0  0
  -26.0292  -31.6232   20.5891 H   0  0  0  0  0  0
  -26.8235  -30.9055   21.9624 H   0  0  0  0  0  0
  -28.0945  -29.1010   21.1743 H   0  0  0  0  0  0
  -26.0318  -25.9756   19.0340 H   0  0  0  0  0  0
  -23.9697  -27.3341   18.9982 H   0  0  0  0  0  0
  -23.6796  -30.6098   19.3886 H   0  0  0  0  0  0
  -22.7380  -29.2329   19.8743 H   0  0  0  0  0  0
  -25.1274  -36.1961   25.0828 H   0  0  0  0  0  0
  -20.9991  -28.3237   24.1413 H   0  0  0  0  0  0
  -20.5686  -26.2259   23.3609 H   0  0  0  0  0  0
  -21.6640  -26.7413   22.1213 H   0  0  0  0  0  0
  -19.6908  -25.6282   21.1247 H   0  0  0  0  0  0
  -19.6710  -27.3190   20.6760 H   0  0  0  0  0  0
  -17.4209  -26.6714   21.3984 H   0  0  0  0  0  0
  -18.0279  -26.0054   22.8978 H   0  0  0  0  0  0
  -19.7920  -30.7272   24.2267 H   0  0  0  0  0  0
  -17.4987  -31.6248   24.5160 H   0  0  0  0  0  0
  -15.5341  -30.2952   23.7644 H   0  0  0  0  0  0
  -15.8681  -28.0816   22.7014 H   0  0  0  0  0  0
  -24.5913  -30.7117   25.7886 H   0  0  0  0  0  0
  -24.9158  -32.2824   26.5138 H   0  0  0  0  0  0
  -25.8248  -30.8703   27.0169 H   0  0  0  0  0  0
  -26.2771  -29.6735   24.1273 H   0  0  0  0  0  0
  -27.4227  -29.7283   25.4489 H   0  0  0  0  0  0
  -27.8568  -30.4306   23.9072 H   0  0  0  0  0  0
  -27.2679  -33.3589   26.2089 H   0  0  0  0  0  0
  -28.3884  -32.6883   25.0305 H   0  0  0  0  0  0
  -28.0764  -31.8411   26.5389 H   0  0  0  0  0  0
  -28.2571  -38.0124   24.7490 H   0  0  0  0  0  0
  -28.1091  -36.2640   24.6273 H   0  0  0  0  0  0
  -27.2300  -37.1467   25.8860 H   0  0  0  0  0  0
  -20.9279  -29.8753   21.6918 H   0  0  0  0  0  0
  -26.0171  -38.2849   24.1426 H   0  0  0  0  0  0
  -29.0459  -17.7058   20.3522 H   0  0  0  0  0  0
  -28.0739  -23.1996   23.0161 H   0  0  0  0  0  0
  -27.0013  -23.0314   21.6666 H   0  0  0  0  0  0
  -28.2323  -23.6026   19.2298 H   0  0  0  0  0  0
  -29.5958  -24.6975   19.2856 H   0  0  0  0  0  0
  -31.0107  -23.0252   20.3927 H   0  0  0  0  0  0
  -30.3929  -22.4360   18.8686 H   0  0  0  0  0  0
  -29.6719  -24.4840   21.7661 H   0  0  0  0  0  0
  -34.6413  -18.3040   21.9928 H   0  0  0  0  0  0
  -34.0944  -17.4028   23.3928 H   0  0  0  0  0  0
  -33.9741  -19.1487   23.3903 H   0  0  0  0  0  0
  -32.9696  -22.3113   22.8295 H   0  0  0  0  0  0
  -32.5109  -20.8462   23.6793 H   0  0  0  0  0  0
  -31.2900  -21.7860   22.8394 H   0  0  0  0  0  0
  -32.3329  -21.2093   20.6230 H   0  0  0  0  0  0
  -33.6644  -20.4647   21.3953 H   0  0  0  0  0  0
  -28.9906  -19.8106   19.6095 H   0  0  0  0  0  0
  -30.5667  -20.3428   19.1719 H   0  0  0  0  0  0
  -27.9273  -26.0010   22.2525 H   0  0  0  0  0  0
  -26.8472  -25.2486   21.1298 H   0  0  0  0  0  0
  -29.1346  -15.2793   21.4807 H   0  0  0  0  0  0
  1 25  1  0  0  0
  1 30  2  0  0  0
  1 88  1  0  0  0
  2  3  1  0  0  0
  2 25  1  0  0  0
  2 91  1  0  0  0
  2 92  1  0  0  0
  3  4  1  0  0  0
  3 93  1  0  0  0
  3 94  1  0  0  0
  4  5  1  0  0  0
  4 95  1  0  0  0
  4 96  1  0  0  0
  5  6  1  0  0  0
  5 26  1  0  0  0
  5 97  1  0  0  0
  6 25  1  0  0  0
  6 98  1  0  0  0
  6 99  1  0  0  0
  7  8  2  0  0  0
  7 26  1  0  0  0
  7 29  1  0  0  0
  8  9  1  0  0  0
  8 22  1  0  0  0
  9 10  1  0  0  0
  9 27  2  0  0  0
 10 11  2  0  0  0
 10 15  1  0  0  0
 11 12  1  0  0  0
 11100  1  0  0  0
 12 13  2  0  0  0
 12101  1  0  0  0
 13 14  1  0  0  0
 13 31  1  0  0  0
 14 15  2  0  0  0
 14102  1  0  0  0
 15103  1  0  0  0
 16 17  2  0  0  0
 16 21  1  0  0  0
 16 31  1  0  0  0
 17 18  1  0  0  0
 17104  1  0  0  0
 18 19  2  0  0  0
 18105  1  0  0  0
 19 20  1  0  0  0
 19 24  1  0  0  0
 20 21  2  0  0  0
 20106  1  0  0  0
 21 23  1  0  0  0
 22 28  1  0  0  0
 22 32  2  0  0  0
 26 27  1  0  0  0
 28107  1  0  0  0
 28108  1  0  0  0
 29109  1  0  0  0
 29110  1  0  0  0
 33 34  1  0  0  0
 33 66  1  0  0  0
 33 70  2  0  0  0
 34 36  1  0  0  0
 34 59  1  0  0  0
 34111  1  0  0  0
 35 44  2  0  0  0
 35 45  1  0  0  0
 35 68  1  0  0  0
 36 56  1  0  0  0
 36112  1  0  0  0
 37 39  1  0  0  0
 37 47  1  0  0  0
 37 66  1  0  0  0
 37113  1  0  0  0
 38 43  2  0  0  0
 38 46  1  0  0  0
 38 47  1  0  0  0
 39 64  1  0  0  0
 39 67  2  0  0  0
 40 52  1  0  0  0
 40 53  2  0  0  0
 40 58  1  0  0  0
 41114  1  0  0  0
 41115  1  0  0  0
 41116  1  0  0  0
 41 48  1  0  0  0
 42 43  1  0  0  0
 42 66  1  0  0  0
 42117  1  0  0  0
 42118  1  0  0  0
 43 44  1  0  0  0
 44119  1  0  0  0
 45 46  2  0  0  0
 45120  1  0  0  0
 46121  1  0  0  0
 47122  1  0  0  0
 47123  1  0  0  0
 48 56  1  0  0  0
 48 65  1  0  0  0
 48124  1  0  0  0
 49 50  1  0  0  0
 49 53  1  0  0  0
 49 64  1  0  0  0
 49125  1  0  0  0
 50 51  1  0  0  0
 50126  1  0  0  0
 50127  1  0  0  0
 51 52  1  0  0  0
 51128  1  0  0  0
 51129  1  0  0  0
 52130  1  0  0  0
 52131  1  0  0  0
 53 54  1  0  0  0
 54 55  2  0  0  0
 54132  1  0  0  0
 55 57  1  0  0  0
 55133  1  0  0  0
 56 69  2  0  0  0
 57 58  2  0  0  0
 57134  1  0  0  0
 58135  1  0  0  0
 59 60  1  0  0  0
 59 61  1  0  0  0
 59 62  1  0  0  0
 60136  1  0  0  0
 60137  1  0  0  0
 60138  1  0  0  0
 61139  1  0  0  0
 61140  1  0  0  0
 61141  1  0  0  0
 62142  1  0  0  0
 62143  1  0  0  0
 62144  1  0  0  0
 63 65  1  0  0  0
 63145  1  0  0  0
 63146  1  0  0  0
 63147  1  0  0  0
 64148  1  0  0  0
 65149  1  0  0  0
 68 86  1  0  0  0
 71 72  2  0  0  0
 71 75  1  0  0  0
 71150  1  0  0  0
 72 73  1  0  0  0
 72 85  1  0  0  0
 73 74  2  0  0  0
 73 84  1  0  0  0
 74 76  1  0  0  0
 74 82  1  0  0  0
 75 76  2  0  0  0
 75 88  1  0  0  0
 76 90  1  0  0  0
 77 78  1  0  0  0
 77 87  1  0  0  0
 77 89  2  0  0  0
 78 81  1  0  0  0
 78151  1  0  0  0
 78152  1  0  0  0
 79 80  1  0  0  0
 79 81  1  0  0  0
 79153  1  0  0  0
 79154  1  0  0  0
 80 87  1  0  0  0
 80155  1  0  0  0
 80156  1  0  0  0
 81 86  1  0  0  0
 81157  1  0  0  0
 82158  1  0  0  0
 82159  1  0  0  0
 82160  1  0  0  0
 83 84  1  0  0  0
 83161  1  0  0  0
 83162  1  0  0  0
 83163  1  0  0  0
 84164  1  0  0  0
 84165  1  0  0  0
 85 87  1  0  0  0
 85166  1  0  0  0
 85167  1  0  0  0
 86168  1  0  0  0
 86169  1  0  0  0
 88170  1  0  0  0
M  ISO  4   1 100  68 101  86 101  88 100
M  END
> <chiral flag>
0

> <version>
0

> <s_m_source_file>
/data/baiqing/PycharmProjects/Reinvent-master-3.2/result/LINK_invent/BTK/process_docking_weight1_custom_product_contain_oxygen_bond_distance_aromatic_linkinvent_7_9_3/rearranged_h_0055.sdf

> <i_m_source_file_index>
34

> <r_mmod_Potential_Energy-OPLS-2005>
-4.59207725524902

> <r_mmod_Stretch_Energy-OPLS-2005>
43.8116188049316

> <r_mmod_Bend_Energy-OPLS-2005>
108.555763244629

> <r_mmod_Torsional_Energy-OPLS-2005>
285.9482421875

> <r_mmod_Improper_Torsional_Energy-OPLS-2005>
5.46128034591675

> <r_mmod_Van_der_Waal_Energy-OPLS-2005>
174.384399414062

> <r_mmod_Electrostatic_Energy-OPLS-2005>
-424.493682861328

> <r_mmod_Solvation_Energy-OPLS-2005>
-221.165100097656

> <b_mmod_Minimization_Converged-OPLS-2005>
0

> <r_mmod_RMS_Derivative-OPLS-2005>
5.21484231948853

$$$$
34
                    3D
 Structure written by MMmdl.
167175  0  0  1  0            999 V2000
  -30.6702  -14.4614   20.5876 C   0  0  0  0  0  0
  -30.4364  -12.3144   19.3973 C   0  0  0  0  0  0
  -29.4914  -12.5074   18.1884 C   0  0  0  0  0  0
  -28.0144  -12.3482   18.6111 C   0  0  0  0  0  0
  -27.6585  -13.1846   19.8672 C   0  0  2  0  0  0
  -28.7046  -12.9534   20.9826 C   0  0  0  0  0  0
  -25.2619  -13.8094   20.5641 C   0  0  0  0  0  0
  -24.1825  -13.0380   20.9143 C   0  0  0  0  0  0
  -24.6350  -11.6856   20.8698 C   0  0  0  0  0  0
  -23.9015  -10.4253   21.0389 C   0  0  0  0  0  0
  -24.3589   -9.4189   21.9180 C   0  0  0  0  0  0
  -23.6273   -8.2219   22.0758 C   0  0  0  0  0  0
  -22.4264   -8.0265   21.3537 C   0  0  0  0  0  0
  -21.9888   -9.0225   20.4630 C   0  0  0  0  0  0
  -22.7205  -10.2104   20.3037 C   0  0  0  0  0  0
  -21.6865   -6.0703   22.5260 C   0  0  0  0  0  0
  -21.4010   -6.5613   23.8187 C   0  0  0  0  0  0
  -21.3663   -5.6778   24.9160 C   0  0  0  0  0  0
  -21.6062   -4.3041   24.7223 C   0  0  0  0  0  0
  -21.8836   -3.8122   23.4348 C   0  0  0  0  0  0
  -21.9186   -4.6924   22.3394 C   0  0  0  0  0  0
  -22.7880  -13.5240   21.1831 C   0  0  0  0  0  0
  -22.1667   -4.2119   21.0973 F   0  0  0  0  0  0
  -21.5627   -3.4532   25.7733 F   0  0  0  0  0  0
  -30.0320  -13.2765   20.4245 N   0  0  0  0  0  0
  -26.2993  -12.9198   20.3305 N   0  0  0  0  0  0
  -25.9267  -11.6393   20.5732 N   0  0  0  0  0  0
  -22.0501  -12.8206   22.0378 N   0  0  0  0  0  0
  -25.4332  -15.1808   20.4067 N   0  0  0  0  0  0
  -31.8401  -14.6734   20.2543 O   0  0  0  0  0  0
  -21.6646   -6.8856   21.4233 O   0  0  0  0  0  0
  -22.3569  -14.5557   20.6705 O   0  0  0  0  0  0
  -24.6104  -31.8667   23.2123 C   0  0  0  0  0  0
  -25.9038  -32.4826   23.8355 C   0  0  1  0  0  0
  -27.2279  -27.4526   20.0470 C   0  0  0  0  0  0
  -25.5900  -33.8648   24.2261 N   0  0  0  0  0  0
  -23.3989  -30.4952   21.5523 C   0  0  2  0  0  0
  -24.8374  -28.9524   20.1247 C   0  0  0  0  0  0
  -22.7354  -29.4697   22.5005 C   0  0  0  0  0  0
  -18.0270  -28.1381   22.8487 C   0  0  0  0  0  0
  -24.1511  -36.7353   23.2609 C   0  0  0  0  0  0
  -25.9302  -30.8239   21.3740 C   0  0  0  0  0  0
  -25.9985  -29.4592   20.7201 C   0  0  0  0  0  0
  -27.1928  -28.7053   20.7004 C   0  0  0  0  0  0
  -26.0410  -26.9545   19.4648 C   0  0  0  0  0  0
  -24.8463  -27.6904   19.5106 C   0  0  0  0  0  0
  -23.6083  -29.8308   20.1685 C   0  0  0  0  0  0
  -25.4129  -36.3128   24.0264 C   0  0  1  0  0  0
  -20.5851  -28.3660   23.1317 C   0  0  2  0  0  0
  -20.6768  -26.9404   22.5419 C   0  0  0  0  0  0
  -19.5779  -26.6394   21.5201 C   0  0  0  0  0  0
  -18.1956  -26.7939   22.1605 C   0  0  0  0  0  0
  -19.1510  -28.8826   23.2903 C   0  0  0  0  0  0
  -18.9468  -30.1426   23.8909 C   0  0  0  0  0  0
  -17.6478  -30.6592   24.0566 C   0  0  0  0  0  0
  -25.9047  -34.9492   23.5054 C   0  0  0  0  0  0
  -16.5355  -29.9091   23.6334 C   0  0  0  0  0  0
  -16.7265  -28.6511   23.0342 C   0  0  0  0  0  0
  -26.4482  -31.6628   25.0708 C   0  0  0  0  0  0
  -25.3763  -31.3731   26.1469 C   0  0  0  0  0  0
  -27.0289  -30.3022   24.6186 C   0  0  0  0  0  0
  -27.6022  -32.4366   25.7505 C   0  0  0  0  0  0
  -27.5581  -37.1835   24.8436 C   0  0  0  0  0  0
  -21.4095  -29.3065   22.3733 N   0  0  0  0  0  0
  -26.4299  -37.3812   23.9362 N   0  0  0  0  0  0
  -24.6652  -31.0763   22.1040 N   0  0  0  0  0  0
  -23.4128  -28.8256   23.3052 O   0  0  0  0  0  0
  -28.4119  -26.7520   20.0012 O   0  0  0  0  0  0
  -26.5638  -34.8946   22.4645 O   0  0  0  0  0  0
  -23.5289  -32.1451   23.7493 O   0  0  0  0  0  0
  -29.9130  -17.4070   23.9637 C   0  0  0  0  0  0
  -29.5069  -18.6740   23.5103 C   0  0  0  0  0  0
  -30.1020  -16.3547   23.0540 C   0  0  0  0  0  0
  -29.2900  -18.9225   22.1318 C   0  0  0  0  0  0
  -29.5102  -17.8603   21.2038 C   0  0  0  0  0  0
  -29.8892  -16.5738   21.6733 C   0  0  0  0  0  0
  -28.3673  -21.3344   22.6904 C   0  0  0  0  0  0
  -29.9922  -23.6550   20.7823 C   0  0  0  0  0  0
  -29.3108  -18.0966   19.7052 C   0  0  0  0  0  0
  -31.4327  -22.1014   22.3067 C   0  0  0  0  0  0
  -28.7978  -20.2989   21.6262 C   0  0  0  0  0  0
  -28.3176  -24.4222   19.0925 C   0  0  0  0  0  0
  -28.6576  -25.9147   18.8649 C   0  0  0  0  0  0
  -30.2098  -23.0436   22.1823 C   0  0  2  0  0  0
  -29.8069  -15.4641   20.7994 N   0  0  0  0  0  0
  -28.7332  -23.9189   20.4046 N   0  0  0  0  0  0
  -28.9819  -22.5240   22.8029 N   0  0  0  0  0  0
  -27.4078  -21.0864   23.4194 O   0  0  0  0  0  0
  -30.9594  -23.8589   20.0482 O   0  0  0  0  0  0
  -31.4786  -12.4492   19.1025 H   0  0  0  0  0  0
  -30.3540  -11.2997   19.7933 H   0  0  0  0  0  0
  -29.7350  -11.7849   17.4092 H   0  0  0  0  0  0
  -29.6386  -13.4963   17.7491 H   0  0  0  0  0  0
  -27.8463  -11.2895   18.8150 H   0  0  0  0  0  0
  -27.3503  -12.6047   17.7840 H   0  0  0  0  0  0
  -27.7010  -14.2302   19.5671 H   0  0  0  0  0  0
  -28.6878  -11.9133   21.3156 H   0  0  0  0  0  0
  -28.4731  -13.5498   21.8654 H   0  0  0  0  0  0
  -25.2732   -9.5694   22.4761 H   0  0  0  0  0  0
  -23.9980   -7.4635   22.7491 H   0  0  0  0  0  0
  -21.0816   -8.8735   19.8950 H   0  0  0  0  0  0
  -22.3654  -10.9638   19.6144 H   0  0  0  0  0  0
  -21.2013   -7.6127   23.9694 H   0  0  0  0  0  0
  -21.1476   -6.0499   25.9062 H   0  0  0  0  0  0
  -22.0614   -2.7588   23.2851 H   0  0  0  0  0  0
  -22.4114  -11.9849   22.4738 H   0  0  0  0  0  0
  -21.1138  -13.1242   22.2594 H   0  0  0  0  0  0
  -24.6689  -15.8352   20.5412 H   0  0  0  0  0  0
  -26.2875  -15.6316   20.1040 H   0  0  0  0  0  0
  -26.7099  -32.5521   23.1086 H   0  0  0  0  0  0
  -25.0005  -33.9828   25.0377 H   0  0  0  0  0  0
  -22.6913  -31.3135   21.4143 H   0  0  0  0  0  0
  -23.3731  -35.9730   23.3311 H   0  0  0  0  0  0
  -24.3596  -36.8991   22.2019 H   0  0  0  0  0  0
  -23.7345  -37.6578   23.6674 H   0  0  0  0  0  0
  -26.0543  -31.5942   20.6101 H   0  0  0  0  0  0
  -26.8104  -30.8657   22.0024 H   0  0  0  0  0  0
  -28.0912  -29.0943   21.1587 H   0  0  0  0  0  0
  -26.0201  -26.0039   18.9583 H   0  0  0  0  0  0
  -23.9453  -27.2803   19.0750 H   0  0  0  0  0  0
  -23.7372  -30.6099   19.4156 H   0  0  0  0  0  0
  -22.7242  -29.2695   19.8585 H   0  0  0  0  0  0
  -25.1338  -36.1920   25.0729 H   0  0  0  0  0  0
  -20.9915  -28.3228   24.1445 H   0  0  0  0  0  0
  -20.5669  -26.2275   23.3576 H   0  0  0  0  0  0
  -21.6649  -26.7475   22.1225 H   0  0  0  0  0  0
  -19.6928  -25.6312   21.1207 H   0  0  0  0  0  0
  -19.6727  -27.3192   20.6719 H   0  0  0  0  0  0
  -17.4211  -26.6644   21.4018 H   0  0  0  0  0  0
  -18.0385  -26.0057   22.8986 H   0  0  0  0  0  0
  -19.7943  -30.7236   24.2281 H   0  0  0  0  0  0
  -17.5049  -31.6272   24.5181 H   0  0  0  0  0  0
  -15.5377  -30.3013   23.7679 H   0  0  0  0  0  0
  -15.8651  -28.0858   22.7058 H   0  0  0  0  0  0
  -24.5893  -30.7134   25.7813 H   0  0  0  0  0  0
  -24.9037  -32.2892   26.5006 H   0  0  0  0  0  0
  -25.8112  -30.8824   27.0168 H   0  0  0  0  0  0
  -26.2801  -29.6768   24.1308 H   0  0  0  0  0  0
  -27.4011  -29.7323   25.4717 H   0  0  0  0  0  0
  -27.8707  -30.4230   23.9364 H   0  0  0  0  0  0
  -27.2568  -33.3594   26.2168 H   0  0  0  0  0  0
  -28.3802  -32.7068   25.0370 H   0  0  0  0  0  0
  -28.0743  -31.8497   26.5387 H   0  0  0  0  0  0
  -28.2605  -38.0123   24.7480 H   0  0  0  0  0  0
  -28.1088  -36.2666   24.6295 H   0  0  0  0  0  0
  -27.2299  -37.1522   25.8837 H   0  0  0  0  0  0
  -20.9186  -29.8812   21.7025 H   0  0  0  0  0  0
  -26.0168  -38.2878   24.1368 H   0  0  0  0  0  0
  -30.0216  -17.2308   25.0247 H   0  0  0  0  0  0
  -29.3383  -19.4363   24.2572 H   0  0  0  0  0  0
  -30.3420  -15.3711   23.4353 H   0  0  0  0  0  0
  -28.2588  -18.2725   19.4796 H   0  0  0  0  0  0
  -29.8902  -18.9584   19.3730 H   0  0  0  0  0  0
  -29.6379  -17.2619   19.0841 H   0  0  0  0  0  0
  -31.4441  -21.5670   23.2585 H   0  0  0  0  0  0
  -32.3623  -22.6741   22.2573 H   0  0  0  0  0  0
  -31.4918  -21.3620   21.5071 H   0  0  0  0  0  0
  -27.9216  -20.1554   20.9888 H   0  0  0  0  0  0
  -29.5517  -20.7113   20.9655 H   0  0  0  0  0  0
  -28.7915  -23.8316   18.3084 H   0  0  0  0  0  0
  -27.2560  -24.2217   18.9578 H   0  0  0  0  0  0
  -28.1652  -26.2884   17.9617 H   0  0  0  0  0  0
  -29.7228  -25.9973   18.6526 H   0  0  0  0  0  0
  -30.4422  -23.9087   22.8119 H   0  0  0  0  0  0
  -28.8609  -15.2228   20.5556 H   0  0  0  0  0  0
  -28.0137  -23.7121   21.0844 H   0  0  0  0  0  0
  -28.5449  -23.1677   23.4503 H   0  0  0  0  0  0
  1 25  1  0  0  0
  1 30  2  0  0  0
  1 85  1  0  0  0
  2  3  1  0  0  0
  2 25  1  0  0  0
  2 90  1  0  0  0
  2 91  1  0  0  0
  3  4  1  0  0  0
  3 92  1  0  0  0
  3 93  1  0  0  0
  4  5  1  0  0  0
  4 94  1  0  0  0
  4 95  1  0  0  0
  5  6  1  0  0  0
  5 26  1  0  0  0
  5 96  1  0  0  0
  6 25  1  0  0  0
  6 97  1  0  0  0
  6 98  1  0  0  0
  7  8  2  0  0  0
  7 26  1  0  0  0
  7 29  1  0  0  0
  8  9  1  0  0  0
  8 22  1  0  0  0
  9 10  1  0  0  0
  9 27  2  0  0  0
 10 11  2  0  0  0
 10 15  1  0  0  0
 11 12  1  0  0  0
 11 99  1  0  0  0
 12 13  2  0  0  0
 12100  1  0  0  0
 13 14  1  0  0  0
 13 31  1  0  0  0
 14 15  2  0  0  0
 14101  1  0  0  0
 15102  1  0  0  0
 16 17  2  0  0  0
 16 21  1  0  0  0
 16 31  1  0  0  0
 17 18  1  0  0  0
 17103  1  0  0  0
 18 19  2  0  0  0
 18104  1  0  0  0
 19 20  1  0  0  0
 19 24  1  0  0  0
 20 21  2  0  0  0
 20105  1  0  0  0
 21 23  1  0  0  0
 22 28  1  0  0  0
 22 32  2  0  0  0
 26 27  1  0  0  0
 28106  1  0  0  0
 28107  1  0  0  0
 29108  1  0  0  0
 29109  1  0  0  0
 33 34  1  0  0  0
 33 66  1  0  0  0
 33 70  2  0  0  0
 34 36  1  0  0  0
 34 59  1  0  0  0
 34110  1  0  0  0
 35 44  2  0  0  0
 35 45  1  0  0  0
 35 68  1  0  0  0
 36 56  1  0  0  0
 36111  1  0  0  0
 37 39  1  0  0  0
 37 47  1  0  0  0
 37 66  1  0  0  0
 37112  1  0  0  0
 38 43  2  0  0  0
 38 46  1  0  0  0
 38 47  1  0  0  0
 39 64  1  0  0  0
 39 67  2  0  0  0
 40 52  1  0  0  0
 40 53  2  0  0  0
 40 58  1  0  0  0
 41113  1  0  0  0
 41114  1  0  0  0
 41115  1  0  0  0
 41 48  1  0  0  0
 42 43  1  0  0  0
 42 66  1  0  0  0
 42116  1  0  0  0
 42117  1  0  0  0
 43 44  1  0  0  0
 44118  1  0  0  0
 45 46  2  0  0  0
 45119  1  0  0  0
 46120  1  0  0  0
 47121  1  0  0  0
 47122  1  0  0  0
 48 56  1  0  0  0
 48 65  1  0  0  0
 48123  1  0  0  0
 49 50  1  0  0  0
 49 53  1  0  0  0
 49 64  1  0  0  0
 49124  1  0  0  0
 50 51  1  0  0  0
 50125  1  0  0  0
 50126  1  0  0  0
 51 52  1  0  0  0
 51127  1  0  0  0
 51128  1  0  0  0
 52129  1  0  0  0
 52130  1  0  0  0
 53 54  1  0  0  0
 54 55  2  0  0  0
 54131  1  0  0  0
 55 57  1  0  0  0
 55132  1  0  0  0
 56 69  2  0  0  0
 57 58  2  0  0  0
 57133  1  0  0  0
 58134  1  0  0  0
 59 60  1  0  0  0
 59 61  1  0  0  0
 59 62  1  0  0  0
 60135  1  0  0  0
 60136  1  0  0  0
 60137  1  0  0  0
 61138  1  0  0  0
 61139  1  0  0  0
 61140  1  0  0  0
 62141  1  0  0  0
 62142  1  0  0  0
 62143  1  0  0  0
 63 65  1  0  0  0
 63144  1  0  0  0
 63145  1  0  0  0
 63146  1  0  0  0
 64147  1  0  0  0
 65148  1  0  0  0
 68 83  1  0  0  0
 71 72  2  0  0  0
 71 73  1  0  0  0
 71149  1  0  0  0
 72 74  1  0  0  0
 72150  1  0  0  0
 73 76  2  0  0  0
 73151  1  0  0  0
 74 75  2  0  0  0
 74 81  1  0  0  0
 75 76  1  0  0  0
 75 79  1  0  0  0
 76 85  1  0  0  0
 77 81  1  0  0  0
 77 87  1  0  0  0
 77 88  2  0  0  0
 78 84  1  0  0  0
 78 86  1  0  0  0
 78 89  2  0  0  0
 79152  1  0  0  0
 79153  1  0  0  0
 79154  1  0  0  0
 80155  1  0  0  0
 80156  1  0  0  0
 80157  1  0  0  0
 80 84  1  0  0  0
 81158  1  0  0  0
 81159  1  0  0  0
 82 83  1  0  0  0
 82 86  1  0  0  0
 82160  1  0  0  0
 82161  1  0  0  0
 83162  1  0  0  0
 83163  1  0  0  0
 84 87  1  0  0  0
 84164  1  0  0  0
 85165  1  0  0  0
 86166  1  0  0  0
 87167  1  0  0  0
M  ISO  4   1 100  68 101  83 101  85 100
M  END
> <chiral flag>
0

> <version>
0

> <s_m_source_file>
/data/baiqing/PycharmProjects/Reinvent-master-3.2/result/LINK_invent/BTK/process_docking_weight1_custom_product_contain_oxygen_bond_distance_aromatic_linkinvent_7_9_3/rearranged_h_0055.sdf

> <i_m_source_file_index>
35

> <r_mmod_Potential_Energy-OPLS-2005>
-168.481903076172

> <r_mmod_Stretch_Energy-OPLS-2005>
38.5198554992676

> <r_mmod_Bend_Energy-OPLS-2005>
125.974060058594

> <r_mmod_Torsional_Energy-OPLS-2005>
271.175384521484

> <r_mmod_Improper_Torsional_Energy-OPLS-2005>
12.178111076355

> <r_mmod_Van_der_Waal_Energy-OPLS-2005>
162.944961547852

> <r_mmod_Electrostatic_Energy-OPLS-2005>
-538.080749511719

> <r_mmod_Solvation_Energy-OPLS-2005>
-257.598236083984

> <b_mmod_Minimization_Converged-OPLS-2005>
0

> <r_mmod_RMS_Derivative-OPLS-2005>
6.71008062362671

$$$$
35
                    3D
 Structure written by MMmdl.
156164  0  0  1  0            999 V2000
  -30.6162  -14.5939   20.5333 C   0  0  0  0  0  0
  -30.4424  -12.3685   19.4290 C   0  0  0  0  0  0
  -29.5036  -12.5127   18.2100 C   0  0  0  0  0  0
  -28.0247  -12.3593   18.6224 C   0  0  0  0  0  0
  -27.6593  -13.2072   19.8705 C   0  0  2  0  0  0
  -28.7071  -13.0016   20.9885 C   0  0  0  0  0  0
  -25.2576  -13.8157   20.5653 C   0  0  0  0  0  0
  -24.1838  -13.0440   20.9194 C   0  0  0  0  0  0
  -24.6406  -11.6902   20.8757 C   0  0  0  0  0  0
  -23.9075  -10.4293   21.0424 C   0  0  0  0  0  0
  -24.3623   -9.4201   21.9197 C   0  0  0  0  0  0
  -23.6301   -8.2235   22.0755 C   0  0  0  0  0  0
  -22.4275   -8.0285   21.3556 C   0  0  0  0  0  0
  -21.9918   -9.0257   20.4652 C   0  0  0  0  0  0
  -22.7251  -10.2141   20.3064 C   0  0  0  0  0  0
  -21.6847   -6.0736   22.5286 C   0  0  0  0  0  0
  -21.4011   -6.5637   23.8220 C   0  0  0  0  0  0
  -21.3654   -5.6789   24.9186 C   0  0  0  0  0  0
  -21.6038   -4.3056   24.7241 C   0  0  0  0  0  0
  -21.8820   -3.8145   23.4363 C   0  0  0  0  0  0
  -21.9188   -4.6955   22.3413 C   0  0  0  0  0  0
  -22.7859  -13.5238   21.1854 C   0  0  0  0  0  0
  -22.1651   -4.2138   21.0994 F   0  0  0  0  0  0
  -21.5628   -3.4535   25.7756 F   0  0  0  0  0  0
  -30.0259  -13.3612   20.4377 N   0  0  0  0  0  0
  -26.3012  -12.9316   20.3344 N   0  0  0  0  0  0
  -25.9329  -11.6486   20.5773 N   0  0  0  0  0  0
  -22.0497  -12.8211   22.0398 N   0  0  0  0  0  0
  -25.4302  -15.1871   20.3985 N   0  0  0  0  0  0
  -31.7464  -14.8130   20.0848 O   0  0  0  0  0  0
  -21.6642   -6.8881   21.4251 O   0  0  0  0  0  0
  -22.3539  -14.5545   20.6710 O   0  0  0  0  0  0
  -24.6200  -31.8612   23.1997 C   0  0  0  0  0  0
  -25.9051  -32.4791   23.8347 C   0  0  1  0  0  0
  -27.2508  -27.3489   20.1402 C   0  0  0  0  0  0
  -25.5889  -33.8592   24.2295 N   0  0  0  0  0  0
  -23.4159  -30.4797   21.5407 C   0  0  2  0  0  0
  -24.8664  -28.9177   20.1290 C   0  0  0  0  0  0
  -22.7427  -29.4635   22.4932 C   0  0  0  0  0  0
  -18.0296  -28.1388   22.8523 C   0  0  0  0  0  0
  -24.1484  -36.7279   23.2640 C   0  0  0  0  0  0
  -25.9496  -30.8029   21.3599 C   0  0  0  0  0  0
  -26.0279  -29.4221   20.7237 C   0  0  0  0  0  0
  -27.2242  -28.6515   20.7155 C   0  0  0  0  0  0
  -26.0640  -26.8676   19.5482 C   0  0  0  0  0  0
  -24.8804  -27.6394   19.5391 C   0  0  0  0  0  0
  -23.6322  -29.7991   20.1611 C   0  0  0  0  0  0
  -25.4108  -36.3083   24.0344 C   0  0  1  0  0  0
  -20.5894  -28.3673   23.1315 C   0  0  2  0  0  0
  -20.6784  -26.9401   22.5428 C   0  0  0  0  0  0
  -19.5763  -26.6398   21.5232 C   0  0  0  0  0  0
  -18.1943  -26.7942   22.1638 C   0  0  0  0  0  0
  -19.1546  -28.8847   23.2919 C   0  0  0  0  0  0
  -18.9472  -30.1462   23.8919 C   0  0  0  0  0  0
  -17.6471  -30.6593   24.0587 C   0  0  0  0  0  0
  -25.9050  -34.9460   23.5124 C   0  0  0  0  0  0
  -16.5370  -29.9102   23.6333 C   0  0  0  0  0  0
  -16.7288  -28.6515   23.0352 C   0  0  0  0  0  0
  -26.4467  -31.6578   25.0681 C   0  0  0  0  0  0
  -25.3715  -31.3707   26.1412 C   0  0  0  0  0  0
  -27.0282  -30.3023   24.6044 C   0  0  0  0  0  0
  -27.6035  -32.4284   25.7451 C   0  0  0  0  0  0
  -27.5586  -37.1794   24.8473 C   0  0  0  0  0  0
  -21.4149  -29.3034   22.3682 N   0  0  0  0  0  0
  -26.4291  -37.3771   23.9424 N   0  0  0  0  0  0
  -24.6806  -31.0658   22.0917 N   0  0  0  0  0  0
  -23.4153  -28.8181   23.3020 O   0  0  0  0  0  0
  -28.4395  -26.6269   20.0420 O   0  0  0  0  0  0
  -26.5604  -34.8918   22.4683 O   0  0  0  0  0  0
  -23.5371  -32.1397   23.7355 O   0  0  0  0  0  0
  -30.5882  -17.8470   20.1813 C   0  0  0  0  0  0
  -30.4782  -19.2741   20.2052 C   0  0  0  0  0  0
  -28.7990  -19.1122   21.9295 C   0  0  0  0  0  0
  -28.8946  -17.6919   21.9064 C   0  0  0  0  0  0
  -29.8052  -17.0224   21.0396 C   0  0  0  0  0  0
  -29.5814  -19.9338   21.0868 C   0  0  0  0  0  0
  -28.0121  -16.8968   22.8582 C   0  0  0  0  0  0
  -28.0812  -24.0121   19.9065 C   0  0  0  0  0  0
  -28.6282  -25.2967   20.6355 C   0  0  0  0  0  0
  -28.9616  -22.6904   19.7678 C   0  0  0  0  0  0
  -29.8177  -15.5638   21.0657 N   0  0  0  0  0  0
  -28.5328  -22.0866   22.3593 O   0  0  0  0  0  0
  -30.9107  -22.2268   21.5604 O   0  0  0  0  0  0
  -29.5263  -21.7870   21.3130 S   0  0  0  0  0  0
  -31.4814  -12.5032   19.1242 H   0  0  0  0  0  0
  -30.3813  -11.3598   19.8421 H   0  0  0  0  0  0
  -29.7582  -11.7735   17.4500 H   0  0  0  0  0  0
  -29.6538  -13.4889   17.7466 H   0  0  0  0  0  0
  -27.8485  -11.3037   18.8310 H   0  0  0  0  0  0
  -27.3729  -12.6188   17.7871 H   0  0  0  0  0  0
  -27.6947  -14.2521   19.5626 H   0  0  0  0  0  0
  -28.7122  -11.9585   21.3106 H   0  0  0  0  0  0
  -28.4561  -13.5793   21.8778 H   0  0  0  0  0  0
  -25.2777   -9.5657   22.4764 H   0  0  0  0  0  0
  -23.9996   -7.4616   22.7460 H   0  0  0  0  0  0
  -21.0852   -8.8797   19.8956 H   0  0  0  0  0  0
  -22.3733  -10.9683   19.6159 H   0  0  0  0  0  0
  -21.2005   -7.6141   23.9722 H   0  0  0  0  0  0
  -21.1470   -6.0527   25.9091 H   0  0  0  0  0  0
  -22.0605   -2.7602   23.2882 H   0  0  0  0  0  0
  -22.4138  -11.9865   22.4755 H   0  0  0  0  0  0
  -21.1112  -13.1203   22.2638 H   0  0  0  0  0  0
  -24.6595  -15.8413   20.4796 H   0  0  0  0  0  0
  -26.2667  -15.6098   20.0153 H   0  0  0  0  0  0
  -26.7108  -32.5487   23.1095 H   0  0  0  0  0  0
  -25.0052  -33.9755   25.0454 H   0  0  0  0  0  0
  -22.7139  -31.3019   21.3921 H   0  0  0  0  0  0
  -23.3749  -35.9608   23.3307 H   0  0  0  0  0  0
  -24.3601  -36.8872   22.2052 H   0  0  0  0  0  0
  -23.7226  -37.6490   23.6640 H   0  0  0  0  0  0
  -26.0657  -31.5549   20.5783 H   0  0  0  0  0  0
  -26.8362  -30.8690   21.9783 H   0  0  0  0  0  0
  -28.1262  -29.0522   21.1568 H   0  0  0  0  0  0
  -26.0544  -25.8981   19.0728 H   0  0  0  0  0  0
  -23.9864  -27.2430   19.0779 H   0  0  0  0  0  0
  -23.7498  -30.5689   19.3960 H   0  0  0  0  0  0
  -22.7549  -29.2223   19.8643 H   0  0  0  0  0  0
  -25.1288  -36.1940   25.0838 H   0  0  0  0  0  0
  -21.0043  -28.3233   24.1412 H   0  0  0  0  0  0
  -20.5696  -26.2274   23.3611 H   0  0  0  0  0  0
  -21.6647  -26.7436   22.1215 H   0  0  0  0  0  0
  -19.6902  -25.6309   21.1240 H   0  0  0  0  0  0
  -19.6695  -27.3225   20.6771 H   0  0  0  0  0  0
  -17.4218  -26.6719   21.4022 H   0  0  0  0  0  0
  -18.0319  -26.0097   22.9045 H   0  0  0  0  0  0
  -19.7947  -30.7306   24.2253 H   0  0  0  0  0  0
  -17.5023  -31.6275   24.5186 H   0  0  0  0  0  0
  -15.5361  -30.3011   23.7642 H   0  0  0  0  0  0
  -15.8699  -28.0857   22.7018 H   0  0  0  0  0  0
  -24.5908  -30.7032   25.7765 H   0  0  0  0  0  0
  -24.8882  -32.2866   26.4817 H   0  0  0  0  0  0
  -25.8057  -30.8925   27.0198 H   0  0  0  0  0  0
  -26.2823  -29.6799   24.1079 H   0  0  0  0  0  0
  -27.4063  -29.7238   25.4485 H   0  0  0  0  0  0
  -27.8658  -30.4373   23.9189 H   0  0  0  0  0  0
  -27.2663  -33.3592   26.2020 H   0  0  0  0  0  0
  -28.3841  -32.6803   25.0264 H   0  0  0  0  0  0
  -28.0674  -31.8385   26.5362 H   0  0  0  0  0  0
  -28.2589  -38.0106   24.7545 H   0  0  0  0  0  0
  -28.1089  -36.2641   24.6259 H   0  0  0  0  0  0
  -27.2324  -37.1401   25.8882 H   0  0  0  0  0  0
  -20.9284  -29.8751   21.6922 H   0  0  0  0  0  0
  -26.0167  -38.2845   24.1448 H   0  0  0  0  0  0
  -31.2874  -17.3950   19.4913 H   0  0  0  0  0  0
  -31.1040  -19.8726   19.5611 H   0  0  0  0  0  0
  -28.1351  -19.5900   22.6352 H   0  0  0  0  0  0
  -27.2340  -17.5191   23.3014 H   0  0  0  0  0  0
  -28.6097  -16.4810   23.6704 H   0  0  0  0  0  0
  -27.5142  -16.0769   22.3403 H   0  0  0  0  0  0
  -27.8337  -24.3104   18.8881 H   0  0  0  0  0  0
  -27.1217  -23.7484   20.3532 H   0  0  0  0  0  0
  -29.7121  -25.1850   20.6812 H   0  0  0  0  0  0
  -28.3093  -25.3107   21.6778 H   0  0  0  0  0  0
  -29.8586  -22.8882   19.1835 H   0  0  0  0  0  0
  -28.3958  -21.9600   19.1922 H   0  0  0  0  0  0
  -28.9961  -15.1626   21.4907 H   0  0  0  0  0  0
  1 25  1  0  0  0
  1 30  2  0  0  0
  1 81  1  0  0  0
  2  3  1  0  0  0
  2 25  1  0  0  0
  2 85  1  0  0  0
  2 86  1  0  0  0
  3  4  1  0  0  0
  3 87  1  0  0  0
  3 88  1  0  0  0
  4  5  1  0  0  0
  4 89  1  0  0  0
  4 90  1  0  0  0
  5  6  1  0  0  0
  5 26  1  0  0  0
  5 91  1  0  0  0
  6 25  1  0  0  0
  6 92  1  0  0  0
  6 93  1  0  0  0
  7  8  2  0  0  0
  7 26  1  0  0  0
  7 29  1  0  0  0
  8  9  1  0  0  0
  8 22  1  0  0  0
  9 10  1  0  0  0
  9 27  2  0  0  0
 10 11  2  0  0  0
 10 15  1  0  0  0
 11 12  1  0  0  0
 11 94  1  0  0  0
 12 13  2  0  0  0
 12 95  1  0  0  0
 13 14  1  0  0  0
 13 31  1  0  0  0
 14 15  2  0  0  0
 14 96  1  0  0  0
 15 97  1  0  0  0
 16 17  2  0  0  0
 16 21  1  0  0  0
 16 31  1  0  0  0
 17 18  1  0  0  0
 17 98  1  0  0  0
 18 19  2  0  0  0
 18 99  1  0  0  0
 19 20  1  0  0  0
 19 24  1  0  0  0
 20 21  2  0  0  0
 20100  1  0  0  0
 21 23  1  0  0  0
 22 28  1  0  0  0
 22 32  2  0  0  0
 26 27  1  0  0  0
 28101  1  0  0  0
 28102  1  0  0  0
 29103  1  0  0  0
 29104  1  0  0  0
 33 34  1  0  0  0
 33 66  1  0  0  0
 33 70  2  0  0  0
 34 36  1  0  0  0
 34 59  1  0  0  0
 34105  1  0  0  0
 35 44  2  0  0  0
 35 45  1  0  0  0
 35 68  1  0  0  0
 36 56  1  0  0  0
 36106  1  0  0  0
 37 39  1  0  0  0
 37 47  1  0  0  0
 37 66  1  0  0  0
 37107  1  0  0  0
 38 43  2  0  0  0
 38 46  1  0  0  0
 38 47  1  0  0  0
 39 64  1  0  0  0
 39 67  2  0  0  0
 40 52  1  0  0  0
 40 53  2  0  0  0
 40 58  1  0  0  0
 41108  1  0  0  0
 41109  1  0  0  0
 41110  1  0  0  0
 41 48  1  0  0  0
 42 43  1  0  0  0
 42 66  1  0  0  0
 42111  1  0  0  0
 42112  1  0  0  0
 43 44  1  0  0  0
 44113  1  0  0  0
 45 46  2  0  0  0
 45114  1  0  0  0
 46115  1  0  0  0
 47116  1  0  0  0
 47117  1  0  0  0
 48 56  1  0  0  0
 48 65  1  0  0  0
 48118  1  0  0  0
 49 50  1  0  0  0
 49 53  1  0  0  0
 49 64  1  0  0  0
 49119  1  0  0  0
 50 51  1  0  0  0
 50120  1  0  0  0
 50121  1  0  0  0
 51 52  1  0  0  0
 51122  1  0  0  0
 51123  1  0  0  0
 52124  1  0  0  0
 52125  1  0  0  0
 53 54  1  0  0  0
 54 55  2  0  0  0
 54126  1  0  0  0
 55 57  1  0  0  0
 55127  1  0  0  0
 56 69  2  0  0  0
 57 58  2  0  0  0
 57128  1  0  0  0
 58129  1  0  0  0
 59 60  1  0  0  0
 59 61  1  0  0  0
 59 62  1  0  0  0
 60130  1  0  0  0
 60131  1  0  0  0
 60132  1  0  0  0
 61133  1  0  0  0
 61134  1  0  0  0
 61135  1  0  0  0
 62136  1  0  0  0
 62137  1  0  0  0
 62138  1  0  0  0
 63 65  1  0  0  0
 63139  1  0  0  0
 63140  1  0  0  0
 63141  1  0  0  0
 64142  1  0  0  0
 65143  1  0  0  0
 68 79  1  0  0  0
 71 72  2  0  0  0
 71 75  1  0  0  0
 71144  1  0  0  0
 72 76  1  0  0  0
 72145  1  0  0  0
 73 74  1  0  0  0
 73 76  2  0  0  0
 73146  1  0  0  0
 74 75  2  0  0  0
 74 77  1  0  0  0
 75 81  1  0  0  0
 76 84  1  0  0  0
 77147  1  0  0  0
 77148  1  0  0  0
 77149  1  0  0  0
 78 79  1  0  0  0
 78 80  1  0  0  0
 78150  1  0  0  0
 78151  1  0  0  0
 79152  1  0  0  0
 79153  1  0  0  0
 80154  1  0  0  0
 80155  1  0  0  0
 80 84  1  0  0  0
 81156  1  0  0  0
 82 84  2  0  0  0
 83 84  2  0  0  0
M  ISO  4   1 100  68 101  79 101  81 100
M  END
> <chiral flag>
0

> <version>
0

> <s_m_source_file>
/data/baiqing/PycharmProjects/Reinvent-master-3.2/result/LINK_invent/BTK/process_docking_weight1_custom_product_contain_oxygen_bond_distance_aromatic_linkinvent_7_9_3/rearranged_h_0055.sdf

> <i_m_source_file_index>
36

> <r_mmod_Potential_Energy-OPLS-2005>
-103.658416748047

> <r_mmod_Stretch_Energy-OPLS-2005>
68.8954162597656

> <r_mmod_Bend_Energy-OPLS-2005>
161.198165893555

> <r_mmod_Torsional_Energy-OPLS-2005>
234.809921264648

> <r_mmod_Improper_Torsional_Energy-OPLS-2005>
4.22174739837646

> <r_mmod_Van_der_Waal_Energy-OPLS-2005>
128.099426269531

> <r_mmod_Electrostatic_Energy-OPLS-2005>
-476.217468261719

> <r_mmod_Solvation_Energy-OPLS-2005>
-255.491195678711

> <b_mmod_Minimization_Converged-OPLS-2005>
0

> <r_mmod_RMS_Derivative-OPLS-2005>
3.32823824882507

$$$$
36
                    3D
 Structure written by MMmdl.
163171  0  0  1  0            999 V2000
  -30.7080  -14.4290   20.5947 C   0  0  0  0  0  0
  -30.4219  -12.2598   19.4427 C   0  0  0  0  0  0
  -29.4969  -12.4505   18.2192 C   0  0  0  0  0  0
  -28.0278  -12.2795   18.6475 C   0  0  0  0  0  0
  -27.6616  -13.1693   19.8621 C   0  0  2  0  0  0
  -28.6899  -12.9720   20.9993 C   0  0  0  0  0  0
  -25.2633  -13.8055   20.5671 C   0  0  0  0  0  0
  -24.1843  -13.0428   20.9146 C   0  0  0  0  0  0
  -24.6329  -11.6863   20.8701 C   0  0  0  0  0  0
  -23.9015  -10.4282   21.0384 C   0  0  0  0  0  0
  -24.3573   -9.4209   21.9179 C   0  0  0  0  0  0
  -23.6267   -8.2235   22.0763 C   0  0  0  0  0  0
  -22.4262   -8.0243   21.3535 C   0  0  0  0  0  0
  -21.9879   -9.0215   20.4651 C   0  0  0  0  0  0
  -22.7191  -10.2101   20.3051 C   0  0  0  0  0  0
  -21.6826   -6.0722   22.5279 C   0  0  0  0  0  0
  -21.4009   -6.5628   23.8221 C   0  0  0  0  0  0
  -21.3680   -5.6776   24.9182 C   0  0  0  0  0  0
  -21.6037   -4.3037   24.7214 C   0  0  0  0  0  0
  -21.8819   -3.8135   23.4334 C   0  0  0  0  0  0
  -21.9195   -4.6956   22.3396 C   0  0  0  0  0  0
  -22.7863  -13.5239   21.1831 C   0  0  0  0  0  0
  -22.1651   -4.2134   21.0972 F   0  0  0  0  0  0
  -21.5646   -3.4542   25.7739 F   0  0  0  0  0  0
  -30.0378  -13.2485   20.4634 N   0  0  0  0  0  0
  -26.3013  -12.9168   20.3272 N   0  0  0  0  0  0
  -25.9234  -11.6369   20.5729 N   0  0  0  0  0  0
  -22.0495  -12.8234   22.0367 N   0  0  0  0  0  0
  -25.4449  -15.1776   20.4130 N   0  0  0  0  0  0
  -31.7840  -14.6671   20.0357 O   0  0  0  0  0  0
  -21.6621   -6.8850   21.4235 O   0  0  0  0  0  0
  -22.3579  -14.5590   20.6712 O   0  0  0  0  0  0
  -24.6126  -31.8724   23.2165 C   0  0  0  0  0  0
  -25.9038  -32.4841   23.8477 C   0  0  1  0  0  0
  -27.2086  -27.4190   20.0713 C   0  0  0  0  0  0
  -25.5910  -33.8650   24.2334 N   0  0  0  0  0  0
  -23.4000  -30.4978   21.5521 C   0  0  2  0  0  0
  -24.8493  -28.9943   20.0888 C   0  0  0  0  0  0
  -22.7424  -29.4620   22.4944 C   0  0  0  0  0  0
  -18.0238  -28.1501   22.8245 C   0  0  0  0  0  0
  -24.1478  -36.7241   23.2622 C   0  0  0  0  0  0
  -25.9383  -30.8251   21.3983 C   0  0  0  0  0  0
  -26.0084  -29.4730   20.7119 C   0  0  0  0  0  0
  -27.1857  -28.6840   20.7166 C   0  0  0  0  0  0
  -26.0521  -27.0293   19.3570 C   0  0  0  0  0  0
  -24.8688  -27.7756   19.4030 C   0  0  0  0  0  0
  -23.6094  -29.8515   20.1654 C   0  0  0  0  0  0
  -25.4111  -36.3073   24.0300 C   0  0  1  0  0  0
  -20.5845  -28.3647   23.1124 C   0  0  2  0  0  0
  -20.6607  -26.9224   22.5423 C   0  0  0  0  0  0
  -19.5694  -26.6017   21.5269 C   0  0  0  0  0  0
  -18.1766  -26.8093   22.1214 C   0  0  0  0  0  0
  -19.1497  -28.8894   23.2706 C   0  0  0  0  0  0
  -18.9367  -30.1468   23.8767 C   0  0  0  0  0  0
  -17.6362  -30.6513   24.0638 C   0  0  0  0  0  0
  -25.9063  -34.9465   23.5092 C   0  0  0  0  0  0
  -16.5254  -29.8946   23.6492 C   0  0  0  0  0  0
  -16.7239  -28.6530   23.0186 C   0  0  0  0  0  0
  -26.4509  -31.6661   25.0815 C   0  0  0  0  0  0
  -25.3707  -31.3768   26.1496 C   0  0  0  0  0  0
  -27.0366  -30.3048   24.6331 C   0  0  0  0  0  0
  -27.6090  -32.4441   25.7532 C   0  0  0  0  0  0
  -27.5586  -37.1772   24.8480 C   0  0  0  0  0  0
  -21.4201  -29.2840   22.3444 N   0  0  0  0  0  0
  -26.4308  -37.3751   23.9398 N   0  0  0  0  0  0
  -24.6662  -31.0793   22.1104 N   0  0  0  0  0  0
  -23.4161  -28.8302   23.3157 O   0  0  0  0  0  0
  -28.3075  -26.5794   20.1818 O   0  0  0  0  0  0
  -26.5647  -34.8903   22.4658 O   0  0  0  0  0  0
  -23.5319  -32.1565   23.7508 O   0  0  0  0  0  0
  -29.6959  -19.0510   21.5774 C   0  0  0  0  0  0
  -30.1865  -17.7483   21.8215 C   0  0  0  0  0  0
  -29.0167  -16.9546   19.8453 C   0  0  0  0  0  0
  -28.7918  -19.3099   20.5200 C   0  0  0  0  0  0
  -28.4863  -18.2477   19.6187 C   0  0  0  0  0  0
  -29.8169  -16.6820   20.9766 C   0  0  0  0  0  0
  -28.0269  -20.6201   20.5127 C   0  0  0  0  0  0
  -27.5469  -18.4260   18.4347 C   0  0  0  0  0  0
  -26.3528  -24.6791   21.3926 C   0  0  0  0  0  0
  -26.5504  -23.3566   19.2527 C   0  0  0  0  0  0
  -28.2065  -23.0370   21.2017 C   0  0  0  0  0  0
  -28.2401  -25.2139   19.6609 C   0  0  0  0  0  0
  -27.3569  -24.0791   20.3611 C   0  0  0  0  0  0
  -30.0977  -15.3400   21.3627 N   0  0  0  0  0  0
  -28.7135  -21.7800   20.5846 N   0  0  0  0  0  0
  -26.7950  -20.5828   20.5341 O   0  0  0  0  0  0
  -31.4728  -12.3336   19.1562 H   0  0  0  0  0  0
  -30.2961  -11.2539   19.8470 H   0  0  0  0  0  0
  -29.7487  -11.7143   17.4539 H   0  0  0  0  0  0
  -29.6480  -13.4328   17.7741 H   0  0  0  0  0  0
  -27.8981  -11.2327   18.9276 H   0  0  0  0  0  0
  -27.3528  -12.4512   17.8098 H   0  0  0  0  0  0
  -27.7114  -14.2020   19.5228 H   0  0  0  0  0  0
  -28.6478  -11.9449   21.3666 H   0  0  0  0  0  0
  -28.4214  -13.5821   21.8604 H   0  0  0  0  0  0
  -25.2712   -9.5678   22.4771 H   0  0  0  0  0  0
  -23.9973   -7.4617   22.7472 H   0  0  0  0  0  0
  -21.0829   -8.8709   19.8939 H   0  0  0  0  0  0
  -22.3643  -10.9630   19.6156 H   0  0  0  0  0  0
  -21.1986   -7.6139   23.9702 H   0  0  0  0  0  0
  -21.1516   -6.0522   25.9073 H   0  0  0  0  0  0
  -22.0584   -2.7606   23.2838 H   0  0  0  0  0  0
  -22.4071  -11.9857   22.4725 H   0  0  0  0  0  0
  -21.1108  -13.1254   22.2573 H   0  0  0  0  0  0
  -24.6886  -15.8401   20.5457 H   0  0  0  0  0  0
  -26.3251  -15.6180   20.1727 H   0  0  0  0  0  0
  -26.7079  -32.5566   23.1230 H   0  0  0  0  0  0
  -25.0004  -33.9832   25.0447 H   0  0  0  0  0  0
  -22.6842  -31.3055   21.4199 H   0  0  0  0  0  0
  -23.3762  -35.9575   23.3323 H   0  0  0  0  0  0
  -24.3554  -36.8823   22.2042 H   0  0  0  0  0  0
  -23.7283  -37.6440   23.6656 H   0  0  0  0  0  0
  -26.1061  -31.6158   20.6650 H   0  0  0  0  0  0
  -26.7981  -30.8297   22.0531 H   0  0  0  0  0  0
  -28.0630  -29.0373   21.2403 H   0  0  0  0  0  0
  -26.0054  -26.1207   18.7930 H   0  0  0  0  0  0
  -23.9929  -27.4064   18.8899 H   0  0  0  0  0  0
  -23.7060  -30.6322   19.4147 H   0  0  0  0  0  0
  -22.7357  -29.2609   19.8793 H   0  0  0  0  0  0
  -25.1339  -36.1886   25.0811 H   0  0  0  0  0  0
  -21.0121  -28.3449   24.1227 H   0  0  0  0  0  0
  -20.5259  -26.2207   23.3655 H   0  0  0  0  0  0
  -21.6538  -26.7038   22.1346 H   0  0  0  0  0  0
  -19.6610  -25.5718   21.1774 H   0  0  0  0  0  0
  -19.7036  -27.2388   20.6524 H   0  0  0  0  0  0
  -17.4316  -26.7259   21.3298 H   0  0  0  0  0  0
  -17.9522  -26.0210   22.8431 H   0  0  0  0  0  0
  -19.7791  -30.7386   24.1986 H   0  0  0  0  0  0
  -17.4909  -31.6138   24.5403 H   0  0  0  0  0  0
  -15.5207  -30.2702   23.8049 H   0  0  0  0  0  0
  -15.8693  -28.0856   22.6714 H   0  0  0  0  0  0
  -24.5857  -30.7197   25.7686 H   0  0  0  0  0  0
  -24.8974  -32.2957   26.4973 H   0  0  0  0  0  0
  -25.7992  -30.8816   27.0219 H   0  0  0  0  0  0
  -26.2949  -29.6720   24.1405 H   0  0  0  0  0  0
  -27.4008  -29.7422   25.4948 H   0  0  0  0  0  0
  -27.8883  -30.4227   23.9615 H   0  0  0  0  0  0
  -27.2665  -33.3668   26.2217 H   0  0  0  0  0  0
  -28.3814  -32.7129   25.0307 H   0  0  0  0  0  0
  -28.0891  -31.8562   26.5358 H   0  0  0  0  0  0
  -28.2629  -38.0031   24.7520 H   0  0  0  0  0  0
  -28.1056  -36.2587   24.6344 H   0  0  0  0  0  0
  -27.2303  -37.1453   25.8874 H   0  0  0  0  0  0
  -20.9469  -29.8342   21.6394 H   0  0  0  0  0  0
  -26.0158  -38.2810   24.1385 H   0  0  0  0  0  0
  -29.9461  -19.8355   22.2805 H   0  0  0  0  0  0
  -30.7997  -17.5631   22.6923 H   0  0  0  0  0  0
  -28.7461  -16.1575   19.1655 H   0  0  0  0  0  0
  -27.6603  -17.6034   17.7227 H   0  0  0  0  0  0
  -27.7626  -19.3485   17.8997 H   0  0  0  0  0  0
  -26.5013  -18.4358   18.7471 H   0  0  0  0  0  0
  -25.8335  -23.9209   21.9706 H   0  0  0  0  0  0
  -25.5551  -25.2618   20.9477 H   0  0  0  0  0  0
  -26.8655  -25.3194   22.1054 H   0  0  0  0  0  0
  -25.7819  -22.7034   19.6573 H   0  0  0  0  0  0
  -27.1948  -22.7433   18.6201 H   0  0  0  0  0  0
  -26.0346  -24.0351   18.5809 H   0  0  0  0  0  0
  -27.6208  -22.7028   22.0594 H   0  0  0  0  0  0
  -29.0386  -23.5618   21.6593 H   0  0  0  0  0  0
  -27.9613  -25.2938   18.6092 H   0  0  0  0  0  0
  -29.2740  -24.8620   19.5917 H   0  0  0  0  0  0
  -29.3819  -14.9357   21.9490 H   0  0  0  0  0  0
  -29.7170  -21.7019   20.5076 H   0  0  0  0  0  0
  1 25  1  0  0  0
  1 30  2  0  0  0
  1 84  1  0  0  0
  2  3  1  0  0  0
  2 25  1  0  0  0
  2 87  1  0  0  0
  2 88  1  0  0  0
  3  4  1  0  0  0
  3 89  1  0  0  0
  3 90  1  0  0  0
  4  5  1  0  0  0
  4 91  1  0  0  0
  4 92  1  0  0  0
  5  6  1  0  0  0
  5 26  1  0  0  0
  5 93  1  0  0  0
  6 25  1  0  0  0
  6 94  1  0  0  0
  6 95  1  0  0  0
  7  8  2  0  0  0
  7 26  1  0  0  0
  7 29  1  0  0  0
  8  9  1  0  0  0
  8 22  1  0  0  0
  9 10  1  0  0  0
  9 27  2  0  0  0
 10 11  2  0  0  0
 10 15  1  0  0  0
 11 12  1  0  0  0
 11 96  1  0  0  0
 12 13  2  0  0  0
 12 97  1  0  0  0
 13 14  1  0  0  0
 13 31  1  0  0  0
 14 15  2  0  0  0
 14 98  1  0  0  0
 15 99  1  0  0  0
 16 17  2  0  0  0
 16 21  1  0  0  0
 16 31  1  0  0  0
 17 18  1  0  0  0
 17100  1  0  0  0
 18 19  2  0  0  0
 18101  1  0  0  0
 19 20  1  0  0  0
 19 24  1  0  0  0
 20 21  2  0  0  0
 20102  1  0  0  0
 21 23  1  0  0  0
 22 28  1  0  0  0
 22 32  2  0  0  0
 26 27  1  0  0  0
 28103  1  0  0  0
 28104  1  0  0  0
 29105  1  0  0  0
 29106  1  0  0  0
 33 34  1  0  0  0
 33 66  1  0  0  0
 33 70  2  0  0  0
 34 36  1  0  0  0
 34 59  1  0  0  0
 34107  1  0  0  0
 35 44  2  0  0  0
 35 45  1  0  0  0
 35 68  1  0  0  0
 36 56  1  0  0  0
 36108  1  0  0  0
 37 39  1  0  0  0
 37 47  1  0  0  0
 37 66  1  0  0  0
 37109  1  0  0  0
 38 43  2  0  0  0
 38 46  1  0  0  0
 38 47  1  0  0  0
 39 64  1  0  0  0
 39 67  2  0  0  0
 40 52  1  0  0  0
 40 53  2  0  0  0
 40 58  1  0  0  0
 41110  1  0  0  0
 41111  1  0  0  0
 41112  1  0  0  0
 41 48  1  0  0  0
 42 43  1  0  0  0
 42 66  1  0  0  0
 42113  1  0  0  0
 42114  1  0  0  0
 43 44  1  0  0  0
 44115  1  0  0  0
 45 46  2  0  0  0
 45116  1  0  0  0
 46117  1  0  0  0
 47118  1  0  0  0
 47119  1  0  0  0
 48 56  1  0  0  0
 48 65  1  0  0  0
 48120  1  0  0  0
 49 50  1  0  0  0
 49 53  1  0  0  0
 49 64  1  0  0  0
 49121  1  0  0  0
 50 51  1  0  0  0
 50122  1  0  0  0
 50123  1  0  0  0
 51 52  1  0  0  0
 51124  1  0  0  0
 51125  1  0  0  0
 52126  1  0  0  0
 52127  1  0  0  0
 53 54  1  0  0  0
 54 55  2  0  0  0
 54128  1  0  0  0
 55 57  1  0  0  0
 55129  1  0  0  0
 56 69  2  0  0  0
 57 58  2  0  0  0
 57130  1  0  0  0
 58131  1  0  0  0
 59 60  1  0  0  0
 59 61  1  0  0  0
 59 62  1  0  0  0
 60132  1  0  0  0
 60133  1  0  0  0
 60134  1  0  0  0
 61135  1  0  0  0
 61136  1  0  0  0
 61137  1  0  0  0
 62138  1  0  0  0
 62139  1  0  0  0
 62140  1  0  0  0
 63 65  1  0  0  0
 63141  1  0  0  0
 63142  1  0  0  0
 63143  1  0  0  0
 64144  1  0  0  0
 65145  1  0  0  0
 68 82  1  0  0  0
 71 72  2  0  0  0
 71 74  1  0  0  0
 71146  1  0  0  0
 72 76  1  0  0  0
 72147  1  0  0  0
 73 75  1  0  0  0
 73 76  2  0  0  0
 73148  1  0  0  0
 74 75  2  0  0  0
 74 77  1  0  0  0
 75 78  1  0  0  0
 76 84  1  0  0  0
 77 85  1  0  0  0
 77 86  2  0  0  0
 78149  1  0  0  0
 78150  1  0  0  0
 78151  1  0  0  0
 79152  1  0  0  0
 79153  1  0  0  0
 79154  1  0  0  0
 79 83  1  0  0  0
 80 83  1  0  0  0
 80155  1  0  0  0
 80156  1  0  0  0
 80157  1  0  0  0
 81 83  1  0  0  0
 81 85  1  0  0  0
 81158  1  0  0  0
 81159  1  0  0  0
 82 83  1  0  0  0
 82160  1  0  0  0
 82161  1  0  0  0
 84162  1  0  0  0
 85163  1  0  0  0
M  ISO  4   1 100  68 101  82 101  84 100
M  END
> <chiral flag>
0

> <version>
0

> <s_m_source_file>
/data/baiqing/PycharmProjects/Reinvent-master-3.2/result/LINK_invent/BTK/process_docking_weight1_custom_product_contain_oxygen_bond_distance_aromatic_linkinvent_7_9_3/rearranged_h_0055.sdf

> <i_m_source_file_index>
37

> <r_mmod_Potential_Energy-OPLS-2005>
62.6583137512207

> <r_mmod_Stretch_Energy-OPLS-2005>
54.474723815918

> <r_mmod_Bend_Energy-OPLS-2005>
134.857818603516

> <r_mmod_Torsional_Energy-OPLS-2005>
304.745758056641

> <r_mmod_Improper_Torsional_Energy-OPLS-2005>
8.63655090332031

> <r_mmod_Van_der_Waal_Energy-OPLS-2005>
169.286712646484

> <r_mmod_Electrostatic_Energy-OPLS-2005>
-412.283508300781

> <r_mmod_Solvation_Energy-OPLS-2005>
-222.621276855469

> <b_mmod_Minimization_Converged-OPLS-2005>
0

> <r_mmod_RMS_Derivative-OPLS-2005>
10.4536085128784

$$$$
37
                    3D
 Structure written by MMmdl.
160169  0  0  1  0            999 V2000
  -30.6364  -14.7154   20.3837 C   0  0  0  0  0  0
  -30.4339  -12.4141   19.4671 C   0  0  0  0  0  0
  -29.5073  -12.4271   18.2331 C   0  0  0  0  0  0
  -28.0264  -12.3093   18.6520 C   0  0  0  0  0  0
  -27.6390  -13.2190   19.8529 C   0  0  2  0  0  0
  -28.6973  -13.1827   20.9748 C   0  0  0  0  0  0
  -25.2532  -13.8171   20.5744 C   0  0  0  0  0  0
  -24.1805  -13.0425   20.9209 C   0  0  0  0  0  0
  -24.6386  -11.6903   20.8771 C   0  0  0  0  0  0
  -23.9055  -10.4289   21.0415 C   0  0  0  0  0  0
  -24.3617   -9.4205   21.9184 C   0  0  0  0  0  0
  -23.6291   -8.2243   22.0756 C   0  0  0  0  0  0
  -22.4272   -8.0281   21.3544 C   0  0  0  0  0  0
  -21.9902   -9.0261   20.4657 C   0  0  0  0  0  0
  -22.7232  -10.2135   20.3061 C   0  0  0  0  0  0
  -21.6858   -6.0737   22.5266 C   0  0  0  0  0  0
  -21.4006   -6.5644   23.8195 C   0  0  0  0  0  0
  -21.3645   -5.6799   24.9162 C   0  0  0  0  0  0
  -21.6037   -4.3061   24.7218 C   0  0  0  0  0  0
  -21.8836   -3.8151   23.4348 C   0  0  0  0  0  0
  -21.9204   -4.6965   22.3402 C   0  0  0  0  0  0
  -22.7831  -13.5209   21.1870 C   0  0  0  0  0  0
  -22.1677   -4.2144   21.0985 F   0  0  0  0  0  0
  -21.5617   -3.4549   25.7736 F   0  0  0  0  0  0
  -29.9926  -13.5023   20.3609 N   0  0  0  0  0  0
  -26.2951  -12.9345   20.3388 N   0  0  0  0  0  0
  -25.9315  -11.6505   20.5843 N   0  0  0  0  0  0
  -22.0493  -12.8183   22.0435 N   0  0  0  0  0  0
  -25.4269  -15.1900   20.4179 N   0  0  0  0  0  0
  -31.8605  -14.7691   20.2420 O   0  0  0  0  0  0
  -21.6644   -6.8876   21.4229 O   0  0  0  0  0  0
  -22.3516  -14.5522   20.6728 O   0  0  0  0  0  0
  -24.6267  -31.8584   23.2014 C   0  0  0  0  0  0
  -25.9130  -32.4749   23.8327 C   0  0  1  0  0  0
  -27.2239  -27.3099   20.1232 C   0  0  0  0  0  0
  -25.5958  -33.8548   24.2257 N   0  0  0  0  0  0
  -23.4194  -30.4827   21.5427 C   0  0  2  0  0  0
  -24.8678  -28.9407   20.1046 C   0  0  0  0  0  0
  -22.7470  -29.4609   22.4899 C   0  0  0  0  0  0
  -18.0288  -28.1393   22.8474 C   0  0  0  0  0  0
  -24.1495  -36.7263   23.2632 C   0  0  0  0  0  0
  -25.9599  -30.7863   21.3757 C   0  0  0  0  0  0
  -26.0332  -29.4136   20.7192 C   0  0  0  0  0  0
  -27.2103  -28.6068   20.7261 C   0  0  0  0  0  0
  -26.0417  -26.9074   19.4576 C   0  0  0  0  0  0
  -24.8748  -27.6939   19.4623 C   0  0  0  0  0  0
  -23.6351  -29.8201   20.1562 C   0  0  0  0  0  0
  -25.4112  -36.3042   24.0327 C   0  0  1  0  0  0
  -20.5885  -28.3684   23.1283 C   0  0  2  0  0  0
  -20.6769  -26.9405   22.5420 C   0  0  0  0  0  0
  -19.5762  -26.6392   21.5203 C   0  0  0  0  0  0
  -18.1933  -26.7944   22.1605 C   0  0  0  0  0  0
  -19.1536  -28.8857   23.2879 C   0  0  0  0  0  0
  -18.9464  -30.1455   23.8887 C   0  0  0  0  0  0
  -17.6470  -30.6586   24.0567 C   0  0  0  0  0  0
  -25.9060  -34.9424   23.5084 C   0  0  0  0  0  0
  -16.5353  -29.9087   23.6343 C   0  0  0  0  0  0
  -16.7275  -28.6512   23.0343 C   0  0  0  0  0  0
  -26.4521  -31.6552   25.0692 C   0  0  0  0  0  0
  -25.3771  -31.3717   26.1431 C   0  0  0  0  0  0
  -27.0345  -30.2959   24.6156 C   0  0  0  0  0  0
  -27.6078  -32.4282   25.7474 C   0  0  0  0  0  0
  -27.5583  -37.1771   24.8448 C   0  0  0  0  0  0
  -21.4176  -29.3027   22.3658 N   0  0  0  0  0  0
  -26.4270  -37.3758   23.9431 N   0  0  0  0  0  0
  -24.6863  -31.0604   22.0954 N   0  0  0  0  0  0
  -23.4190  -28.8155   23.2990 O   0  0  0  0  0  0
  -28.3378  -26.4551   20.2091 O   0  0  0  0  0  0
  -26.5606  -34.8909   22.4636 O   0  0  0  0  0  0
  -23.5435  -32.1374   23.7354 O   0  0  0  0  0  0
  -30.0667  -19.1140   22.0388 C   0  0  0  0  0  0
  -30.1675  -17.7046   21.7959 C   0  0  0  0  0  0
  -29.3857  -19.5299   19.7612 C   0  0  0  0  0  0
  -29.4986  -18.1256   19.5286 C   0  0  0  0  0  0
  -29.6757  -20.0644   21.0420 C   0  0  0  0  0  0
  -29.8823  -17.1898   20.5103 C   0  0  0  0  0  0
  -29.2670  -17.4068   18.2923 C   0  0  0  0  0  0
  -28.1782  -17.7438   14.7846 C   0  0  0  0  0  0
  -28.8244  -17.9409   17.1375 C   0  0  0  0  0  0
  -28.6357  -17.1852   15.9150 C   0  0  0  0  0  0
  -29.0780  -24.0088   20.7327 C   0  0  0  0  0  0
  -29.6377  -15.9533   18.5408 C   0  0  0  0  0  0
  -29.6414  -21.6011   21.3986 C   0  0  0  0  0  0
  -28.1849  -25.0073   19.8950 C   0  0  0  0  0  0
  -29.8871  -15.8169   19.9940 N   0  0  0  0  0  0
  -29.0117  -22.6498   20.5212 N   0  0  0  0  0  0
  -29.8131  -24.4694   21.6096 O   0  0  0  0  0  0
  -31.4743  -12.5314   19.1562 H   0  0  0  0  0  0
  -30.3772  -11.4551   19.9852 H   0  0  0  0  0  0
  -29.7621  -11.5960   17.5735 H   0  0  0  0  0  0
  -29.6714  -13.3273   17.6438 H   0  0  0  0  0  0
  -27.8572  -11.2657   18.9207 H   0  0  0  0  0  0
  -27.3744  -12.5109   17.8020 H   0  0  0  0  0  0
  -27.6048  -14.2338   19.4734 H   0  0  0  0  0  0
  -28.7309  -12.2049   21.4574 H   0  0  0  0  0  0
  -28.4537  -13.9100   21.7522 H   0  0  0  0  0  0
  -25.2772   -9.5687   22.4743 H   0  0  0  0  0  0
  -24.0008   -7.4646   22.7483 H   0  0  0  0  0  0
  -21.0826   -8.8796   19.8974 H   0  0  0  0  0  0
  -22.3701  -10.9680   19.6169 H   0  0  0  0  0  0
  -21.1988   -7.6153   23.9684 H   0  0  0  0  0  0
  -21.1431   -6.0535   25.9055 H   0  0  0  0  0  0
  -22.0621   -2.7609   23.2851 H   0  0  0  0  0  0
  -22.4114  -11.9810   22.4759 H   0  0  0  0  0  0
  -21.1144  -13.1236   22.2718 H   0  0  0  0  0  0
  -24.6674  -15.8535   20.5249 H   0  0  0  0  0  0
  -26.2976  -15.6264   20.1408 H   0  0  0  0  0  0
  -26.7179  -32.5431   23.1054 H   0  0  0  0  0  0
  -25.0182  -33.9688   25.0454 H   0  0  0  0  0  0
  -22.7137  -31.3037   21.4016 H   0  0  0  0  0  0
  -23.3776  -35.9576   23.3237 H   0  0  0  0  0  0
  -24.3605  -36.8938   22.2059 H   0  0  0  0  0  0
  -23.7223  -37.6436   23.6693 H   0  0  0  0  0  0
  -26.0981  -31.5518   20.6106 H   0  0  0  0  0  0
  -26.8353  -30.8292   22.0109 H   0  0  0  0  0  0
  -28.0971  -28.9618   21.2319 H   0  0  0  0  0  0
  -25.9874  -25.9708   18.9245 H   0  0  0  0  0  0
  -23.9870  -27.3329   18.9603 H   0  0  0  0  0  0
  -23.7547  -30.5971   19.4008 H   0  0  0  0  0  0
  -22.7561  -29.2492   19.8523 H   0  0  0  0  0  0
  -25.1291  -36.1855   25.0816 H   0  0  0  0  0  0
  -20.9985  -28.3266   24.1404 H   0  0  0  0  0  0
  -20.5663  -26.2290   23.3615 H   0  0  0  0  0  0
  -21.6645  -26.7432   22.1232 H   0  0  0  0  0  0
  -19.6925  -25.6302   21.1238 H   0  0  0  0  0  0
  -19.6732  -27.3200   20.6733 H   0  0  0  0  0  0
  -17.4220  -26.6705   21.3986 H   0  0  0  0  0  0
  -18.0322  -26.0079   22.8995 H   0  0  0  0  0  0
  -19.7939  -30.7269   24.2253 H   0  0  0  0  0  0
  -17.5028  -31.6263   24.5182 H   0  0  0  0  0  0
  -15.5354  -30.2984   23.7678 H   0  0  0  0  0  0
  -15.8683  -28.0843   22.7041 H   0  0  0  0  0  0
  -24.5968  -30.7017   25.7803 H   0  0  0  0  0  0
  -24.8942  -32.2896   26.4797 H   0  0  0  0  0  0
  -25.8124  -30.8972   27.0232 H   0  0  0  0  0  0
  -26.2888  -29.6706   24.1226 H   0  0  0  0  0  0
  -27.4066  -29.7227   25.4654 H   0  0  0  0  0  0
  -27.8769  -30.4212   23.9349 H   0  0  0  0  0  0
  -27.2685  -33.3613   26.1995 H   0  0  0  0  0  0
  -28.3934  -32.6775   25.0328 H   0  0  0  0  0  0
  -28.0686  -31.8430   26.5443 H   0  0  0  0  0  0
  -28.2528  -38.0134   24.7557 H   0  0  0  0  0  0
  -28.1136  -36.2660   24.6164 H   0  0  0  0  0  0
  -27.2326  -37.1284   25.8853 H   0  0  0  0  0  0
  -20.9340  -29.8743   21.6868 H   0  0  0  0  0  0
  -26.0126  -38.2813   24.1493 H   0  0  0  0  0  0
  -30.3049  -19.4743   23.0308 H   0  0  0  0  0  0
  -30.4666  -17.0419   22.5968 H   0  0  0  0  0  0
  -29.0973  -20.1944   18.9606 H   0  0  0  0  0  0
  -28.0535  -17.1570   13.8854 H   0  0  0  0  0  0
  -27.9204  -18.7923   14.7354 H   0  0  0  0  0  0
  -28.6026  -18.9980   17.1136 H   0  0  0  0  0  0
  -28.8727  -16.1298   15.9024 H   0  0  0  0  0  0
  -30.5457  -15.7287   17.9781 H   0  0  0  0  0  0
  -28.8447  -15.3111   18.1711 H   0  0  0  0  0  0
  -30.6765  -21.8961   21.5794 H   0  0  0  0  0  0
  -29.1497  -21.6827   22.3703 H   0  0  0  0  0  0
  -27.1677  -24.6616   20.0741 H   0  0  0  0  0  0
  -28.3973  -24.8614   18.8349 H   0  0  0  0  0  0
  -28.4107  -22.3269   19.7759 H   0  0  0  0  0  0
  1 25  1  0  0  0
  1 30  2  0  0  0
  1 85  1  0  0  0
  2  3  1  0  0  0
  2 25  1  0  0  0
  2 88  1  0  0  0
  2 89  1  0  0  0
  3  4  1  0  0  0
  3 90  1  0  0  0
  3 91  1  0  0  0
  4  5  1  0  0  0
  4 92  1  0  0  0
  4 93  1  0  0  0
  5  6  1  0  0  0
  5 26  1  0  0  0
  5 94  1  0  0  0
  6 25  1  0  0  0
  6 95  1  0  0  0
  6 96  1  0  0  0
  7  8  2  0  0  0
  7 26  1  0  0  0
  7 29  1  0  0  0
  8  9  1  0  0  0
  8 22  1  0  0  0
  9 10  1  0  0  0
  9 27  2  0  0  0
 10 11  2  0  0  0
 10 15  1  0  0  0
 11 12  1  0  0  0
 11 97  1  0  0  0
 12 13  2  0  0  0
 12 98  1  0  0  0
 13 14  1  0  0  0
 13 31  1  0  0  0
 14 15  2  0  0  0
 14 99  1  0  0  0
 15100  1  0  0  0
 16 17  2  0  0  0
 16 21  1  0  0  0
 16 31  1  0  0  0
 17 18  1  0  0  0
 17101  1  0  0  0
 18 19  2  0  0  0
 18102  1  0  0  0
 19 20  1  0  0  0
 19 24  1  0  0  0
 20 21  2  0  0  0
 20103  1  0  0  0
 21 23  1  0  0  0
 22 28  1  0  0  0
 22 32  2  0  0  0
 26 27  1  0  0  0
 28104  1  0  0  0
 28105  1  0  0  0
 29106  1  0  0  0
 29107  1  0  0  0
 33 34  1  0  0  0
 33 66  1  0  0  0
 33 70  2  0  0  0
 34 36  1  0  0  0
 34 59  1  0  0  0
 34108  1  0  0  0
 35 44  2  0  0  0
 35 45  1  0  0  0
 35 68  1  0  0  0
 36 56  1  0  0  0
 36109  1  0  0  0
 37 39  1  0  0  0
 37 47  1  0  0  0
 37 66  1  0  0  0
 37110  1  0  0  0
 38 43  2  0  0  0
 38 46  1  0  0  0
 38 47  1  0  0  0
 39 64  1  0  0  0
 39 67  2  0  0  0
 40 52  1  0  0  0
 40 53  2  0  0  0
 40 58  1  0  0  0
 41111  1  0  0  0
 41112  1  0  0  0
 41113  1  0  0  0
 41 48  1  0  0  0
 42 43  1  0  0  0
 42 66  1  0  0  0
 42114  1  0  0  0
 42115  1  0  0  0
 43 44  1  0  0  0
 44116  1  0  0  0
 45 46  2  0  0  0
 45117  1  0  0  0
 46118  1  0  0  0
 47119  1  0  0  0
 47120  1  0  0  0
 48 56  1  0  0  0
 48 65  1  0  0  0
 48121  1  0  0  0
 49 50  1  0  0  0
 49 53  1  0  0  0
 49 64  1  0  0  0
 49122  1  0  0  0
 50 51  1  0  0  0
 50123  1  0  0  0
 50124  1  0  0  0
 51 52  1  0  0  0
 51125  1  0  0  0
 51126  1  0  0  0
 52127  1  0  0  0
 52128  1  0  0  0
 53 54  1  0  0  0
 54 55  2  0  0  0
 54129  1  0  0  0
 55 57  1  0  0  0
 55130  1  0  0  0
 56 69  2  0  0  0
 57 58  2  0  0  0
 57131  1  0  0  0
 58132  1  0  0  0
 59 60  1  0  0  0
 59 61  1  0  0  0
 59 62  1  0  0  0
 60133  1  0  0  0
 60134  1  0  0  0
 60135  1  0  0  0
 61136  1  0  0  0
 61137  1  0  0  0
 61138  1  0  0  0
 62139  1  0  0  0
 62140  1  0  0  0
 62141  1  0  0  0
 63 65  1  0  0  0
 63142  1  0  0  0
 63143  1  0  0  0
 63144  1  0  0  0
 64145  1  0  0  0
 65146  1  0  0  0
 68 84  1  0  0  0
 71 72  2  0  0  0
 71 75  1  0  0  0
 71147  1  0  0  0
 72 76  1  0  0  0
 72148  1  0  0  0
 73 74  1  0  0  0
 73 75  2  0  0  0
 73149  1  0  0  0
 74 76  2  0  0  0
 74 77  1  0  0  0
 75 83  1  0  0  0
 76 85  1  0  0  0
 77 79  2  0  0  0
 77 82  1  0  0  0
 78 80  2  0  0  0
 78150  1  0  0  0
 78151  1  0  0  0
 79 80  1  0  0  0
 79152  1  0  0  0
 80153  1  0  0  0
 81 84  1  0  0  0
 81 86  1  0  0  0
 81 87  2  0  0  0
 82 85  1  0  0  0
 82154  1  0  0  0
 82155  1  0  0  0
 83 86  1  0  0  0
 83156  1  0  0  0
 83157  1  0  0  0
 84158  1  0  0  0
 84159  1  0  0  0
 86160  1  0  0  0
M  ISO  4   1 100  68 101  84 101  85 100
M  END
> <chiral flag>
0

> <version>
0

> <s_m_source_file>
/data/baiqing/PycharmProjects/Reinvent-master-3.2/result/LINK_invent/BTK/process_docking_weight1_custom_product_contain_oxygen_bond_distance_aromatic_linkinvent_7_9_3/rearranged_h_0055.sdf

> <i_m_source_file_index>
38

> <r_mmod_Potential_Energy-OPLS-2005>
243.675994873047

> <r_mmod_Stretch_Energy-OPLS-2005>
85.4797821044922

> <r_mmod_Bend_Energy-OPLS-2005>
206.794189453125

> <r_mmod_Torsional_Energy-OPLS-2005>
286.046661376953

> <r_mmod_Improper_Torsional_Energy-OPLS-2005>
22.2143898010254

> <r_mmod_Van_der_Waal_Energy-OPLS-2005>
137.94367980957

> <r_mmod_Electrostatic_Energy-OPLS-2005>
-335.8408203125

> <r_mmod_Solvation_Energy-OPLS-2005>
-235.836456298828

> <b_mmod_Minimization_Converged-OPLS-2005>
0

> <r_mmod_RMS_Derivative-OPLS-2005>
2.40338540077209

$$$$
38
                    3D
 Structure written by MMmdl.
166175  0  0  1  0            999 V2000
  -28.7992  -18.8958   20.9112 C   0  0  0  0  0  0
  -29.7536  -15.5581   19.8848 C   0  0  0  0  0  0
  -29.4823  -14.1901   18.8479 C   0  0  0  0  0  0
  -28.4593  -13.1286   19.2649 C   0  0  0  0  0  0
  -27.5219  -14.0261   20.0666 C   0  0  2  0  0  0
  -28.1090  -15.3424   21.0590 C   0  0  0  0  0  0
  -25.1175  -13.9671   20.6375 C   0  0  0  0  0  0
  -24.1366  -13.0803   20.9409 C   0  0  0  0  0  0
  -24.7121  -11.7725   20.8691 C   0  0  0  0  0  0
  -23.9968  -10.4620   21.0094 C   0  0  0  0  0  0
  -24.4178   -9.4466   21.9025 C   0  0  0  0  0  0
  -23.6650   -8.2563   22.0725 C   0  0  0  0  0  0
  -22.4619   -8.0548   21.3535 C   0  0  0  0  0  0
  -22.0433   -9.0556   20.4580 C   0  0  0  0  0  0
  -22.7981  -10.2348   20.2871 C   0  0  0  0  0  0
  -21.7001   -6.0891   22.5273 C   0  0  0  0  0  0
  -21.4119   -6.5727   23.8224 C   0  0  0  0  0  0
  -21.3699   -5.6843   24.9159 C   0  0  0  0  0  0
  -21.6039   -4.3105   24.7186 C   0  0  0  0  0  0
  -21.8802   -3.8232   23.4294 C   0  0  0  0  0  0
  -21.9234   -4.7083   22.3371 C   0  0  0  0  0  0
  -22.7162  -13.4795   21.1902 C   0  0  0  0  0  0
  -22.1675   -4.2246   21.0953 F   0  0  0  0  0  0
  -21.5610   -3.4569   25.7689 F   0  0  0  0  0  0
  -28.7230  -16.9159   20.5757 N   0  0  0  0  0  0
  -26.2833  -13.2806   20.4799 N   0  0  0  0  0  0
  -26.0434  -11.9049   20.6024 N   0  0  0  0  0  0
  -22.0135  -12.7600   22.0533 N   0  0  0  0  0  0
  -25.1083  -15.3436   20.4552 N   0  0  0  0  0  0
  -30.0499  -18.3825   20.7333 O   0  0  0  0  0  0
  -21.6879   -6.9149   21.4274 O   0  0  0  0  0  0
  -22.2510  -14.4962   20.6748 O   0  0  0  0  0  0
  -25.7432  -31.0239   23.5255 C   0  0  0  0  0  0
  -26.6471  -32.1983   23.9892 C   0  0  1  0  0  0
  -27.4984  -26.9262   18.6737 C   0  0  0  0  0  0
  -26.0435  -33.6374   24.2093 N   0  0  0  0  0  0
  -23.7874  -27.9173   22.0387 C   0  0  2  0  0  0
  -25.1458  -27.2479   19.7265 C   0  0  0  0  0  0
  -22.3058  -27.8873   22.4274 C   0  0  0  0  0  0
  -17.7484  -28.2248   22.7198 C   0  0  0  0  0  0
  -24.1887  -36.5515   23.2699 C   0  0  0  0  0  0
  -27.1624  -28.5281   22.4405 C   0  0  0  0  0  0
  -26.6644  -27.3903   20.3530 C   0  0  0  0  0  0
  -27.2346  -26.4156   19.8161 C   0  0  0  0  0  0
  -26.3718  -27.0987   17.8476 C   0  0  0  0  0  0
  -25.0954  -27.1569   18.3951 C   0  0  0  0  0  0
  -23.6665  -27.7385   20.3370 C   0  0  0  0  0  0
  -25.4666  -36.1167   24.0210 C   0  0  1  0  0  0
  -20.1874  -28.1512   23.0198 C   0  0  2  0  0  0
  -19.9595  -26.6197   22.6625 C   0  0  0  0  0  0
  -19.1410  -26.5259   21.4373 C   0  0  0  0  0  0
  -17.7692  -26.9062   21.9491 C   0  0  0  0  0  0
  -18.9184  -28.8922   23.1318 C   0  0  0  0  0  0
  -18.8634  -30.1318   23.8002 C   0  0  0  0  0  0
  -17.6074  -30.7048   24.0569 C   0  0  0  0  0  0
  -26.0665  -34.7748   23.4616 C   0  0  0  0  0  0
  -16.4361  -30.0231   23.6770 C   0  0  0  0  0  0
  -16.5068  -28.7848   23.0206 C   0  0  0  0  0  0
  -26.8804  -31.6233   25.3987 C   0  0  0  0  0  0
  -25.6128  -31.4591   26.3152 C   0  0  0  0  0  0
  -27.6011  -30.2517   25.3031 C   0  0  0  0  0  0
  -27.8540  -32.5769   26.0778 C   0  0  0  0  0  0
  -27.5635  -37.1302   24.8510 C   0  0  0  0  0  0
  -21.2592  -28.6867   22.1868 N   0  0  0  0  0  0
  -26.4093  -37.2644   23.9704 N   0  0  0  0  0  0
  -25.8434  -29.3706   23.2026 N   0  0  0  0  0  0
  -22.3137  -27.2037   23.4313 O   0  0  0  0  0  0
  -28.8282  -26.9618   18.5099 O   0  0  0  0  0  0
  -26.6231  -34.8059   22.3671 O   0  0  0  0  0  0
  -24.6912  -31.7913   23.5954 O   0  0  0  0  0  0
  -24.1688  -28.3425   24.4011 C   0  0  0  0  0  0
  -25.1464  -27.0321   23.8025 C   0  0  0  0  0  0
  -23.5528  -29.7277   23.4868 C   0  0  0  0  0  0
  -25.7967  -26.6529   22.2579 C   0  0  0  0  0  0
  -25.4421  -29.0664   21.1155 C   0  0  0  0  0  0
  -24.1410  -30.1270   21.7723 C   0  0  0  0  0  0
  -29.2670  -27.3245   21.2068 C   0  0  0  0  0  0
  -29.6635  -29.5090   20.0026 C   0  0  0  0  0  0
  -27.1159  -29.6949   20.3484 C   0  0  0  0  0  0
  -28.7230  -25.5116   21.6714 C   0  0  0  0  0  0
  -27.3021  -24.1459   21.7107 C   0  0  2  0  0  0
  -23.6410  -31.3325   20.9847 C   0  0  0  0  0  0
  -29.6057  -29.8000   18.4935 C   0  0  0  0  0  0
  -30.2537  -28.6941   17.6299 C   0  0  0  0  0  0
  -29.2668  -27.5734   17.2976 C   0  0  0  0  0  0
  -28.7166  -28.7175   20.5488 N   0  0  0  0  0  0
  -27.9429  -21.1680   21.2716 N   0  0  0  0  0  0
  -30.4762  -27.3541   21.4739 O   0  0  0  0  0  0
  -30.5856  -30.0076   20.6510 O   0  0  0  0  0  0
  -30.4409  -16.1475   19.2747 H   0  0  0  0  0  0
  -30.4459  -15.2320   20.6680 H   0  0  0  0  0  0
  -30.4382  -13.7027   18.6504 H   0  0  0  0  0  0
  -29.1649  -14.5856   17.8833 H   0  0  0  0  0  0
  -28.9098  -12.3724   19.9095 H   0  0  0  0  0  0
  -27.9781  -12.6407   18.4161 H   0  0  0  0  0  0
  -27.1319  -14.6143   19.2328 H   0  0  0  0  0  0
  -28.7174  -14.9248   21.8682 H   0  0  0  0  0  0
  -27.2619  -15.6534   21.6657 H   0  0  0  0  0  0
  -25.3229   -9.5894   22.4737 H   0  0  0  0  0  0
  -24.0241   -7.5016   22.7572 H   0  0  0  0  0  0
  -21.1344   -8.9181   19.8898 H   0  0  0  0  0  0
  -22.4414  -10.9853   19.5965 H   0  0  0  0  0  0
  -21.2153   -7.6235   23.9759 H   0  0  0  0  0  0
  -21.1520   -6.0558   25.9068 H   0  0  0  0  0  0
  -22.0521   -2.7682   23.2779 H   0  0  0  0  0  0
  -22.4095  -11.9445   22.4977 H   0  0  0  0  0  0
  -21.0635  -13.0257   22.2719 H   0  0  0  0  0  0
  -24.2508  -15.8824   20.5028 H   0  0  0  0  0  0
  -25.9171  -15.8942   20.1924 H   0  0  0  0  0  0
  -27.5573  -32.2364   23.3870 H   0  0  0  0  0  0
  -25.5074  -33.6997   25.0615 H   0  0  0  0  0  0
  -23.6977  -26.8204   21.9952 H   0  0  0  0  0  0
  -23.4523  -35.7458   23.2534 H   0  0  0  0  0  0
  -24.4089  -36.8152   22.2340 H   0  0  0  0  0  0
  -23.7184  -37.4133   23.7454 H   0  0  0  0  0  0
  -27.8986  -29.3295   22.5430 H   0  0  0  0  0  0
  -27.5956  -27.8577   23.1878 H   0  0  0  0  0  0
  -26.6034  -25.5370   19.7158 H   0  0  0  0  0  0
  -26.4564  -27.2316   16.7777 H   0  0  0  0  0  0
  -24.1913  -27.2339   17.8028 H   0  0  0  0  0  0
  -22.9504  -26.9499   20.0818 H   0  0  0  0  0  0
  -23.2840  -28.6166   19.8136 H   0  0  0  0  0  0
  -25.1854  -35.9425   25.0621 H   0  0  0  0  0  0
  -20.4497  -28.2269   24.0834 H   0  0  0  0  0  0
  -19.4545  -26.1437   23.5059 H   0  0  0  0  0  0
  -20.7674  -25.9119   22.4806 H   0  0  0  0  0  0
  -19.1228  -25.5117   21.0331 H   0  0  0  0  0  0
  -19.4959  -27.1952   20.6507 H   0  0  0  0  0  0
  -17.0849  -26.9757   21.1023 H   0  0  0  0  0  0
  -17.3597  -26.1214   22.5901 H   0  0  0  0  0  0
  -19.7687  -30.6227   24.1299 H   0  0  0  0  0  0
  -17.5373  -31.6554   24.5672 H   0  0  0  0  0  0
  -15.4710  -30.4608   23.8908 H   0  0  0  0  0  0
  -15.5919  -28.2872   22.7281 H   0  0  0  0  0  0
  -24.9433  -30.6558   26.0121 H   0  0  0  0  0  0
  -25.0301  -32.3768   26.3628 H   0  0  0  0  0  0
  -25.9075  -31.2239   27.3386 H   0  0  0  0  0  0
  -26.9377  -29.3879   25.3483 H   0  0  0  0  0  0
  -28.2365  -30.0955   26.1754 H   0  0  0  0  0  0
  -28.2882  -30.1872   24.4628 H   0  0  0  0  0  0
  -27.4257  -33.5573   26.2879 H   0  0  0  0  0  0
  -28.7552  -32.7347   25.4815 H   0  0  0  0  0  0
  -28.1790  -32.1920   27.0452 H   0  0  0  0  0  0
  -28.1739  -38.0318   24.8017 H   0  0  0  0  0  0
  -28.1953  -36.2904   24.5620 H   0  0  0  0  0  0
  -27.2603  -36.9910   25.8890 H   0  0  0  0  0  0
  -21.1750  -29.4137   21.4921 H   0  0  0  0  0  0
  -25.9309  -38.1289   24.2052 H   0  0  0  0  0  0
  -23.8303  -28.2511   25.4279 H   0  0  0  0  0  0
  -25.3148  -26.2669   24.5428 H   0  0  0  0  0  0
  -22.8193  -30.3598   23.9756 H   0  0  0  0  0  0
  -27.2993  -30.7080   20.7054 H   0  0  0  0  0  0
  -26.8755  -29.8167   19.2952 H   0  0  0  0  0  0
  -28.9552  -25.5530   22.7328 H   0  0  0  0  0  0
  -29.5576  -24.9482   21.2518 H   0  0  0  0  0  0
  -27.2140  -23.8912   22.7650 H   0  0  0  0  0  0
  -22.8801  -31.8896   21.5389 H   0  0  0  0  0  0
  -23.2024  -31.0117   20.0408 H   0  0  0  0  0  0
  -24.4634  -32.0100   20.7582 H   0  0  0  0  0  0
  -30.1179  -30.7483   18.3435 H   0  0  0  0  0  0
  -28.5982  -29.9777   18.1397 H   0  0  0  0  0  0
  -31.1277  -28.2667   18.1193 H   0  0  0  0  0  0
  -30.6001  -29.1284   16.6902 H   0  0  0  0  0  0
  -29.7388  -26.8104   16.6825 H   0  0  0  0  0  0
  -28.4661  -27.9963   16.6915 H   0  0  0  0  0  0
  -26.9789  -20.8528   21.2944 H   0  0  0  0  0  0
  1 25  1  0  0  0
  1 30  2  0  0  0
  1 87  1  0  0  0
  2  3  1  0  0  0
  2 25  1  0  0  0
  2 90  1  0  0  0
  2 91  1  0  0  0
  3  4  1  0  0  0
  3 92  1  0  0  0
  3 93  1  0  0  0
  4  5  1  0  0  0
  4 94  1  0  0  0
  4 95  1  0  0  0
  5  6  1  0  0  0
  5 26  1  0  0  0
  5 96  1  0  0  0
  6 25  1  0  0  0
  6 97  1  0  0  0
  6 98  1  0  0  0
  7  8  2  0  0  0
  7 26  1  0  0  0
  7 29  1  0  0  0
  8  9  1  0  0  0
  8 22  1  0  0  0
  9 10  1  0  0  0
  9 27  2  0  0  0
 10 11  2  0  0  0
 10 15  1  0  0  0
 11 12  1  0  0  0
 11 99  1  0  0  0
 12 13  2  0  0  0
 12100  1  0  0  0
 13 14  1  0  0  0
 13 31  1  0  0  0
 14 15  2  0  0  0
 14101  1  0  0  0
 15102  1  0  0  0
 16 17  2  0  0  0
 16 21  1  0  0  0
 16 31  1  0  0  0
 17 18  1  0  0  0
 17103  1  0  0  0
 18 19  2  0  0  0
 18104  1  0  0  0
 19 20  1  0  0  0
 19 24  1  0  0  0
 20 21  2  0  0  0
 20105  1  0  0  0
 21 23  1  0  0  0
 22 28  1  0  0  0
 22 32  2  0  0  0
 26 27  1  0  0  0
 28106  1  0  0  0
 28107  1  0  0  0
 29108  1  0  0  0
 29109  1  0  0  0
 33 34  1  0  0  0
 33 66  1  0  0  0
 33 70  2  0  0  0
 34 36  1  0  0  0
 34 59  1  0  0  0
 34110  1  0  0  0
 35 44  2  0  0  0
 35 45  1  0  0  0
 35 68  1  0  0  0
 36 56  1  0  0  0
 36111  1  0  0  0
 37 39  1  0  0  0
 37 47  1  0  0  0
 37 66  1  0  0  0
 37112  1  0  0  0
 38 43  2  0  0  0
 38 46  1  0  0  0
 38 47  1  0  0  0
 39 64  1  0  0  0
 39 67  2  0  0  0
 40 52  1  0  0  0
 40 53  2  0  0  0
 40 58  1  0  0  0
 41113  1  0  0  0
 41114  1  0  0  0
 41115  1  0  0  0
 41 48  1  0  0  0
 42 43  1  0  0  0
 42 66  1  0  0  0
 42116  1  0  0  0
 42117  1  0  0  0
 43 44  1  0  0  0
 44118  1  0  0  0
 45 46  2  0  0  0
 45119  1  0  0  0
 46120  1  0  0  0
 47121  1  0  0  0
 47122  1  0  0  0
 48 56  1  0  0  0
 48 65  1  0  0  0
 48123  1  0  0  0
 49 50  1  0  0  0
 49 53  1  0  0  0
 49 64  1  0  0  0
 49124  1  0  0  0
 50 51  1  0  0  0
 50125  1  0  0  0
 50126  1  0  0  0
 51 52  1  0  0  0
 51127  1  0  0  0
 51128  1  0  0  0
 52129  1  0  0  0
 52130  1  0  0  0
 53 54  1  0  0  0
 54 55  2  0  0  0
 54131  1  0  0  0
 55 57  1  0  0  0
 55132  1  0  0  0
 56 69  2  0  0  0
 57 58  2  0  0  0
 57133  1  0  0  0
 58134  1  0  0  0
 59 60  1  0  0  0
 59 61  1  0  0  0
 59 62  1  0  0  0
 60135  1  0  0  0
 60136  1  0  0  0
 60137  1  0  0  0
 61138  1  0  0  0
 61139  1  0  0  0
 61140  1  0  0  0
 62141  1  0  0  0
 62142  1  0  0  0
 62143  1  0  0  0
 63 65  1  0  0  0
 63144  1  0  0  0
 63145  1  0  0  0
 63146  1  0  0  0
 64147  1  0  0  0
 65148  1  0  0  0
 68 85  1  0  0  0
 71 72  2  0  0  0
 71 73  1  0  0  0
 71149  1  0  0  0
 72 74  1  0  0  0
 72150  1  0  0  0
 73 76  2  0  0  0
 73151  1  0  0  0
 74 75  2  0  0  0
 74 81  1  0  0  0
 75 76  1  0  0  0
 75 79  1  0  0  0
 76 82  1  0  0  0
 77 80  1  0  0  0
 77 86  1  0  0  0
 77 88  2  0  0  0
 78 83  1  0  0  0
 78 86  1  0  0  0
 78 89  2  0  0  0
 79 86  1  0  0  0
 79152  1  0  0  0
 79153  1  0  0  0
 80 81  1  0  0  0
 80154  1  0  0  0
 80155  1  0  0  0
 81 87  1  0  0  0
 81156  1  0  0  0
 82157  1  0  0  0
 82158  1  0  0  0
 82159  1  0  0  0
 83 84  1  0  0  0
 83160  1  0  0  0
 83161  1  0  0  0
 84 85  1  0  0  0
 84162  1  0  0  0
 84163  1  0  0  0
 85164  1  0  0  0
 85165  1  0  0  0
 87166  1  0  0  0
M  ISO  4   1 100  68 101  85 101  87 100
M  END
> <chiral flag>
0

> <version>
0

> <s_m_source_file>
/data/baiqing/PycharmProjects/Reinvent-master-3.2/result/LINK_invent/BTK/process_docking_weight1_custom_product_contain_oxygen_bond_distance_aromatic_linkinvent_7_9_3/rearranged_h_0055.sdf

> <i_m_source_file_index>
39

> <r_mmod_Potential_Energy-OPLS-2005>
42947.20703125

> <r_mmod_Stretch_Energy-OPLS-2005>
20790.056640625

> <r_mmod_Bend_Energy-OPLS-2005>
2681.275390625

> <r_mmod_Torsional_Energy-OPLS-2005>
685.752014160156

> <r_mmod_Improper_Torsional_Energy-OPLS-2005>
65.5371627807617

> <r_mmod_Van_der_Waal_Energy-OPLS-2005>
5000.91845703125

> <r_mmod_Electrostatic_Energy-OPLS-2005>
-437.221984863281

> <r_mmod_Solvation_Energy-OPLS-2005>
-262.774536132812

> <b_mmod_Minimization_Converged-OPLS-2005>
0

> <r_mmod_RMS_Derivative-OPLS-2005>
11.4272994995117

$$$$
39
                    3D
 Structure written by MMmdl.
166174  0  0  1  0            999 V2000
  -30.7106  -14.4170   20.6718 C   0  0  0  0  0  0
  -30.4348  -12.3118   19.3951 C   0  0  0  0  0  0
  -29.4973  -12.5510   18.1937 C   0  0  0  0  0  0
  -28.0173  -12.4034   18.5997 C   0  0  0  0  0  0
  -27.6740  -13.2010   19.8845 C   0  0  2  0  0  0
  -28.7117  -12.9117   20.9903 C   0  0  0  0  0  0
  -25.2671  -13.8145   20.5722 C   0  0  0  0  0  0
  -24.1884  -13.0432   20.9141 C   0  0  0  0  0  0
  -24.6414  -11.6893   20.8664 C   0  0  0  0  0  0
  -23.9059  -10.4289   21.0363 C   0  0  0  0  0  0
  -24.3608   -9.4222   21.9166 C   0  0  0  0  0  0
  -23.6283   -8.2259   22.0755 C   0  0  0  0  0  0
  -22.4267   -8.0284   21.3548 C   0  0  0  0  0  0
  -21.9890   -9.0253   20.4655 C   0  0  0  0  0  0
  -22.7215  -10.2135   20.3033 C   0  0  0  0  0  0
  -21.6859   -6.0725   22.5280 C   0  0  0  0  0  0
  -21.4027   -6.5630   23.8212 C   0  0  0  0  0  0
  -21.3668   -5.6788   24.9178 C   0  0  0  0  0  0
  -21.6043   -4.3051   24.7225 C   0  0  0  0  0  0
  -21.8819   -3.8139   23.4350 C   0  0  0  0  0  0
  -21.9193   -4.6955   22.3406 C   0  0  0  0  0  0
  -22.7907  -13.5249   21.1794 C   0  0  0  0  0  0
  -22.1663   -4.2139   21.0982 F   0  0  0  0  0  0
  -21.5623   -3.4535   25.7739 F   0  0  0  0  0  0
  -30.0560  -13.2400   20.4698 N   0  0  0  0  0  0
  -26.3106  -12.9305   20.3386 N   0  0  0  0  0  0
  -25.9338  -11.6461   20.5693 N   0  0  0  0  0  0
  -22.0519  -12.8260   22.0343 N   0  0  0  0  0  0
  -25.4434  -15.1875   20.4265 N   0  0  0  0  0  0
  -31.7287  -14.7444   20.0512 O   0  0  0  0  0  0
  -21.6642   -6.8870   21.4243 O   0  0  0  0  0  0
  -22.3607  -14.5562   20.6639 O   0  0  0  0  0  0
  -24.6157  -31.8687   23.2124 C   0  0  0  0  0  0
  -25.9054  -32.4826   23.8406 C   0  0  1  0  0  0
  -27.2339  -27.4275   20.0709 C   0  0  0  0  0  0
  -25.5910  -33.8625   24.2331 N   0  0  0  0  0  0
  -23.4027  -30.4953   21.5537 C   0  0  2  0  0  0
  -24.8455  -28.9631   20.1180 C   0  0  0  0  0  0
  -22.7412  -29.4673   22.4995 C   0  0  0  0  0  0
  -18.0272  -28.1370   22.8488 C   0  0  0  0  0  0
  -24.1482  -36.7307   23.2640 C   0  0  0  0  0  0
  -25.9356  -30.8256   21.3725 C   0  0  0  0  0  0
  -26.0085  -29.4603   20.7178 C   0  0  0  0  0  0
  -27.1997  -28.6949   20.7026 C   0  0  0  0  0  0
  -26.0407  -26.9524   19.4697 C   0  0  0  0  0  0
  -24.8555  -27.7049   19.4999 C   0  0  0  0  0  0
  -23.6106  -29.8320   20.1676 C   0  0  0  0  0  0
  -25.4107  -36.3115   24.0340 C   0  0  1  0  0  0
  -20.5862  -28.3662   23.1308 C   0  0  2  0  0  0
  -20.6755  -26.9399   22.5407 C   0  0  0  0  0  0
  -19.5735  -26.6382   21.5199 C   0  0  0  0  0  0
  -18.1917  -26.7914   22.1619 C   0  0  0  0  0  0
  -19.1521  -28.8832   23.2893 C   0  0  0  0  0  0
  -18.9457  -30.1434   23.8909 C   0  0  0  0  0  0
  -17.6464  -30.6581   24.0563 C   0  0  0  0  0  0
  -25.9042  -34.9480   23.5127 C   0  0  0  0  0  0
  -16.5353  -29.9087   23.6324 C   0  0  0  0  0  0
  -16.7266  -28.6499   23.0352 C   0  0  0  0  0  0
  -26.4468  -31.6614   25.0744 C   0  0  0  0  0  0
  -25.3730  -31.3733   26.1491 C   0  0  0  0  0  0
  -27.0308  -30.3058   24.6139 C   0  0  0  0  0  0
  -27.6037  -32.4340   25.7501 C   0  0  0  0  0  0
  -27.5577  -37.1815   24.8468 C   0  0  0  0  0  0
  -21.4140  -29.3038   22.3726 N   0  0  0  0  0  0
  -26.4292  -37.3803   23.9410 N   0  0  0  0  0  0
  -24.6694  -31.0780   22.1033 N   0  0  0  0  0  0
  -23.4183  -28.8206   23.3032 O   0  0  0  0  0  0
  -28.4146  -26.6970   20.0719 O   0  0  0  0  0  0
  -26.5600  -34.8931   22.4691 O   0  0  0  0  0  0
  -23.5346  -32.1446   23.7512 O   0  0  0  0  0  0
  -29.2145  -19.2617   22.1093 C   0  0  0  0  0  0
  -28.5771  -18.2691   22.8701 C   0  0  0  0  0  0
  -30.5699  -17.5505   21.0156 C   0  0  0  0  0  0
  -30.2116  -18.9167   21.1713 C   0  0  0  0  0  0
  -28.9203  -16.9145   22.7090 C   0  0  0  0  0  0
  -29.9221  -16.5391   21.7783 C   0  0  0  0  0  0
  -30.6099  -22.5009   20.6138 C   0  0  0  0  0  0
  -28.1740  -15.8800   23.5393 C   0  0  0  0  0  0
  -29.9575  -23.9228   17.9977 C   0  0  0  0  0  0
  -31.0150  -25.5915   19.5423 C   0  0  0  0  0  0
  -30.9056  -20.0076   20.3485 C   0  0  0  0  0  0
  -29.6018  -23.6679   20.5148 C   0  0  0  0  0  0
  -28.5016  -25.5611   19.1935 C   0  0  0  0  0  0
  -29.7840  -24.6846   19.3347 C   0  0  0  0  0  0
  -30.1989  -15.1432   21.6788 N   0  0  0  0  0  0
  -30.1637  -21.2755   20.2824 N   0  0  0  0  0  0
  -31.7591  -22.7052   21.0065 O   0  0  0  0  0  0
  -31.4776  -12.4327   19.0955 H   0  0  0  0  0  0
  -30.3477  -11.2827   19.7463 H   0  0  0  0  0  0
  -29.7374  -11.8591   17.3844 H   0  0  0  0  0  0
  -29.6667  -13.5541   17.7991 H   0  0  0  0  0  0
  -27.8150  -11.3430   18.7558 H   0  0  0  0  0  0
  -27.3720  -12.7226   17.7802 H   0  0  0  0  0  0
  -27.7382  -14.2609   19.6348 H   0  0  0  0  0  0
  -28.6792  -11.8557   21.2639 H   0  0  0  0  0  0
  -28.4435  -13.4390   21.9046 H   0  0  0  0  0  0
  -25.2742   -9.5712   22.4756 H   0  0  0  0  0  0
  -23.9988   -7.4665   22.7486 H   0  0  0  0  0  0
  -21.0813   -8.8775   19.8969 H   0  0  0  0  0  0
  -22.3662  -10.9674   19.6153 H   0  0  0  0  0  0
  -21.2033   -7.6142   23.9722 H   0  0  0  0  0  0
  -21.1486   -6.0513   25.9083 H   0  0  0  0  0  0
  -22.0583   -2.7599   23.2852 H   0  0  0  0  0  0
  -22.4088  -11.9926   22.4778 H   0  0  0  0  0  0
  -21.1158  -13.1360   22.2525 H   0  0  0  0  0  0
  -24.6928  -15.8501   20.5833 H   0  0  0  0  0  0
  -26.3152  -15.6313   20.1655 H   0  0  0  0  0  0
  -26.7121  -32.5522   23.1160 H   0  0  0  0  0  0
  -25.0064  -33.9784   25.0476 H   0  0  0  0  0  0
  -22.6918  -31.3128   21.4173 H   0  0  0  0  0  0
  -23.3745  -35.9639   23.3324 H   0  0  0  0  0  0
  -24.3567  -36.8899   22.2049 H   0  0  0  0  0  0
  -23.7236  -37.6520   23.6636 H   0  0  0  0  0  0
  -26.0580  -31.5933   20.6067 H   0  0  0  0  0  0
  -26.8198  -30.8712   21.9965 H   0  0  0  0  0  0
  -28.0960  -29.0777   21.1702 H   0  0  0  0  0  0
  -25.9782  -26.0024   18.9638 H   0  0  0  0  0  0
  -23.9594  -27.3132   19.0382 H   0  0  0  0  0  0
  -23.7244  -30.6067   19.4085 H   0  0  0  0  0  0
  -22.7323  -29.2560   19.8692 H   0  0  0  0  0  0
  -25.1285  -36.1979   25.0835 H   0  0  0  0  0  0
  -20.9953  -28.3223   24.1429 H   0  0  0  0  0  0
  -20.5637  -26.2282   23.3599 H   0  0  0  0  0  0
  -21.6632  -26.7429   22.1221 H   0  0  0  0  0  0
  -19.6898  -25.6297   21.1220 H   0  0  0  0  0  0
  -19.6660  -27.3195   20.6728 H   0  0  0  0  0  0
  -17.4182  -26.6657   21.4024 H   0  0  0  0  0  0
  -18.0326  -26.0050   22.9012 H   0  0  0  0  0  0
  -19.7940  -30.7229   24.2295 H   0  0  0  0  0  0
  -17.5034  -31.6264   24.5161 H   0  0  0  0  0  0
  -15.5357  -30.3002   23.7646 H   0  0  0  0  0  0
  -15.8660  -28.0827   22.7071 H   0  0  0  0  0  0
  -24.5873  -30.7117   25.7826 H   0  0  0  0  0  0
  -24.8956  -32.2900   26.4964 H   0  0  0  0  0  0
  -25.8074  -30.8871   27.0235 H   0  0  0  0  0  0
  -26.2871  -29.6821   24.1168 H   0  0  0  0  0  0
  -27.4049  -29.7292   25.4609 H   0  0  0  0  0  0
  -27.8714  -30.4374   23.9323 H   0  0  0  0  0  0
  -27.2647  -33.3619   26.2115 H   0  0  0  0  0  0
  -28.3823  -32.6942   25.0319 H   0  0  0  0  0  0
  -28.0734  -31.8454   26.5388 H   0  0  0  0  0  0
  -28.2619  -38.0092   24.7515 H   0  0  0  0  0  0
  -28.1051  -36.2629   24.6296 H   0  0  0  0  0  0
  -27.2295  -37.1476   25.8873 H   0  0  0  0  0  0
  -20.9305  -29.8790   21.6969 H   0  0  0  0  0  0
  -26.0179  -38.2884   24.1405 H   0  0  0  0  0  0
  -28.9257  -20.2916   22.2631 H   0  0  0  0  0  0
  -27.8136  -18.5583   23.5794 H   0  0  0  0  0  0
  -31.3428  -17.2930   20.3058 H   0  0  0  0  0  0
  -28.8582  -15.1672   24.0006 H   0  0  0  0  0  0
  -27.4607  -15.3396   22.9164 H   0  0  0  0  0  0
  -27.6106  -16.3507   24.3455 H   0  0  0  0  0  0
  -30.8718  -23.3283   17.9746 H   0  0  0  0  0  0
  -30.0131  -24.6066   17.1496 H   0  0  0  0  0  0
  -29.1205  -23.2482   17.8127 H   0  0  0  0  0  0
  -31.9434  -25.0196   19.5509 H   0  0  0  0  0  0
  -30.9559  -26.1322   20.4875 H   0  0  0  0  0  0
  -31.0991  -26.3361   18.7494 H   0  0  0  0  0  0
  -31.0385  -19.6459   19.3279 H   0  0  0  0  0  0
  -31.9063  -20.1588   20.7573 H   0  0  0  0  0  0
  -29.6245  -24.2102   21.4607 H   0  0  0  0  0  0
  -28.6039  -23.2315   20.4689 H   0  0  0  0  0  0
  -27.6541  -24.8933   19.3385 H   0  0  0  0  0  0
  -28.4231  -25.9470   18.1751 H   0  0  0  0  0  0
  -29.5881  -14.5833   22.2522 H   0  0  0  0  0  0
  -29.2053  -21.2062   19.9682 H   0  0  0  0  0  0
  1 25  1  0  0  0
  1 30  2  0  0  0
  1 85  1  0  0  0
  2  3  1  0  0  0
  2 25  1  0  0  0
  2 88  1  0  0  0
  2 89  1  0  0  0
  3  4  1  0  0  0
  3 90  1  0  0  0
  3 91  1  0  0  0
  4  5  1  0  0  0
  4 92  1  0  0  0
  4 93  1  0  0  0
  5  6  1  0  0  0
  5 26  1  0  0  0
  5 94  1  0  0  0
  6 25  1  0  0  0
  6 95  1  0  0  0
  6 96  1  0  0  0
  7  8  2  0  0  0
  7 26  1  0  0  0
  7 29  1  0  0  0
  8  9  1  0  0  0
  8 22  1  0  0  0
  9 10  1  0  0  0
  9 27  2  0  0  0
 10 11  2  0  0  0
 10 15  1  0  0  0
 11 12  1  0  0  0
 11 97  1  0  0  0
 12 13  2  0  0  0
 12 98  1  0  0  0
 13 14  1  0  0  0
 13 31  1  0  0  0
 14 15  2  0  0  0
 14 99  1  0  0  0
 15100  1  0  0  0
 16 17  2  0  0  0
 16 21  1  0  0  0
 16 31  1  0  0  0
 17 18  1  0  0  0
 17101  1  0  0  0
 18 19  2  0  0  0
 18102  1  0  0  0
 19 20  1  0  0  0
 19 24  1  0  0  0
 20 21  2  0  0  0
 20103  1  0  0  0
 21 23  1  0  0  0
 22 28  1  0  0  0
 22 32  2  0  0  0
 26 27  1  0  0  0
 28104  1  0  0  0
 28105  1  0  0  0
 29106  1  0  0  0
 29107  1  0  0  0
 33 34  1  0  0  0
 33 66  1  0  0  0
 33 70  2  0  0  0
 34 36  1  0  0  0
 34 59  1  0  0  0
 34108  1  0  0  0
 35 44  2  0  0  0
 35 45  1  0  0  0
 35 68  1  0  0  0
 36 56  1  0  0  0
 36109  1  0  0  0
 37 39  1  0  0  0
 37 47  1  0  0  0
 37 66  1  0  0  0
 37110  1  0  0  0
 38 43  2  0  0  0
 38 46  1  0  0  0
 38 47  1  0  0  0
 39 64  1  0  0  0
 39 67  2  0  0  0
 40 52  1  0  0  0
 40 53  2  0  0  0
 40 58  1  0  0  0
 41111  1  0  0  0
 41112  1  0  0  0
 41113  1  0  0  0
 41 48  1  0  0  0
 42 43  1  0  0  0
 42 66  1  0  0  0
 42114  1  0  0  0
 42115  1  0  0  0
 43 44  1  0  0  0
 44116  1  0  0  0
 45 46  2  0  0  0
 45117  1  0  0  0
 46118  1  0  0  0
 47119  1  0  0  0
 47120  1  0  0  0
 48 56  1  0  0  0
 48 65  1  0  0  0
 48121  1  0  0  0
 49 50  1  0  0  0
 49 53  1  0  0  0
 49 64  1  0  0  0
 49122  1  0  0  0
 50 51  1  0  0  0
 50123  1  0  0  0
 50124  1  0  0  0
 51 52  1  0  0  0
 51125  1  0  0  0
 51126  1  0  0  0
 52127  1  0  0  0
 52128  1  0  0  0
 53 54  1  0  0  0
 54 55  2  0  0  0
 54129  1  0  0  0
 55 57  1  0  0  0
 55130  1  0  0  0
 56 69  2  0  0  0
 57 58  2  0  0  0
 57131  1  0  0  0
 58132  1  0  0  0
 59 60  1  0  0  0
 59 61  1  0  0  0
 59 62  1  0  0  0
 60133  1  0  0  0
 60134  1  0  0  0
 60135  1  0  0  0
 61136  1  0  0  0
 61137  1  0  0  0
 61138  1  0  0  0
 62139  1  0  0  0
 62140  1  0  0  0
 62141  1  0  0  0
 63 65  1  0  0  0
 63142  1  0  0  0
 63143  1  0  0  0
 63144  1  0  0  0
 64145  1  0  0  0
 65146  1  0  0  0
 68 83  1  0  0  0
 71 72  2  0  0  0
 71 74  1  0  0  0
 71147  1  0  0  0
 72 75  1  0  0  0
 72148  1  0  0  0
 73 74  2  0  0  0
 73 76  1  0  0  0
 73149  1  0  0  0
 74 81  1  0  0  0
 75 76  2  0  0  0
 75 78  1  0  0  0
 76 85  1  0  0  0
 77 82  1  0  0  0
 77 86  1  0  0  0
 77 87  2  0  0  0
 78150  1  0  0  0
 78151  1  0  0  0
 78152  1  0  0  0
 79153  1  0  0  0
 79154  1  0  0  0
 79155  1  0  0  0
 79 84  1  0  0  0
 80 84  1  0  0  0
 80156  1  0  0  0
 80157  1  0  0  0
 80158  1  0  0  0
 81 86  1  0  0  0
 81159  1  0  0  0
 81160  1  0  0  0
 82 84  1  0  0  0
 82161  1  0  0  0
 82162  1  0  0  0
 83 84  1  0  0  0
 83163  1  0  0  0
 83164  1  0  0  0
 85165  1  0  0  0
 86166  1  0  0  0
M  ISO  4   1 100  68 101  83 101  85 100
M  END
> <chiral flag>
0

> <version>
0

> <s_m_source_file>
/data/baiqing/PycharmProjects/Reinvent-master-3.2/result/LINK_invent/BTK/process_docking_weight1_custom_product_contain_oxygen_bond_distance_aromatic_linkinvent_7_9_3/rearranged_h_0055.sdf

> <i_m_source_file_index>
40

> <r_mmod_Potential_Energy-OPLS-2005>
-138.825134277344

> <r_mmod_Stretch_Energy-OPLS-2005>
41.8990821838379

> <r_mmod_Bend_Energy-OPLS-2005>
116.316513061523

> <r_mmod_Torsional_Energy-OPLS-2005>
201.923110961914

> <r_mmod_Improper_Torsional_Energy-OPLS-2005>
4.37836742401123

> <r_mmod_Van_der_Waal_Energy-OPLS-2005>
164.238525390625

> <r_mmod_Electrostatic_Energy-OPLS-2005>
-451.57421875

> <r_mmod_Solvation_Energy-OPLS-2005>
-227.078628540039

> <b_mmod_Minimization_Converged-OPLS-2005>
0

> <r_mmod_RMS_Derivative-OPLS-2005>
1.85392367839813

$$$$
40
                    3D
 Structure written by MMmdl.
151159  0  0  1  0            999 V2000
  -30.5432  -15.0202   20.3967 C   0  0  0  0  0  0
  -30.4366  -12.6343   19.5026 C   0  0  0  0  0  0
  -29.5253  -12.5367   18.2583 C   0  0  0  0  0  0
  -28.0638  -12.3059   18.6819 C   0  0  0  0  0  0
  -27.6253  -13.2549   19.8274 C   0  0  2  0  0  0
  -28.6668  -13.3354   20.9636 C   0  0  0  0  0  0
  -25.2460  -13.8218   20.5713 C   0  0  0  0  0  0
  -24.1788  -13.0438   20.9241 C   0  0  0  0  0  0
  -24.6409  -11.6925   20.8762 C   0  0  0  0  0  0
  -23.9095  -10.4297   21.0417 C   0  0  0  0  0  0
  -24.3639   -9.4210   21.9196 C   0  0  0  0  0  0
  -23.6305   -8.2249   22.0761 C   0  0  0  0  0  0
  -22.4287   -8.0291   21.3547 C   0  0  0  0  0  0
  -21.9928   -9.0272   20.4656 C   0  0  0  0  0  0
  -22.7267  -10.2143   20.3066 C   0  0  0  0  0  0
  -21.6854   -6.0753   22.5288 C   0  0  0  0  0  0
  -21.4020   -6.5651   23.8226 C   0  0  0  0  0  0
  -21.3662   -5.6797   24.9185 C   0  0  0  0  0  0
  -21.6036   -4.3061   24.7229 C   0  0  0  0  0  0
  -21.8812   -3.8158   23.4350 C   0  0  0  0  0  0
  -21.9195   -4.6980   22.3409 C   0  0  0  0  0  0
  -22.7806  -13.5214   21.1887 C   0  0  0  0  0  0
  -22.1660   -4.2168   21.0986 F   0  0  0  0  0  0
  -21.5624   -3.4542   25.7739 F   0  0  0  0  0  0
  -29.9351  -13.7585   20.3529 N   0  0  0  0  0  0
  -26.2877  -12.9462   20.3197 N   0  0  0  0  0  0
  -25.9341  -11.6585   20.5720 N   0  0  0  0  0  0
  -22.0448  -12.8208   22.0438 N   0  0  0  0  0  0
  -25.4090  -15.1940   20.4113 N   0  0  0  0  0  0
  -31.7562  -15.0300   20.1587 O   0  0  0  0  0  0
  -21.6635   -6.8895   21.4250 O   0  0  0  0  0  0
  -22.3494  -14.5525   20.6734 O   0  0  0  0  0  0
  -24.6489  -31.8387   23.1820 C   0  0  0  0  0  0
  -25.9239  -32.4665   23.8228 C   0  0  1  0  0  0
  -27.2216  -27.0795   20.1587 C   0  0  0  0  0  0
  -25.5964  -33.8467   24.2146 N   0  0  0  0  0  0
  -23.4567  -30.4574   21.5281 C   0  0  2  0  0  0
  -24.9093  -28.8733   20.1100 C   0  0  0  0  0  0
  -22.7606  -29.4526   22.4818 C   0  0  0  0  0  0
  -18.0322  -28.1404   22.8486 C   0  0  0  0  0  0
  -24.1493  -36.7245   23.2640 C   0  0  0  0  0  0
  -26.0166  -30.6944   21.3912 C   0  0  0  0  0  0
  -26.0886  -29.2997   20.7328 C   0  0  0  0  0  0
  -27.2438  -28.4205   20.7374 C   0  0  0  0  0  0
  -26.0120  -26.7694   19.4956 C   0  0  0  0  0  0
  -24.8871  -27.6239   19.4743 C   0  0  0  0  0  0
  -23.6901  -29.7842   20.1487 C   0  0  0  0  0  0
  -25.4124  -36.3009   24.0307 C   0  0  1  0  0  0
  -20.5938  -28.3739   23.1216 C   0  0  2  0  0  0
  -20.6795  -26.9435   22.5406 C   0  0  0  0  0  0
  -19.5767  -26.6390   21.5217 C   0  0  0  0  0  0
  -18.1953  -26.7942   22.1630 C   0  0  0  0  0  0
  -19.1580  -28.8893   23.2843 C   0  0  0  0  0  0
  -18.9488  -30.1488   23.8870 C   0  0  0  0  0  0
  -17.6480  -30.6592   24.0575 C   0  0  0  0  0  0
  -25.9080  -34.9387   23.5036 C   0  0  0  0  0  0
  -16.5374  -29.9090   23.6344 C   0  0  0  0  0  0
  -16.7305  -28.6516   23.0352 C   0  0  0  0  0  0
  -26.4533  -31.6550   25.0697 C   0  0  0  0  0  0
  -25.3703  -31.3779   26.1395 C   0  0  0  0  0  0
  -27.0401  -30.2931   24.6326 C   0  0  0  0  0  0
  -27.6048  -32.4333   25.7487 C   0  0  0  0  0  0
  -27.5573  -37.1777   24.8464 C   0  0  0  0  0  0
  -21.4290  -29.3051   22.3566 N   0  0  0  0  0  0
  -26.4275  -37.3737   23.9410 N   0  0  0  0  0  0
  -24.7274  -31.0193   22.0887 N   0  0  0  0  0  0
  -23.4227  -28.8078   23.2991 O   0  0  0  0  0  0
  -28.2564  -26.0541   20.2317 O   0  0  0  0  0  0
  -26.5678  -34.8898   22.4624 O   0  0  0  0  0  0
  -23.5595  -32.1290   23.7005 O   0  0  0  0  0  0
  -31.8845  -19.5046   20.4247 C   0  0  0  0  0  0
  -30.9830  -20.5932   20.3761 C   0  0  0  0  0  0
  -31.4698  -18.1531   20.4494 C   0  0  0  0  0  0
  -29.5828  -20.4203   20.3420 C   0  0  0  0  0  0
  -29.1846  -18.9644   20.3785 C   0  0  0  0  0  0
  -30.1079  -17.7707   20.4318 C   0  0  0  0  0  0
  -28.6948  -21.7853   20.2538 C   0  0  0  0  0  0
  -28.9448  -23.2019   20.2544 C   0  0  0  0  0  0
  -27.6946  -18.6883   20.3599 C   0  0  0  0  0  0
  -27.9272  -24.5156   20.0738 C   0  0  0  0  0  0
  -29.7822  -16.2440   20.4852 N   0  0  0  0  0  0
  -31.4714  -12.7825   19.1911 H   0  0  0  0  0  0
  -30.4280  -11.6960   20.0594 H   0  0  0  0  0  0
  -29.8587  -11.7301   17.6037 H   0  0  0  0  0  0
  -29.5998  -13.4560   17.6742 H   0  0  0  0  0  0
  -27.9815  -11.2707   19.0140 H   0  0  0  0  0  0
  -27.3977  -12.4039   17.8241 H   0  0  0  0  0  0
  -27.5727  -14.2437   19.3718 H   0  0  0  0  0  0
  -28.7702  -12.3789   21.4766 H   0  0  0  0  0  0
  -28.3521  -14.0601   21.7160 H   0  0  0  0  0  0
  -25.2786   -9.5680   22.4776 H   0  0  0  0  0  0
  -24.0021   -7.4631   22.7470 H   0  0  0  0  0  0
  -21.0864   -8.8797   19.8951 H   0  0  0  0  0  0
  -22.3737  -10.9690   19.6179 H   0  0  0  0  0  0
  -21.2010   -7.6158   23.9737 H   0  0  0  0  0  0
  -21.1486   -6.0525   25.9088 H   0  0  0  0  0  0
  -22.0583   -2.7621   23.2843 H   0  0  0  0  0  0
  -22.4063  -11.9880   22.4850 H   0  0  0  0  0  0
  -21.1060  -13.1236   22.2633 H   0  0  0  0  0  0
  -24.6279  -15.8342   20.5048 H   0  0  0  0  0  0
  -26.2335  -15.6312   20.0242 H   0  0  0  0  0  0
  -26.7303  -32.5260   23.0950 H   0  0  0  0  0  0
  -25.0076  -33.9564   25.0269 H   0  0  0  0  0  0
  -22.7620  -31.2847   21.3687 H   0  0  0  0  0  0
  -23.3748  -35.9587   23.3299 H   0  0  0  0  0  0
  -24.3567  -36.8888   22.2055 H   0  0  0  0  0  0
  -23.7267  -37.6439   23.6695 H   0  0  0  0  0  0
  -26.1810  -31.4461   20.6184 H   0  0  0  0  0  0
  -26.8817  -30.7443   22.0392 H   0  0  0  0  0  0
  -28.1405  -28.7404   21.2489 H   0  0  0  0  0  0
  -25.8953  -25.8165   19.0027 H   0  0  0  0  0  0
  -23.9880  -27.2931   18.9715 H   0  0  0  0  0  0
  -23.8361  -30.5584   19.3946 H   0  0  0  0  0  0
  -22.8028  -29.2338   19.8323 H   0  0  0  0  0  0
  -25.1317  -36.1816   25.0800 H   0  0  0  0  0  0
  -21.0044  -28.3342   24.1330 H   0  0  0  0  0  0
  -20.5670  -26.2358   23.3629 H   0  0  0  0  0  0
  -21.6660  -26.7418   22.1216 H   0  0  0  0  0  0
  -19.6913  -25.6294   21.1268 H   0  0  0  0  0  0
  -19.6691  -27.3177   20.6729 H   0  0  0  0  0  0
  -17.4217  -26.6700   21.4037 H   0  0  0  0  0  0
  -18.0343  -26.0079   22.9016 H   0  0  0  0  0  0
  -19.7959  -30.7330   24.2206 H   0  0  0  0  0  0
  -17.5028  -31.6263   24.5192 H   0  0  0  0  0  0
  -15.5372  -30.2975   23.7681 H   0  0  0  0  0  0
  -15.8710  -28.0833   22.7055 H   0  0  0  0  0  0
  -24.5861  -30.7150   25.7724 H   0  0  0  0  0  0
  -24.8924  -32.2981   26.4762 H   0  0  0  0  0  0
  -25.7973  -30.8985   27.0213 H   0  0  0  0  0  0
  -26.3029  -29.6632   24.1336 H   0  0  0  0  0  0
  -27.3982  -29.7260   25.4926 H   0  0  0  0  0  0
  -27.8956  -30.4126   23.9675 H   0  0  0  0  0  0
  -27.2620  -33.3640   26.2014 H   0  0  0  0  0  0
  -28.3888  -32.6883   25.0345 H   0  0  0  0  0  0
  -28.0688  -31.8497   26.5449 H   0  0  0  0  0  0
  -28.2589  -38.0072   24.7498 H   0  0  0  0  0  0
  -28.1067  -36.2602   24.6301 H   0  0  0  0  0  0
  -27.2294  -37.1452   25.8866 H   0  0  0  0  0  0
  -20.9495  -29.8754   21.6733 H   0  0  0  0  0  0
  -26.0133  -38.2800   24.1409 H   0  0  0  0  0  0
  -32.9456  -19.7150   20.4413 H   0  0  0  0  0  0
  -31.3952  -21.5917   20.3523 H   0  0  0  0  0  0
  -32.2461  -17.4047   20.4913 H   0  0  0  0  0  0
  -27.6444  -21.5564   20.1454 H   0  0  0  0  0  0
  -29.9774  -23.5001   20.3597 H   0  0  0  0  0  0
  -27.2468  -19.0032   21.3023 H   0  0  0  0  0  0
  -27.4725  -17.6332   20.2137 H   0  0  0  0  0  0
  -27.2153  -19.2402   19.5515 H   0  0  0  0  0  0
  -27.0630  -24.3094   20.7054 H   0  0  0  0  0  0
  -27.5677  -24.4035   19.0516 H   0  0  0  0  0  0
  -28.7980  -16.0498   20.5856 H   0  0  0  0  0  0
  1 25  1  0  0  0
  1 30  2  0  0  0
  1 81  1  0  0  0
  2  3  1  0  0  0
  2 25  1  0  0  0
  2 82  1  0  0  0
  2 83  1  0  0  0
  3  4  1  0  0  0
  3 84  1  0  0  0
  3 85  1  0  0  0
  4  5  1  0  0  0
  4 86  1  0  0  0
  4 87  1  0  0  0
  5  6  1  0  0  0
  5 26  1  0  0  0
  5 88  1  0  0  0
  6 25  1  0  0  0
  6 89  1  0  0  0
  6 90  1  0  0  0
  7  8  2  0  0  0
  7 26  1  0  0  0
  7 29  1  0  0  0
  8  9  1  0  0  0
  8 22  1  0  0  0
  9 10  1  0  0  0
  9 27  2  0  0  0
 10 11  2  0  0  0
 10 15  1  0  0  0
 11 12  1  0  0  0
 11 91  1  0  0  0
 12 13  2  0  0  0
 12 92  1  0  0  0
 13 14  1  0  0  0
 13 31  1  0  0  0
 14 15  2  0  0  0
 14 93  1  0  0  0
 15 94  1  0  0  0
 16 17  2  0  0  0
 16 21  1  0  0  0
 16 31  1  0  0  0
 17 18  1  0  0  0
 17 95  1  0  0  0
 18 19  2  0  0  0
 18 96  1  0  0  0
 19 20  1  0  0  0
 19 24  1  0  0  0
 20 21  2  0  0  0
 20 97  1  0  0  0
 21 23  1  0  0  0
 22 28  1  0  0  0
 22 32  2  0  0  0
 26 27  1  0  0  0
 28 98  1  0  0  0
 28 99  1  0  0  0
 29100  1  0  0  0
 29101  1  0  0  0
 33 34  1  0  0  0
 33 66  1  0  0  0
 33 70  2  0  0  0
 34 36  1  0  0  0
 34 59  1  0  0  0
 34102  1  0  0  0
 35 44  2  0  0  0
 35 45  1  0  0  0
 35 68  1  0  0  0
 36 56  1  0  0  0
 36103  1  0  0  0
 37 39  1  0  0  0
 37 47  1  0  0  0
 37 66  1  0  0  0
 37104  1  0  0  0
 38 43  2  0  0  0
 38 46  1  0  0  0
 38 47  1  0  0  0
 39 64  1  0  0  0
 39 67  2  0  0  0
 40 52  1  0  0  0
 40 53  2  0  0  0
 40 58  1  0  0  0
 41105  1  0  0  0
 41106  1  0  0  0
 41107  1  0  0  0
 41 48  1  0  0  0
 42 43  1  0  0  0
 42 66  1  0  0  0
 42108  1  0  0  0
 42109  1  0  0  0
 43 44  1  0  0  0
 44110  1  0  0  0
 45 46  2  0  0  0
 45111  1  0  0  0
 46112  1  0  0  0
 47113  1  0  0  0
 47114  1  0  0  0
 48 56  1  0  0  0
 48 65  1  0  0  0
 48115  1  0  0  0
 49 50  1  0  0  0
 49 53  1  0  0  0
 49 64  1  0  0  0
 49116  1  0  0  0
 50 51  1  0  0  0
 50117  1  0  0  0
 50118  1  0  0  0
 51 52  1  0  0  0
 51119  1  0  0  0
 51120  1  0  0  0
 52121  1  0  0  0
 52122  1  0  0  0
 53 54  1  0  0  0
 54 55  2  0  0  0
 54123  1  0  0  0
 55 57  1  0  0  0
 55124  1  0  0  0
 56 69  2  0  0  0
 57 58  2  0  0  0
 57125  1  0  0  0
 58126  1  0  0  0
 59 60  1  0  0  0
 59 61  1  0  0  0
 59 62  1  0  0  0
 60127  1  0  0  0
 60128  1  0  0  0
 60129  1  0  0  0
 61130  1  0  0  0
 61131  1  0  0  0
 61132  1  0  0  0
 62133  1  0  0  0
 62134  1  0  0  0
 62135  1  0  0  0
 63 65  1  0  0  0
 63136  1  0  0  0
 63137  1  0  0  0
 63138  1  0  0  0
 64139  1  0  0  0
 65140  1  0  0  0
 68 80  1  0  0  0
 71 72  2  0  0  0
 71 73  1  0  0  0
 71141  1  0  0  0
 72 74  1  0  0  0
 72142  1  0  0  0
 73 76  2  0  0  0
 73143  1  0  0  0
 74 75  2  0  0  0
 74 77  1  0  0  0
 75 76  1  0  0  0
 75 79  1  0  0  0
 76 81  1  0  0  0
 77 78  2  0  0  0
 77144  1  0  0  0
 78 80  1  0  0  0
 78145  1  0  0  0
 79146  1  0  0  0
 79147  1  0  0  0
 79148  1  0  0  0
 80149  1  0  0  0
 80150  1  0  0  0
 81151  1  0  0  0
M  ISO  4   1 100  68 101  80 101  81 100
M  END
> <chiral flag>
0

> <version>
0

> <s_m_source_file>
/data/baiqing/PycharmProjects/Reinvent-master-3.2/result/LINK_invent/BTK/process_docking_weight1_custom_product_contain_oxygen_bond_distance_aromatic_linkinvent_7_9_3/rearranged_h_0055.sdf

> <i_m_source_file_index>
41

> <r_mmod_Potential_Energy-OPLS-2005>
589

> <r_mmod_Stretch_Energy-OPLS-2005>
319.265716552734

> <r_mmod_Bend_Energy-OPLS-2005>
253.40104675293

> <r_mmod_Torsional_Energy-OPLS-2005>
216.100570678711

> <r_mmod_Improper_Torsional_Energy-OPLS-2005>
5.04886054992676

> <r_mmod_Van_der_Waal_Energy-OPLS-2005>
131.076431274414

> <r_mmod_Electrostatic_Energy-OPLS-2005>
-375.338104248047

> <r_mmod_Solvation_Energy-OPLS-2005>
-207.424880981445

> <b_mmod_Minimization_Converged-OPLS-2005>
0

> <r_mmod_RMS_Derivative-OPLS-2005>
1.97738862037659

$$$$
41
                    3D
 Structure written by MMmdl.
167176  0  0  1  0            999 V2000
  -30.7034  -14.5091   20.6150 C   0  0  0  0  0  0
  -30.4358  -12.3416   19.4366 C   0  0  0  0  0  0
  -29.5083  -12.5190   18.2159 C   0  0  0  0  0  0
  -28.0310  -12.3474   18.6207 C   0  0  0  0  0  0
  -27.6622  -13.1942   19.8640 C   0  0  2  0  0  0
  -28.7008  -13.0049   20.9965 C   0  0  0  0  0  0
  -25.2517  -13.8079   20.5536 C   0  0  0  0  0  0
  -24.1816  -13.0376   20.9179 C   0  0  0  0  0  0
  -24.6392  -11.6859   20.8750 C   0  0  0  0  0  0
  -23.9057  -10.4262   21.0420 C   0  0  0  0  0  0
  -24.3608   -9.4177   21.9197 C   0  0  0  0  0  0
  -23.6268   -8.2225   22.0767 C   0  0  0  0  0  0
  -22.4254   -8.0276   21.3554 C   0  0  0  0  0  0
  -21.9885   -9.0253   20.4659 C   0  0  0  0  0  0
  -22.7233  -10.2118   20.3061 C   0  0  0  0  0  0
  -21.6848   -6.0719   22.5268 C   0  0  0  0  0  0
  -21.4013   -6.5622   23.8204 C   0  0  0  0  0  0
  -21.3661   -5.6780   24.9166 C   0  0  0  0  0  0
  -21.6039   -4.3042   24.7217 C   0  0  0  0  0  0
  -21.8823   -3.8136   23.4340 C   0  0  0  0  0  0
  -21.9193   -4.6949   22.3393 C   0  0  0  0  0  0
  -22.7843  -13.5193   21.1843 C   0  0  0  0  0  0
  -22.1661   -4.2134   21.0970 F   0  0  0  0  0  0
  -21.5632   -3.4527   25.7730 F   0  0  0  0  0  0
  -30.0422  -13.3210   20.4680 N   0  0  0  0  0  0
  -26.2999  -12.9264   20.3250 N   0  0  0  0  0  0
  -25.9312  -11.6442   20.5745 N   0  0  0  0  0  0
  -22.0463  -12.8235   22.0417 N   0  0  0  0  0  0
  -25.4011  -15.1772   20.3691 N   0  0  0  0  0  0
  -31.7704  -14.7462   20.0415 O   0  0  0  0  0  0
  -21.6626   -6.8866   21.4235 O   0  0  0  0  0  0
  -22.3533  -14.5502   20.6681 O   0  0  0  0  0  0
  -24.6168  -31.8673   23.2097 C   0  0  0  0  0  0
  -25.9054  -32.4822   23.8401 C   0  0  1  0  0  0
  -27.2385  -27.4126   20.1151 C   0  0  0  0  0  0
  -25.5907  -33.8615   24.2332 N   0  0  0  0  0  0
  -23.4078  -30.4896   21.5489 C   0  0  2  0  0  0
  -24.8602  -28.9507   20.1198 C   0  0  0  0  0  0
  -22.7428  -29.4653   22.4968 C   0  0  0  0  0  0
  -18.0282  -28.1384   22.8487 C   0  0  0  0  0  0
  -24.1487  -36.7311   23.2638 C   0  0  0  0  0  0
  -25.9386  -30.8232   21.3710 C   0  0  0  0  0  0
  -26.0189  -29.4516   20.7296 C   0  0  0  0  0  0
  -27.2121  -28.6859   20.7379 C   0  0  0  0  0  0
  -26.0703  -26.9385   19.4883 C   0  0  0  0  0  0
  -24.8799  -27.6901   19.4994 C   0  0  0  0  0  0
  -23.6222  -29.8206   20.1646 C   0  0  0  0  0  0
  -25.4101  -36.3109   24.0343 C   0  0  1  0  0  0
  -20.5875  -28.3678   23.1306 C   0  0  2  0  0  0
  -20.6774  -26.9405   22.5421 C   0  0  0  0  0  0
  -19.5749  -26.6386   21.5216 C   0  0  0  0  0  0
  -18.1924  -26.7931   22.1622 C   0  0  0  0  0  0
  -19.1531  -28.8846   23.2896 C   0  0  0  0  0  0
  -18.9460  -30.1451   23.8910 C   0  0  0  0  0  0
  -17.6459  -30.6584   24.0569 C   0  0  0  0  0  0
  -25.9031  -34.9472   23.5131 C   0  0  0  0  0  0
  -16.5352  -29.9088   23.6327 C   0  0  0  0  0  0
  -16.7269  -28.6507   23.0344 C   0  0  0  0  0  0
  -26.4480  -31.6595   25.0728 C   0  0  0  0  0  0
  -25.3756  -31.3722   26.1490 C   0  0  0  0  0  0
  -27.0294  -30.3026   24.6113 C   0  0  0  0  0  0
  -27.6067  -32.4308   25.7480 C   0  0  0  0  0  0
  -27.5576  -37.1806   24.8458 C   0  0  0  0  0  0
  -21.4150  -29.3039   22.3700 N   0  0  0  0  0  0
  -26.4289  -37.3792   23.9409 N   0  0  0  0  0  0
  -24.6721  -31.0752   22.1011 N   0  0  0  0  0  0
  -23.4179  -28.8194   23.3024 O   0  0  0  0  0  0
  -28.3564  -26.6054   20.0413 O   0  0  0  0  0  0
  -26.5585  -34.8927   22.4689 O   0  0  0  0  0  0
  -23.5357  -32.1432   23.7479 O   0  0  0  0  0  0
  -27.8636  -18.1551   20.3505 C   0  0  0  0  0  0
  -28.6372  -19.3110   20.5202 C   0  0  0  0  0  0
  -28.4055  -16.8988   20.6571 C   0  0  0  0  0  0
  -29.9593  -19.2315   21.0116 C   0  0  0  0  0  0
  -30.5246  -17.9333   21.2760 C   0  0  0  0  0  0
  -29.7360  -16.7517   21.0864 C   0  0  0  0  0  0
  -29.2031  -22.3146   22.1149 C   0  0  0  0  0  0
  -28.5932  -23.7321   22.0044 C   0  0  0  0  0  0
  -29.8548  -24.1300   19.9160 C   0  0  0  0  0  0
  -30.5177  -22.7285   20.0421 C   0  0  0  0  0  0
  -29.5142  -24.7385   21.2863 C   0  0  1  0  0  0
  -32.0185  -17.7327   23.3264 C   0  0  0  0  0  0
  -31.9532  -17.8038   21.7967 C   0  0  0  0  0  0
  -30.7444  -20.5459   21.2541 C   0  0  0  0  0  0
  -28.9851  -26.2178   21.2686 C   0  0  0  0  0  0
  -30.0353  -21.8588   21.1406 N   0  0  0  0  0  0
  -30.1263  -15.4121   21.4397 N   0  0  0  0  0  0
  -28.9039  -21.6309   23.0980 O   0  0  0  0  0  0
  -31.4796  -12.4517   19.1368 H   0  0  0  0  0  0
  -30.3508  -11.3293   19.8340 H   0  0  0  0  0  0
  -29.7687  -11.7995   17.4382 H   0  0  0  0  0  0
  -29.6585  -13.5087   17.7810 H   0  0  0  0  0  0
  -27.8622  -11.2901   18.8275 H   0  0  0  0  0  0
  -27.3813  -12.6028   17.7829 H   0  0  0  0  0  0
  -27.6980  -14.2267   19.5279 H   0  0  0  0  0  0
  -28.6876  -11.9718   21.3478 H   0  0  0  0  0  0
  -28.4287  -13.6046   21.8654 H   0  0  0  0  0  0
  -25.2755   -9.5638   22.4770 H   0  0  0  0  0  0
  -23.9972   -7.4609   22.7483 H   0  0  0  0  0  0
  -21.0814   -8.8778   19.8965 H   0  0  0  0  0  0
  -22.3709  -10.9658   19.6164 H   0  0  0  0  0  0
  -21.2005   -7.6129   23.9696 H   0  0  0  0  0  0
  -21.1481   -6.0513   25.9069 H   0  0  0  0  0  0
  -22.0605   -2.7595   23.2846 H   0  0  0  0  0  0
  -22.4033  -11.9895   22.4836 H   0  0  0  0  0  0
  -21.1092  -13.1316   22.2597 H   0  0  0  0  0  0
  -24.6062  -15.8036   20.4341 H   0  0  0  0  0  0
  -26.1883  -15.5939   19.8928 H   0  0  0  0  0  0
  -26.7126  -32.5540   23.1166 H   0  0  0  0  0  0
  -25.0087  -33.9771   25.0502 H   0  0  0  0  0  0
  -22.6975  -31.3065   21.4073 H   0  0  0  0  0  0
  -23.3745  -35.9649   23.3307 H   0  0  0  0  0  0
  -24.3590  -36.8912   22.2050 H   0  0  0  0  0  0
  -23.7245  -37.6522   23.6646 H   0  0  0  0  0  0
  -26.0525  -31.5832   20.5969 H   0  0  0  0  0  0
  -26.8263  -30.8843   21.9883 H   0  0  0  0  0  0
  -28.1056  -29.0707   21.2091 H   0  0  0  0  0  0
  -26.0827  -25.9745   18.9998 H   0  0  0  0  0  0
  -23.9920  -27.2971   19.0236 H   0  0  0  0  0  0
  -23.7343  -30.5947   19.4044 H   0  0  0  0  0  0
  -22.7460  -29.2425   19.8658 H   0  0  0  0  0  0
  -25.1277  -36.1977   25.0838 H   0  0  0  0  0  0
  -20.9973  -28.3264   24.1424 H   0  0  0  0  0  0
  -20.5681  -26.2284   23.3616 H   0  0  0  0  0  0
  -21.6648  -26.7448   22.1217 H   0  0  0  0  0  0
  -19.6909  -25.6301   21.1235 H   0  0  0  0  0  0
  -19.6684  -27.3203   20.6751 H   0  0  0  0  0  0
  -17.4199  -26.6690   21.4019 H   0  0  0  0  0  0
  -18.0307  -26.0069   22.9010 H   0  0  0  0  0  0
  -19.7937  -30.7265   24.2281 H   0  0  0  0  0  0
  -17.5017  -31.6264   24.5172 H   0  0  0  0  0  0
  -15.5353  -30.2994   23.7642 H   0  0  0  0  0  0
  -15.8670  -28.0831   22.7048 H   0  0  0  0  0  0
  -24.5904  -30.7087   25.7845 H   0  0  0  0  0  0
  -24.8984  -32.2891   26.4959 H   0  0  0  0  0  0
  -25.8126  -30.8879   27.0233 H   0  0  0  0  0  0
  -26.2826  -29.6792   24.1182 H   0  0  0  0  0  0
  -27.4057  -29.7261   25.4574 H   0  0  0  0  0  0
  -27.8672  -30.4314   23.9257 H   0  0  0  0  0  0
  -27.2700  -33.3604   26.2078 H   0  0  0  0  0  0
  -28.3867  -32.6870   25.0299 H   0  0  0  0  0  0
  -28.0743  -31.8417   26.5379 H   0  0  0  0  0  0
  -28.2608  -38.0092   24.7507 H   0  0  0  0  0  0
  -28.1061  -36.2628   24.6279 H   0  0  0  0  0  0
  -27.2303  -37.1458   25.8865 H   0  0  0  0  0  0
  -20.9313  -29.8755   21.6916 H   0  0  0  0  0  0
  -26.0177  -38.2871   24.1421 H   0  0  0  0  0  0
  -26.8409  -18.2342   20.0088 H   0  0  0  0  0  0
  -28.1830  -20.2645   20.2918 H   0  0  0  0  0  0
  -27.7768  -16.0341   20.5791 H   0  0  0  0  0  0
  -28.3706  -24.0930   23.0094 H   0  0  0  0  0  0
  -27.6383  -23.6588   21.4833 H   0  0  0  0  0  0
  -28.9402  -24.0433   19.3271 H   0  0  0  0  0  0
  -30.5099  -24.7979   19.3551 H   0  0  0  0  0  0
  -31.5884  -22.8736   20.1911 H   0  0  0  0  0  0
  -30.4151  -22.1944   19.0962 H   0  0  0  0  0  0
  -30.4376  -24.7699   21.8671 H   0  0  0  0  0  0
  -33.0521  -17.6561   23.6647 H   0  0  0  0  0  0
  -31.4840  -16.8603   23.7017 H   0  0  0  0  0  0
  -31.5823  -18.6196   23.7864 H   0  0  0  0  0  0
  -32.5666  -18.6294   21.4390 H   0  0  0  0  0  0
  -32.4161  -16.9141   21.3721 H   0  0  0  0  0  0
  -31.5872  -20.5403   20.5619 H   0  0  0  0  0  0
  -31.1907  -20.4948   22.2485 H   0  0  0  0  0  0
  -29.8263  -26.8959   21.4175 H   0  0  0  0  0  0
  -28.3223  -26.3831   22.1211 H   0  0  0  0  0  0
  -29.4213  -14.9451   21.9900 H   0  0  0  0  0  0
  1 25  1  0  0  0
  1 30  2  0  0  0
  1 87  1  0  0  0
  2  3  1  0  0  0
  2 25  1  0  0  0
  2 89  1  0  0  0
  2 90  1  0  0  0
  3  4  1  0  0  0
  3 91  1  0  0  0
  3 92  1  0  0  0
  4  5  1  0  0  0
  4 93  1  0  0  0
  4 94  1  0  0  0
  5  6  1  0  0  0
  5 26  1  0  0  0
  5 95  1  0  0  0
  6 25  1  0  0  0
  6 96  1  0  0  0
  6 97  1  0  0  0
  7  8  2  0  0  0
  7 26  1  0  0  0
  7 29  1  0  0  0
  8  9  1  0  0  0
  8 22  1  0  0  0
  9 10  1  0  0  0
  9 27  2  0  0  0
 10 11  2  0  0  0
 10 15  1  0  0  0
 11 12  1  0  0  0
 11 98  1  0  0  0
 12 13  2  0  0  0
 12 99  1  0  0  0
 13 14  1  0  0  0
 13 31  1  0  0  0
 14 15  2  0  0  0
 14100  1  0  0  0
 15101  1  0  0  0
 16 17  2  0  0  0
 16 21  1  0  0  0
 16 31  1  0  0  0
 17 18  1  0  0  0
 17102  1  0  0  0
 18 19  2  0  0  0
 18103  1  0  0  0
 19 20  1  0  0  0
 19 24  1  0  0  0
 20 21  2  0  0  0
 20104  1  0  0  0
 21 23  1  0  0  0
 22 28  1  0  0  0
 22 32  2  0  0  0
 26 27  1  0  0  0
 28105  1  0  0  0
 28106  1  0  0  0
 29107  1  0  0  0
 29108  1  0  0  0
 33 34  1  0  0  0
 33 66  1  0  0  0
 33 70  2  0  0  0
 34 36  1  0  0  0
 34 59  1  0  0  0
 34109  1  0  0  0
 35 44  2  0  0  0
 35 45  1  0  0  0
 35 68  1  0  0  0
 36 56  1  0  0  0
 36110  1  0  0  0
 37 39  1  0  0  0
 37 47  1  0  0  0
 37 66  1  0  0  0
 37111  1  0  0  0
 38 43  2  0  0  0
 38 46  1  0  0  0
 38 47  1  0  0  0
 39 64  1  0  0  0
 39 67  2  0  0  0
 40 52  1  0  0  0
 40 53  2  0  0  0
 40 58  1  0  0  0
 41112  1  0  0  0
 41113  1  0  0  0
 41114  1  0  0  0
 41 48  1  0  0  0
 42 43  1  0  0  0
 42 66  1  0  0  0
 42115  1  0  0  0
 42116  1  0  0  0
 43 44  1  0  0  0
 44117  1  0  0  0
 45 46  2  0  0  0
 45118  1  0  0  0
 46119  1  0  0  0
 47120  1  0  0  0
 47121  1  0  0  0
 48 56  1  0  0  0
 48 65  1  0  0  0
 48122  1  0  0  0
 49 50  1  0  0  0
 49 53  1  0  0  0
 49 64  1  0  0  0
 49123  1  0  0  0
 50 51  1  0  0  0
 50124  1  0  0  0
 50125  1  0  0  0
 51 52  1  0  0  0
 51126  1  0  0  0
 51127  1  0  0  0
 52128  1  0  0  0
 52129  1  0  0  0
 53 54  1  0  0  0
 54 55  2  0  0  0
 54130  1  0  0  0
 55 57  1  0  0  0
 55131  1  0  0  0
 56 69  2  0  0  0
 57 58  2  0  0  0
 57132  1  0  0  0
 58133  1  0  0  0
 59 60  1  0  0  0
 59 61  1  0  0  0
 59 62  1  0  0  0
 60134  1  0  0  0
 60135  1  0  0  0
 60136  1  0  0  0
 61137  1  0  0  0
 61138  1  0  0  0
 61139  1  0  0  0
 62140  1  0  0  0
 62141  1  0  0  0
 62142  1  0  0  0
 63 65  1  0  0  0
 63143  1  0  0  0
 63144  1  0  0  0
 63145  1  0  0  0
 64146  1  0  0  0
 65147  1  0  0  0
 68 85  1  0  0  0
 71 72  2  0  0  0
 71 73  1  0  0  0
 71148  1  0  0  0
 72 74  1  0  0  0
 72149  1  0  0  0
 73 76  2  0  0  0
 73150  1  0  0  0
 74 75  2  0  0  0
 74 84  1  0  0  0
 75 76  1  0  0  0
 75 83  1  0  0  0
 76 87  1  0  0  0
 77 78  1  0  0  0
 77 86  1  0  0  0
 77 88  2  0  0  0
 78 81  1  0  0  0
 78151  1  0  0  0
 78152  1  0  0  0
 79 80  1  0  0  0
 79 81  1  0  0  0
 79153  1  0  0  0
 79154  1  0  0  0
 80 86  1  0  0  0
 80155  1  0  0  0
 80156  1  0  0  0
 81 85  1  0  0  0
 81157  1  0  0  0
 82 83  1  0  0  0
 82158  1  0  0  0
 82159  1  0  0  0
 82160  1  0  0  0
 83161  1  0  0  0
 83162  1  0  0  0
 84 86  1  0  0  0
 84163  1  0  0  0
 84164  1  0  0  0
 85165  1  0  0  0
 85166  1  0  0  0
 87167  1  0  0  0
M  ISO  4   1 100  68 101  85 101  87 100
M  END
> <chiral flag>
0

> <version>
0

> <s_m_source_file>
/data/baiqing/PycharmProjects/Reinvent-master-3.2/result/LINK_invent/BTK/process_docking_weight1_custom_product_contain_oxygen_bond_distance_aromatic_linkinvent_7_9_3/rearranged_h_0055.sdf

> <i_m_source_file_index>
42

> <r_mmod_Potential_Energy-OPLS-2005>
16.6660270690918

> <r_mmod_Stretch_Energy-OPLS-2005>
52.8511505126953

> <r_mmod_Bend_Energy-OPLS-2005>
122.327095031738

> <r_mmod_Torsional_Energy-OPLS-2005>
289.677642822266

> <r_mmod_Improper_Torsional_Energy-OPLS-2005>
7.82296562194824

> <r_mmod_Van_der_Waal_Energy-OPLS-2005>
149.595184326172

> <r_mmod_Electrostatic_Energy-OPLS-2005>
-400.053894042969

> <r_mmod_Solvation_Energy-OPLS-2005>
-222.476623535156

> <b_mmod_Minimization_Converged-OPLS-2005>
0

> <r_mmod_RMS_Derivative-OPLS-2005>
1.4958028793335

$$$$
42
                    3D
 Structure written by MMmdl.
158166  0  0  1  0            999 V2000
  -30.7467  -14.3994   20.6337 C   0  0  0  0  0  0
  -30.4125  -12.2888   19.4051 C   0  0  0  0  0  0
  -29.4836  -12.5125   18.1964 C   0  0  0  0  0  0
  -28.0072  -12.3704   18.6133 C   0  0  0  0  0  0
  -27.6604  -13.2041   19.8754 C   0  0  2  0  0  0
  -28.6995  -12.9667   20.9928 C   0  0  0  0  0  0
  -25.2578  -13.8151   20.5676 C   0  0  0  0  0  0
  -24.1826  -13.0430   20.9161 C   0  0  0  0  0  0
  -24.6380  -11.6902   20.8719 C   0  0  0  0  0  0
  -23.9044  -10.4289   21.0393 C   0  0  0  0  0  0
  -24.3608   -9.4208   21.9171 C   0  0  0  0  0  0
  -23.6292   -8.2238   22.0748 C   0  0  0  0  0  0
  -22.4271   -8.0271   21.3540 C   0  0  0  0  0  0
  -21.9897   -9.0237   20.4637 C   0  0  0  0  0  0
  -22.7218  -10.2124   20.3042 C   0  0  0  0  0  0
  -21.6853   -6.0725   22.5279 C   0  0  0  0  0  0
  -21.4015   -6.5635   23.8208 C   0  0  0  0  0  0
  -21.3657   -5.6793   24.9175 C   0  0  0  0  0  0
  -21.6045   -4.3053   24.7230 C   0  0  0  0  0  0
  -21.8822   -3.8140   23.4352 C   0  0  0  0  0  0
  -21.9197   -4.6952   22.3406 C   0  0  0  0  0  0
  -22.7853  -13.5222   21.1843 C   0  0  0  0  0  0
  -22.1666   -4.2137   21.0982 F   0  0  0  0  0  0
  -21.5629   -3.4539   25.7742 F   0  0  0  0  0  0
  -30.0351  -13.2582   20.4431 N   0  0  0  0  0  0
  -26.3011  -12.9318   20.3363 N   0  0  0  0  0  0
  -25.9306  -11.6480   20.5753 N   0  0  0  0  0  0
  -22.0515  -12.8195   22.0409 N   0  0  0  0  0  0
  -25.4309  -15.1875   20.4115 N   0  0  0  0  0  0
  -31.8606  -14.5874   20.1385 O   0  0  0  0  0  0
  -21.6644   -6.8868   21.4238 O   0  0  0  0  0  0
  -22.3526  -14.5536   20.6717 O   0  0  0  0  0  0
  -24.6108  -31.8711   23.2106 C   0  0  0  0  0  0
  -25.9007  -32.4833   23.8406 C   0  0  1  0  0  0
  -27.2420  -27.4746   20.0866 C   0  0  0  0  0  0
  -25.5876  -33.8635   24.2334 N   0  0  0  0  0  0
  -23.3990  -30.4918   21.5510 C   0  0  2  0  0  0
  -24.8491  -28.9598   20.1164 C   0  0  0  0  0  0
  -22.7397  -29.4668   22.5022 C   0  0  0  0  0  0
  -18.0262  -28.1368   22.8498 C   0  0  0  0  0  0
  -24.1487  -36.7335   23.2638 C   0  0  0  0  0  0
  -25.9224  -30.8465   21.3596 C   0  0  0  0  0  0
  -26.0039  -29.4798   20.7170 C   0  0  0  0  0  0
  -27.2055  -28.7388   20.7107 C   0  0  0  0  0  0
  -26.0798  -26.9616   19.4797 C   0  0  0  0  0  0
  -24.8785  -27.6966   19.4975 C   0  0  0  0  0  0
  -23.6062  -29.8196   20.1665 C   0  0  0  0  0  0
  -25.4102  -36.3115   24.0338 C   0  0  1  0  0  0
  -20.5849  -28.3658   23.1324 C   0  0  2  0  0  0
  -20.6746  -26.9397   22.5418 C   0  0  0  0  0  0
  -19.5728  -26.6377   21.5206 C   0  0  0  0  0  0
  -18.1901  -26.7919   22.1616 C   0  0  0  0  0  0
  -19.1513  -28.8837   23.2894 C   0  0  0  0  0  0
  -18.9444  -30.1442   23.8905 C   0  0  0  0  0  0
  -17.6446  -30.6583   24.0561 C   0  0  0  0  0  0
  -25.9027  -34.9479   23.5130 C   0  0  0  0  0  0
  -16.5327  -29.9080   23.6335 C   0  0  0  0  0  0
  -16.7247  -28.6489   23.0365 C   0  0  0  0  0  0
  -26.4433  -31.6611   25.0731 C   0  0  0  0  0  0
  -25.3702  -31.3717   26.1481 C   0  0  0  0  0  0
  -27.0267  -30.3067   24.6078 C   0  0  0  0  0  0
  -27.6003  -32.4339   25.7494 C   0  0  0  0  0  0
  -27.5587  -37.1802   24.8456 C   0  0  0  0  0  0
  -21.4133  -29.3027   22.3734 N   0  0  0  0  0  0
  -26.4295  -37.3795   23.9410 N   0  0  0  0  0  0
  -24.6619  -31.0835   22.0994 N   0  0  0  0  0  0
  -23.4168  -28.8210   23.3073 O   0  0  0  0  0  0
  -28.3969  -26.7402   20.0213 O   0  0  0  0  0  0
  -26.5604  -34.8922   22.4695 O   0  0  0  0  0  0
  -23.5312  -32.1446   23.7528 O   0  0  0  0  0  0
  -30.8819  -17.5962   19.3677 C   0  0  0  0  0  0
  -30.7583  -18.6505   18.4475 C   0  0  0  0  0  0
  -30.0695  -19.0441   21.1442 C   0  0  0  0  0  0
  -30.5301  -17.7770   20.7224 C   0  0  0  0  0  0
  -30.2841  -19.9098   18.8634 C   0  0  0  0  0  0
  -29.9610  -20.1169   20.2307 C   0  0  0  0  0  0
  -29.2292  -23.6221   21.0851 C   0  0  0  0  0  0
  -29.6239  -24.9025   20.9375 C   0  0  0  0  0  0
  -30.1089  -22.5247   20.7223 C   0  0  0  0  0  0
  -30.1137  -20.9968   17.8140 C   0  0  0  0  0  0
  -30.6892  -16.6462   21.7390 C   0  0  0  0  0  0
  -28.7596  -26.1077   21.2399 C   0  0  0  0  0  0
  -29.4521  -21.3548   20.6973 N   0  0  0  0  0  0
  -30.1259  -15.3552   21.3381 N   0  0  0  0  0  0
  -31.3107  -22.6338   20.4611 O   0  0  0  0  0  0
  -31.4568  -12.3806   19.1014 H   0  0  0  0  0  0
  -30.3034  -11.2730   19.7888 H   0  0  0  0  0  0
  -29.7174  -11.8010   17.4037 H   0  0  0  0  0  0
  -29.6526  -13.5057   17.7778 H   0  0  0  0  0  0
  -27.8185  -11.3135   18.8061 H   0  0  0  0  0  0
  -27.3522  -12.6498   17.7871 H   0  0  0  0  0  0
  -27.7117  -14.2545   19.5879 H   0  0  0  0  0  0
  -28.6657  -11.9285   21.3264 H   0  0  0  0  0  0
  -28.4581  -13.5584   21.8763 H   0  0  0  0  0  0
  -25.2758   -9.5691   22.4735 H   0  0  0  0  0  0
  -24.0007   -7.4632   22.7471 H   0  0  0  0  0  0
  -21.0825   -8.8747   19.8942 H   0  0  0  0  0  0
  -22.3669  -10.9659   19.6146 H   0  0  0  0  0  0
  -21.2007   -7.6144   23.9709 H   0  0  0  0  0  0
  -21.1473   -6.0525   25.9079 H   0  0  0  0  0  0
  -22.0605   -2.7601   23.2860 H   0  0  0  0  0  0
  -22.4158  -11.9848   22.4756 H   0  0  0  0  0  0
  -21.1138  -13.1201   22.2660 H   0  0  0  0  0  0
  -24.6660  -15.8455   20.5173 H   0  0  0  0  0  0
  -26.2945  -15.6270   20.1160 H   0  0  0  0  0  0
  -26.7089  -32.5570   23.1197 H   0  0  0  0  0  0
  -25.0028  -33.9802   25.0481 H   0  0  0  0  0  0
  -22.6861  -31.3063   21.4114 H   0  0  0  0  0  0
  -23.3738  -35.9681   23.3280 H   0  0  0  0  0  0
  -24.3578  -36.8982   22.2056 H   0  0  0  0  0  0
  -23.7257  -37.6537   23.6672 H   0  0  0  0  0  0
  -26.0214  -31.6068   20.5832 H   0  0  0  0  0  0
  -26.8138  -30.9085   21.9710 H   0  0  0  0  0  0
  -28.1022  -29.1384   21.1644 H   0  0  0  0  0  0
  -26.1075  -25.9969   18.9925 H   0  0  0  0  0  0
  -23.9935  -27.2939   19.0248 H   0  0  0  0  0  0
  -23.7031  -30.5906   19.4013 H   0  0  0  0  0  0
  -22.7331  -29.2300   19.8796 H   0  0  0  0  0  0
  -25.1270  -36.1980   25.0835 H   0  0  0  0  0  0
  -20.9916  -28.3214   24.1454 H   0  0  0  0  0  0
  -20.5644  -26.2265   23.3604 H   0  0  0  0  0  0
  -21.6622  -26.7452   22.1217 H   0  0  0  0  0  0
  -19.6895  -25.6286   21.1246 H   0  0  0  0  0  0
  -19.6672  -27.3181   20.6728 H   0  0  0  0  0  0
  -17.4175  -26.6683   21.3994 H   0  0  0  0  0  0
  -18.0282  -26.0050   22.9007 H   0  0  0  0  0  0
  -19.7933  -30.7236   24.2284 H   0  0  0  0  0  0
  -17.5016  -31.6271   24.5149 H   0  0  0  0  0  0
  -15.5329  -30.2974   23.7688 H   0  0  0  0  0  0
  -15.8642  -28.0800   22.7095 H   0  0  0  0  0  0
  -24.5886  -30.7041   25.7824 H   0  0  0  0  0  0
  -24.8861  -32.2867   26.4920 H   0  0  0  0  0  0
  -25.8059  -30.8914   27.0253 H   0  0  0  0  0  0
  -26.2810  -29.6824   24.1146 H   0  0  0  0  0  0
  -27.4068  -29.7300   25.4519 H   0  0  0  0  0  0
  -27.8612  -30.4408   23.9194 H   0  0  0  0  0  0
  -27.2622  -33.3653   26.2061 H   0  0  0  0  0  0
  -28.3802  -32.6893   25.0302 H   0  0  0  0  0  0
  -28.0664  -31.8474   26.5420 H   0  0  0  0  0  0
  -28.2570  -38.0131   24.7521 H   0  0  0  0  0  0
  -28.1111  -36.2651   24.6241 H   0  0  0  0  0  0
  -27.2303  -37.1409   25.8860 H   0  0  0  0  0  0
  -20.9301  -29.8736   21.6938 H   0  0  0  0  0  0
  -26.0179  -38.2878   24.1402 H   0  0  0  0  0  0
  -31.2608  -16.6527   19.0085 H   0  0  0  0  0  0
  -31.0289  -18.4827   17.4144 H   0  0  0  0  0  0
  -29.8072  -19.1989   22.1825 H   0  0  0  0  0  0
  -28.2377  -23.4183   21.4645 H   0  0  0  0  0  0
  -30.6119  -25.1266   20.5575 H   0  0  0  0  0  0
  -30.0460  -20.5682   16.8137 H   0  0  0  0  0  0
  -30.9640  -21.6783   17.8287 H   0  0  0  0  0  0
  -29.2025  -21.5709   17.9826 H   0  0  0  0  0  0
  -30.2106  -16.9321   22.6766 H   0  0  0  0  0  0
  -31.7491  -16.5339   21.9754 H   0  0  0  0  0  0
  -29.3157  -26.8045   21.8677 H   0  0  0  0  0  0
  -27.8742  -25.7945   21.7996 H   0  0  0  0  0  0
  -28.5037  -21.3541   21.0456 H   0  0  0  0  0  0
  -29.1999  -15.1378   21.6748 H   0  0  0  0  0  0
  1 25  1  0  0  0
  1 30  2  0  0  0
  1 84  1  0  0  0
  2  3  1  0  0  0
  2 25  1  0  0  0
  2 86  1  0  0  0
  2 87  1  0  0  0
  3  4  1  0  0  0
  3 88  1  0  0  0
  3 89  1  0  0  0
  4  5  1  0  0  0
  4 90  1  0  0  0
  4 91  1  0  0  0
  5  6  1  0  0  0
  5 26  1  0  0  0
  5 92  1  0  0  0
  6 25  1  0  0  0
  6 93  1  0  0  0
  6 94  1  0  0  0
  7  8  2  0  0  0
  7 26  1  0  0  0
  7 29  1  0  0  0
  8  9  1  0  0  0
  8 22  1  0  0  0
  9 10  1  0  0  0
  9 27  2  0  0  0
 10 11  2  0  0  0
 10 15  1  0  0  0
 11 12  1  0  0  0
 11 95  1  0  0  0
 12 13  2  0  0  0
 12 96  1  0  0  0
 13 14  1  0  0  0
 13 31  1  0  0  0
 14 15  2  0  0  0
 14 97  1  0  0  0
 15 98  1  0  0  0
 16 17  2  0  0  0
 16 21  1  0  0  0
 16 31  1  0  0  0
 17 18  1  0  0  0
 17 99  1  0  0  0
 18 19  2  0  0  0
 18100  1  0  0  0
 19 20  1  0  0  0
 19 24  1  0  0  0
 20 21  2  0  0  0
 20101  1  0  0  0
 21 23  1  0  0  0
 22 28  1  0  0  0
 22 32  2  0  0  0
 26 27  1  0  0  0
 28102  1  0  0  0
 28103  1  0  0  0
 29104  1  0  0  0
 29105  1  0  0  0
 33 34  1  0  0  0
 33 66  1  0  0  0
 33 70  2  0  0  0
 34 36  1  0  0  0
 34 59  1  0  0  0
 34106  1  0  0  0
 35 44  2  0  0  0
 35 45  1  0  0  0
 35 68  1  0  0  0
 36 56  1  0  0  0
 36107  1  0  0  0
 37 39  1  0  0  0
 37 47  1  0  0  0
 37 66  1  0  0  0
 37108  1  0  0  0
 38 43  2  0  0  0
 38 46  1  0  0  0
 38 47  1  0  0  0
 39 64  1  0  0  0
 39 67  2  0  0  0
 40 52  1  0  0  0
 40 53  2  0  0  0
 40 58  1  0  0  0
 41109  1  0  0  0
 41110  1  0  0  0
 41111  1  0  0  0
 41 48  1  0  0  0
 42 43  1  0  0  0
 42 66  1  0  0  0
 42112  1  0  0  0
 42113  1  0  0  0
 43 44  1  0  0  0
 44114  1  0  0  0
 45 46  2  0  0  0
 45115  1  0  0  0
 46116  1  0  0  0
 47117  1  0  0  0
 47118  1  0  0  0
 48 56  1  0  0  0
 48 65  1  0  0  0
 48119  1  0  0  0
 49 50  1  0  0  0
 49 53  1  0  0  0
 49 64  1  0  0  0
 49120  1  0  0  0
 50 51  1  0  0  0
 50121  1  0  0  0
 50122  1  0  0  0
 51 52  1  0  0  0
 51123  1  0  0  0
 51124  1  0  0  0
 52125  1  0  0  0
 52126  1  0  0  0
 53 54  1  0  0  0
 54 55  2  0  0  0
 54127  1  0  0  0
 55 57  1  0  0  0
 55128  1  0  0  0
 56 69  2  0  0  0
 57 58  2  0  0  0
 57129  1  0  0  0
 58130  1  0  0  0
 59 60  1  0  0  0
 59 61  1  0  0  0
 59 62  1  0  0  0
 60131  1  0  0  0
 60132  1  0  0  0
 60133  1  0  0  0
 61134  1  0  0  0
 61135  1  0  0  0
 61136  1  0  0  0
 62137  1  0  0  0
 62138  1  0  0  0
 62139  1  0  0  0
 63 65  1  0  0  0
 63140  1  0  0  0
 63141  1  0  0  0
 63142  1  0  0  0
 64143  1  0  0  0
 65144  1  0  0  0
 68 82  1  0  0  0
 71 72  2  0  0  0
 71 74  1  0  0  0
 71145  1  0  0  0
 72 75  1  0  0  0
 72146  1  0  0  0
 73 74  2  0  0  0
 73 76  1  0  0  0
 73147  1  0  0  0
 74 81  1  0  0  0
 75 76  2  0  0  0
 75 80  1  0  0  0
 76 83  1  0  0  0
 77 78  2  0  0  0
 77 79  1  0  0  0
 77148  1  0  0  0
 78 82  1  0  0  0
 78149  1  0  0  0
 79 83  1  0  0  0
 79 85  2  0  0  0
 80150  1  0  0  0
 80151  1  0  0  0
 80152  1  0  0  0
 81 84  1  0  0  0
 81153  1  0  0  0
 81154  1  0  0  0
 82155  1  0  0  0
 82156  1  0  0  0
 83157  1  0  0  0
 84158  1  0  0  0
M  ISO  4   1 100  68 101  82 101  84 100
M  END
> <chiral flag>
0

> <version>
0

> <s_m_source_file>
/data/baiqing/PycharmProjects/Reinvent-master-3.2/result/LINK_invent/BTK/process_docking_weight1_custom_product_contain_oxygen_bond_distance_aromatic_linkinvent_7_9_3/rearranged_h_0055.sdf

> <i_m_source_file_index>
43

> <r_mmod_Potential_Energy-OPLS-2005>
-188.316818237305

> <r_mmod_Stretch_Energy-OPLS-2005>
31.8676567077637

> <r_mmod_Bend_Energy-OPLS-2005>
86.4751358032227

> <r_mmod_Torsional_Energy-OPLS-2005>
245.669921875

> <r_mmod_Improper_Torsional_Energy-OPLS-2005>
2.3802502155304

> <r_mmod_Van_der_Waal_Energy-OPLS-2005>
155.936676025391

> <r_mmod_Electrostatic_Energy-OPLS-2005>
-484.646240234375

> <r_mmod_Solvation_Energy-OPLS-2005>
-234.603149414062

> <b_mmod_Minimization_Converged-OPLS-2005>
0

> <r_mmod_RMS_Derivative-OPLS-2005>
1.8924617767334

$$$$
43
                    3D
 Structure written by MMmdl.
161170  0  0  1  0            999 V2000
  -30.5627  -14.8063   20.4226 C   0  0  0  0  0  0
  -30.4409  -12.4812   19.4905 C   0  0  0  0  0  0
  -29.5181  -12.5024   18.2505 C   0  0  0  0  0  0
  -28.0466  -12.3041   18.6627 C   0  0  0  0  0  0
  -27.6420  -13.2005   19.8598 C   0  0  2  0  0  0
  -28.6868  -13.1715   20.9961 C   0  0  0  0  0  0
  -25.2538  -13.8111   20.5718 C   0  0  0  0  0  0
  -24.1794  -13.0397   20.9196 C   0  0  0  0  0  0
  -24.6345  -11.6866   20.8753 C   0  0  0  0  0  0
  -23.9023  -10.4263   21.0414 C   0  0  0  0  0  0
  -24.3597   -9.4189   21.9185 C   0  0  0  0  0  0
  -23.6282   -8.2222   22.0745 C   0  0  0  0  0  0
  -22.4260   -8.0261   21.3539 C   0  0  0  0  0  0
  -21.9882   -9.0232   20.4647 C   0  0  0  0  0  0
  -22.7199  -10.2115   20.3062 C   0  0  0  0  0  0
  -21.6849   -6.0720   22.5275 C   0  0  0  0  0  0
  -21.4008   -6.5629   23.8205 C   0  0  0  0  0  0
  -21.3659   -5.6786   24.9172 C   0  0  0  0  0  0
  -21.6051   -4.3047   24.7226 C   0  0  0  0  0  0
  -21.8825   -3.8135   23.4345 C   0  0  0  0  0  0
  -21.9191   -4.6951   22.3400 C   0  0  0  0  0  0
  -22.7823  -13.5213   21.1847 C   0  0  0  0  0  0
  -22.1661   -4.2138   21.0977 F   0  0  0  0  0  0
  -21.5632   -3.4533   25.7739 F   0  0  0  0  0  0
  -29.9853  -13.5488   20.4171 N   0  0  0  0  0  0
  -26.2932  -12.9246   20.3341 N   0  0  0  0  0  0
  -25.9274  -11.6424   20.5803 N   0  0  0  0  0  0
  -22.0462  -12.8236   22.0427 N   0  0  0  0  0  0
  -25.4248  -15.1838   20.4158 N   0  0  0  0  0  0
  -31.7229  -14.9395   20.0196 O   0  0  0  0  0  0
  -21.6630   -6.8858   21.4232 O   0  0  0  0  0  0
  -22.3520  -14.5511   20.6673 O   0  0  0  0  0  0
  -24.6294  -31.8501   23.1921 C   0  0  0  0  0  0
  -25.9117  -32.4723   23.8287 C   0  0  1  0  0  0
  -27.2453  -27.2546   20.1286 C   0  0  0  0  0  0
  -25.5907  -33.8532   24.2207 N   0  0  0  0  0  0
  -23.4299  -30.4638   21.5331 C   0  0  2  0  0  0
  -24.8831  -28.8983   20.0996 C   0  0  0  0  0  0
  -22.7499  -29.4556   22.4900 C   0  0  0  0  0  0
  -18.0291  -28.1383   22.8487 C   0  0  0  0  0  0
  -24.1491  -36.7271   23.2644 C   0  0  0  0  0  0
  -25.9719  -30.7550   21.3771 C   0  0  0  0  0  0
  -26.0448  -29.3773   20.7145 C   0  0  0  0  0  0
  -27.2176  -28.5627   20.7215 C   0  0  0  0  0  0
  -26.0693  -26.8337   19.4763 C   0  0  0  0  0  0
  -24.9013  -27.6368   19.4696 C   0  0  0  0  0  0
  -23.6485  -29.7825   20.1515 C   0  0  0  0  0  0
  -25.4123  -36.3054   24.0321 C   0  0  1  0  0  0
  -20.5891  -28.3686   23.1276 C   0  0  2  0  0  0
  -20.6770  -26.9404   22.5412 C   0  0  0  0  0  0
  -19.5749  -26.6379   21.5213 C   0  0  0  0  0  0
  -18.1929  -26.7927   22.1623 C   0  0  0  0  0  0
  -19.1542  -28.8853   23.2874 C   0  0  0  0  0  0
  -18.9467  -30.1456   23.8890 C   0  0  0  0  0  0
  -17.6465  -30.6587   24.0558 C   0  0  0  0  0  0
  -25.9061  -34.9426   23.5076 C   0  0  0  0  0  0
  -16.5355  -29.9080   23.6338 C   0  0  0  0  0  0
  -16.7274  -28.6495   23.0361 C   0  0  0  0  0  0
  -26.4477  -31.6585   25.0710 C   0  0  0  0  0  0
  -25.3693  -31.3772   26.1433 C   0  0  0  0  0  0
  -27.0338  -30.2990   24.6263 C   0  0  0  0  0  0
  -27.6020  -32.4352   25.7473 C   0  0  0  0  0  0
  -27.5587  -37.1787   24.8461 C   0  0  0  0  0  0
  -21.4203  -29.3023   22.3656 N   0  0  0  0  0  0
  -26.4296  -37.3759   23.9405 N   0  0  0  0  0  0
  -24.6950  -31.0437   22.0897 N   0  0  0  0  0  0
  -23.4187  -28.8134   23.3038 O   0  0  0  0  0  0
  -28.3715  -26.4221   20.3061 O   0  0  0  0  0  0
  -26.5654  -34.8909   22.4659 O   0  0  0  0  0  0
  -23.5444  -32.1339   23.7209 O   0  0  0  0  0  0
  -27.5940  -18.1815   18.7861 C   0  0  0  0  0  0
  -27.9991  -19.4904   19.0885 C   0  0  0  0  0  0
  -28.2872  -17.0663   19.2881 C   0  0  0  0  0  0
  -29.1409  -19.7390   19.8719 C   0  0  0  0  0  0
  -29.8195  -18.5583   20.4397 C   0  0  0  0  0  0
  -29.3893  -17.1796   20.1631 C   0  0  0  0  0  0
  -29.9655  -22.9354   21.4958 C   0  0  0  0  0  0
  -30.3175  -24.4305   21.5456 C   0  0  0  0  0  0
  -30.2352  -25.0728   20.1400 C   0  0  0  0  0  0
  -28.2142  -23.6022   19.9333 C   0  0  0  0  0  0
  -28.7731  -25.1188   19.6676 C   0  0  1  0  0  0
  -31.0235  -18.7773   21.3361 C   0  0  0  0  0  0
  -29.6726  -21.2479   19.7677 C   0  0  0  0  0  0
  -29.1644  -22.5156   20.4903 N   0  0  0  0  0  0
  -29.7990  -15.8999   20.8306 N   0  0  0  0  0  0
  -30.5375  -22.1631   22.2700 O   0  0  0  0  0  0
  -31.4803  -12.6158   19.1866 H   0  0  0  0  0  0
  -30.3998  -11.5090   19.9841 H   0  0  0  0  0  0
  -29.8153  -11.7239   17.5464 H   0  0  0  0  0  0
  -29.6308  -13.4517   17.7248 H   0  0  0  0  0  0
  -27.9182  -11.2551   18.9325 H   0  0  0  0  0  0
  -27.3867  -12.4832   17.8123 H   0  0  0  0  0  0
  -27.6204  -14.2015   19.4617 H   0  0  0  0  0  0
  -28.7407  -12.1799   21.4461 H   0  0  0  0  0  0
  -28.3980  -13.8524   21.7988 H   0  0  0  0  0  0
  -25.2748   -9.5671   22.4754 H   0  0  0  0  0  0
  -23.9996   -7.4613   22.7459 H   0  0  0  0  0  0
  -21.0810   -8.8748   19.8966 H   0  0  0  0  0  0
  -22.3647  -10.9659   19.6180 H   0  0  0  0  0  0
  -21.1995   -7.6139   23.9702 H   0  0  0  0  0  0
  -21.1479   -6.0518   25.9074 H   0  0  0  0  0  0
  -22.0604   -2.7596   23.2848 H   0  0  0  0  0  0
  -22.4063  -11.9918   22.4865 H   0  0  0  0  0  0
  -21.1076  -13.1270   22.2612 H   0  0  0  0  0  0
  -24.6575  -15.8367   20.5357 H   0  0  0  0  0  0
  -26.2853  -15.6361   20.1387 H   0  0  0  0  0  0
  -26.7183  -32.5347   23.1020 H   0  0  0  0  0  0
  -25.0015  -33.9660   25.0326 H   0  0  0  0  0  0
  -22.7274  -31.2855   21.3795 H   0  0  0  0  0  0
  -23.3762  -35.9595   23.3293 H   0  0  0  0  0  0
  -24.3579  -36.8913   22.2061 H   0  0  0  0  0  0
  -23.7234  -37.6461   23.6684 H   0  0  0  0  0  0
  -26.1253  -31.5187   20.6137 H   0  0  0  0  0  0
  -26.8427  -30.7947   22.0204 H   0  0  0  0  0  0
  -28.1026  -28.9173   21.2311 H   0  0  0  0  0  0
  -26.0350  -25.8559   19.0164 H   0  0  0  0  0  0
  -24.0089  -27.2633   18.9859 H   0  0  0  0  0  0
  -23.7651  -30.5525   19.3883 H   0  0  0  0  0  0
  -22.7691  -29.2082   19.8555 H   0  0  0  0  0  0
  -25.1312  -36.1891   25.0817 H   0  0  0  0  0  0
  -20.9984  -28.3260   24.1395 H   0  0  0  0  0  0
  -20.5663  -26.2296   23.3614 H   0  0  0  0  0  0
  -21.6638  -26.7420   22.1208 H   0  0  0  0  0  0
  -19.6904  -25.6286   21.1247 H   0  0  0  0  0  0
  -19.6686  -27.3184   20.6740 H   0  0  0  0  0  0
  -17.4198  -26.6683   21.4020 H   0  0  0  0  0  0
  -18.0321  -26.0063   22.9015 H   0  0  0  0  0  0
  -19.7942  -30.7275   24.2252 H   0  0  0  0  0  0
  -17.5019  -31.6269   24.5156 H   0  0  0  0  0  0
  -15.5352  -30.2978   23.7669 H   0  0  0  0  0  0
  -15.8674  -28.0808   22.7089 H   0  0  0  0  0  0
  -24.5835  -30.7158   25.7758 H   0  0  0  0  0  0
  -24.8923  -32.2961   26.4853 H   0  0  0  0  0  0
  -25.7990  -30.8934   27.0214 H   0  0  0  0  0  0
  -26.2946  -29.6726   24.1256 H   0  0  0  0  0  0
  -27.3946  -29.7277   25.4827 H   0  0  0  0  0  0
  -27.8850  -30.4236   23.9568 H   0  0  0  0  0  0
  -27.2600  -33.3625   26.2083 H   0  0  0  0  0  0
  -28.3798  -32.6976   25.0287 H   0  0  0  0  0  0
  -28.0741  -31.8484   26.5362 H   0  0  0  0  0  0
  -28.2599  -38.0089   24.7517 H   0  0  0  0  0  0
  -28.1090  -36.2623   24.6274 H   0  0  0  0  0  0
  -27.2311  -37.1417   25.8865 H   0  0  0  0  0  0
  -20.9402  -29.8706   21.6818 H   0  0  0  0  0  0
  -26.0174  -38.2832   24.1401 H   0  0  0  0  0  0
  -26.7432  -18.0283   18.1372 H   0  0  0  0  0  0
  -27.4683  -20.3158   18.6332 H   0  0  0  0  0  0
  -27.9156  -16.1067   18.9897 H   0  0  0  0  0  0
  -31.3276  -24.5393   21.9401 H   0  0  0  0  0  0
  -29.6495  -24.9334   22.2450 H   0  0  0  0  0  0
  -30.8302  -24.4873   19.4360 H   0  0  0  0  0  0
  -30.6848  -26.0667   20.1430 H   0  0  0  0  0  0
  -27.7953  -23.2227   19.0014 H   0  0  0  0  0  0
  -27.3650  -23.6675   20.6149 H   0  0  0  0  0  0
  -28.7641  -25.2962   18.5912 H   0  0  0  0  0  0
  -31.8455  -19.2205   20.7741 H   0  0  0  0  0  0
  -31.3843  -17.8444   21.7679 H   0  0  0  0  0  0
  -30.7657  -19.4451   22.1582 H   0  0  0  0  0  0
  -29.5889  -21.4985   18.7094 H   0  0  0  0  0  0
  -30.7556  -21.1835   19.8899 H   0  0  0  0  0  0
  -29.0325  -15.5353   21.3759 H   0  0  0  0  0  0
  1 25  1  0  0  0
  1 30  2  0  0  0
  1 85  1  0  0  0
  2  3  1  0  0  0
  2 25  1  0  0  0
  2 87  1  0  0  0
  2 88  1  0  0  0
  3  4  1  0  0  0
  3 89  1  0  0  0
  3 90  1  0  0  0
  4  5  1  0  0  0
  4 91  1  0  0  0
  4 92  1  0  0  0
  5  6  1  0  0  0
  5 26  1  0  0  0
  5 93  1  0  0  0
  6 25  1  0  0  0
  6 94  1  0  0  0
  6 95  1  0  0  0
  7  8  2  0  0  0
  7 26  1  0  0  0
  7 29  1  0  0  0
  8  9  1  0  0  0
  8 22  1  0  0  0
  9 10  1  0  0  0
  9 27  2  0  0  0
 10 11  2  0  0  0
 10 15  1  0  0  0
 11 12  1  0  0  0
 11 96  1  0  0  0
 12 13  2  0  0  0
 12 97  1  0  0  0
 13 14  1  0  0  0
 13 31  1  0  0  0
 14 15  2  0  0  0
 14 98  1  0  0  0
 15 99  1  0  0  0
 16 17  2  0  0  0
 16 21  1  0  0  0
 16 31  1  0  0  0
 17 18  1  0  0  0
 17100  1  0  0  0
 18 19  2  0  0  0
 18101  1  0  0  0
 19 20  1  0  0  0
 19 24  1  0  0  0
 20 21  2  0  0  0
 20102  1  0  0  0
 21 23  1  0  0  0
 22 28  1  0  0  0
 22 32  2  0  0  0
 26 27  1  0  0  0
 28103  1  0  0  0
 28104  1  0  0  0
 29105  1  0  0  0
 29106  1  0  0  0
 33 34  1  0  0  0
 33 66  1  0  0  0
 33 70  2  0  0  0
 34 36  1  0  0  0
 34 59  1  0  0  0
 34107  1  0  0  0
 35 44  2  0  0  0
 35 45  1  0  0  0
 35 68  1  0  0  0
 36 56  1  0  0  0
 36108  1  0  0  0
 37 39  1  0  0  0
 37 47  1  0  0  0
 37 66  1  0  0  0
 37109  1  0  0  0
 38 43  2  0  0  0
 38 46  1  0  0  0
 38 47  1  0  0  0
 39 64  1  0  0  0
 39 67  2  0  0  0
 40 52  1  0  0  0
 40 53  2  0  0  0
 40 58  1  0  0  0
 41110  1  0  0  0
 41111  1  0  0  0
 41112  1  0  0  0
 41 48  1  0  0  0
 42 43  1  0  0  0
 42 66  1  0  0  0
 42113  1  0  0  0
 42114  1  0  0  0
 43 44  1  0  0  0
 44115  1  0  0  0
 45 46  2  0  0  0
 45116  1  0  0  0
 46117  1  0  0  0
 47118  1  0  0  0
 47119  1  0  0  0
 48 56  1  0  0  0
 48 65  1  0  0  0
 48120  1  0  0  0
 49 50  1  0  0  0
 49 53  1  0  0  0
 49 64  1  0  0  0
 49121  1  0  0  0
 50 51  1  0  0  0
 50122  1  0  0  0
 50123  1  0  0  0
 51 52  1  0  0  0
 51124  1  0  0  0
 51125  1  0  0  0
 52126  1  0  0  0
 52127  1  0  0  0
 53 54  1  0  0  0
 54 55  2  0  0  0
 54128  1  0  0  0
 55 57  1  0  0  0
 55129  1  0  0  0
 56 69  2  0  0  0
 57 58  2  0  0  0
 57130  1  0  0  0
 58131  1  0  0  0
 59 60  1  0  0  0
 59 61  1  0  0  0
 59 62  1  0  0  0
 60132  1  0  0  0
 60133  1  0  0  0
 60134  1  0  0  0
 61135  1  0  0  0
 61136  1  0  0  0
 61137  1  0  0  0
 62138  1  0  0  0
 62139  1  0  0  0
 62140  1  0  0  0
 63 65  1  0  0  0
 63141  1  0  0  0
 63142  1  0  0  0
 63143  1  0  0  0
 64144  1  0  0  0
 65145  1  0  0  0
 68 81  1  0  0  0
 71 72  2  0  0  0
 71 73  1  0  0  0
 71146  1  0  0  0
 72 74  1  0  0  0
 72147  1  0  0  0
 73 76  2  0  0  0
 73148  1  0  0  0
 74 75  2  0  0  0
 74 83  1  0  0  0
 75 76  1  0  0  0
 75 82  1  0  0  0
 76 85  1  0  0  0
 77 78  1  0  0  0
 77 84  1  0  0  0
 77 86  2  0  0  0
 78 79  1  0  0  0
 78149  1  0  0  0
 78150  1  0  0  0
 79 81  1  0  0  0
 79151  1  0  0  0
 79152  1  0  0  0
 80 81  1  0  0  0
 80 84  1  0  0  0
 80153  1  0  0  0
 80154  1  0  0  0
 81155  1  0  0  0
 82156  1  0  0  0
 82157  1  0  0  0
 82158  1  0  0  0
 83 84  1  0  0  0
 83159  1  0  0  0
 83160  1  0  0  0
 85161  1  0  0  0
M  ISO  4   1 100  68 101  81 101  85 100
M  END
> <chiral flag>
0

> <version>
0

> <s_m_source_file>
/data/baiqing/PycharmProjects/Reinvent-master-3.2/result/LINK_invent/BTK/process_docking_weight1_custom_product_contain_oxygen_bond_distance_aromatic_linkinvent_7_9_3/rearranged_h_0055.sdf

> <i_m_source_file_index>
44

> <r_mmod_Potential_Energy-OPLS-2005>
347.248443603516

> <r_mmod_Stretch_Energy-OPLS-2005>
152.411163330078

> <r_mmod_Bend_Energy-OPLS-2005>
278.820220947266

> <r_mmod_Torsional_Energy-OPLS-2005>
319.154235839844

> <r_mmod_Improper_Torsional_Energy-OPLS-2005>
11.6138191223145

> <r_mmod_Van_der_Waal_Energy-OPLS-2005>
138.52507019043

> <r_mmod_Electrostatic_Energy-OPLS-2005>
-427.702392578125

> <r_mmod_Solvation_Energy-OPLS-2005>
-232.080307006836

> <b_mmod_Minimization_Converged-OPLS-2005>
0

> <r_mmod_RMS_Derivative-OPLS-2005>
1.31399857997894

$$$$
44
                    3D
 Structure written by MMmdl.
153161  0  0  1  0            999 V2000
  -30.6095  -14.7408   20.4566 C   0  0  0  0  0  0
  -30.4329  -12.4522   19.4622 C   0  0  0  0  0  0
  -29.5081  -12.4995   18.2271 C   0  0  0  0  0  0
  -28.0350  -12.3208   18.6449 C   0  0  0  0  0  0
  -27.6390  -13.2275   19.8408 C   0  0  2  0  0  0
  -28.6851  -13.1667   20.9744 C   0  0  0  0  0  0
  -25.2499  -13.8179   20.5673 C   0  0  0  0  0  0
  -24.1796  -13.0430   20.9211 C   0  0  0  0  0  0
  -24.6389  -11.6910   20.8755 C   0  0  0  0  0  0
  -23.9066  -10.4287   21.0411 C   0  0  0  0  0  0
  -24.3619   -9.4203   21.9185 C   0  0  0  0  0  0
  -23.6294   -8.2243   22.0757 C   0  0  0  0  0  0
  -22.4274   -8.0281   21.3548 C   0  0  0  0  0  0
  -21.9909   -9.0255   20.4650 C   0  0  0  0  0  0
  -22.7242  -10.2134   20.3057 C   0  0  0  0  0  0
  -21.6849   -6.0738   22.5282 C   0  0  0  0  0  0
  -21.4011   -6.5641   23.8216 C   0  0  0  0  0  0
  -21.3658   -5.6792   24.9177 C   0  0  0  0  0  0
  -21.6041   -4.3056   24.7225 C   0  0  0  0  0  0
  -21.8820   -3.8149   23.4346 C   0  0  0  0  0  0
  -21.9191   -4.6966   22.3402 C   0  0  0  0  0  0
  -22.7818  -13.5220   21.1867 C   0  0  0  0  0  0
  -22.1661   -4.2158   21.0978 F   0  0  0  0  0  0
  -21.5630   -3.4536   25.7733 F   0  0  0  0  0  0
  -29.9829  -13.5178   20.3850 N   0  0  0  0  0  0
  -26.2922  -12.9383   20.3230 N   0  0  0  0  0  0
  -25.9311  -11.6533   20.5730 N   0  0  0  0  0  0
  -22.0458  -12.8223   22.0425 N   0  0  0  0  0  0
  -25.4158  -15.1903   20.4084 N   0  0  0  0  0  0
  -31.8107  -14.8274   20.1840 O   0  0  0  0  0  0
  -21.6636   -6.8882   21.4244 O   0  0  0  0  0  0
  -22.3505  -14.5519   20.6699 O   0  0  0  0  0  0
  -24.6300  -31.8559   23.1963 C   0  0  0  0  0  0
  -25.9124  -32.4759   23.8318 C   0  0  1  0  0  0
  -27.2253  -27.2724   20.1352 C   0  0  0  0  0  0
  -25.5914  -33.8559   24.2244 N   0  0  0  0  0  0
  -23.4268  -30.4761   21.5398 C   0  0  2  0  0  0
  -24.8752  -28.9144   20.1176 C   0  0  0  0  0  0
  -22.7490  -29.4615   22.4920 C   0  0  0  0  0  0
  -18.0289  -28.1397   22.8488 C   0  0  0  0  0  0
  -24.1485  -36.7281   23.2641 C   0  0  0  0  0  0
  -25.9704  -30.7717   21.3727 C   0  0  0  0  0  0
  -26.0467  -29.3920   20.7208 C   0  0  0  0  0  0
  -27.2288  -28.5852   20.7127 C   0  0  0  0  0  0
  -26.0327  -26.8494   19.5153 C   0  0  0  0  0  0
  -24.8724  -27.6508   19.5030 C   0  0  0  0  0  0
  -23.6455  -29.8018   20.1590 C   0  0  0  0  0  0
  -25.4113  -36.3067   24.0324 C   0  0  1  0  0  0
  -20.5890  -28.3701   23.1273 C   0  0  2  0  0  0
  -20.6778  -26.9419   22.5409 C   0  0  0  0  0  0
  -19.5752  -26.6388   21.5214 C   0  0  0  0  0  0
  -18.1935  -26.7936   22.1627 C   0  0  0  0  0  0
  -19.1542  -28.8868   23.2877 C   0  0  0  0  0  0
  -18.9464  -30.1469   23.8891 C   0  0  0  0  0  0
  -17.6463  -30.6594   24.0568 C   0  0  0  0  0  0
  -25.9054  -34.9442   23.5091 C   0  0  0  0  0  0
  -16.5356  -29.9091   23.6338 C   0  0  0  0  0  0
  -16.7274  -28.6513   23.0353 C   0  0  0  0  0  0
  -26.4493  -31.6585   25.0709 C   0  0  0  0  0  0
  -25.3709  -31.3747   26.1426 C   0  0  0  0  0  0
  -27.0342  -30.3001   24.6190 C   0  0  0  0  0  0
  -27.6049  -32.4327   25.7478 C   0  0  0  0  0  0
  -27.5576  -37.1794   24.8461 C   0  0  0  0  0  0
  -21.4199  -29.3048   22.3661 N   0  0  0  0  0  0
  -26.4286  -37.3766   23.9407 N   0  0  0  0  0  0
  -24.6949  -31.0524   22.0932 N   0  0  0  0  0  0
  -23.4190  -28.8175   23.3035 O   0  0  0  0  0  0
  -28.3296  -26.3989   20.1178 O   0  0  0  0  0  0
  -26.5630  -34.8919   22.4660 O   0  0  0  0  0  0
  -23.5448  -32.1372   23.7266 O   0  0  0  0  0  0
  -31.6737  -18.9479   21.7895 C   0  0  0  0  0  0
  -30.8965  -20.0349   21.3456 C   0  0  0  0  0  0
  -31.3187  -17.6187   21.4955 C   0  0  0  0  0  0
  -29.7316  -19.8521   20.5695 C   0  0  0  0  0  0
  -29.3650  -18.4597   20.2983 C   0  0  0  0  0  0
  -30.1599  -17.3127   20.7497 C   0  0  0  0  0  0
  -29.0070  -21.1396   20.0860 C   0  0  0  0  0  0
  -29.0968  -22.4491   20.5505 C   0  0  0  0  0  0
  -28.4635  -23.7210   19.9370 C   0  0  0  0  0  0
  -28.1070  -18.2045   19.4848 C   0  0  0  0  0  0
  -28.2066  -25.0585   20.7831 C   0  0  0  0  0  0
  -29.8133  -15.8772   20.5605 N   0  0  0  0  0  0
  -28.1165  -23.7290   18.7518 O   0  0  0  0  0  0
  -31.4727  -12.5820   19.1571 H   0  0  0  0  0  0
  -30.3817  -11.4773   19.9496 H   0  0  0  0  0  0
  -29.7931  -11.7252   17.5137 H   0  0  0  0  0  0
  -29.6326  -13.4522   17.7098 H   0  0  0  0  0  0
  -27.8985  -11.2739   18.9178 H   0  0  0  0  0  0
  -27.3756  -12.5014   17.7954 H   0  0  0  0  0  0
  -27.6294  -14.2460   19.4520 H   0  0  0  0  0  0
  -28.7216  -12.1712   21.4190 H   0  0  0  0  0  0
  -28.4224  -13.8546   21.7799 H   0  0  0  0  0  0
  -25.2765   -9.5677   22.4758 H   0  0  0  0  0  0
  -24.0003   -7.4629   22.7471 H   0  0  0  0  0  0
  -21.0842   -8.8773   19.8953 H   0  0  0  0  0  0
  -22.3699  -10.9673   19.6166 H   0  0  0  0  0  0
  -21.2002   -7.6150   23.9723 H   0  0  0  0  0  0
  -21.1478   -6.0520   25.9080 H   0  0  0  0  0  0
  -22.0599   -2.7613   23.2838 H   0  0  0  0  0  0
  -22.4072  -11.9892   22.4828 H   0  0  0  0  0  0
  -21.1076  -13.1255   22.2619 H   0  0  0  0  0  0
  -24.6405  -15.8356   20.5135 H   0  0  0  0  0  0
  -26.2501  -15.6327   20.0500 H   0  0  0  0  0  0
  -26.7198  -32.5413   23.1068 H   0  0  0  0  0  0
  -25.0051  -33.9694   25.0382 H   0  0  0  0  0  0
  -22.7235  -31.2980   21.3908 H   0  0  0  0  0  0
  -23.3748  -35.9613   23.3296 H   0  0  0  0  0  0
  -24.3579  -36.8904   22.2057 H   0  0  0  0  0  0
  -23.7240  -37.6479   23.6673 H   0  0  0  0  0  0
  -26.1033  -31.5284   20.5990 H   0  0  0  0  0  0
  -26.8495  -30.8269   22.0030 H   0  0  0  0  0  0
  -28.1325  -28.9516   21.1808 H   0  0  0  0  0  0
  -25.9968  -25.8794   19.0396 H   0  0  0  0  0  0
  -23.9764  -27.2810   19.0236 H   0  0  0  0  0  0
  -23.7701  -30.5731   19.3978 H   0  0  0  0  0  0
  -22.7642  -29.2323   19.8584 H   0  0  0  0  0  0
  -25.1305  -36.1907   25.0817 H   0  0  0  0  0  0
  -20.9993  -28.3278   24.1391 H   0  0  0  0  0  0
  -20.5676  -26.2317   23.3617 H   0  0  0  0  0  0
  -21.6654  -26.7448   22.1215 H   0  0  0  0  0  0
  -19.6904  -25.6298   21.1251 H   0  0  0  0  0  0
  -19.6683  -27.3203   20.6747 H   0  0  0  0  0  0
  -17.4208  -26.6689   21.4022 H   0  0  0  0  0  0
  -18.0325  -26.0083   22.9027 H   0  0  0  0  0  0
  -19.7939  -30.7292   24.2254 H   0  0  0  0  0  0
  -17.5018  -31.6272   24.5175 H   0  0  0  0  0  0
  -15.5357  -30.2991   23.7667 H   0  0  0  0  0  0
  -15.8678  -28.0833   22.7059 H   0  0  0  0  0  0
  -24.5880  -30.7102   25.7746 H   0  0  0  0  0  0
  -24.8910  -32.2930   26.4824 H   0  0  0  0  0  0
  -25.8015  -30.8935   27.0215 H   0  0  0  0  0  0
  -26.2929  -29.6743   24.1210 H   0  0  0  0  0  0
  -27.4018  -29.7271   25.4709 H   0  0  0  0  0  0
  -27.8801  -30.4275   23.9436 H   0  0  0  0  0  0
  -27.2659  -33.3631   26.2052 H   0  0  0  0  0  0
  -28.3862  -32.6882   25.0306 H   0  0  0  0  0  0
  -28.0721  -31.8455   26.5395 H   0  0  0  0  0  0
  -28.2599  -38.0088   24.7521 H   0  0  0  0  0  0
  -28.1070  -36.2624   24.6279 H   0  0  0  0  0  0
  -27.2301  -37.1435   25.8865 H   0  0  0  0  0  0
  -20.9385  -29.8749   21.6849 H   0  0  0  0  0  0
  -26.0156  -38.2832   24.1419 H   0  0  0  0  0  0
  -32.5652  -19.1403   22.3693 H   0  0  0  0  0  0
  -31.2384  -21.0304   21.5901 H   0  0  0  0  0  0
  -31.9489  -16.8285   21.8789 H   0  0  0  0  0  0
  -28.3766  -20.9911   19.2201 H   0  0  0  0  0  0
  -29.6953  -22.6355   21.4293 H   0  0  0  0  0  0
  -27.2865  -18.8324   19.8335 H   0  0  0  0  0  0
  -27.7741  -17.1703   19.5482 H   0  0  0  0  0  0
  -28.2898  -18.4326   18.4346 H   0  0  0  0  0  0
  -28.9001  -25.0508   21.6243 H   0  0  0  0  0  0
  -27.2125  -24.9751   21.2230 H   0  0  0  0  0  0
  -28.8263  -15.6790   20.5279 H   0  0  0  0  0  0
  1 25  1  0  0  0
  1 30  2  0  0  0
  1 82  1  0  0  0
  2  3  1  0  0  0
  2 25  1  0  0  0
  2 84  1  0  0  0
  2 85  1  0  0  0
  3  4  1  0  0  0
  3 86  1  0  0  0
  3 87  1  0  0  0
  4  5  1  0  0  0
  4 88  1  0  0  0
  4 89  1  0  0  0
  5  6  1  0  0  0
  5 26  1  0  0  0
  5 90  1  0  0  0
  6 25  1  0  0  0
  6 91  1  0  0  0
  6 92  1  0  0  0
  7  8  2  0  0  0
  7 26  1  0  0  0
  7 29  1  0  0  0
  8  9  1  0  0  0
  8 22  1  0  0  0
  9 10  1  0  0  0
  9 27  2  0  0  0
 10 11  2  0  0  0
 10 15  1  0  0  0
 11 12  1  0  0  0
 11 93  1  0  0  0
 12 13  2  0  0  0
 12 94  1  0  0  0
 13 14  1  0  0  0
 13 31  1  0  0  0
 14 15  2  0  0  0
 14 95  1  0  0  0
 15 96  1  0  0  0
 16 17  2  0  0  0
 16 21  1  0  0  0
 16 31  1  0  0  0
 17 18  1  0  0  0
 17 97  1  0  0  0
 18 19  2  0  0  0
 18 98  1  0  0  0
 19 20  1  0  0  0
 19 24  1  0  0  0
 20 21  2  0  0  0
 20 99  1  0  0  0
 21 23  1  0  0  0
 22 28  1  0  0  0
 22 32  2  0  0  0
 26 27  1  0  0  0
 28100  1  0  0  0
 28101  1  0  0  0
 29102  1  0  0  0
 29103  1  0  0  0
 33 34  1  0  0  0
 33 66  1  0  0  0
 33 70  2  0  0  0
 34 36  1  0  0  0
 34 59  1  0  0  0
 34104  1  0  0  0
 35 44  2  0  0  0
 35 45  1  0  0  0
 35 68  1  0  0  0
 36 56  1  0  0  0
 36105  1  0  0  0
 37 39  1  0  0  0
 37 47  1  0  0  0
 37 66  1  0  0  0
 37106  1  0  0  0
 38 43  2  0  0  0
 38 46  1  0  0  0
 38 47  1  0  0  0
 39 64  1  0  0  0
 39 67  2  0  0  0
 40 52  1  0  0  0
 40 53  2  0  0  0
 40 58  1  0  0  0
 41107  1  0  0  0
 41108  1  0  0  0
 41109  1  0  0  0
 41 48  1  0  0  0
 42 43  1  0  0  0
 42 66  1  0  0  0
 42110  1  0  0  0
 42111  1  0  0  0
 43 44  1  0  0  0
 44112  1  0  0  0
 45 46  2  0  0  0
 45113  1  0  0  0
 46114  1  0  0  0
 47115  1  0  0  0
 47116  1  0  0  0
 48 56  1  0  0  0
 48 65  1  0  0  0
 48117  1  0  0  0
 49 50  1  0  0  0
 49 53  1  0  0  0
 49 64  1  0  0  0
 49118  1  0  0  0
 50 51  1  0  0  0
 50119  1  0  0  0
 50120  1  0  0  0
 51 52  1  0  0  0
 51121  1  0  0  0
 51122  1  0  0  0
 52123  1  0  0  0
 52124  1  0  0  0
 53 54  1  0  0  0
 54 55  2  0  0  0
 54125  1  0  0  0
 55 57  1  0  0  0
 55126  1  0  0  0
 56 69  2  0  0  0
 57 58  2  0  0  0
 57127  1  0  0  0
 58128  1  0  0  0
 59 60  1  0  0  0
 59 61  1  0  0  0
 59 62  1  0  0  0
 60129  1  0  0  0
 60130  1  0  0  0
 60131  1  0  0  0
 61132  1  0  0  0
 61133  1  0  0  0
 61134  1  0  0  0
 62135  1  0  0  0
 62136  1  0  0  0
 62137  1  0  0  0
 63 65  1  0  0  0
 63138  1  0  0  0
 63139  1  0  0  0
 63140  1  0  0  0
 64141  1  0  0  0
 65142  1  0  0  0
 68 81  1  0  0  0
 71 72  2  0  0  0
 71 73  1  0  0  0
 71143  1  0  0  0
 72 74  1  0  0  0
 72144  1  0  0  0
 73 76  2  0  0  0
 73145  1  0  0  0
 74 75  2  0  0  0
 74 77  1  0  0  0
 75 76  1  0  0  0
 75 80  1  0  0  0
 76 82  1  0  0  0
 77 78  2  0  0  0
 77146  1  0  0  0
 78 79  1  0  0  0
 78147  1  0  0  0
 79 81  1  0  0  0
 79 83  2  0  0  0
 80148  1  0  0  0
 80149  1  0  0  0
 80150  1  0  0  0
 81151  1  0  0  0
 81152  1  0  0  0
 82153  1  0  0  0
M  ISO  4   1 100  68 101  81 101  82 100
M  END
> <chiral flag>
0

> <version>
0

> <s_m_source_file>
/data/baiqing/PycharmProjects/Reinvent-master-3.2/result/LINK_invent/BTK/process_docking_weight1_custom_product_contain_oxygen_bond_distance_aromatic_linkinvent_7_9_3/rearranged_h_0055.sdf

> <i_m_source_file_index>
45

> <r_mmod_Potential_Energy-OPLS-2005>
150.431167602539

> <r_mmod_Stretch_Energy-OPLS-2005>
124.066390991211

> <r_mmod_Bend_Energy-OPLS-2005>
148.735092163086

> <r_mmod_Torsional_Energy-OPLS-2005>
249.472274780273

> <r_mmod_Improper_Torsional_Energy-OPLS-2005>
7.14438390731812

> <r_mmod_Van_der_Waal_Energy-OPLS-2005>
133.61686706543

> <r_mmod_Electrostatic_Energy-OPLS-2005>
-366.263641357422

> <r_mmod_Solvation_Energy-OPLS-2005>
-227.055801391602

> <b_mmod_Minimization_Converged-OPLS-2005>
0

> <r_mmod_RMS_Derivative-OPLS-2005>
1.21190392971039

$$$$
45
                    3D
 Structure written by MMmdl.
156164  0  0  1  0            999 V2000
  -30.7380  -14.4126   20.6190 C   0  0  0  0  0  0
  -30.4170  -12.2896   19.4087 C   0  0  0  0  0  0
  -29.4883  -12.5064   18.1991 C   0  0  0  0  0  0
  -28.0108  -12.3585   18.6127 C   0  0  0  0  0  0
  -27.6599  -13.1933   19.8723 C   0  0  2  0  0  0
  -28.7007  -12.9729   20.9934 C   0  0  0  0  0  0
  -25.2582  -13.8126   20.5651 C   0  0  0  0  0  0
  -24.1823  -13.0425   20.9164 C   0  0  0  0  0  0
  -24.6361  -11.6891   20.8727 C   0  0  0  0  0  0
  -23.9029  -10.4279   21.0404 C   0  0  0  0  0  0
  -24.3591   -9.4194   21.9183 C   0  0  0  0  0  0
  -23.6270   -8.2231   22.0749 C   0  0  0  0  0  0
  -22.4258   -8.0267   21.3538 C   0  0  0  0  0  0
  -21.9886   -9.0236   20.4642 C   0  0  0  0  0  0
  -22.7204  -10.2120   20.3049 C   0  0  0  0  0  0
  -21.6839   -6.0727   22.5279 C   0  0  0  0  0  0
  -21.4005   -6.5630   23.8213 C   0  0  0  0  0  0
  -21.3660   -5.6780   24.9173 C   0  0  0  0  0  0
  -21.6049   -4.3045   24.7221 C   0  0  0  0  0  0
  -21.8815   -3.8139   23.4338 C   0  0  0  0  0  0
  -21.9187   -4.6957   22.3396 C   0  0  0  0  0  0
  -22.7852  -13.5240   21.1828 C   0  0  0  0  0  0
  -22.1655   -4.2146   21.0971 F   0  0  0  0  0  0
  -21.5638   -3.4529   25.7734 F   0  0  0  0  0  0
  -30.0364  -13.2624   20.4427 N   0  0  0  0  0  0
  -26.3003  -12.9266   20.3349 N   0  0  0  0  0  0
  -25.9281  -11.6441   20.5761 N   0  0  0  0  0  0
  -22.0488  -12.8247   22.0389 N   0  0  0  0  0  0
  -25.4303  -15.1846   20.4046 N   0  0  0  0  0  0
  -31.8400  -14.6229   20.1091 O   0  0  0  0  0  0
  -21.6620   -6.8871   21.4242 O   0  0  0  0  0  0
  -22.3547  -14.5557   20.6687 O   0  0  0  0  0  0
  -24.6117  -31.8702   23.2126 C   0  0  0  0  0  0
  -25.9026  -32.4833   23.8406 C   0  0  1  0  0  0
  -27.2370  -27.4628   20.0954 C   0  0  0  0  0  0
  -25.5893  -33.8629   24.2342 N   0  0  0  0  0  0
  -23.3990  -30.4943   21.5494 C   0  0  2  0  0  0
  -24.8479  -28.9579   20.1190 C   0  0  0  0  0  0
  -22.7382  -29.4689   22.4984 C   0  0  0  0  0  0
  -18.0271  -28.1381   22.8501 C   0  0  0  0  0  0
  -24.1485  -36.7319   23.2641 C   0  0  0  0  0  0
  -25.9250  -30.8424   21.3635 C   0  0  0  0  0  0
  -26.0043  -29.4760   20.7174 C   0  0  0  0  0  0
  -27.2043  -28.7337   20.7097 C   0  0  0  0  0  0
  -26.0710  -26.9520   19.4945 C   0  0  0  0  0  0
  -24.8734  -27.6912   19.5081 C   0  0  0  0  0  0
  -23.6085  -29.8228   20.1651 C   0  0  0  0  0  0
  -25.4105  -36.3122   24.0343 C   0  0  1  0  0  0
  -20.5855  -28.3671   23.1319 C   0  0  2  0  0  0
  -20.6766  -26.9413   22.5417 C   0  0  0  0  0  0
  -19.5743  -26.6397   21.5212 C   0  0  0  0  0  0
  -18.1921  -26.7931   22.1627 C   0  0  0  0  0  0
  -19.1522  -28.8840   23.2913 C   0  0  0  0  0  0
  -18.9455  -30.1450   23.8918 C   0  0  0  0  0  0
  -17.6458  -30.6589   24.0573 C   0  0  0  0  0  0
  -25.9031  -34.9483   23.5136 C   0  0  0  0  0  0
  -16.5346  -29.9096   23.6326 C   0  0  0  0  0  0
  -16.7264  -28.6512   23.0351 C   0  0  0  0  0  0
  -26.4468  -31.6605   25.0723 C   0  0  0  0  0  0
  -25.3754  -31.3702   26.1490 C   0  0  0  0  0  0
  -27.0294  -30.3050   24.6077 C   0  0  0  0  0  0
  -27.6041  -32.4325   25.7485 C   0  0  0  0  0  0
  -27.5575  -37.1818   24.8466 C   0  0  0  0  0  0
  -21.4117  -29.3040   22.3720 N   0  0  0  0  0  0
  -26.4290  -37.3804   23.9409 N   0  0  0  0  0  0
  -24.6625  -31.0839   22.1002 N   0  0  0  0  0  0
  -23.4167  -28.8243   23.3026 O   0  0  0  0  0  0
  -28.3793  -26.7076   20.0432 O   0  0  0  0  0  0
  -26.5582  -34.8928   22.4693 O   0  0  0  0  0  0
  -23.5320  -32.1432   23.7544 O   0  0  0  0  0  0
  -28.3293  -18.7722   23.4217 C   0  0  0  0  0  0
  -28.5736  -17.6214   22.6469 C   0  0  0  0  0  0
  -28.7956  -20.0294   22.9886 C   0  0  0  0  0  0
  -29.7389  -18.9870   20.9963 C   0  0  0  0  0  0
  -29.2797  -17.7233   21.4304 C   0  0  0  0  0  0
  -29.5105  -20.1406   21.7781 C   0  0  0  0  0  0
  -28.7759  -26.1145   21.2110 C   0  0  0  0  0  0
  -29.3057  -24.8779   21.2856 C   0  0  0  0  0  0
  -29.5158  -16.4883   20.5747 C   0  0  0  0  0  0
  -30.0423  -21.4900   21.3204 C   0  0  0  0  0  0
  -30.1203  -15.3777   21.3088 N   0  0  0  0  0  0
  -29.1376  -22.1744   20.3965 N   0  0  0  0  0  0
  -28.4787  -24.1144   18.8562 O   0  0  0  0  0  0
  -30.9199  -23.7659   19.4912 O   0  0  0  0  0  0
  -29.4957  -23.7673   19.8639 S   0  0  0  0  0  0
  -31.4614  -12.3857   19.1062 H   0  0  0  0  0  0
  -30.3121  -11.2749   19.7957 H   0  0  0  0  0  0
  -29.7284  -11.7977   17.4063 H   0  0  0  0  0  0
  -29.6542  -13.5019   17.7830 H   0  0  0  0  0  0
  -27.8219  -11.3019   18.8048 H   0  0  0  0  0  0
  -27.3595  -12.6391   17.7844 H   0  0  0  0  0  0
  -27.7020  -14.2369   19.5694 H   0  0  0  0  0  0
  -28.6685  -11.9402   21.3464 H   0  0  0  0  0  0
  -28.4601  -13.5849   21.8644 H   0  0  0  0  0  0
  -25.2741   -9.5665   22.4753 H   0  0  0  0  0  0
  -23.9977   -7.4618   22.7464 H   0  0  0  0  0  0
  -21.0818   -8.8743   19.8949 H   0  0  0  0  0  0
  -22.3659  -10.9652   19.6151 H   0  0  0  0  0  0
  -21.1991   -7.6139   23.9715 H   0  0  0  0  0  0
  -21.1494   -6.0510   25.9081 H   0  0  0  0  0  0
  -22.0599   -2.7602   23.2829 H   0  0  0  0  0  0
  -22.4098  -11.9911   22.4779 H   0  0  0  0  0  0
  -21.1114  -13.1291   22.2610 H   0  0  0  0  0  0
  -24.6664  -15.8411   20.5215 H   0  0  0  0  0  0
  -26.2904  -15.6246   20.1054 H   0  0  0  0  0  0
  -26.7096  -32.5561   23.1176 H   0  0  0  0  0  0
  -25.0065  -33.9795   25.0502 H   0  0  0  0  0  0
  -22.6869  -31.3106   21.4097 H   0  0  0  0  0  0
  -23.3734  -35.9665   23.3326 H   0  0  0  0  0  0
  -24.3583  -36.8901   22.2049 H   0  0  0  0  0  0
  -23.7243  -37.6537   23.6634 H   0  0  0  0  0  0
  -26.0355  -31.6067   20.5931 H   0  0  0  0  0  0
  -26.8138  -30.8976   21.9801 H   0  0  0  0  0  0
  -28.0993  -29.1346   21.1645 H   0  0  0  0  0  0
  -26.0966  -25.9807   19.0199 H   0  0  0  0  0  0
  -23.9853  -27.2850   19.0442 H   0  0  0  0  0  0
  -23.7175  -30.5958   19.4033 H   0  0  0  0  0  0
  -22.7327  -29.2415   19.8700 H   0  0  0  0  0  0
  -25.1285  -36.1985   25.0833 H   0  0  0  0  0  0
  -20.9971  -28.3243   24.1430 H   0  0  0  0  0  0
  -20.5687  -26.2283   23.3598 H   0  0  0  0  0  0
  -21.6642  -26.7462   22.1205 H   0  0  0  0  0  0
  -19.6911  -25.6316   21.1227 H   0  0  0  0  0  0
  -19.6686  -27.3216   20.6746 H   0  0  0  0  0  0
  -17.4201  -26.6688   21.4017 H   0  0  0  0  0  0
  -18.0327  -26.0062   22.9010 H   0  0  0  0  0  0
  -19.7933  -30.7266   24.2291 H   0  0  0  0  0  0
  -17.5016  -31.6270   24.5175 H   0  0  0  0  0  0
  -15.5353  -30.3011   23.7642 H   0  0  0  0  0  0
  -15.8660  -28.0843   22.7049 H   0  0  0  0  0  0
  -24.5912  -30.7061   25.7843 H   0  0  0  0  0  0
  -24.8975  -32.2858   26.4974 H   0  0  0  0  0  0
  -25.8141  -30.8852   27.0217 H   0  0  0  0  0  0
  -26.2824  -29.6817   24.1147 H   0  0  0  0  0  0
  -27.4084  -29.7282   25.4523 H   0  0  0  0  0  0
  -27.8655  -30.4380   23.9208 H   0  0  0  0  0  0
  -27.2641  -33.3599   26.2102 H   0  0  0  0  0  0
  -28.3829  -32.6918   25.0305 H   0  0  0  0  0  0
  -28.0727  -31.8425   26.5370 H   0  0  0  0  0  0
  -28.2618  -38.0097   24.7504 H   0  0  0  0  0  0
  -28.1051  -36.2628   24.6308 H   0  0  0  0  0  0
  -27.2301  -37.1487   25.8876 H   0  0  0  0  0  0
  -20.9272  -29.8752   21.6929 H   0  0  0  0  0  0
  -26.0179  -38.2885   24.1400 H   0  0  0  0  0  0
  -27.7840  -18.6890   24.3523 H   0  0  0  0  0  0
  -28.2077  -16.6608   22.9832 H   0  0  0  0  0  0
  -28.6079  -20.9060   23.5937 H   0  0  0  0  0  0
  -30.2768  -19.0760   20.0621 H   0  0  0  0  0  0
  -28.6399  -26.7497   22.0747 H   0  0  0  0  0  0
  -29.6348  -24.4583   22.2224 H   0  0  0  0  0  0
  -30.1268  -16.7553   19.7082 H   0  0  0  0  0  0
  -28.5516  -16.1750   20.1780 H   0  0  0  0  0  0
  -31.0136  -21.3556   20.8408 H   0  0  0  0  0  0
  -30.2180  -22.1232   22.1910 H   0  0  0  0  0  0
  -30.7203  -15.7466   22.0314 H   0  0  0  0  0  0
  -28.1430  -22.0244   20.5703 H   0  0  0  0  0  0
  1 25  1  0  0  0
  1 30  2  0  0  0
  1 81  1  0  0  0
  2  3  1  0  0  0
  2 25  1  0  0  0
  2 86  1  0  0  0
  2 87  1  0  0  0
  3  4  1  0  0  0
  3 88  1  0  0  0
  3 89  1  0  0  0
  4  5  1  0  0  0
  4 90  1  0  0  0
  4 91  1  0  0  0
  5  6  1  0  0  0
  5 26  1  0  0  0
  5 92  1  0  0  0
  6 25  1  0  0  0
  6 93  1  0  0  0
  6 94  1  0  0  0
  7  8  2  0  0  0
  7 26  1  0  0  0
  7 29  1  0  0  0
  8  9  1  0  0  0
  8 22  1  0  0  0
  9 10  1  0  0  0
  9 27  2  0  0  0
 10 11  2  0  0  0
 10 15  1  0  0  0
 11 12  1  0  0  0
 11 95  1  0  0  0
 12 13  2  0  0  0
 12 96  1  0  0  0
 13 14  1  0  0  0
 13 31  1  0  0  0
 14 15  2  0  0  0
 14 97  1  0  0  0
 15 98  1  0  0  0
 16 17  2  0  0  0
 16 21  1  0  0  0
 16 31  1  0  0  0
 17 18  1  0  0  0
 17 99  1  0  0  0
 18 19  2  0  0  0
 18100  1  0  0  0
 19 20  1  0  0  0
 19 24  1  0  0  0
 20 21  2  0  0  0
 20101  1  0  0  0
 21 23  1  0  0  0
 22 28  1  0  0  0
 22 32  2  0  0  0
 26 27  1  0  0  0
 28102  1  0  0  0
 28103  1  0  0  0
 29104  1  0  0  0
 29105  1  0  0  0
 33 34  1  0  0  0
 33 66  1  0  0  0
 33 70  2  0  0  0
 34 36  1  0  0  0
 34 59  1  0  0  0
 34106  1  0  0  0
 35 44  2  0  0  0
 35 45  1  0  0  0
 35 68  1  0  0  0
 36 56  1  0  0  0
 36107  1  0  0  0
 37 39  1  0  0  0
 37 47  1  0  0  0
 37 66  1  0  0  0
 37108  1  0  0  0
 38 43  2  0  0  0
 38 46  1  0  0  0
 38 47  1  0  0  0
 39 64  1  0  0  0
 39 67  2  0  0  0
 40 52  1  0  0  0
 40 53  2  0  0  0
 40 58  1  0  0  0
 41109  1  0  0  0
 41110  1  0  0  0
 41111  1  0  0  0
 41 48  1  0  0  0
 42 43  1  0  0  0
 42 66  1  0  0  0
 42112  1  0  0  0
 42113  1  0  0  0
 43 44  1  0  0  0
 44114  1  0  0  0
 45 46  2  0  0  0
 45115  1  0  0  0
 46116  1  0  0  0
 47117  1  0  0  0
 47118  1  0  0  0
 48 56  1  0  0  0
 48 65  1  0  0  0
 48119  1  0  0  0
 49 50  1  0  0  0
 49 53  1  0  0  0
 49 64  1  0  0  0
 49120  1  0  0  0
 50 51  1  0  0  0
 50121  1  0  0  0
 50122  1  0  0  0
 51 52  1  0  0  0
 51123  1  0  0  0
 51124  1  0  0  0
 52125  1  0  0  0
 52126  1  0  0  0
 53 54  1  0  0  0
 54 55  2  0  0  0
 54127  1  0  0  0
 55 57  1  0  0  0
 55128  1  0  0  0
 56 69  2  0  0  0
 57 58  2  0  0  0
 57129  1  0  0  0
 58130  1  0  0  0
 59 60  1  0  0  0
 59 61  1  0  0  0
 59 62  1  0  0  0
 60131  1  0  0  0
 60132  1  0  0  0
 60133  1  0  0  0
 61134  1  0  0  0
 61135  1  0  0  0
 61136  1  0  0  0
 62137  1  0  0  0
 62138  1  0  0  0
 62139  1  0  0  0
 63 65  1  0  0  0
 63140  1  0  0  0
 63141  1  0  0  0
 63142  1  0  0  0
 64143  1  0  0  0
 65144  1  0  0  0
 68 77  1  0  0  0
 71 72  2  0  0  0
 71 73  1  0  0  0
 71145  1  0  0  0
 72 75  1  0  0  0
 72146  1  0  0  0
 73 76  2  0  0  0
 73147  1  0  0  0
 74 75  2  0  0  0
 74 76  1  0  0  0
 74148  1  0  0  0
 75 79  1  0  0  0
 76 80  1  0  0  0
 77 78  2  0  0  0
 77149  1  0  0  0
 78 85  1  0  0  0
 78150  1  0  0  0
 79 81  1  0  0  0
 79151  1  0  0  0
 79152  1  0  0  0
 80 82  1  0  0  0
 80153  1  0  0  0
 80154  1  0  0  0
 81155  1  0  0  0
 82156  1  0  0  0
 82 85  1  0  0  0
 83 85  2  0  0  0
 84 85  2  0  0  0
M  ISO  4   1 100  68 101  77 101  81 100
M  END
> <chiral flag>
0

> <version>
0

> <s_m_source_file>
/data/baiqing/PycharmProjects/Reinvent-master-3.2/result/LINK_invent/BTK/process_docking_weight1_custom_product_contain_oxygen_bond_distance_aromatic_linkinvent_7_9_3/rearranged_h_0055.sdf

> <i_m_source_file_index>
46

> <r_mmod_Potential_Energy-OPLS-2005>
-234.570007324219

> <r_mmod_Stretch_Energy-OPLS-2005>
30.4890785217285

> <r_mmod_Bend_Energy-OPLS-2005>
96.5656814575195

> <r_mmod_Torsional_Energy-OPLS-2005>
269.502532958984

> <r_mmod_Improper_Torsional_Energy-OPLS-2005>
10.9302177429199

> <r_mmod_Van_der_Waal_Energy-OPLS-2005>
137.457183837891

> <r_mmod_Electrostatic_Energy-OPLS-2005>
-543.892822265625

> <r_mmod_Solvation_Energy-OPLS-2005>
-243.956604003906

> <b_mmod_Minimization_Converged-OPLS-2005>
0

> <r_mmod_RMS_Derivative-OPLS-2005>
1.63569498062134

$$$$
46
                    3D
 Structure written by MMmdl.
165173  0  0  1  0            999 V2000
  -30.8307  -14.3576   20.6164 C   0  0  0  0  0  0
  -30.4154  -12.2489   19.4204 C   0  0  0  0  0  0
  -29.5134  -12.5192   18.1967 C   0  0  0  0  0  0
  -28.0288  -12.4033   18.6027 C   0  0  0  0  0  0
  -27.6863  -13.2150   19.8841 C   0  0  2  0  0  0
  -28.7312  -12.9966   21.0077 C   0  0  0  0  0  0
  -25.2725  -13.8194   20.5746 C   0  0  0  0  0  0
  -24.1919  -13.0374   20.9151 C   0  0  0  0  0  0
  -24.6522  -11.6841   20.8689 C   0  0  0  0  0  0
  -23.9111  -10.4225   21.0412 C   0  0  0  0  0  0
  -24.3623   -9.4140   21.9161 C   0  0  0  0  0  0
  -23.6262   -8.2217   22.0753 C   0  0  0  0  0  0
  -22.4213   -8.0280   21.3610 C   0  0  0  0  0  0
  -21.9890   -9.0230   20.4636 C   0  0  0  0  0  0
  -22.7283  -10.2111   20.3042 C   0  0  0  0  0  0
  -21.6843   -6.0728   22.5264 C   0  0  0  0  0  0
  -21.4014   -6.5600   23.8195 C   0  0  0  0  0  0
  -21.3669   -5.6770   24.9162 C   0  0  0  0  0  0
  -21.6062   -4.3020   24.7222 C   0  0  0  0  0  0
  -21.8808   -3.8111   23.4322 C   0  0  0  0  0  0
  -21.9175   -4.6955   22.3378 C   0  0  0  0  0  0
  -22.7935  -13.5238   21.1683 C   0  0  0  0  0  0
  -22.1640   -4.2147   21.0979 F   0  0  0  0  0  0
  -21.5627   -3.4450   25.7732 F   0  0  0  0  0  0
  -30.0842  -13.2317   20.4645 N   0  0  0  0  0  0
  -26.3156  -12.9339   20.3391 N   0  0  0  0  0  0
  -25.9452  -11.6444   20.5665 N   0  0  0  0  0  0
  -22.0507  -12.8342   22.0330 N   0  0  0  0  0  0
  -25.4435  -15.1859   20.4289 N   0  0  0  0  0  0
  -31.8169  -14.6042   19.9256 O   0  0  0  0  0  0
  -21.6580   -6.8907   21.4245 O   0  0  0  0  0  0
  -22.3681  -14.5549   20.6542 O   0  0  0  0  0  0
  -24.6129  -31.8713   23.2119 C   0  0  0  0  0  0
  -25.9032  -32.4853   23.8386 C   0  0  1  0  0  0
  -27.1494  -27.3392   20.1728 C   0  0  0  0  0  0
  -25.5899  -33.8655   24.2368 N   0  0  0  0  0  0
  -23.4005  -30.5074   21.5485 C   0  0  2  0  0  0
  -24.8392  -28.9798   20.0884 C   0  0  0  0  0  0
  -22.7398  -29.4686   22.4928 C   0  0  0  0  0  0
  -18.0241  -28.1379   22.8452 C   0  0  0  0  0  0
  -24.1483  -36.7303   23.2634 C   0  0  0  0  0  0
  -25.9330  -30.8101   21.3772 C   0  0  0  0  0  0
  -25.9988  -29.4438   20.7158 C   0  0  0  0  0  0
  -27.1630  -28.6360   20.7519 C   0  0  0  0  0  0
  -25.9803  -26.9063   19.5045 C   0  0  0  0  0  0
  -24.8427  -27.7304   19.4449 C   0  0  0  0  0  0
  -23.6009  -29.8516   20.1584 C   0  0  0  0  0  0
  -25.4120  -36.3165   24.0376 C   0  0  1  0  0  0
  -20.5797  -28.3689   23.1296 C   0  0  2  0  0  0
  -20.6774  -26.9406   22.5294 C   0  0  0  0  0  0
  -19.5746  -26.6506   21.5026 C   0  0  0  0  0  0
  -18.1894  -26.7975   22.1398 C   0  0  0  0  0  0
  -19.1498  -28.8822   23.2917 C   0  0  0  0  0  0
  -18.9390  -30.1376   23.9022 C   0  0  0  0  0  0
  -17.6405  -30.6520   24.0611 C   0  0  0  0  0  0
  -25.9031  -34.9552   23.5197 C   0  0  0  0  0  0
  -16.5327  -29.9068   23.6303 C   0  0  0  0  0  0
  -16.7223  -28.6496   23.0307 C   0  0  0  0  0  0
  -26.4438  -31.6657   25.0765 C   0  0  0  0  0  0
  -25.3613  -31.3749   26.1465 C   0  0  0  0  0  0
  -27.0338  -30.3091   24.6249 C   0  0  0  0  0  0
  -27.6102  -32.4349   25.7425 C   0  0  0  0  0  0
  -27.5594  -37.1834   24.8461 C   0  0  0  0  0  0
  -21.4107  -29.3114   22.3756 N   0  0  0  0  0  0
  -26.4297  -37.3844   23.9424 N   0  0  0  0  0  0
  -24.6688  -31.0742   22.1042 N   0  0  0  0  0  0
  -23.4150  -28.8150   23.2930 O   0  0  0  0  0  0
  -28.2140  -26.4686   20.2806 O   0  0  0  0  0  0
  -26.5566  -34.8936   22.4748 O   0  0  0  0  0  0
  -23.5322  -32.1499   23.7483 O   0  0  0  0  0  0
  -30.1396  -18.7666   20.8078 C   0  0  0  0  0  0
  -29.9869  -17.0241   22.9902 C   0  0  0  0  0  0
  -29.5991  -19.2483   22.0263 C   0  0  0  0  0  0
  -29.5734  -18.3634   23.1504 C   0  0  0  0  0  0
  -30.3980  -16.5199   21.7472 C   0  0  0  0  0  0
  -30.5081  -17.4151   20.6488 C   0  0  0  0  0  0
  -28.9538  -20.5864   22.0257 C   0  0  0  0  0  0
  -29.0373  -18.7489   24.5299 C   0  0  0  0  0  0
  -29.3954  -24.0929   19.4425 C   0  0  0  0  0  0
  -27.2372  -23.0273   19.9667 C   0  0  0  0  0  0
  -29.0561  -23.1107   21.7800 C   0  0  0  0  0  0
  -27.9498  -25.2956   21.1264 C   0  0  0  0  0  0
  -28.3984  -23.8732   20.5804 C   0  0  0  0  0  0
  -27.7149  -20.6697   22.5103 N   0  0  0  0  0  0
  -30.5451  -15.1010   21.6893 N   0  0  0  0  0  0
  -29.5146  -21.7147   21.5349 N   0  3  0  0  0  0
  -30.8964  -17.0050   19.4153 F   0  0  0  0  0  0
  -31.4756  -12.2690   19.1392 H   0  0  0  0  0  0
  -30.2297  -11.2406   19.8068 H   0  0  0  0  0  0
  -29.7364  -11.8036   17.4002 H   0  0  0  0  0  0
  -29.7373  -13.5082   17.7898 H   0  0  0  0  0  0
  -27.8115  -11.3425   18.7529 H   0  0  0  0  0  0
  -27.3932  -12.7358   17.7802 H   0  0  0  0  0  0
  -27.7407  -14.2661   19.6021 H   0  0  0  0  0  0
  -28.6752  -11.9816   21.4060 H   0  0  0  0  0  0
  -28.4826  -13.6588   21.8389 H   0  0  0  0  0  0
  -25.2767   -9.5528   22.4689 H   0  0  0  0  0  0
  -23.9852   -7.4641   22.7507 H   0  0  0  0  0  0
  -21.0791   -8.8827   19.8976 H   0  0  0  0  0  0
  -22.3778  -10.9631   19.6101 H   0  0  0  0  0  0
  -21.2025   -7.6080   23.9758 H   0  0  0  0  0  0
  -21.1505   -6.0439   25.9126 H   0  0  0  0  0  0
  -22.0591   -2.7529   23.2805 H   0  0  0  0  0  0
  -22.3969  -11.9970   22.4754 H   0  0  0  0  0  0
  -21.1166  -13.1512   22.2464 H   0  0  0  0  0  0
  -24.6719  -15.8309   20.5568 H   0  0  0  0  0  0
  -26.3001  -15.6386   20.1305 H   0  0  0  0  0  0
  -26.7129  -32.5575   23.1145 H   0  0  0  0  0  0
  -25.0105  -33.9761   25.0579 H   0  0  0  0  0  0
  -22.6881  -31.3278   21.4249 H   0  0  0  0  0  0
  -23.3758  -35.9601   23.3308 H   0  0  0  0  0  0
  -24.3544  -36.8848   22.2008 H   0  0  0  0  0  0
  -23.7149  -37.6518   23.6587 H   0  0  0  0  0  0
  -26.0657  -31.5714   20.6043 H   0  0  0  0  0  0
  -26.8148  -30.8558   22.0130 H   0  0  0  0  0  0
  -28.0384  -28.9641   21.2873 H   0  0  0  0  0  0
  -25.9110  -25.9125   19.0771 H   0  0  0  0  0  0
  -23.9625  -27.3972   18.9051 H   0  0  0  0  0  0
  -23.6976  -30.6342   19.4068 H   0  0  0  0  0  0
  -22.7083  -29.2795   19.8704 H   0  0  0  0  0  0
  -25.1276  -36.2088   25.0852 H   0  0  0  0  0  0
  -20.9846  -28.3177   24.1480 H   0  0  0  0  0  0
  -20.5699  -26.2117   23.3383 H   0  0  0  0  0  0
  -21.6665  -26.7499   22.1137 H   0  0  0  0  0  0
  -19.6975  -25.6582   21.0730 H   0  0  0  0  0  0
  -19.6583  -27.3535   20.6775 H   0  0  0  0  0  0
  -17.9951  -25.9980   22.8557 H   0  0  0  0  0  0
  -17.4211  -26.7093   21.3649 H   0  0  0  0  0  0
  -19.7808  -30.7165   24.2539 H   0  0  0  0  0  0
  -17.4932  -31.6181   24.5319 H   0  0  0  0  0  0
  -15.5282  -30.2986   23.7682 H   0  0  0  0  0  0
  -15.8604  -28.0860   22.6936 H   0  0  0  0  0  0
  -24.5835  -30.7078   25.7696 H   0  0  0  0  0  0
  -24.8708  -32.2849   26.4906 H   0  0  0  0  0  0
  -25.7846  -30.8868   27.0246 H   0  0  0  0  0  0
  -26.2959  -29.6759   24.1258 H   0  0  0  0  0  0
  -27.3984  -29.7475   25.4875 H   0  0  0  0  0  0
  -27.8846  -30.4381   23.9540 H   0  0  0  0  0  0
  -27.2883  -33.3685   26.2027 H   0  0  0  0  0  0
  -28.3799  -32.6806   25.0106 H   0  0  0  0  0  0
  -28.0880  -31.8421   26.5212 H   0  0  0  0  0  0
  -28.2702  -38.0066   24.7566 H   0  0  0  0  0  0
  -28.1020  -36.2624   24.6285 H   0  0  0  0  0  0
  -27.2297  -37.1493   25.8856 H   0  0  0  0  0  0
  -20.9224  -29.8795   21.7009 H   0  0  0  0  0  0
  -26.0235  -38.2945   24.1411 H   0  0  0  0  0  0
  -30.1917  -19.4041   19.9392 H   0  0  0  0  0  0
  -29.9170  -16.3452   23.8289 H   0  0  0  0  0  0
  -29.0923  -17.9158   25.2395 H   0  0  0  0  0  0
  -27.9778  -19.0012   24.4937 H   0  0  0  0  0  0
  -29.5827  -19.5950   24.9544 H   0  0  0  0  0  0
  -29.8395  -23.1603   19.0952 H   0  0  0  0  0  0
  -30.1940  -24.7778   19.7227 H   0  0  0  0  0  0
  -28.8468  -24.5343   18.6090 H   0  0  0  0  0  0
  -27.6321  -22.1175   19.5040 H   0  0  0  0  0  0
  -26.7248  -23.5637   19.1651 H   0  0  0  0  0  0
  -26.4917  -22.6808   20.6908 H   0  0  0  0  0  0
  -28.3782  -23.1012   22.6442 H   0  0  0  0  0  0
  -29.9331  -23.6858   22.0929 H   0  0  0  0  0  0
  -28.4694  -25.5122   22.0701 H   0  0  0  0  0  0
  -26.9003  -25.2295   21.4313 H   0  0  0  0  0  0
  -27.2218  -19.8050   22.6680 H   0  0  0  0  0  0
  -27.1307  -21.4617   22.3233 H   0  0  0  0  0  0
  -30.1224  -14.5911   22.4456 H   0  0  0  0  0  0
  -30.3860  -21.6244   21.0161 H   0  0  0  0  0  0
  1 25  1  0  0  0
  1 30  2  0  0  0
  1 85  1  0  0  0
  2  3  1  0  0  0
  2 25  1  0  0  0
  2 88  1  0  0  0
  2 89  1  0  0  0
  3  4  1  0  0  0
  3 90  1  0  0  0
  3 91  1  0  0  0
  4  5  1  0  0  0
  4 92  1  0  0  0
  4 93  1  0  0  0
  5  6  1  0  0  0
  5 26  1  0  0  0
  5 94  1  0  0  0
  6 25  1  0  0  0
  6 95  1  0  0  0
  6 96  1  0  0  0
  7  8  2  0  0  0
  7 26  1  0  0  0
  7 29  1  0  0  0
  8  9  1  0  0  0
  8 22  1  0  0  0
  9 10  1  0  0  0
  9 27  2  0  0  0
 10 11  2  0  0  0
 10 15  1  0  0  0
 11 12  1  0  0  0
 11 97  1  0  0  0
 12 13  2  0  0  0
 12 98  1  0  0  0
 13 14  1  0  0  0
 13 31  1  0  0  0
 14 15  2  0  0  0
 14 99  1  0  0  0
 15100  1  0  0  0
 16 17  2  0  0  0
 16 21  1  0  0  0
 16 31  1  0  0  0
 17 18  1  0  0  0
 17101  1  0  0  0
 18 19  2  0  0  0
 18102  1  0  0  0
 19 20  1  0  0  0
 19 24  1  0  0  0
 20 21  2  0  0  0
 20103  1  0  0  0
 21 23  1  0  0  0
 22 28  1  0  0  0
 22 32  2  0  0  0
 26 27  1  0  0  0
 28104  1  0  0  0
 28105  1  0  0  0
 29106  1  0  0  0
 29107  1  0  0  0
 33 34  1  0  0  0
 33 66  1  0  0  0
 33 70  2  0  0  0
 34 36  1  0  0  0
 34 59  1  0  0  0
 34108  1  0  0  0
 35 44  2  0  0  0
 35 45  1  0  0  0
 35 68  1  0  0  0
 36 56  1  0  0  0
 36109  1  0  0  0
 37 39  1  0  0  0
 37 47  1  0  0  0
 37 66  1  0  0  0
 37110  1  0  0  0
 38 43  2  0  0  0
 38 46  1  0  0  0
 38 47  1  0  0  0
 39 64  1  0  0  0
 39 67  2  0  0  0
 40 52  1  0  0  0
 40 53  2  0  0  0
 40 58  1  0  0  0
 41111  1  0  0  0
 41112  1  0  0  0
 41113  1  0  0  0
 41 48  1  0  0  0
 42 43  1  0  0  0
 42 66  1  0  0  0
 42114  1  0  0  0
 42115  1  0  0  0
 43 44  1  0  0  0
 44116  1  0  0  0
 45 46  2  0  0  0
 45117  1  0  0  0
 46118  1  0  0  0
 47119  1  0  0  0
 47120  1  0  0  0
 48 56  1  0  0  0
 48 65  1  0  0  0
 48121  1  0  0  0
 49 50  1  0  0  0
 49 53  1  0  0  0
 49 64  1  0  0  0
 49122  1  0  0  0
 50 51  1  0  0  0
 50123  1  0  0  0
 50124  1  0  0  0
 51 52  1  0  0  0
 51125  1  0  0  0
 51126  1  0  0  0
 52127  1  0  0  0
 52128  1  0  0  0
 53 54  1  0  0  0
 54 55  2  0  0  0
 54129  1  0  0  0
 55 57  1  0  0  0
 55130  1  0  0  0
 56 69  2  0  0  0
 57 58  2  0  0  0
 57131  1  0  0  0
 58132  1  0  0  0
 59 60  1  0  0  0
 59 61  1  0  0  0
 59 62  1  0  0  0
 60133  1  0  0  0
 60134  1  0  0  0
 60135  1  0  0  0
 61136  1  0  0  0
 61137  1  0  0  0
 61138  1  0  0  0
 62139  1  0  0  0
 62140  1  0  0  0
 62141  1  0  0  0
 63 65  1  0  0  0
 63142  1  0  0  0
 63143  1  0  0  0
 63144  1  0  0  0
 64145  1  0  0  0
 65146  1  0  0  0
 68 82  1  0  0  0
 71 73  2  0  0  0
 71 76  1  0  0  0
 71147  1  0  0  0
 72 74  2  0  0  0
 72 75  1  0  0  0
 72148  1  0  0  0
 73 74  1  0  0  0
 73 77  1  0  0  0
 74 78  1  0  0  0
 75 76  2  0  0  0
 75 85  1  0  0  0
 76 87  1  0  0  0
 77 84  1  0  0  0
 77 86  2  0  0  0
 78149  1  0  0  0
 78150  1  0  0  0
 78151  1  0  0  0
 79152  1  0  0  0
 79153  1  0  0  0
 79154  1  0  0  0
 79 83  1  0  0  0
 80 83  1  0  0  0
 80155  1  0  0  0
 80156  1  0  0  0
 80157  1  0  0  0
 81 83  1  0  0  0
 81 86  1  0  0  0
 81158  1  0  0  0
 81159  1  0  0  0
 82 83  1  0  0  0
 82160  1  0  0  0
 82161  1  0  0  0
 84162  1  0  0  0
 84163  1  0  0  0
 85164  1  0  0  0
 86165  1  0  0  0
M  CHG  1  86   1
M  ISO  4   1 100  68 101  82 101  85 100
M  END
> <chiral flag>
0

> <version>
0

> <s_m_source_file>
/data/baiqing/PycharmProjects/Reinvent-master-3.2/result/LINK_invent/BTK/process_docking_weight1_custom_product_contain_oxygen_bond_distance_aromatic_linkinvent_7_9_3/rearranged_h_0055.sdf

> <i_m_source_file_index>
47

> <r_mmod_Potential_Energy-OPLS-2005>
-194.38737487793

> <r_mmod_Stretch_Energy-OPLS-2005>
53.8186149597168

> <r_mmod_Bend_Energy-OPLS-2005>
125.347328186035

> <r_mmod_Torsional_Energy-OPLS-2005>
293.537231445312

> <r_mmod_Improper_Torsional_Energy-OPLS-2005>
8.80031204223633

> <r_mmod_Van_der_Waal_Energy-OPLS-2005>
160.237167358398

> <r_mmod_Electrostatic_Energy-OPLS-2005>
-452.284393310547

> <r_mmod_Solvation_Energy-OPLS-2005>
-421.407104492188

> <b_mmod_Minimization_Converged-OPLS-2005>
0

> <r_mmod_RMS_Derivative-OPLS-2005>
15.5850248336792

$$$$
47
                    3D
 Structure written by MMmdl.
164172  0  0  1  0            999 V2000
  -30.6839  -14.4614   20.5864 C   0  0  0  0  0  0
  -30.4338  -12.3059   19.4139 C   0  0  0  0  0  0
  -29.5022  -12.5046   18.2005 C   0  0  0  0  0  0
  -28.0214  -12.3659   18.6104 C   0  0  0  0  0  0
  -27.6650  -13.1977   19.8721 C   0  0  2  0  0  0
  -28.7040  -12.9549   20.9898 C   0  0  0  0  0  0
  -25.2617  -13.8126   20.5643 C   0  0  0  0  0  0
  -24.1851  -13.0427   20.9144 C   0  0  0  0  0  0
  -24.6380  -11.6890   20.8688 C   0  0  0  0  0  0
  -23.9034  -10.4288   21.0377 C   0  0  0  0  0  0
  -24.3594   -9.4215   21.9170 C   0  0  0  0  0  0
  -23.6277   -8.2247   22.0747 C   0  0  0  0  0  0
  -22.4260   -8.0271   21.3540 C   0  0  0  0  0  0
  -21.9876   -9.0238   20.4648 C   0  0  0  0  0  0
  -22.7197  -10.2121   20.3047 C   0  0  0  0  0  0
  -21.6850   -6.0725   22.5271 C   0  0  0  0  0  0
  -21.4023   -6.5627   23.8204 C   0  0  0  0  0  0
  -21.3661   -5.6777   24.9163 C   0  0  0  0  0  0
  -21.6038   -4.3043   24.7221 C   0  0  0  0  0  0
  -21.8823   -3.8141   23.4340 C   0  0  0  0  0  0
  -21.9201   -4.6951   22.3398 C   0  0  0  0  0  0
  -22.7889  -13.5259   21.1825 C   0  0  0  0  0  0
  -22.1666   -4.2141   21.0974 F   0  0  0  0  0  0
  -21.5625   -3.4532   25.7736 F   0  0  0  0  0  0
  -30.0375  -13.2726   20.4469 N   0  0  0  0  0  0
  -26.3034  -12.9276   20.3300 N   0  0  0  0  0  0
  -25.9301  -11.6448   20.5694 N   0  0  0  0  0  0
  -22.0504  -12.8278   22.0380 N   0  0  0  0  0  0
  -25.4373  -15.1841   20.4078 N   0  0  0  0  0  0
  -31.8015  -14.6819   20.1094 O   0  0  0  0  0  0
  -21.6637   -6.8864   21.4236 O   0  0  0  0  0  0
  -22.3603  -14.5582   20.6681 O   0  0  0  0  0  0
  -24.6145  -31.8687   23.2101 C   0  0  0  0  0  0
  -25.9041  -32.4822   23.8396 C   0  0  1  0  0  0
  -27.2308  -27.4384   20.1010 C   0  0  0  0  0  0
  -25.5899  -33.8622   24.2341 N   0  0  0  0  0  0
  -23.4010  -30.4925   21.5512 C   0  0  2  0  0  0
  -24.8454  -28.9546   20.1184 C   0  0  0  0  0  0
  -22.7407  -29.4670   22.5000 C   0  0  0  0  0  0
  -18.0277  -28.1378   22.8497 C   0  0  0  0  0  0
  -24.1485  -36.7314   23.2640 C   0  0  0  0  0  0
  -25.9286  -30.8359   21.3603 C   0  0  0  0  0  0
  -26.0055  -29.4686   20.7118 C   0  0  0  0  0  0
  -27.2026  -28.7192   20.6965 C   0  0  0  0  0  0
  -26.0572  -26.9355   19.4997 C   0  0  0  0  0  0
  -24.8654  -27.6862   19.5101 C   0  0  0  0  0  0
  -23.6080  -29.8224   20.1665 C   0  0  0  0  0  0
  -25.4102  -36.3112   24.0348 C   0  0  1  0  0  0
  -20.5864  -28.3663   23.1324 C   0  0  2  0  0  0
  -20.6764  -26.9398   22.5424 C   0  0  0  0  0  0
  -19.5741  -26.6386   21.5219 C   0  0  0  0  0  0
  -18.1917  -26.7928   22.1624 C   0  0  0  0  0  0
  -19.1525  -28.8839   23.2908 C   0  0  0  0  0  0
  -18.9452  -30.1446   23.8916 C   0  0  0  0  0  0
  -17.6453  -30.6581   24.0568 C   0  0  0  0  0  0
  -25.9033  -34.9477   23.5143 C   0  0  0  0  0  0
  -16.5344  -29.9084   23.6324 C   0  0  0  0  0  0
  -16.7266  -28.6500   23.0345 C   0  0  0  0  0  0
  -26.4479  -31.6598   25.0716 C   0  0  0  0  0  0
  -25.3761  -31.3703   26.1480 C   0  0  0  0  0  0
  -27.0304  -30.3042   24.6075 C   0  0  0  0  0  0
  -27.6073  -32.4309   25.7456 C   0  0  0  0  0  0
  -27.5588  -37.1799   24.8464 C   0  0  0  0  0  0
  -21.4137  -29.3031   22.3734 N   0  0  0  0  0  0
  -26.4285  -37.3797   23.9423 N   0  0  0  0  0  0
  -24.6667  -31.0803   22.0992 N   0  0  0  0  0  0
  -23.4188  -28.8214   23.3039 O   0  0  0  0  0  0
  -28.4058  -26.7222   20.0671 O   0  0  0  0  0  0
  -26.5590  -34.8930   22.4701 O   0  0  0  0  0  0
  -23.5343  -32.1439   23.7509 O   0  0  0  0  0  0
  -31.0474  -18.8854   22.0693 C   0  0  0  0  0  0
  -30.8663  -17.4896   22.1361 C   0  0  0  0  0  0
  -29.6477  -17.5685   20.0343 C   0  0  0  0  0  0
  -30.5538  -19.6488   20.9818 C   0  0  0  0  0  0
  -29.8331  -18.9733   19.9546 C   0  0  0  0  0  0
  -30.1837  -16.8172   21.1046 C   0  0  0  0  0  0
  -30.8783  -21.0958   20.9639 C   0  0  0  0  0  0
  -28.7811  -23.8260   18.5558 C   0  0  0  0  0  0
  -29.2733  -19.7013   18.7391 C   0  0  0  0  0  0
  -29.6504  -23.7616   17.3074 C   0  0  0  0  0  0
  -30.2257  -23.5348   20.7225 C   0  0  0  0  0  0
  -28.3662  -25.3758   20.5704 C   0  0  0  0  0  0
  -29.3853  -24.4863   19.8054 C   0  0  2  0  0  0
  -32.1264  -21.4588   21.2590 N   0  0  0  0  0  0
  -29.9612  -15.4188   21.1938 N   0  0  0  0  0  0
  -29.9788  -22.0615   20.6724 N   0  3  0  0  0  0
  -27.6442  -23.3452   18.5503 O   0  0  0  0  0  0
  -31.4774  -12.4187   19.1148 H   0  0  0  0  0  0
  -30.3477  -11.2903   19.8019 H   0  0  0  0  0  0
  -29.7413  -11.7765   17.4241 H   0  0  0  0  0  0
  -29.6729  -13.4867   17.7570 H   0  0  0  0  0  0
  -27.8304  -11.3093   18.8001 H   0  0  0  0  0  0
  -27.3761  -12.6469   17.7774 H   0  0  0  0  0  0
  -27.7159  -14.2476   19.5845 H   0  0  0  0  0  0
  -28.6798  -11.9093   21.3006 H   0  0  0  0  0  0
  -28.4605  -13.5241   21.8879 H   0  0  0  0  0  0
  -25.2728   -9.5709   22.4748 H   0  0  0  0  0  0
  -23.9986   -7.4644   22.7468 H   0  0  0  0  0  0
  -21.0797   -8.8743   19.8965 H   0  0  0  0  0  0
  -22.3628  -10.9650   19.6166 H   0  0  0  0  0  0
  -21.2012   -7.6133   23.9705 H   0  0  0  0  0  0
  -21.1479   -6.0509   25.9060 H   0  0  0  0  0  0
  -22.0607   -2.7604   23.2849 H   0  0  0  0  0  0
  -22.4094  -11.9946   22.4799 H   0  0  0  0  0  0
  -21.1130  -13.1353   22.2549 H   0  0  0  0  0  0
  -24.6737  -15.8417   20.5190 H   0  0  0  0  0  0
  -26.2885  -15.6195   20.0753 H   0  0  0  0  0  0
  -26.7109  -32.5539   23.1163 H   0  0  0  0  0  0
  -25.0070  -33.9776   25.0497 H   0  0  0  0  0  0
  -22.6890  -31.3089   21.4127 H   0  0  0  0  0  0
  -23.3744  -35.9650   23.3308 H   0  0  0  0  0  0
  -24.3591  -36.8917   22.2055 H   0  0  0  0  0  0
  -23.7241  -37.6525   23.6644 H   0  0  0  0  0  0
  -26.0397  -31.5993   20.5888 H   0  0  0  0  0  0
  -26.8179  -30.8919   21.9765 H   0  0  0  0  0  0
  -28.1013  -29.1161   21.1487 H   0  0  0  0  0  0
  -26.0619  -25.9715   19.0096 H   0  0  0  0  0  0
  -23.9748  -27.2855   19.0459 H   0  0  0  0  0  0
  -23.7171  -30.5961   19.4056 H   0  0  0  0  0  0
  -22.7302  -29.2444   19.8717 H   0  0  0  0  0  0
  -25.1271  -36.1982   25.0840 H   0  0  0  0  0  0
  -20.9962  -28.3235   24.1441 H   0  0  0  0  0  0
  -20.5666  -26.2273   23.3615 H   0  0  0  0  0  0
  -21.6639  -26.7441   22.1223 H   0  0  0  0  0  0
  -19.6898  -25.6307   21.1226 H   0  0  0  0  0  0
  -19.6667  -27.3214   20.6762 H   0  0  0  0  0  0
  -17.4191  -26.6700   21.4016 H   0  0  0  0  0  0
  -18.0290  -26.0060   22.9004 H   0  0  0  0  0  0
  -19.7928  -30.7261   24.2290 H   0  0  0  0  0  0
  -17.5007  -31.6260   24.5169 H   0  0  0  0  0  0
  -15.5347  -30.2986   23.7643 H   0  0  0  0  0  0
  -15.8669  -28.0826   22.7048 H   0  0  0  0  0  0
  -24.5924  -30.7049   25.7843 H   0  0  0  0  0  0
  -24.8955  -32.2851   26.4956 H   0  0  0  0  0  0
  -25.8129  -30.8868   27.0225 H   0  0  0  0  0  0
  -26.2827  -29.6783   24.1183 H   0  0  0  0  0  0
  -27.4148  -29.7299   25.4516 H   0  0  0  0  0  0
  -27.8632  -30.4374   23.9165 H   0  0  0  0  0  0
  -27.2716  -33.3602   26.2073 H   0  0  0  0  0  0
  -28.3845  -32.6880   25.0246 H   0  0  0  0  0  0
  -28.0781  -31.8407   26.5329 H   0  0  0  0  0  0
  -28.2602  -38.0100   24.7531 H   0  0  0  0  0  0
  -28.1081  -36.2640   24.6243 H   0  0  0  0  0  0
  -27.2317  -37.1405   25.8867 H   0  0  0  0  0  0
  -20.9303  -29.8750   21.6950 H   0  0  0  0  0  0
  -26.0181  -38.2874   24.1428 H   0  0  0  0  0  0
  -31.5862  -19.3724   22.8710 H   0  0  0  0  0  0
  -31.2566  -16.9398   22.9823 H   0  0  0  0  0  0
  -29.0977  -17.0576   19.2560 H   0  0  0  0  0  0
  -28.9561  -19.0023   17.9649 H   0  0  0  0  0  0
  -30.0231  -20.3544   18.2928 H   0  0  0  0  0  0
  -28.4050  -20.3006   19.0123 H   0  0  0  0  0  0
  -30.7071  -23.7896   17.5708 H   0  0  0  0  0  0
  -29.4345  -24.6089   16.6573 H   0  0  0  0  0  0
  -29.4571  -22.8417   16.7563 H   0  0  0  0  0  0
  -30.1485  -23.8507   21.7635 H   0  0  0  0  0  0
  -31.2678  -23.7144   20.4558 H   0  0  0  0  0  0
  -28.6334  -25.4343   21.6254 H   0  0  0  0  0  0
  -27.3689  -24.9336   20.5595 H   0  0  0  0  0  0
  -30.1180  -25.1878   19.4058 H   0  0  0  0  0  0
  -32.8161  -20.7395   21.4189 H   0  0  0  0  0  0
  -32.4273  -22.4181   21.2850 H   0  0  0  0  0  0
  -29.0583  -15.1275   21.5347 H   0  0  0  0  0  0
  -29.0160  -21.7536   20.6034 H   0  0  0  0  0  0
  1 25  1  0  0  0
  1 30  2  0  0  0
  1 85  1  0  0  0
  2  3  1  0  0  0
  2 25  1  0  0  0
  2 88  1  0  0  0
  2 89  1  0  0  0
  3  4  1  0  0  0
  3 90  1  0  0  0
  3 91  1  0  0  0
  4  5  1  0  0  0
  4 92  1  0  0  0
  4 93  1  0  0  0
  5  6  1  0  0  0
  5 26  1  0  0  0
  5 94  1  0  0  0
  6 25  1  0  0  0
  6 95  1  0  0  0
  6 96  1  0  0  0
  7  8  2  0  0  0
  7 26  1  0  0  0
  7 29  1  0  0  0
  8  9  1  0  0  0
  8 22  1  0  0  0
  9 10  1  0  0  0
  9 27  2  0  0  0
 10 11  2  0  0  0
 10 15  1  0  0  0
 11 12  1  0  0  0
 11 97  1  0  0  0
 12 13  2  0  0  0
 12 98  1  0  0  0
 13 14  1  0  0  0
 13 31  1  0  0  0
 14 15  2  0  0  0
 14 99  1  0  0  0
 15100  1  0  0  0
 16 17  2  0  0  0
 16 21  1  0  0  0
 16 31  1  0  0  0
 17 18  1  0  0  0
 17101  1  0  0  0
 18 19  2  0  0  0
 18102  1  0  0  0
 19 20  1  0  0  0
 19 24  1  0  0  0
 20 21  2  0  0  0
 20103  1  0  0  0
 21 23  1  0  0  0
 22 28  1  0  0  0
 22 32  2  0  0  0
 26 27  1  0  0  0
 28104  1  0  0  0
 28105  1  0  0  0
 29106  1  0  0  0
 29107  1  0  0  0
 33 34  1  0  0  0
 33 66  1  0  0  0
 33 70  2  0  0  0
 34 36  1  0  0  0
 34 59  1  0  0  0
 34108  1  0  0  0
 35 44  2  0  0  0
 35 45  1  0  0  0
 35 68  1  0  0  0
 36 56  1  0  0  0
 36109  1  0  0  0
 37 39  1  0  0  0
 37 47  1  0  0  0
 37 66  1  0  0  0
 37110  1  0  0  0
 38 43  2  0  0  0
 38 46  1  0  0  0
 38 47  1  0  0  0
 39 64  1  0  0  0
 39 67  2  0  0  0
 40 52  1  0  0  0
 40 53  2  0  0  0
 40 58  1  0  0  0
 41111  1  0  0  0
 41112  1  0  0  0
 41113  1  0  0  0
 41 48  1  0  0  0
 42 43  1  0  0  0
 42 66  1  0  0  0
 42114  1  0  0  0
 42115  1  0  0  0
 43 44  1  0  0  0
 44116  1  0  0  0
 45 46  2  0  0  0
 45117  1  0  0  0
 46118  1  0  0  0
 47119  1  0  0  0
 47120  1  0  0  0
 48 56  1  0  0  0
 48 65  1  0  0  0
 48121  1  0  0  0
 49 50  1  0  0  0
 49 53  1  0  0  0
 49 64  1  0  0  0
 49122  1  0  0  0
 50 51  1  0  0  0
 50123  1  0  0  0
 50124  1  0  0  0
 51 52  1  0  0  0
 51125  1  0  0  0
 51126  1  0  0  0
 52127  1  0  0  0
 52128  1  0  0  0
 53 54  1  0  0  0
 54 55  2  0  0  0
 54129  1  0  0  0
 55 57  1  0  0  0
 55130  1  0  0  0
 56 69  2  0  0  0
 57 58  2  0  0  0
 57131  1  0  0  0
 58132  1  0  0  0
 59 60  1  0  0  0
 59 61  1  0  0  0
 59 62  1  0  0  0
 60133  1  0  0  0
 60134  1  0  0  0
 60135  1  0  0  0
 61136  1  0  0  0
 61137  1  0  0  0
 61138  1  0  0  0
 62139  1  0  0  0
 62140  1  0  0  0
 62141  1  0  0  0
 63 65  1  0  0  0
 63142  1  0  0  0
 63143  1  0  0  0
 63144  1  0  0  0
 64145  1  0  0  0
 65146  1  0  0  0
 68 82  1  0  0  0
 71 72  2  0  0  0
 71 74  1  0  0  0
 71147  1  0  0  0
 72 76  1  0  0  0
 72148  1  0  0  0
 73 75  1  0  0  0
 73 76  2  0  0  0
 73149  1  0  0  0
 74 75  2  0  0  0
 74 77  1  0  0  0
 75 79  1  0  0  0
 76 85  1  0  0  0
 77 84  1  0  0  0
 77 86  2  0  0  0
 78 80  1  0  0  0
 78 83  1  0  0  0
 78 87  2  0  0  0
 79150  1  0  0  0
 79151  1  0  0  0
 79152  1  0  0  0
 80153  1  0  0  0
 80154  1  0  0  0
 80155  1  0  0  0
 81 86  1  0  0  0
 81156  1  0  0  0
 81157  1  0  0  0
 81 83  1  0  0  0
 82 83  1  0  0  0
 82158  1  0  0  0
 82159  1  0  0  0
 83160  1  0  0  0
 84161  1  0  0  0
 84162  1  0  0  0
 85163  1  0  0  0
 86164  1  0  0  0
M  CHG  1  86   1
M  ISO  4   1 100  68 101  82 101  85 100
M  END
> <chiral flag>
0

> <version>
0

> <s_m_source_file>
/data/baiqing/PycharmProjects/Reinvent-master-3.2/result/LINK_invent/BTK/process_docking_weight1_custom_product_contain_oxygen_bond_distance_aromatic_linkinvent_7_9_3/rearranged_h_0055.sdf

> <i_m_source_file_index>
48

> <r_mmod_Potential_Energy-OPLS-2005>
-172.885604858398

> <r_mmod_Stretch_Energy-OPLS-2005>
40.0144081115723

> <r_mmod_Bend_Energy-OPLS-2005>
108.215347290039

> <r_mmod_Torsional_Energy-OPLS-2005>
250.727523803711

> <r_mmod_Improper_Torsional_Energy-OPLS-2005>
4.18650245666504

> <r_mmod_Van_der_Waal_Energy-OPLS-2005>
154.682052612305

> <r_mmod_Electrostatic_Energy-OPLS-2005>
-317.698455810547

> <r_mmod_Solvation_Energy-OPLS-2005>
-423.988220214844

> <b_mmod_Minimization_Converged-OPLS-2005>
0

> <r_mmod_RMS_Derivative-OPLS-2005>
1.81620275974274

$$$$
48
                    3D
 Structure written by MMmdl.
168176  0  0  1  0            999 V2000
  -30.8007  -14.3424   20.7066 C   0  0  0  0  0  0
  -30.4123  -12.2859   19.3996 C   0  0  0  0  0  0
  -29.4851  -12.5311   18.1957 C   0  0  0  0  0  0
  -28.0111  -12.3819   18.6117 C   0  0  0  0  0  0
  -27.6686  -13.2062   19.8801 C   0  0  2  0  0  0
  -28.7057  -12.9597   20.9998 C   0  0  0  0  0  0
  -25.2619  -13.8167   20.5673 C   0  0  0  0  0  0
  -24.1862  -13.0444   20.9174 C   0  0  0  0  0  0
  -24.6407  -11.6910   20.8726 C   0  0  0  0  0  0
  -23.9072  -10.4294   21.0400 C   0  0  0  0  0  0
  -24.3625   -9.4211   21.9180 C   0  0  0  0  0  0
  -23.6297   -8.2247   22.0749 C   0  0  0  0  0  0
  -22.4274   -8.0291   21.3544 C   0  0  0  0  0  0
  -21.9918   -9.0263   20.4644 C   0  0  0  0  0  0
  -22.7245  -10.2139   20.3050 C   0  0  0  0  0  0
  -21.6860   -6.0744   22.5279 C   0  0  0  0  0  0
  -21.4014   -6.5645   23.8214 C   0  0  0  0  0  0
  -21.3661   -5.6793   24.9181 C   0  0  0  0  0  0
  -21.6043   -4.3053   24.7229 C   0  0  0  0  0  0
  -21.8821   -3.8150   23.4343 C   0  0  0  0  0  0
  -21.9192   -4.6971   22.3400 C   0  0  0  0  0  0
  -22.7883  -13.5242   21.1842 C   0  0  0  0  0  0
  -22.1662   -4.2161   21.0975 F   0  0  0  0  0  0
  -21.5630   -3.4532   25.7741 F   0  0  0  0  0  0
  -30.0547  -13.2331   20.4656 N   0  0  0  0  0  0
  -26.3066  -12.9341   20.3383 N   0  0  0  0  0  0
  -25.9336  -11.6496   20.5750 N   0  0  0  0  0  0
  -22.0524  -12.8225   22.0399 N   0  0  0  0  0  0
  -25.4348  -15.1879   20.4079 N   0  0  0  0  0  0
  -31.7935  -14.6442   20.0335 O   0  0  0  0  0  0
  -21.6636   -6.8884   21.4239 O   0  0  0  0  0  0
  -22.3567  -14.5557   20.6709 O   0  0  0  0  0  0
  -24.6095  -31.8691   23.2103 C   0  0  0  0  0  0
  -25.9007  -32.4829   23.8387 C   0  0  1  0  0  0
  -27.2429  -27.4773   20.0861 C   0  0  0  0  0  0
  -25.5866  -33.8625   24.2292 N   0  0  0  0  0  0
  -23.3973  -30.4907   21.5529 C   0  0  2  0  0  0
  -24.8463  -28.9587   20.1186 C   0  0  0  0  0  0
  -22.7393  -29.4643   22.5026 C   0  0  0  0  0  0
  -18.0254  -28.1405   22.8473 C   0  0  0  0  0  0
  -24.1496  -36.7314   23.2641 C   0  0  0  0  0  0
  -25.9208  -30.8469   21.3611 C   0  0  0  0  0  0
  -26.0031  -29.4847   20.7077 C   0  0  0  0  0  0
  -27.2078  -28.7512   20.6884 C   0  0  0  0  0  0
  -26.0709  -26.9478   19.5050 C   0  0  0  0  0  0
  -24.8705  -27.6861   19.5188 C   0  0  0  0  0  0
  -23.6050  -29.8219   20.1675 C   0  0  0  0  0  0
  -25.4125  -36.3115   24.0320 C   0  0  1  0  0  0
  -20.5840  -28.3658   23.1341 C   0  0  2  0  0  0
  -20.6742  -26.9402   22.5453 C   0  0  0  0  0  0
  -19.5738  -26.6392   21.5223 C   0  0  0  0  0  0
  -18.1897  -26.7945   22.1604 C   0  0  0  0  0  0
  -19.1506  -28.8855   23.2885 C   0  0  0  0  0  0
  -18.9453  -30.1464   23.8909 C   0  0  0  0  0  0
  -17.6460  -30.6613   24.0579 C   0  0  0  0  0  0
  -25.9047  -34.9480   23.5103 C   0  0  0  0  0  0
  -16.5339  -29.9126   23.6331 C   0  0  0  0  0  0
  -16.7252  -28.6545   23.0329 C   0  0  0  0  0  0
  -26.4433  -31.6605   25.0709 C   0  0  0  0  0  0
  -25.3668  -31.3768   26.1447 C   0  0  0  0  0  0
  -27.0216  -30.3023   24.6082 C   0  0  0  0  0  0
  -27.6010  -32.4324   25.7478 C   0  0  0  0  0  0
  -27.5595  -37.1805   24.8455 C   0  0  0  0  0  0
  -21.4129  -29.3002   22.3759 N   0  0  0  0  0  0
  -26.4310  -37.3801   23.9399 N   0  0  0  0  0  0
  -24.6602  -31.0814   22.1004 N   0  0  0  0  0  0
  -23.4176  -28.8192   23.3061 O   0  0  0  0  0  0
  -28.4187  -26.7729   20.0512 O   0  0  0  0  0  0
  -26.5632  -34.8939   22.4674 O   0  0  0  0  0  0
  -23.5296  -32.1455   23.7513 O   0  0  0  0  0  0
  -32.1809  -18.6234   23.2602 C   0  0  0  0  0  0
  -32.4071  -16.3400   22.4605 C   0  0  0  0  0  0
  -30.7813  -18.5731   23.0761 C   0  0  0  0  0  0
  -30.1917  -17.3805   22.5692 C   0  0  0  0  0  0
  -31.0114  -16.2651   22.2517 C   0  0  0  0  0  0
  -32.9891  -17.5174   22.9549 C   0  0  0  0  0  0
  -29.9438  -19.7522   23.3882 C   0  0  0  0  0  0
  -29.0954  -21.7450   24.3979 C   0  0  0  0  0  0
  -29.1681  -22.8520   25.1597 C   0  0  0  0  0  0
  -30.0485  -20.6453   24.3991 C   0  0  0  0  0  0
  -28.4664  -25.0993   24.0876 C   0  0  0  0  0  0
  -28.6856  -17.3201   22.3181 C   0  0  0  0  0  0
  -31.0808  -20.5163   25.5127 C   0  0  0  0  0  0
  -28.1557  -23.9820   25.0857 C   0  0  0  0  0  0
  -29.5017  -25.6709   21.9018 C   0  0  0  0  0  0
  -28.4074  -25.5790   20.8249 C   0  0  0  0  0  0
  -30.4235  -15.0592   21.7761 N   0  0  0  0  0  0
  -29.2116  -24.7801   23.0199 N   0  0  0  0  0  0
  -28.0104  -26.2293   24.2680 O   0  0  0  0  0  0
  -34.3298  -17.5889   23.1374 F   0  0  0  0  0  0
  -31.4592  -12.3701   19.0981 H   0  0  0  0  0  0
  -30.2948  -11.2658   19.7660 H   0  0  0  0  0  0
  -29.7192  -11.8326   17.3917 H   0  0  0  0  0  0
  -29.6567  -13.5310   17.7946 H   0  0  0  0  0  0
  -27.8218  -11.3228   18.7926 H   0  0  0  0  0  0
  -27.3569  -12.6698   17.7889 H   0  0  0  0  0  0
  -27.7247  -14.2589   19.6044 H   0  0  0  0  0  0
  -28.6607  -11.9227   21.3346 H   0  0  0  0  0  0
  -28.4502  -13.5558   21.8760 H   0  0  0  0  0  0
  -25.2773   -9.5688   22.4748 H   0  0  0  0  0  0
  -24.0016   -7.4638   22.7465 H   0  0  0  0  0  0
  -21.0853   -8.8780   19.8946 H   0  0  0  0  0  0
  -22.3708  -10.9680   19.6157 H   0  0  0  0  0  0
  -21.2005   -7.6157   23.9730 H   0  0  0  0  0  0
  -21.1482   -6.0521   25.9090 H   0  0  0  0  0  0
  -22.0598   -2.7611   23.2840 H   0  0  0  0  0  0
  -22.4130  -11.9870   22.4756 H   0  0  0  0  0  0
  -21.1151  -13.1255   22.2619 H   0  0  0  0  0  0
  -24.6672  -15.8445   20.5086 H   0  0  0  0  0  0
  -26.2897  -15.6248   20.0853 H   0  0  0  0  0  0
  -26.7082  -32.5570   23.1167 H   0  0  0  0  0  0
  -24.9957  -33.9775   25.0401 H   0  0  0  0  0  0
  -22.6867  -31.3082   21.4157 H   0  0  0  0  0  0
  -23.3751  -35.9644   23.3315 H   0  0  0  0  0  0
  -24.3620  -36.8926   22.2063 H   0  0  0  0  0  0
  -23.7237  -37.6503   23.6676 H   0  0  0  0  0  0
  -26.0338  -31.6194   20.5972 H   0  0  0  0  0  0
  -26.8057  -30.8939   21.9832 H   0  0  0  0  0  0
  -28.1061  -29.1514   21.1366 H   0  0  0  0  0  0
  -26.0899  -25.9763   19.0317 H   0  0  0  0  0  0
  -23.9786  -27.2763   19.0628 H   0  0  0  0  0  0
  -23.7151  -30.5990   19.4092 H   0  0  0  0  0  0
  -22.7289  -29.2411   19.8717 H   0  0  0  0  0  0
  -25.1304  -36.1989   25.0810 H   0  0  0  0  0  0
  -20.9907  -28.3257   24.1467 H   0  0  0  0  0  0
  -20.5655  -26.2280   23.3645 H   0  0  0  0  0  0
  -21.6625  -26.7462   22.1260 H   0  0  0  0  0  0
  -19.6909  -25.6309   21.1248 H   0  0  0  0  0  0
  -19.6707  -27.3226   20.6774 H   0  0  0  0  0  0
  -17.4183  -26.6711   21.3989 H   0  0  0  0  0  0
  -18.0256  -26.0098   22.9016 H   0  0  0  0  0  0
  -19.7956  -30.7227   24.2304 H   0  0  0  0  0  0
  -17.5049  -31.6302   24.5186 H   0  0  0  0  0  0
  -15.5353  -30.3032   23.7671 H   0  0  0  0  0  0
  -15.8647  -28.0892   22.7008 H   0  0  0  0  0  0
  -24.5956  -30.6943   25.7848 H   0  0  0  0  0  0
  -24.8695  -32.2929   26.4663 H   0  0  0  0  0  0
  -25.8009  -30.9195   27.0341 H   0  0  0  0  0  0
  -26.2748  -29.6868   24.1037 H   0  0  0  0  0  0
  -27.3838  -29.7198   25.4559 H   0  0  0  0  0  0
  -27.8670  -30.4292   23.9302 H   0  0  0  0  0  0
  -27.2607  -33.3622   26.2068 H   0  0  0  0  0  0
  -28.3813  -32.6881   25.0286 H   0  0  0  0  0  0
  -28.0670  -31.8427   26.5389 H   0  0  0  0  0  0
  -28.2616  -38.0108   24.7500 H   0  0  0  0  0  0
  -28.1075  -36.2627   24.6262 H   0  0  0  0  0  0
  -27.2318  -37.1445   25.8863 H   0  0  0  0  0  0
  -20.9319  -29.8720   21.6965 H   0  0  0  0  0  0
  -26.0199  -38.2857   24.1444 H   0  0  0  0  0  0
  -32.6557  -19.5245   23.6157 H   0  0  0  0  0  0
  -33.0469  -15.4987   22.2411 H   0  0  0  0  0  0
  -29.1622  -19.9261   22.6613 H   0  0  0  0  0  0
  -28.2504  -21.6759   23.7266 H   0  0  0  0  0  0
  -29.9874  -23.0048   25.8472 H   0  0  0  0  0  0
  -28.1270  -17.8369   23.0978 H   0  0  0  0  0  0
  -28.2967  -16.3042   22.2919 H   0  0  0  0  0  0
  -28.4514  -17.7871   21.3608 H   0  0  0  0  0  0
  -31.3333  -19.4723   25.7039 H   0  0  0  0  0  0
  -30.7020  -20.9175   26.4524 H   0  0  0  0  0  0
  -31.9931  -21.0561   25.2590 H   0  0  0  0  0  0
  -28.0228  -24.4050   26.0826 H   0  0  0  0  0  0
  -27.1875  -23.5627   24.8074 H   0  0  0  0  0  0
  -29.5939  -26.6962   22.2662 H   0  0  0  0  0  0
  -30.4714  -25.4129   21.4741 H   0  0  0  0  0  0
  -27.4346  -25.4085   21.2945 H   0  0  0  0  0  0
  -28.5848  -24.7250   20.1706 H   0  0  0  0  0  0
  -29.5750  -14.7553   22.2270 H   0  0  0  0  0  0
  -29.5483  -23.8281   22.9608 H   0  0  0  0  0  0
  1 25  1  0  0  0
  1 30  2  0  0  0
  1 87  1  0  0  0
  2  3  1  0  0  0
  2 25  1  0  0  0
  2 91  1  0  0  0
  2 92  1  0  0  0
  3  4  1  0  0  0
  3 93  1  0  0  0
  3 94  1  0  0  0
  4  5  1  0  0  0
  4 95  1  0  0  0
  4 96  1  0  0  0
  5  6  1  0  0  0
  5 26  1  0  0  0
  5 97  1  0  0  0
  6 25  1  0  0  0
  6 98  1  0  0  0
  6 99  1  0  0  0
  7  8  2  0  0  0
  7 26  1  0  0  0
  7 29  1  0  0  0
  8  9  1  0  0  0
  8 22  1  0  0  0
  9 10  1  0  0  0
  9 27  2  0  0  0
 10 11  2  0  0  0
 10 15  1  0  0  0
 11 12  1  0  0  0
 11100  1  0  0  0
 12 13  2  0  0  0
 12101  1  0  0  0
 13 14  1  0  0  0
 13 31  1  0  0  0
 14 15  2  0  0  0
 14102  1  0  0  0
 15103  1  0  0  0
 16 17  2  0  0  0
 16 21  1  0  0  0
 16 31  1  0  0  0
 17 18  1  0  0  0
 17104  1  0  0  0
 18 19  2  0  0  0
 18105  1  0  0  0
 19 20  1  0  0  0
 19 24  1  0  0  0
 20 21  2  0  0  0
 20106  1  0  0  0
 21 23  1  0  0  0
 22 28  1  0  0  0
 22 32  2  0  0  0
 26 27  1  0  0  0
 28107  1  0  0  0
 28108  1  0  0  0
 29109  1  0  0  0
 29110  1  0  0  0
 33 34  1  0  0  0
 33 66  1  0  0  0
 33 70  2  0  0  0
 34 36  1  0  0  0
 34 59  1  0  0  0
 34111  1  0  0  0
 35 44  2  0  0  0
 35 45  1  0  0  0
 35 68  1  0  0  0
 36 56  1  0  0  0
 36112  1  0  0  0
 37 39  1  0  0  0
 37 47  1  0  0  0
 37 66  1  0  0  0
 37113  1  0  0  0
 38 43  2  0  0  0
 38 46  1  0  0  0
 38 47  1  0  0  0
 39 64  1  0  0  0
 39 67  2  0  0  0
 40 52  1  0  0  0
 40 53  2  0  0  0
 40 58  1  0  0  0
 41114  1  0  0  0
 41115  1  0  0  0
 41116  1  0  0  0
 41 48  1  0  0  0
 42 43  1  0  0  0
 42 66  1  0  0  0
 42117  1  0  0  0
 42118  1  0  0  0
 43 44  1  0  0  0
 44119  1  0  0  0
 45 46  2  0  0  0
 45120  1  0  0  0
 46121  1  0  0  0
 47122  1  0  0  0
 47123  1  0  0  0
 48 56  1  0  0  0
 48 65  1  0  0  0
 48124  1  0  0  0
 49 50  1  0  0  0
 49 53  1  0  0  0
 49 64  1  0  0  0
 49125  1  0  0  0
 50 51  1  0  0  0
 50126  1  0  0  0
 50127  1  0  0  0
 51 52  1  0  0  0
 51128  1  0  0  0
 51129  1  0  0  0
 52130  1  0  0  0
 52131  1  0  0  0
 53 54  1  0  0  0
 54 55  2  0  0  0
 54132  1  0  0  0
 55 57  1  0  0  0
 55133  1  0  0  0
 56 69  2  0  0  0
 57 58  2  0  0  0
 57134  1  0  0  0
 58135  1  0  0  0
 59 60  1  0  0  0
 59 61  1  0  0  0
 59 62  1  0  0  0
 60136  1  0  0  0
 60137  1  0  0  0
 60138  1  0  0  0
 61139  1  0  0  0
 61140  1  0  0  0
 61141  1  0  0  0
 62142  1  0  0  0
 62143  1  0  0  0
 62144  1  0  0  0
 63 65  1  0  0  0
 63145  1  0  0  0
 63146  1  0  0  0
 63147  1  0  0  0
 64148  1  0  0  0
 65149  1  0  0  0
 68 86  1  0  0  0
 71 73  2  0  0  0
 71 76  1  0  0  0
 71150  1  0  0  0
 72 75  1  0  0  0
 72 76  2  0  0  0
 72151  1  0  0  0
 73 74  1  0  0  0
 73 77  1  0  0  0
 74 75  2  0  0  0
 74 82  1  0  0  0
 75 87  1  0  0  0
 76 90  1  0  0  0
 77 80  2  0  0  0
 77152  1  0  0  0
 78 79  2  0  0  0
 78 80  1  0  0  0
 78153  1  0  0  0
 79 84  1  0  0  0
 79154  1  0  0  0
 80 83  1  0  0  0
 81 84  1  0  0  0
 81 88  1  0  0  0
 81 89  2  0  0  0
 82155  1  0  0  0
 82156  1  0  0  0
 82157  1  0  0  0
 83158  1  0  0  0
 83159  1  0  0  0
 83160  1  0  0  0
 84161  1  0  0  0
 84162  1  0  0  0
 85 86  1  0  0  0
 85 88  1  0  0  0
 85163  1  0  0  0
 85164  1  0  0  0
 86165  1  0  0  0
 86166  1  0  0  0
 87167  1  0  0  0
 88168  1  0  0  0
M  ISO  4   1 100  68 101  86 101  87 100
M  END
> <chiral flag>
0

> <version>
0

> <s_m_source_file>
/data/baiqing/PycharmProjects/Reinvent-master-3.2/result/LINK_invent/BTK/process_docking_weight1_custom_product_contain_oxygen_bond_distance_aromatic_linkinvent_7_9_3/rearranged_h_0055.sdf

> <i_m_source_file_index>
49

> <r_mmod_Potential_Energy-OPLS-2005>
-127.020233154297

> <r_mmod_Stretch_Energy-OPLS-2005>
34.2332496643066

> <r_mmod_Bend_Energy-OPLS-2005>
94.0265045166016

> <r_mmod_Torsional_Energy-OPLS-2005>
244.169342041016

> <r_mmod_Improper_Torsional_Energy-OPLS-2005>
2.76786303520203

> <r_mmod_Van_der_Waal_Energy-OPLS-2005>
166.439666748047

> <r_mmod_Electrostatic_Energy-OPLS-2005>
-444.771240234375

> <r_mmod_Solvation_Energy-OPLS-2005>
-230.899536132812

> <b_mmod_Minimization_Converged-OPLS-2005>
0

> <r_mmod_RMS_Derivative-OPLS-2005>
2.77701950073242

$$$$
49
                    3D
 Structure written by MMmdl.
154162  0  0  1  0            999 V2000
  -30.6572  -14.5528   20.5392 C   0  0  0  0  0  0
  -30.4359  -12.3459   19.4344 C   0  0  0  0  0  0
  -29.5032  -12.4917   18.2130 C   0  0  0  0  0  0
  -28.0248  -12.3392   18.6270 C   0  0  0  0  0  0
  -27.6558  -13.2041   19.8619 C   0  0  2  0  0  0
  -28.7005  -13.0287   20.9872 C   0  0  0  0  0  0
  -25.2577  -13.8149   20.5674 C   0  0  0  0  0  0
  -24.1829  -13.0434   20.9190 C   0  0  0  0  0  0
  -24.6372  -11.6899   20.8730 C   0  0  0  0  0  0
  -23.9030  -10.4294   21.0398 C   0  0  0  0  0  0
  -24.3594   -9.4215   21.9175 C   0  0  0  0  0  0
  -23.6283   -8.2243   22.0745 C   0  0  0  0  0  0
  -22.4266   -8.0270   21.3538 C   0  0  0  0  0  0
  -21.9886   -9.0238   20.4641 C   0  0  0  0  0  0
  -22.7201  -10.2126   20.3047 C   0  0  0  0  0  0
  -21.6846   -6.0720   22.5274 C   0  0  0  0  0  0
  -21.4013   -6.5626   23.8206 C   0  0  0  0  0  0
  -21.3662   -5.6781   24.9172 C   0  0  0  0  0  0
  -21.6046   -4.3044   24.7223 C   0  0  0  0  0  0
  -21.8822   -3.8129   23.4342 C   0  0  0  0  0  0
  -21.9193   -4.6948   22.3399 C   0  0  0  0  0  0
  -22.7856  -13.5244   21.1841 C   0  0  0  0  0  0
  -22.1662   -4.2129   21.0974 F   0  0  0  0  0  0
  -21.5638   -3.4529   25.7738 F   0  0  0  0  0  0
  -30.0217  -13.3515   20.4257 N   0  0  0  0  0  0
  -26.2989  -12.9303   20.3298 N   0  0  0  0  0  0
  -25.9293  -11.6474   20.5744 N   0  0  0  0  0  0
  -22.0477  -12.8264   22.0403 N   0  0  0  0  0  0
  -25.4289  -15.1874   20.4086 N   0  0  0  0  0  0
  -31.8204  -14.7229   20.1636 O   0  0  0  0  0  0
  -21.6634   -6.8867   21.4240 O   0  0  0  0  0  0
  -22.3551  -14.5547   20.6667 O   0  0  0  0  0  0
  -24.6180  -31.8652   23.2067 C   0  0  0  0  0  0
  -25.9060  -32.4808   23.8377 C   0  0  1  0  0  0
  -27.2316  -27.3940   20.1118 C   0  0  0  0  0  0
  -25.5897  -33.8606   24.2309 N   0  0  0  0  0  0
  -23.4085  -30.4873   21.5477 C   0  0  2  0  0  0
  -24.8568  -28.9445   20.1185 C   0  0  0  0  0  0
  -22.7427  -29.4647   22.4973 C   0  0  0  0  0  0
  -18.0278  -28.1372   22.8492 C   0  0  0  0  0  0
  -24.1484  -36.7309   23.2636 C   0  0  0  0  0  0
  -25.9409  -30.8177   21.3672 C   0  0  0  0  0  0
  -26.0187  -29.4470   20.7190 C   0  0  0  0  0  0
  -27.2118  -28.6802   20.7107 C   0  0  0  0  0  0
  -26.0562  -26.9175   19.4989 C   0  0  0  0  0  0
  -24.8719  -27.6806   19.5035 C   0  0  0  0  0  0
  -23.6204  -29.8159   20.1647 C   0  0  0  0  0  0
  -25.4102  -36.3102   24.0342 C   0  0  1  0  0  0
  -20.5867  -28.3669   23.1304 C   0  0  2  0  0  0
  -20.6766  -26.9400   22.5414 C   0  0  0  0  0  0
  -19.5749  -26.6381   21.5208 C   0  0  0  0  0  0
  -18.1927  -26.7921   22.1616 C   0  0  0  0  0  0
  -19.1525  -28.8838   23.2896 C   0  0  0  0  0  0
  -18.9451  -30.1440   23.8912 C   0  0  0  0  0  0
  -17.6454  -30.6581   24.0558 C   0  0  0  0  0  0
  -25.9036  -34.9470   23.5123 C   0  0  0  0  0  0
  -16.5346  -29.9081   23.6318 C   0  0  0  0  0  0
  -16.7266  -28.6490   23.0354 C   0  0  0  0  0  0
  -26.4474  -31.6602   25.0723 C   0  0  0  0  0  0
  -25.3732  -31.3722   26.1468 C   0  0  0  0  0  0
  -27.0314  -30.3042   24.6126 C   0  0  0  0  0  0
  -27.6054  -32.4323   25.7466 C   0  0  0  0  0  0
  -27.5596  -37.1780   24.8447 C   0  0  0  0  0  0
  -21.4151  -29.3035   22.3711 N   0  0  0  0  0  0
  -26.4280  -37.3800   23.9431 N   0  0  0  0  0  0
  -24.6741  -31.0724   22.0984 N   0  0  0  0  0  0
  -23.4181  -28.8195   23.3035 O   0  0  0  0  0  0
  -28.3768  -26.6186   20.0662 O   0  0  0  0  0  0
  -26.5604  -34.8927   22.4688 O   0  0  0  0  0  0
  -23.5362  -32.1414   23.7442 O   0  0  0  0  0  0
  -30.7195  -19.6930   21.7274 C   0  0  0  0  0  0
  -31.3283  -18.6510   22.4583 C   0  0  0  0  0  0
  -29.5701  -18.0303   20.3683 C   0  0  0  0  0  0
  -29.8412  -19.4005   20.6639 C   0  0  0  0  0  0
  -30.1908  -16.9690   21.0915 C   0  0  0  0  0  0
  -31.0737  -17.2997   22.1449 C   0  0  0  0  0  0
  -28.9376  -23.0385   20.1333 C   0  0  0  0  0  0
  -29.2769  -20.5454   19.7918 C   0  0  0  0  0  0
  -27.9252  -24.1107   20.6287 C   0  0  0  0  0  0
  -28.4683  -25.5321   21.0240 C   0  0  0  0  0  0
  -29.8445  -15.5964   20.8406 N   0  0  0  0  0  0
  -28.7276  -21.7418   20.4765 N   0  0  0  0  0  0
  -29.8615  -23.3724   19.3896 O   0  0  0  0  0  0
  -31.6495  -16.3237   22.8885 F   0  0  0  0  0  0
  -31.4779  -12.4670   19.1325 H   0  0  0  0  0  0
  -30.3625  -11.3442   19.8617 H   0  0  0  0  0  0
  -29.7592  -11.7479   17.4568 H   0  0  0  0  0  0
  -29.6553  -13.4660   17.7470 H   0  0  0  0  0  0
  -27.8553  -11.2866   18.8539 H   0  0  0  0  0  0
  -27.3694  -12.5757   17.7881 H   0  0  0  0  0  0
  -27.6825  -14.2417   19.5288 H   0  0  0  0  0  0
  -28.6968  -12.0025   21.3566 H   0  0  0  0  0  0
  -28.4573  -13.6542   21.8475 H   0  0  0  0  0  0
  -25.2735   -9.5708   22.4750 H   0  0  0  0  0  0
  -23.9990   -7.4641   22.7467 H   0  0  0  0  0  0
  -21.0809   -8.8754   19.8958 H   0  0  0  0  0  0
  -22.3642  -10.9666   19.6159 H   0  0  0  0  0  0
  -21.2000   -7.6132   23.9708 H   0  0  0  0  0  0
  -21.1487   -6.0506   25.9078 H   0  0  0  0  0  0
  -22.0599   -2.7590   23.2843 H   0  0  0  0  0  0
  -22.4065  -11.9937   22.4838 H   0  0  0  0  0  0
  -21.1095  -13.1322   22.2575 H   0  0  0  0  0  0
  -24.6585  -15.8382   20.5175 H   0  0  0  0  0  0
  -26.2692  -15.6286   20.0584 H   0  0  0  0  0  0
  -26.7128  -32.5511   23.1136 H   0  0  0  0  0  0
  -25.0045  -33.9762   25.0453 H   0  0  0  0  0  0
  -22.6989  -31.3051   21.4052 H   0  0  0  0  0  0
  -23.3762  -35.9622   23.3254 H   0  0  0  0  0  0
  -24.3598  -36.8969   22.2060 H   0  0  0  0  0  0
  -23.7207  -37.6488   23.6679 H   0  0  0  0  0  0
  -26.0596  -31.5804   20.5964 H   0  0  0  0  0  0
  -26.8263  -30.8716   21.9891 H   0  0  0  0  0  0
  -28.1116  -29.0681   21.1678 H   0  0  0  0  0  0
  -26.0548  -25.9568   19.0057 H   0  0  0  0  0  0
  -23.9824  -27.2924   19.0263 H   0  0  0  0  0  0
  -23.7296  -30.5877   19.4020 H   0  0  0  0  0  0
  -22.7440  -29.2358   19.8701 H   0  0  0  0  0  0
  -25.1268  -36.1951   25.0833 H   0  0  0  0  0  0
  -20.9965  -28.3236   24.1421 H   0  0  0  0  0  0
  -20.5657  -26.2276   23.3604 H   0  0  0  0  0  0
  -21.6639  -26.7435   22.1209 H   0  0  0  0  0  0
  -19.6909  -25.6292   21.1233 H   0  0  0  0  0  0
  -19.6691  -27.3191   20.6738 H   0  0  0  0  0  0
  -17.4197  -26.6672   21.4015 H   0  0  0  0  0  0
  -18.0327  -26.0054   22.9003 H   0  0  0  0  0  0
  -19.7927  -30.7246   24.2292 H   0  0  0  0  0  0
  -17.5009  -31.6264   24.5152 H   0  0  0  0  0  0
  -15.5344  -30.2988   23.7635 H   0  0  0  0  0  0
  -15.8665  -28.0810   22.7075 H   0  0  0  0  0  0
  -24.5885  -30.7097   25.7793 H   0  0  0  0  0  0
  -24.8947  -32.2887   26.4932 H   0  0  0  0  0  0
  -25.8073  -30.8862   27.0217 H   0  0  0  0  0  0
  -26.2870  -29.6782   24.1194 H   0  0  0  0  0  0
  -27.4090  -29.7299   25.4596 H   0  0  0  0  0  0
  -27.8699  -30.4352   23.9283 H   0  0  0  0  0  0
  -27.2690  -33.3619   26.2066 H   0  0  0  0  0  0
  -28.3841  -32.6891   25.0274 H   0  0  0  0  0  0
  -28.0753  -31.8439   26.5357 H   0  0  0  0  0  0
  -28.2548  -38.0143   24.7605 H   0  0  0  0  0  0
  -28.1157  -36.2686   24.6120 H   0  0  0  0  0  0
  -27.2343  -37.1244   25.8852 H   0  0  0  0  0  0
  -20.9318  -29.8747   21.6920 H   0  0  0  0  0  0
  -26.0166  -38.2862   24.1492 H   0  0  0  0  0  0
  -30.9495  -20.7207   21.9723 H   0  0  0  0  0  0
  -31.9984  -18.8898   23.2706 H   0  0  0  0  0  0
  -28.8915  -17.7889   19.5619 H   0  0  0  0  0  0
  -28.4878  -20.1442   19.1543 H   0  0  0  0  0  0
  -30.0741  -20.8431   19.1084 H   0  0  0  0  0  0
  -27.4307  -23.6940   21.5072 H   0  0  0  0  0  0
  -27.1403  -24.2033   19.8805 H   0  0  0  0  0  0
  -29.5192  -25.4411   21.2997 H   0  0  0  0  0  0
  -27.9735  -25.8455   21.9459 H   0  0  0  0  0  0
  -28.8663  -15.3707   20.9166 H   0  0  0  0  0  0
  -27.9682  -21.5606   21.1195 H   0  0  0  0  0  0
  1 25  1  0  0  0
  1 30  2  0  0  0
  1 81  1  0  0  0
  2  3  1  0  0  0
  2 25  1  0  0  0
  2 85  1  0  0  0
  2 86  1  0  0  0
  3  4  1  0  0  0
  3 87  1  0  0  0
  3 88  1  0  0  0
  4  5  1  0  0  0
  4 89  1  0  0  0
  4 90  1  0  0  0
  5  6  1  0  0  0
  5 26  1  0  0  0
  5 91  1  0  0  0
  6 25  1  0  0  0
  6 92  1  0  0  0
  6 93  1  0  0  0
  7  8  2  0  0  0
  7 26  1  0  0  0
  7 29  1  0  0  0
  8  9  1  0  0  0
  8 22  1  0  0  0
  9 10  1  0  0  0
  9 27  2  0  0  0
 10 11  2  0  0  0
 10 15  1  0  0  0
 11 12  1  0  0  0
 11 94  1  0  0  0
 12 13  2  0  0  0
 12 95  1  0  0  0
 13 14  1  0  0  0
 13 31  1  0  0  0
 14 15  2  0  0  0
 14 96  1  0  0  0
 15 97  1  0  0  0
 16 17  2  0  0  0
 16 21  1  0  0  0
 16 31  1  0  0  0
 17 18  1  0  0  0
 17 98  1  0  0  0
 18 19  2  0  0  0
 18 99  1  0  0  0
 19 20  1  0  0  0
 19 24  1  0  0  0
 20 21  2  0  0  0
 20100  1  0  0  0
 21 23  1  0  0  0
 22 28  1  0  0  0
 22 32  2  0  0  0
 26 27  1  0  0  0
 28101  1  0  0  0
 28102  1  0  0  0
 29103  1  0  0  0
 29104  1  0  0  0
 33 34  1  0  0  0
 33 66  1  0  0  0
 33 70  2  0  0  0
 34 36  1  0  0  0
 34 59  1  0  0  0
 34105  1  0  0  0
 35 44  2  0  0  0
 35 45  1  0  0  0
 35 68  1  0  0  0
 36 56  1  0  0  0
 36106  1  0  0  0
 37 39  1  0  0  0
 37 47  1  0  0  0
 37 66  1  0  0  0
 37107  1  0  0  0
 38 43  2  0  0  0
 38 46  1  0  0  0
 38 47  1  0  0  0
 39 64  1  0  0  0
 39 67  2  0  0  0
 40 52  1  0  0  0
 40 53  2  0  0  0
 40 58  1  0  0  0
 41108  1  0  0  0
 41109  1  0  0  0
 41110  1  0  0  0
 41 48  1  0  0  0
 42 43  1  0  0  0
 42 66  1  0  0  0
 42111  1  0  0  0
 42112  1  0  0  0
 43 44  1  0  0  0
 44113  1  0  0  0
 45 46  2  0  0  0
 45114  1  0  0  0
 46115  1  0  0  0
 47116  1  0  0  0
 47117  1  0  0  0
 48 56  1  0  0  0
 48 65  1  0  0  0
 48118  1  0  0  0
 49 50  1  0  0  0
 49 53  1  0  0  0
 49 64  1  0  0  0
 49119  1  0  0  0
 50 51  1  0  0  0
 50120  1  0  0  0
 50121  1  0  0  0
 51 52  1  0  0  0
 51122  1  0  0  0
 51123  1  0  0  0
 52124  1  0  0  0
 52125  1  0  0  0
 53 54  1  0  0  0
 54 55  2  0  0  0
 54126  1  0  0  0
 55 57  1  0  0  0
 55127  1  0  0  0
 56 69  2  0  0  0
 57 58  2  0  0  0
 57128  1  0  0  0
 58129  1  0  0  0
 59 60  1  0  0  0
 59 61  1  0  0  0
 59 62  1  0  0  0
 60130  1  0  0  0
 60131  1  0  0  0
 60132  1  0  0  0
 61133  1  0  0  0
 61134  1  0  0  0
 61135  1  0  0  0
 62136  1  0  0  0
 62137  1  0  0  0
 62138  1  0  0  0
 63 65  1  0  0  0
 63139  1  0  0  0
 63140  1  0  0  0
 63141  1  0  0  0
 64142  1  0  0  0
 65143  1  0  0  0
 68 80  1  0  0  0
 71 72  2  0  0  0
 71 74  1  0  0  0
 71144  1  0  0  0
 72 76  1  0  0  0
 72145  1  0  0  0
 73 74  2  0  0  0
 73 75  1  0  0  0
 73146  1  0  0  0
 74 78  1  0  0  0
 75 76  2  0  0  0
 75 81  1  0  0  0
 76 84  1  0  0  0
 77 79  1  0  0  0
 77 82  1  0  0  0
 77 83  2  0  0  0
 78 82  1  0  0  0
 78147  1  0  0  0
 78148  1  0  0  0
 79 80  1  0  0  0
 79149  1  0  0  0
 79150  1  0  0  0
 80151  1  0  0  0
 80152  1  0  0  0
 81153  1  0  0  0
 82154  1  0  0  0
M  ISO  4   1 100  68 101  80 101  81 100
M  END
> <chiral flag>
0

> <version>
0

> <s_m_source_file>
/data/baiqing/PycharmProjects/Reinvent-master-3.2/result/LINK_invent/BTK/process_docking_weight1_custom_product_contain_oxygen_bond_distance_aromatic_linkinvent_7_9_3/rearranged_h_0055.sdf

> <i_m_source_file_index>
50

> <r_mmod_Potential_Energy-OPLS-2005>
-121.65502166748

> <r_mmod_Stretch_Energy-OPLS-2005>
48.0175361633301

> <r_mmod_Bend_Energy-OPLS-2005>
106.645545959473

> <r_mmod_Torsional_Energy-OPLS-2005>
254.664825439453

> <r_mmod_Improper_Torsional_Energy-OPLS-2005>
7.55859661102295

> <r_mmod_Van_der_Waal_Energy-OPLS-2005>
141.132659912109

> <r_mmod_Electrostatic_Energy-OPLS-2005>
-457.271423339844

> <r_mmod_Solvation_Energy-OPLS-2005>
-245.900604248047

> <b_mmod_Minimization_Converged-OPLS-2005>
0

> <r_mmod_RMS_Derivative-OPLS-2005>
1.39741086959839

$$$$
50
                    3D
 Structure written by MMmdl.
164173  0  0  1  0            999 V2000
  -30.7287  -14.4634   20.6138 C   0  0  0  0  0  0
  -30.4181  -12.3200   19.4203 C   0  0  0  0  0  0
  -29.4817  -12.5248   18.2100 C   0  0  0  0  0  0
  -28.0041  -12.3868   18.6262 C   0  0  0  0  0  0
  -27.6619  -13.2167   19.8900 C   0  0  2  0  0  0
  -28.7081  -12.9897   21.0067 C   0  0  0  0  0  0
  -25.2568  -13.8175   20.5758 C   0  0  0  0  0  0
  -24.1818  -13.0453   20.9215 C   0  0  0  0  0  0
  -24.6390  -11.6920   20.8773 C   0  0  0  0  0  0
  -23.9052  -10.4293   21.0443 C   0  0  0  0  0  0
  -24.3591   -9.4188   21.9226 C   0  0  0  0  0  0
  -23.6266   -8.2216   22.0758 C   0  0  0  0  0  0
  -22.4254   -8.0266   21.3537 C   0  0  0  0  0  0
  -21.9906   -9.0244   20.4643 C   0  0  0  0  0  0
  -22.7221  -10.2136   20.3085 C   0  0  0  0  0  0
  -21.6825   -6.0715   22.5286 C   0  0  0  0  0  0
  -21.4003   -6.5624   23.8220 C   0  0  0  0  0  0
  -21.3675   -5.6782   24.9176 C   0  0  0  0  0  0
  -21.6038   -4.3045   24.7237 C   0  0  0  0  0  0
  -21.8819   -3.8133   23.4362 C   0  0  0  0  0  0
  -21.9182   -4.6943   22.3407 C   0  0  0  0  0  0
  -22.7842  -13.5253   21.1837 C   0  0  0  0  0  0
  -22.1650   -4.2124   21.0990 F   0  0  0  0  0  0
  -21.5641   -3.4546   25.7761 F   0  0  0  0  0  0
  -30.0418  -13.2956   20.4579 N   0  0  0  0  0  0
  -26.3024  -12.9364   20.3490 N   0  0  0  0  0  0
  -25.9319  -11.6502   20.5816 N   0  0  0  0  0  0
  -22.0445  -12.8268   22.0386 N   0  0  0  0  0  0
  -25.4324  -15.1892   20.4213 N   0  0  0  0  0  0
  -31.8273  -14.6399   20.0842 O   0  0  0  0  0  0
  -21.6623   -6.8856   21.4239 O   0  0  0  0  0  0
  -22.3539  -14.5539   20.6642 O   0  0  0  0  0  0
  -24.6172  -31.8703   23.2134 C   0  0  0  0  0  0
  -25.9068  -32.4825   23.8438 C   0  0  1  0  0  0
  -27.2112  -27.4005   20.0907 C   0  0  0  0  0  0
  -25.5936  -33.8628   24.2382 N   0  0  0  0  0  0
  -23.4017  -30.5013   21.5550 C   0  0  2  0  0  0
  -24.8417  -28.9731   20.1145 C   0  0  0  0  0  0
  -22.7358  -29.4707   22.4976 C   0  0  0  0  0  0
  -18.0263  -28.1326   22.8428 C   0  0  0  0  0  0
  -24.1477  -36.7308   23.2649 C   0  0  0  0  0  0
  -25.9381  -30.8256   21.3688 C   0  0  0  0  0  0
  -26.0080  -29.4599   20.7145 C   0  0  0  0  0  0
  -27.1916  -28.6790   20.7039 C   0  0  0  0  0  0
  -26.0180  -26.9528   19.4678 C   0  0  0  0  0  0
  -24.8442  -27.7212   19.4900 C   0  0  0  0  0  0
  -23.6050  -29.8403   20.1694 C   0  0  0  0  0  0
  -25.4090  -36.3117   24.0365 C   0  0  1  0  0  0
  -20.5852  -28.3584   23.1228 C   0  0  2  0  0  0
  -20.6754  -26.9370   22.5222 C   0  0  0  0  0  0
  -19.5689  -26.6298   21.5115 C   0  0  0  0  0  0
  -18.1859  -26.7887   22.1501 C   0  0  0  0  0  0
  -19.1529  -28.8761   23.2878 C   0  0  0  0  0  0
  -18.9455  -30.1346   23.8978 C   0  0  0  0  0  0
  -17.6461  -30.6479   24.0622 C   0  0  0  0  0  0
  -25.9015  -34.9463   23.5162 C   0  0  0  0  0  0
  -16.5365  -29.9017   23.6277 C   0  0  0  0  0  0
  -16.7272  -28.6459   23.0217 C   0  0  0  0  0  0
  -26.4462  -31.6591   25.0772 C   0  0  0  0  0  0
  -25.3723  -31.3708   26.1535 C   0  0  0  0  0  0
  -27.0298  -30.3036   24.6127 C   0  0  0  0  0  0
  -27.6032  -32.4316   25.7545 C   0  0  0  0  0  0
  -27.5568  -37.1824   24.8474 C   0  0  0  0  0  0
  -21.4096  -29.2977   22.3661 N   0  0  0  0  0  0
  -26.4270  -37.3803   23.9422 N   0  0  0  0  0  0
  -24.6726  -31.0800   22.1035 N   0  0  0  0  0  0
  -23.4120  -28.8287   23.3086 O   0  0  0  0  0  0
  -28.3753  -26.6429   20.1459 O   0  0  0  0  0  0
  -26.5551  -34.8913   22.4702 O   0  0  0  0  0  0
  -23.5375  -32.1471   23.7521 O   0  0  0  0  0  0
  -31.7013  -18.8307   20.9384 C   0  0  0  0  0  0
  -30.6361  -19.6790   21.2684 C   0  0  0  0  0  0
  -31.5380  -17.4385   20.9754 C   0  0  0  0  0  0
  -29.3883  -19.1460   21.6525 C   0  0  0  0  0  0
  -29.2325  -17.7227   21.7329 C   0  0  0  0  0  0
  -30.3003  -16.8540   21.3433 C   0  0  0  0  0  0
  -28.5635  -22.5769   22.3713 C   0  0  0  0  0  0
  -28.4444  -24.0061   21.7955 C   0  0  0  0  0  0
  -29.2127  -22.9035   19.5959 C   0  0  0  0  0  0
  -28.2590  -21.7899   20.0841 C   0  0  0  0  0  0
  -29.1186  -24.2228   20.4127 C   0  0  1  0  0  0
  -27.9208  -17.1246   22.2479 C   0  0  0  0  0  0
  -28.2364  -20.1219   21.9601 C   0  0  0  0  0  0
  -28.4219  -25.3221   19.5614 C   0  0  0  0  0  0
  -28.4023  -21.5328   21.5223 N   0  0  0  0  0  0
  -30.0968  -15.4263   21.3281 N   0  0  0  0  0  0
  -28.7451  -22.4338   23.5850 O   0  0  0  0  0  0
  -31.4571  -12.4241   19.1049 H   0  0  0  0  0  0
  -30.3326  -11.3034   19.8074 H   0  0  0  0  0  0
  -29.7090  -11.8011   17.4284 H   0  0  0  0  0  0
  -29.6459  -13.5115   17.7740 H   0  0  0  0  0  0
  -27.8047  -11.3308   18.8065 H   0  0  0  0  0  0
  -27.3540  -12.6760   17.8022 H   0  0  0  0  0  0
  -27.7098  -14.2662   19.5993 H   0  0  0  0  0  0
  -28.6820  -11.9527   21.3433 H   0  0  0  0  0  0
  -28.4650  -13.5803   21.8888 H   0  0  0  0  0  0
  -25.2716   -9.5640   22.4825 H   0  0  0  0  0  0
  -23.9963   -7.4595   22.7469 H   0  0  0  0  0  0
  -21.0847   -8.8761   19.8928 H   0  0  0  0  0  0
  -22.3686  -10.9686   19.6206 H   0  0  0  0  0  0
  -21.1994   -7.6136   23.9727 H   0  0  0  0  0  0
  -21.1500   -6.0512   25.9087 H   0  0  0  0  0  0
  -22.0586   -2.7597   23.2875 H   0  0  0  0  0  0
  -22.4021  -11.9921   22.4773 H   0  0  0  0  0  0
  -21.1077  -13.1333   22.2564 H   0  0  0  0  0  0
  -24.6838  -15.8541   20.5780 H   0  0  0  0  0  0
  -26.2935  -15.6225   20.1188 H   0  0  0  0  0  0
  -26.7141  -32.5489   23.1213 H   0  0  0  0  0  0
  -25.0135  -33.9776   25.0568 H   0  0  0  0  0  0
  -22.6954  -31.3231   21.4200 H   0  0  0  0  0  0
  -23.3738  -35.9640   23.3310 H   0  0  0  0  0  0
  -24.3586  -36.8903   22.2060 H   0  0  0  0  0  0
  -23.7200  -37.6520   23.6631 H   0  0  0  0  0  0
  -26.0516  -31.5908   20.6004 H   0  0  0  0  0  0
  -26.8270  -30.8796   21.9861 H   0  0  0  0  0  0
  -28.0912  -29.0489   21.1779 H   0  0  0  0  0  0
  -25.9180  -26.0173   18.9449 H   0  0  0  0  0  0
  -23.9497  -27.3421   19.0168 H   0  0  0  0  0  0
  -23.7042  -30.6171   19.4100 H   0  0  0  0  0  0
  -22.7297  -29.2572   19.8786 H   0  0  0  0  0  0
  -25.1254  -36.2004   25.0859 H   0  0  0  0  0  0
  -20.9951  -28.3089   24.1346 H   0  0  0  0  0  0
  -20.5816  -26.2184   23.3371 H   0  0  0  0  0  0
  -21.6602  -26.7542   22.0897 H   0  0  0  0  0  0
  -19.6865  -25.6197   21.1114 H   0  0  0  0  0  0
  -19.6581  -27.3072   20.6612 H   0  0  0  0  0  0
  -17.4192  -26.6791   21.3829 H   0  0  0  0  0  0
  -18.0121  -25.9911   22.8738 H   0  0  0  0  0  0
  -19.7947  -30.7125   24.2381 H   0  0  0  0  0  0
  -17.5031  -31.6149   24.5265 H   0  0  0  0  0  0
  -15.5364  -30.2979   23.7461 H   0  0  0  0  0  0
  -15.8719  -28.0792   22.6792 H   0  0  0  0  0  0
  -24.5917  -30.7017   25.7909 H   0  0  0  0  0  0
  -24.8888  -32.2865   26.4951 H   0  0  0  0  0  0
  -25.8096  -30.8939   27.0307 H   0  0  0  0  0  0
  -26.2860  -29.6858   24.1080 H   0  0  0  0  0  0
  -27.3988  -29.7225   25.4574 H   0  0  0  0  0  0
  -27.8724  -30.4397   23.9344 H   0  0  0  0  0  0
  -27.2649  -33.3630   26.2099 H   0  0  0  0  0  0
  -28.3861  -32.6835   25.0383 H   0  0  0  0  0  0
  -28.0656  -31.8434   26.5489 H   0  0  0  0  0  0
  -28.2608  -38.0105   24.7515 H   0  0  0  0  0  0
  -28.1050  -36.2634   24.6303 H   0  0  0  0  0  0
  -27.2302  -37.1490   25.8889 H   0  0  0  0  0  0
  -20.9251  -29.8506   21.6744 H   0  0  0  0  0  0
  -26.0176  -38.2891   24.1420 H   0  0  0  0  0  0
  -32.6476  -19.2576   20.6395 H   0  0  0  0  0  0
  -30.7979  -20.7461   21.2169 H   0  0  0  0  0  0
  -32.3937  -16.8392   20.7131 H   0  0  0  0  0  0
  -28.8525  -24.7208   22.5098 H   0  0  0  0  0  0
  -27.3800  -24.2317   21.7345 H   0  0  0  0  0  0
  -29.0179  -23.0825   18.5368 H   0  0  0  0  0  0
  -30.2375  -22.5291   19.6334 H   0  0  0  0  0  0
  -28.4502  -20.8836   19.5106 H   0  0  0  0  0  0
  -27.2217  -22.0644   19.8834 H   0  0  0  0  0  0
  -30.1384  -24.5630   20.5970 H   0  0  0  0  0  0
  -27.7677  -16.0890   21.9525 H   0  0  0  0  0  0
  -27.0447  -17.6516   21.8776 H   0  0  0  0  0  0
  -27.8969  -17.1480   23.3395 H   0  0  0  0  0  0
  -28.0171  -20.0594   23.0294 H   0  0  0  0  0  0
  -27.3432  -19.7613   21.4525 H   0  0  0  0  0  0
  -27.4630  -24.8917   19.3029 H   0  0  0  0  0  0
  -28.9540  -25.4367   18.6156 H   0  0  0  0  0  0
  -29.2279  -15.1160   21.7346 H   0  0  0  0  0  0
  1 25  1  0  0  0
  1 30  2  0  0  0
  1 86  1  0  0  0
  2  3  1  0  0  0
  2 25  1  0  0  0
  2 88  1  0  0  0
  2 89  1  0  0  0
  3  4  1  0  0  0
  3 90  1  0  0  0
  3 91  1  0  0  0
  4  5  1  0  0  0
  4 92  1  0  0  0
  4 93  1  0  0  0
  5  6  1  0  0  0
  5 26  1  0  0  0
  5 94  1  0  0  0
  6 25  1  0  0  0
  6 95  1  0  0  0
  6 96  1  0  0  0
  7  8  2  0  0  0
  7 26  1  0  0  0
  7 29  1  0  0  0
  8  9  1  0  0  0
  8 22  1  0  0  0
  9 10  1  0  0  0
  9 27  2  0  0  0
 10 11  2  0  0  0
 10 15  1  0  0  0
 11 12  1  0  0  0
 11 97  1  0  0  0
 12 13  2  0  0  0
 12 98  1  0  0  0
 13 14  1  0  0  0
 13 31  1  0  0  0
 14 15  2  0  0  0
 14 99  1  0  0  0
 15100  1  0  0  0
 16 17  2  0  0  0
 16 21  1  0  0  0
 16 31  1  0  0  0
 17 18  1  0  0  0
 17101  1  0  0  0
 18 19  2  0  0  0
 18102  1  0  0  0
 19 20  1  0  0  0
 19 24  1  0  0  0
 20 21  2  0  0  0
 20103  1  0  0  0
 21 23  1  0  0  0
 22 28  1  0  0  0
 22 32  2  0  0  0
 26 27  1  0  0  0
 28104  1  0  0  0
 28105  1  0  0  0
 29106  1  0  0  0
 29107  1  0  0  0
 33 34  1  0  0  0
 33 66  1  0  0  0
 33 70  2  0  0  0
 34 36  1  0  0  0
 34 59  1  0  0  0
 34108  1  0  0  0
 35 44  2  0  0  0
 35 45  1  0  0  0
 35 68  1  0  0  0
 36 56  1  0  0  0
 36109  1  0  0  0
 37 39  1  0  0  0
 37 47  1  0  0  0
 37 66  1  0  0  0
 37110  1  0  0  0
 38 43  2  0  0  0
 38 46  1  0  0  0
 38 47  1  0  0  0
 39 64  1  0  0  0
 39 67  2  0  0  0
 40 52  1  0  0  0
 40 53  2  0  0  0
 40 58  1  0  0  0
 41111  1  0  0  0
 41112  1  0  0  0
 41113  1  0  0  0
 41 48  1  0  0  0
 42 43  1  0  0  0
 42 66  1  0  0  0
 42114  1  0  0  0
 42115  1  0  0  0
 43 44  1  0  0  0
 44116  1  0  0  0
 45 46  2  0  0  0
 45117  1  0  0  0
 46118  1  0  0  0
 47119  1  0  0  0
 47120  1  0  0  0
 48 56  1  0  0  0
 48 65  1  0  0  0
 48121  1  0  0  0
 49 50  1  0  0  0
 49 53  1  0  0  0
 49 64  1  0  0  0
 49122  1  0  0  0
 50 51  1  0  0  0
 50123  1  0  0  0
 50124  1  0  0  0
 51 52  1  0  0  0
 51125  1  0  0  0
 51126  1  0  0  0
 52127  1  0  0  0
 52128  1  0  0  0
 53 54  1  0  0  0
 54 55  2  0  0  0
 54129  1  0  0  0
 55 57  1  0  0  0
 55130  1  0  0  0
 56 69  2  0  0  0
 57 58  2  0  0  0
 57131  1  0  0  0
 58132  1  0  0  0
 59 60  1  0  0  0
 59 61  1  0  0  0
 59 62  1  0  0  0
 60133  1  0  0  0
 60134  1  0  0  0
 60135  1  0  0  0
 61136  1  0  0  0
 61137  1  0  0  0
 61138  1  0  0  0
 62139  1  0  0  0
 62140  1  0  0  0
 62141  1  0  0  0
 63 65  1  0  0  0
 63142  1  0  0  0
 63143  1  0  0  0
 63144  1  0  0  0
 64145  1  0  0  0
 65146  1  0  0  0
 68 84  1  0  0  0
 71 72  2  0  0  0
 71 73  1  0  0  0
 71147  1  0  0  0
 72 74  1  0  0  0
 72148  1  0  0  0
 73 76  2  0  0  0
 73149  1  0  0  0
 74 75  2  0  0  0
 74 83  1  0  0  0
 75 76  1  0  0  0
 75 82  1  0  0  0
 76 86  1  0  0  0
 77 78  1  0  0  0
 77 85  1  0  0  0
 77 87  2  0  0  0
 78 81  1  0  0  0
 78150  1  0  0  0
 78151  1  0  0  0
 79 80  1  0  0  0
 79 81  1  0  0  0
 79152  1  0  0  0
 79153  1  0  0  0
 80 85  1  0  0  0
 80154  1  0  0  0
 80155  1  0  0  0
 81 84  1  0  0  0
 81156  1  0  0  0
 82157  1  0  0  0
 82158  1  0  0  0
 82159  1  0  0  0
 83 85  1  0  0  0
 83160  1  0  0  0
 83161  1  0  0  0
 84162  1  0  0  0
 84163  1  0  0  0
 86164  1  0  0  0
M  ISO  4   1 100  68 101  84 101  86 100
M  END
> <chiral flag>
0

> <version>
0

> <s_m_source_file>
/data/baiqing/PycharmProjects/Reinvent-master-3.2/result/LINK_invent/BTK/process_docking_weight1_custom_product_contain_oxygen_bond_distance_aromatic_linkinvent_7_9_3/rearranged_h_0055.sdf

> <i_m_source_file_index>
51

> <r_mmod_Potential_Energy-OPLS-2005>
-26.7871284484863

> <r_mmod_Stretch_Energy-OPLS-2005>
50.6972732543945

> <r_mmod_Bend_Energy-OPLS-2005>
120.145149230957

> <r_mmod_Torsional_Energy-OPLS-2005>
240.209503173828

> <r_mmod_Improper_Torsional_Energy-OPLS-2005>
2.92887544631958

> <r_mmod_Van_der_Waal_Energy-OPLS-2005>
179.788070678711

> <r_mmod_Electrostatic_Energy-OPLS-2005>
-408.738037109375

> <r_mmod_Solvation_Energy-OPLS-2005>
-227.783813476562

> <b_mmod_Minimization_Converged-OPLS-2005>
0

> <r_mmod_RMS_Derivative-OPLS-2005>
5.43968534469604

$$$$
51
                    3D
 Structure written by MMmdl.
167175  0  0  1  0            999 V2000
  -30.7415  -14.3840   20.6539 C   0  0  0  0  0  0
  -30.4182  -12.2913   19.3879 C   0  0  0  0  0  0
  -29.4839  -12.5646   18.1934 C   0  0  0  0  0  0
  -27.9972  -12.4763   18.5913 C   0  0  0  0  0  0
  -27.6748  -13.2256   19.9109 C   0  0  2  0  0  0
  -28.7207  -12.9074   21.0032 C   0  0  0  0  0  0
  -25.2577  -13.8208   20.5697 C   0  0  0  0  0  0
  -24.1875  -13.0444   20.9172 C   0  0  0  0  0  0
  -24.6492  -11.6920   20.8797 C   0  0  0  0  0  0
  -23.9152  -10.4288   21.0435 C   0  0  0  0  0  0
  -24.3697   -9.4193   21.9231 C   0  0  0  0  0  0
  -23.6356   -8.2239   22.0784 C   0  0  0  0  0  0
  -22.4340   -8.0312   21.3570 C   0  0  0  0  0  0
  -21.9985   -9.0285   20.4664 C   0  0  0  0  0  0
  -22.7322  -10.2151   20.3084 C   0  0  0  0  0  0
  -21.6834   -6.0767   22.5281 C   0  0  0  0  0  0
  -21.4008   -6.5661   23.8225 C   0  0  0  0  0  0
  -21.3672   -5.6819   24.9180 C   0  0  0  0  0  0
  -21.6076   -4.3097   24.7228 C   0  0  0  0  0  0
  -21.8822   -3.8179   23.4346 C   0  0  0  0  0  0
  -21.9181   -4.7005   22.3398 C   0  0  0  0  0  0
  -22.7891  -13.5191   21.1758 C   0  0  0  0  0  0
  -22.1652   -4.2197   21.0958 F   0  0  0  0  0  0
  -21.5608   -3.4568   25.7739 F   0  0  0  0  0  0
  -30.0572  -13.2242   20.4665 N   0  0  0  0  0  0
  -26.3126  -12.9425   20.3570 N   0  0  0  0  0  0
  -25.9443  -11.6570   20.5953 N   0  0  0  0  0  0
  -22.0552  -12.8225   22.0357 N   0  0  0  0  0  0
  -25.4195  -15.1958   20.4142 N   0  0  0  0  0  0
  -31.8114  -14.6224   20.0821 O   0  0  0  0  0  0
  -21.6670   -6.8922   21.4252 O   0  0  0  0  0  0
  -22.3569  -14.5491   20.6591 O   0  0  0  0  0  0
  -24.6136  -31.8708   23.2148 C   0  0  0  0  0  0
  -25.9041  -32.4825   23.8428 C   0  0  1  0  0  0
  -27.2407  -27.4755   20.0572 C   0  0  0  0  0  0
  -25.5922  -33.8620   24.2387 N   0  0  0  0  0  0
  -23.3963  -30.4993   21.5534 C   0  0  2  0  0  0
  -24.8397  -28.9640   20.1225 C   0  0  0  0  0  0
  -22.7404  -29.4688   22.4982 C   0  0  0  0  0  0
  -18.0266  -28.1359   22.8459 C   0  0  0  0  0  0
  -24.1491  -36.7323   23.2642 C   0  0  0  0  0  0
  -25.9236  -30.8414   21.3635 C   0  0  0  0  0  0
  -25.9994  -29.4738   20.7196 C   0  0  0  0  0  0
  -27.1994  -28.7311   20.6985 C   0  0  0  0  0  0
  -26.0490  -26.9544   19.4986 C   0  0  0  0  0  0
  -24.8562  -27.6972   19.5185 C   0  0  0  0  0  0
  -23.6040  -29.8329   20.1670 C   0  0  0  0  0  0
  -25.4099  -36.3124   24.0362 C   0  0  1  0  0  0
  -20.5864  -28.3651   23.1295 C   0  0  2  0  0  0
  -20.6763  -26.9373   22.5407 C   0  0  0  0  0  0
  -19.5743  -26.6366   21.5189 C   0  0  0  0  0  0
  -18.1912  -26.7902   22.1593 C   0  0  0  0  0  0
  -19.1518  -28.8817   23.2878 C   0  0  0  0  0  0
  -18.9459  -30.1424   23.8887 C   0  0  0  0  0  0
  -17.6465  -30.6561   24.0558 C   0  0  0  0  0  0
  -25.9029  -34.9468   23.5163 C   0  0  0  0  0  0
  -16.5348  -29.9062   23.6331 C   0  0  0  0  0  0
  -16.7265  -28.6488   23.0330 C   0  0  0  0  0  0
  -26.4487  -31.6574   25.0717 C   0  0  0  0  0  0
  -25.3799  -31.3615   26.1498 C   0  0  0  0  0  0
  -27.0356  -30.3050   24.6036 C   0  0  0  0  0  0
  -27.6080  -32.4267   25.7478 C   0  0  0  0  0  0
  -27.5589  -37.1820   24.8465 C   0  0  0  0  0  0
  -21.4128  -29.3043   22.3723 N   0  0  0  0  0  0
  -26.4296  -37.3799   23.9420 N   0  0  0  0  0  0
  -24.6619  -31.0879   22.1013 N   0  0  0  0  0  0
  -23.4213  -28.8199   23.2976 O   0  0  0  0  0  0
  -28.4415  -26.8128   19.9446 O   0  0  0  0  0  0
  -26.5562  -34.8923   22.4711 O   0  0  0  0  0  0
  -23.5340  -32.1421   23.7572 O   0  0  0  0  0  0
  -30.2248  -17.2521   22.8862 C   0  0  0  0  0  0
  -30.5027  -18.6159   23.0828 C   0  0  0  0  0  0
  -30.9913  -17.4397   20.5756 C   0  0  0  0  0  0
  -31.2777  -18.8134   20.7632 C   0  0  0  0  0  0
  -30.4835  -16.6462   21.6385 C   0  0  0  0  0  0
  -31.0235  -19.3946   22.0368 C   0  0  0  0  0  0
  -31.8099  -19.6196   19.6016 C   0  0  0  0  0  0
  -30.1032  -25.8981   18.3943 C   0  0  0  0  0  0
  -32.5222  -23.6476   19.9542 C   0  0  0  0  0  0
  -33.7134  -22.6643   17.9663 C   0  0  0  0  0  0
  -28.6176  -26.1157   18.7051 C   0  0  0  0  0  0
  -31.4002  -21.8443   18.5427 C   0  0  0  0  0  0
  -31.7665  -24.1799   17.5923 C   0  0  0  0  0  0
  -32.3392  -23.0783   18.5289 C   0  0  0  0  0  0
  -30.1666  -15.2680   21.4827 N   0  0  0  0  0  0
  -31.5901  -20.9349   19.6692 N   0  0  0  0  0  0
  -30.4437  -24.6620   18.0005 N   0  0  0  0  0  0
  -32.2887  -19.0751   18.6028 O   0  0  0  0  0  0
  -30.9097  -26.8325   18.4777 O   0  0  0  0  0  0
  -31.2443  -20.7116   22.2799 F   0  0  0  0  0  0
  -31.4600  -12.4020   19.0800 H   0  0  0  0  0  0
  -30.3135  -11.2575   19.7256 H   0  0  0  0  0  0
  -29.6898  -11.8779   17.3741 H   0  0  0  0  0  0
  -29.6935  -13.5635   17.8047 H   0  0  0  0  0  0
  -27.7189  -11.4277   18.6819 H   0  0  0  0  0  0
  -27.3874  -12.8875   17.7837 H   0  0  0  0  0  0
  -27.7398  -14.2958   19.7075 H   0  0  0  0  0  0
  -28.6925  -11.8442   21.2531 H   0  0  0  0  0  0
  -28.4972  -13.4173   21.9419 H   0  0  0  0  0  0
  -25.2818   -9.5659   22.4832 H   0  0  0  0  0  0
  -24.0051   -7.4630   22.7536 H   0  0  0  0  0  0
  -21.0888   -8.8848   19.8986 H   0  0  0  0  0  0
  -22.3814  -10.9727   19.6226 H   0  0  0  0  0  0
  -21.2033   -7.6179   23.9731 H   0  0  0  0  0  0
  -21.1461   -6.0560   25.9086 H   0  0  0  0  0  0
  -22.0596   -2.7670   23.2829 H   0  0  0  0  0  0
  -22.4150  -11.9914   22.4787 H   0  0  0  0  0  0
  -21.1213  -13.1317   22.2483 H   0  0  0  0  0  0
  -24.6512  -15.8370   20.5640 H   0  0  0  0  0  0
  -26.2734  -15.6625   20.1340 H   0  0  0  0  0  0
  -26.7107  -32.5574   23.1206 H   0  0  0  0  0  0
  -25.0173  -33.9771   25.0597 H   0  0  0  0  0  0
  -22.6839  -31.3144   21.4161 H   0  0  0  0  0  0
  -23.3750  -35.9663   23.3295 H   0  0  0  0  0  0
  -24.3599  -36.8923   22.2061 H   0  0  0  0  0  0
  -23.7238  -37.6534   23.6629 H   0  0  0  0  0  0
  -26.0351  -31.6005   20.5873 H   0  0  0  0  0  0
  -26.8147  -30.8989   21.9758 H   0  0  0  0  0  0
  -28.1007  -29.1370   21.1345 H   0  0  0  0  0  0
  -26.0323  -25.9855   19.0205 H   0  0  0  0  0  0
  -23.9620  -27.2959   19.0606 H   0  0  0  0  0  0
  -23.7150  -30.6082   19.4076 H   0  0  0  0  0  0
  -22.7273  -29.2566   19.8690 H   0  0  0  0  0  0
  -25.1263  -36.2008   25.0854 H   0  0  0  0  0  0
  -20.9957  -28.3221   24.1419 H   0  0  0  0  0  0
  -20.5631  -26.2267   23.3613 H   0  0  0  0  0  0
  -21.6642  -26.7390   22.1212 H   0  0  0  0  0  0
  -19.6911  -25.6275   21.1213 H   0  0  0  0  0  0
  -19.6694  -27.3203   20.6730 H   0  0  0  0  0  0
  -17.4195  -26.6661   21.3978 H   0  0  0  0  0  0
  -18.0295  -26.0027   22.8973 H   0  0  0  0  0  0
  -19.7944  -30.7225   24.2268 H   0  0  0  0  0  0
  -17.5022  -31.6238   24.5164 H   0  0  0  0  0  0
  -15.5350  -30.2972   23.7640 H   0  0  0  0  0  0
  -15.8664  -28.0818   22.7034 H   0  0  0  0  0  0
  -24.5972  -30.6958   25.7844 H   0  0  0  0  0  0
  -24.9009  -32.2754   26.5028 H   0  0  0  0  0  0
  -25.8214  -30.8739   27.0207 H   0  0  0  0  0  0
  -26.2893  -29.6736   24.1215 H   0  0  0  0  0  0
  -27.4336  -29.7321   25.4423 H   0  0  0  0  0  0
  -27.8613  -30.4421   23.9048 H   0  0  0  0  0  0
  -27.2718  -33.3548   26.2113 H   0  0  0  0  0  0
  -28.3878  -32.6844   25.0294 H   0  0  0  0  0  0
  -28.0774  -31.8349   26.5357 H   0  0  0  0  0  0
  -28.2594  -38.0129   24.7528 H   0  0  0  0  0  0
  -28.1095  -36.2665   24.6261 H   0  0  0  0  0  0
  -27.2315  -37.1437   25.8868 H   0  0  0  0  0  0
  -20.9290  -29.8835   21.6994 H   0  0  0  0  0  0
  -26.0192  -38.2883   24.1411 H   0  0  0  0  0  0
  -29.8002  -16.6886   23.7075 H   0  0  0  0  0  0
  -30.3142  -19.0779   24.0441 H   0  0  0  0  0  0
  -31.1544  -17.0050   19.5995 H   0  0  0  0  0  0
  -33.1491  -23.0084   20.5742 H   0  0  0  0  0  0
  -31.5679  -23.7597   20.4705 H   0  0  0  0  0  0
  -32.9983  -24.6303   19.9220 H   0  0  0  0  0  0
  -34.1755  -21.8621   18.5407 H   0  0  0  0  0  0
  -34.4089  -23.5068   17.9580 H   0  0  0  0  0  0
  -33.6383  -22.3101   16.9355 H   0  0  0  0  0  0
  -28.1089  -25.1529   18.7442 H   0  0  0  0  0  0
  -28.1919  -26.6848   17.8777 H   0  0  0  0  0  0
  -31.4166  -21.3202   17.5816 H   0  0  0  0  0  0
  -30.3748  -22.1762   18.6795 H   0  0  0  0  0  0
  -31.6739  -23.7798   16.5786 H   0  0  0  0  0  0
  -32.4680  -25.0133   17.5122 H   0  0  0  0  0  0
  -29.3931  -14.9219   22.0260 H   0  0  0  0  0  0
  -31.2530  -21.2590   20.5690 H   0  0  0  0  0  0
  -29.6779  -23.9989   17.9336 H   0  0  0  0  0  0
  1 25  1  0  0  0
  1 30  2  0  0  0
  1 85  1  0  0  0
  2  3  1  0  0  0
  2 25  1  0  0  0
  2 91  1  0  0  0
  2 92  1  0  0  0
  3  4  1  0  0  0
  3 93  1  0  0  0
  3 94  1  0  0  0
  4  5  1  0  0  0
  4 95  1  0  0  0
  4 96  1  0  0  0
  5  6  1  0  0  0
  5 26  1  0  0  0
  5 97  1  0  0  0
  6 25  1  0  0  0
  6 98  1  0  0  0
  6 99  1  0  0  0
  7  8  2  0  0  0
  7 26  1  0  0  0
  7 29  1  0  0  0
  8  9  1  0  0  0
  8 22  1  0  0  0
  9 10  1  0  0  0
  9 27  2  0  0  0
 10 11  2  0  0  0
 10 15  1  0  0  0
 11 12  1  0  0  0
 11100  1  0  0  0
 12 13  2  0  0  0
 12101  1  0  0  0
 13 14  1  0  0  0
 13 31  1  0  0  0
 14 15  2  0  0  0
 14102  1  0  0  0
 15103  1  0  0  0
 16 17  2  0  0  0
 16 21  1  0  0  0
 16 31  1  0  0  0
 17 18  1  0  0  0
 17104  1  0  0  0
 18 19  2  0  0  0
 18105  1  0  0  0
 19 20  1  0  0  0
 19 24  1  0  0  0
 20 21  2  0  0  0
 20106  1  0  0  0
 21 23  1  0  0  0
 22 28  1  0  0  0
 22 32  2  0  0  0
 26 27  1  0  0  0
 28107  1  0  0  0
 28108  1  0  0  0
 29109  1  0  0  0
 29110  1  0  0  0
 33 34  1  0  0  0
 33 66  1  0  0  0
 33 70  2  0  0  0
 34 36  1  0  0  0
 34 59  1  0  0  0
 34111  1  0  0  0
 35 44  2  0  0  0
 35 45  1  0  0  0
 35 68  1  0  0  0
 36 56  1  0  0  0
 36112  1  0  0  0
 37 39  1  0  0  0
 37 47  1  0  0  0
 37 66  1  0  0  0
 37113  1  0  0  0
 38 43  2  0  0  0
 38 46  1  0  0  0
 38 47  1  0  0  0
 39 64  1  0  0  0
 39 67  2  0  0  0
 40 52  1  0  0  0
 40 53  2  0  0  0
 40 58  1  0  0  0
 41114  1  0  0  0
 41115  1  0  0  0
 41116  1  0  0  0
 41 48  1  0  0  0
 42 43  1  0  0  0
 42 66  1  0  0  0
 42117  1  0  0  0
 42118  1  0  0  0
 43 44  1  0  0  0
 44119  1  0  0  0
 45 46  2  0  0  0
 45120  1  0  0  0
 46121  1  0  0  0
 47122  1  0  0  0
 47123  1  0  0  0
 48 56  1  0  0  0
 48 65  1  0  0  0
 48124  1  0  0  0
 49 50  1  0  0  0
 49 53  1  0  0  0
 49 64  1  0  0  0
 49125  1  0  0  0
 50 51  1  0  0  0
 50126  1  0  0  0
 50127  1  0  0  0
 51 52  1  0  0  0
 51128  1  0  0  0
 51129  1  0  0  0
 52130  1  0  0  0
 52131  1  0  0  0
 53 54  1  0  0  0
 54 55  2  0  0  0
 54132  1  0  0  0
 55 57  1  0  0  0
 55133  1  0  0  0
 56 69  2  0  0  0
 57 58  2  0  0  0
 57134  1  0  0  0
 58135  1  0  0  0
 59 60  1  0  0  0
 59 61  1  0  0  0
 59 62  1  0  0  0
 60136  1  0  0  0
 60137  1  0  0  0
 60138  1  0  0  0
 61139  1  0  0  0
 61140  1  0  0  0
 61141  1  0  0  0
 62142  1  0  0  0
 62143  1  0  0  0
 62144  1  0  0  0
 63 65  1  0  0  0
 63145  1  0  0  0
 63146  1  0  0  0
 63147  1  0  0  0
 64148  1  0  0  0
 65149  1  0  0  0
 68 81  1  0  0  0
 71 72  2  0  0  0
 71 75  1  0  0  0
 71150  1  0  0  0
 72 76  1  0  0  0
 72151  1  0  0  0
 73 74  1  0  0  0
 73 75  2  0  0  0
 73152  1  0  0  0
 74 76  2  0  0  0
 74 77  1  0  0  0
 75 85  1  0  0  0
 76 90  1  0  0  0
 77 86  1  0  0  0
 77 88  2  0  0  0
 78 81  1  0  0  0
 78 87  1  0  0  0
 78 89  2  0  0  0
 79153  1  0  0  0
 79154  1  0  0  0
 79155  1  0  0  0
 79 84  1  0  0  0
 80 84  1  0  0  0
 80156  1  0  0  0
 80157  1  0  0  0
 80158  1  0  0  0
 81159  1  0  0  0
 81160  1  0  0  0
 82 84  1  0  0  0
 82 86  1  0  0  0
 82161  1  0  0  0
 82162  1  0  0  0
 83 84  1  0  0  0
 83 87  1  0  0  0
 83163  1  0  0  0
 83164  1  0  0  0
 85165  1  0  0  0
 86166  1  0  0  0
 87167  1  0  0  0
M  ISO  4   1 100  68 101  81 101  85 100
M  END
> <chiral flag>
0

> <version>
0

> <s_m_source_file>
/data/baiqing/PycharmProjects/Reinvent-master-3.2/result/LINK_invent/BTK/process_docking_weight1_custom_product_contain_oxygen_bond_distance_aromatic_linkinvent_7_9_3/rearranged_h_0055.sdf

> <i_m_source_file_index>
52

> <r_mmod_Potential_Energy-OPLS-2005>
-160.372116088867

> <r_mmod_Stretch_Energy-OPLS-2005>
36.8798217773438

> <r_mmod_Bend_Energy-OPLS-2005>
105.058418273926

> <r_mmod_Torsional_Energy-OPLS-2005>
259.112579345703

> <r_mmod_Improper_Torsional_Energy-OPLS-2005>
4.60529088973999

> <r_mmod_Van_der_Waal_Energy-OPLS-2005>
173.626449584961

> <r_mmod_Electrostatic_Energy-OPLS-2005>
-486.607666015625

> <r_mmod_Solvation_Energy-OPLS-2005>
-262.411193847656

> <b_mmod_Minimization_Converged-OPLS-2005>
0

> <r_mmod_RMS_Derivative-OPLS-2005>
6.53258228302002

$$$$
52
                    3D
 Structure written by MMmdl.
160168  0  0  1  0            999 V2000
  -30.7134  -14.4747   20.5538 C   0  0  0  0  0  0
  -30.4185  -12.3060   19.4150 C   0  0  0  0  0  0
  -29.4906  -12.5027   18.1994 C   0  0  0  0  0  0
  -28.0127  -12.3661   18.6149 C   0  0  0  0  0  0
  -27.6595  -13.2074   19.8705 C   0  0  2  0  0  0
  -28.7062  -13.0046   20.9893 C   0  0  0  0  0  0
  -25.2578  -13.8160   20.5665 C   0  0  0  0  0  0
  -24.1820  -13.0444   20.9151 C   0  0  0  0  0  0
  -24.6378  -11.6909   20.8717 C   0  0  0  0  0  0
  -23.9042  -10.4298   21.0389 C   0  0  0  0  0  0
  -24.3593   -9.4216   21.9171 C   0  0  0  0  0  0
  -23.6273   -8.2258   22.0751 C   0  0  0  0  0  0
  -22.4250   -8.0287   21.3547 C   0  0  0  0  0  0
  -21.9881   -9.0255   20.4644 C   0  0  0  0  0  0
  -22.7217  -10.2131   20.3050 C   0  0  0  0  0  0
  -21.6856   -6.0726   22.5271 C   0  0  0  0  0  0
  -21.4017   -6.5623   23.8206 C   0  0  0  0  0  0
  -21.3660   -5.6775   24.9160 C   0  0  0  0  0  0
  -21.6041   -4.3042   24.7216 C   0  0  0  0  0  0
  -21.8822   -3.8136   23.4337 C   0  0  0  0  0  0
  -21.9192   -4.6954   22.3390 C   0  0  0  0  0  0
  -22.7853  -13.5259   21.1812 C   0  0  0  0  0  0
  -22.1661   -4.2141   21.0972 F   0  0  0  0  0  0
  -21.5629   -3.4527   25.7727 F   0  0  0  0  0  0
  -30.0347  -13.3021   20.4273 N   0  0  0  0  0  0
  -26.3016  -12.9330   20.3353 N   0  0  0  0  0  0
  -25.9299  -11.6495   20.5743 N   0  0  0  0  0  0
  -22.0478  -12.8277   22.0370 N   0  0  0  0  0  0
  -25.4290  -15.1874   20.4068 N   0  0  0  0  0  0
  -31.8589  -14.6309   20.1222 O   0  0  0  0  0  0
  -21.6635   -6.8874   21.4240 O   0  0  0  0  0  0
  -22.3561  -14.5579   20.6674 O   0  0  0  0  0  0
  -24.6172  -31.8684   23.2101 C   0  0  0  0  0  0
  -25.9069  -32.4821   23.8400 C   0  0  1  0  0  0
  -27.2335  -27.4160   20.1018 C   0  0  0  0  0  0
  -25.5923  -33.8623   24.2337 N   0  0  0  0  0  0
  -23.4060  -30.4940   21.5498 C   0  0  2  0  0  0
  -24.8533  -28.9644   20.1118 C   0  0  0  0  0  0
  -22.7427  -29.4673   22.4966 C   0  0  0  0  0  0
  -18.0286  -28.1390   22.8482 C   0  0  0  0  0  0
  -24.1483  -36.7309   23.2633 C   0  0  0  0  0  0
  -25.9375  -30.8290   21.3671 C   0  0  0  0  0  0
  -26.0147  -29.4625   20.7143 C   0  0  0  0  0  0
  -27.2067  -28.6965   20.7081 C   0  0  0  0  0  0
  -26.0499  -26.9481   19.4797 C   0  0  0  0  0  0
  -24.8675  -27.7074   19.4886 C   0  0  0  0  0  0
  -23.6164  -29.8323   20.1626 C   0  0  0  0  0  0
  -25.4100  -36.3109   24.0340 C   0  0  1  0  0  0
  -20.5876  -28.3687   23.1302 C   0  0  2  0  0  0
  -20.6780  -26.9420   22.5410 C   0  0  0  0  0  0
  -19.5756  -26.6398   21.5208 C   0  0  0  0  0  0
  -18.1936  -26.7938   22.1617 C   0  0  0  0  0  0
  -19.1533  -28.8852   23.2894 C   0  0  0  0  0  0
  -18.9463  -30.1457   23.8911 C   0  0  0  0  0  0
  -17.6463  -30.6586   24.0577 C   0  0  0  0  0  0
  -25.9036  -34.9473   23.5132 C   0  0  0  0  0  0
  -16.5357  -29.9094   23.6323 C   0  0  0  0  0  0
  -16.7275  -28.6516   23.0331 C   0  0  0  0  0  0
  -26.4493  -31.6594   25.0725 C   0  0  0  0  0  0
  -25.3753  -31.3704   26.1465 C   0  0  0  0  0  0
  -27.0327  -30.3037   24.6100 C   0  0  0  0  0  0
  -27.6075  -32.4300   25.7485 C   0  0  0  0  0  0
  -27.5585  -37.1797   24.8459 C   0  0  0  0  0  0
  -21.4150  -29.3051   22.3701 N   0  0  0  0  0  0
  -26.4282  -37.3799   23.9424 N   0  0  0  0  0  0
  -24.6718  -31.0779   22.1010 N   0  0  0  0  0  0
  -23.4190  -28.8206   23.3014 O   0  0  0  0  0  0
  -28.3864  -26.6437   20.1413 O   0  0  0  0  0  0
  -26.5582  -34.8930   22.4682 O   0  0  0  0  0  0
  -23.5360  -32.1448   23.7485 O   0  0  0  0  0  0
  -31.9206  -18.5310   22.1101 C   0  0  0  0  0  0
  -31.1942  -19.5726   21.5075 C   0  0  0  0  0  0
  -31.5365  -17.1925   21.9141 C   0  0  0  0  0  0
  -30.0838  -19.2972   20.6784 C   0  0  0  0  0  0
  -29.6835  -17.9368   20.4960 C   0  0  0  0  0  0
  -30.4127  -16.8785   21.1187 C   0  0  0  0  0  0
  -29.0256  -22.8294   20.6435 C   0  0  0  0  0  0
  -28.4733  -17.6226   19.6198 C   0  0  0  0  0  0
  -31.1071  -22.1202   19.5009 C   0  0  0  0  0  0
  -29.3201  -20.4429   19.9773 C   0  0  0  0  0  0
  -29.4041  -24.3330   20.4893 C   0  0  0  0  0  0
  -28.1801  -25.2122   20.1156 C   0  0  0  0  0  0
  -29.9890  -15.5158   21.0140 N   0  0  0  0  0  0
  -29.8075  -21.8423   20.1220 N   0  0  0  0  0  0
  -27.9738  -22.5626   21.2332 O   0  0  0  0  0  0
  -31.4644  -12.3903   19.1132 H   0  0  0  0  0  0
  -30.3054  -11.2995   19.8199 H   0  0  0  0  0  0
  -29.7252  -11.7758   17.4206 H   0  0  0  0  0  0
  -29.6631  -13.4858   17.7564 H   0  0  0  0  0  0
  -27.8205  -11.3111   18.8129 H   0  0  0  0  0  0
  -27.3623  -12.6413   17.7836 H   0  0  0  0  0  0
  -27.6976  -14.2513   19.5627 H   0  0  0  0  0  0
  -28.6826  -11.9748   21.3484 H   0  0  0  0  0  0
  -28.4754  -13.6236   21.8575 H   0  0  0  0  0  0
  -25.2734   -9.5694   22.4755 H   0  0  0  0  0  0
  -23.9972   -7.4644   22.7475 H   0  0  0  0  0  0
  -21.0809   -8.8776   19.8949 H   0  0  0  0  0  0
  -22.3670  -10.9667   19.6162 H   0  0  0  0  0  0
  -21.2020   -7.6131   23.9708 H   0  0  0  0  0  0
  -21.1473   -6.0499   25.9063 H   0  0  0  0  0  0
  -22.0600   -2.7603   23.2835 H   0  0  0  0  0  0
  -22.4079  -11.9943   22.4788 H   0  0  0  0  0  0
  -21.1114  -13.1353   22.2581 H   0  0  0  0  0  0
  -24.6590  -15.8399   20.5025 H   0  0  0  0  0  0
  -26.2822  -15.6275   20.0905 H   0  0  0  0  0  0
  -26.7146  -32.5540   23.1171 H   0  0  0  0  0  0
  -25.0130  -33.9784   25.0522 H   0  0  0  0  0  0
  -22.6954  -31.3114   21.4121 H   0  0  0  0  0  0
  -23.3753  -35.9633   23.3286 H   0  0  0  0  0  0
  -24.3589  -36.8929   22.2050 H   0  0  0  0  0  0
  -23.7222  -37.6505   23.6652 H   0  0  0  0  0  0
  -26.0504  -31.5936   20.5968 H   0  0  0  0  0  0
  -26.8250  -30.8843   21.9858 H   0  0  0  0  0  0
  -28.0969  -29.0720   21.1937 H   0  0  0  0  0  0
  -26.0118  -25.9930   18.9791 H   0  0  0  0  0  0
  -23.9792  -27.3212   19.0084 H   0  0  0  0  0  0
  -23.7284  -30.6103   19.4062 H   0  0  0  0  0  0
  -22.7401  -29.2553   19.8618 H   0  0  0  0  0  0
  -25.1267  -36.1967   25.0830 H   0  0  0  0  0  0
  -20.9973  -28.3266   24.1421 H   0  0  0  0  0  0
  -20.5693  -26.2295   23.3602 H   0  0  0  0  0  0
  -21.6653  -26.7474   22.1199 H   0  0  0  0  0  0
  -19.6922  -25.6312   21.1234 H   0  0  0  0  0  0
  -19.6690  -27.3212   20.6740 H   0  0  0  0  0  0
  -17.4201  -26.6682   21.4023 H   0  0  0  0  0  0
  -18.0342  -26.0084   22.9018 H   0  0  0  0  0  0
  -19.7940  -30.7269   24.2284 H   0  0  0  0  0  0
  -17.5022  -31.6260   24.5192 H   0  0  0  0  0  0
  -15.5359  -30.3000   23.7646 H   0  0  0  0  0  0
  -15.8680  -28.0852   22.7019 H   0  0  0  0  0  0
  -24.5921  -30.7060   25.7800 H   0  0  0  0  0  0
  -24.8950  -32.2861   26.4921 H   0  0  0  0  0  0
  -25.8097  -30.8864   27.0222 H   0  0  0  0  0  0
  -26.2873  -29.6781   24.1176 H   0  0  0  0  0  0
  -27.4133  -29.7285   25.4554 H   0  0  0  0  0  0
  -27.8694  -30.4363   23.9234 H   0  0  0  0  0  0
  -27.2711  -33.3591   26.2102 H   0  0  0  0  0  0
  -28.3868  -32.6870   25.0296 H   0  0  0  0  0  0
  -28.0769  -31.8394   26.5367 H   0  0  0  0  0  0
  -28.2577  -38.0121   24.7555 H   0  0  0  0  0  0
  -28.1105  -36.2657   24.6212 H   0  0  0  0  0  0
  -27.2321  -37.1368   25.8865 H   0  0  0  0  0  0
  -20.9309  -29.8776   21.6925 H   0  0  0  0  0  0
  -26.0170  -38.2871   24.1448 H   0  0  0  0  0  0
  -32.7735  -18.7626   22.7331 H   0  0  0  0  0  0
  -31.5112  -20.5895   21.6873 H   0  0  0  0  0  0
  -32.1037  -16.4087   22.3969 H   0  0  0  0  0  0
  -28.5380  -18.1398   18.6624 H   0  0  0  0  0  0
  -27.5581  -17.9440   20.1181 H   0  0  0  0  0  0
  -28.3759  -16.5648   19.3843 H   0  0  0  0  0  0
  -30.9846  -22.6864   18.5773 H   0  0  0  0  0  0
  -31.6446  -21.2061   19.2458 H   0  0  0  0  0  0
  -31.7479  -22.6876   20.1781 H   0  0  0  0  0  0
  -28.2738  -20.3569   20.2740 H   0  0  0  0  0  0
  -29.3238  -20.2343   18.9067 H   0  0  0  0  0  0
  -30.1772  -24.4867   19.7391 H   0  0  0  0  0  0
  -29.8223  -24.6666   21.4386 H   0  0  0  0  0  0
  -27.3588  -24.9794   20.7968 H   0  0  0  0  0  0
  -27.8648  -24.9150   19.1148 H   0  0  0  0  0  0
  -29.0127  -15.3269   21.1806 H   0  0  0  0  0  0
  1 25  1  0  0  0
  1 30  2  0  0  0
  1 83  1  0  0  0
  2  3  1  0  0  0
  2 25  1  0  0  0
  2 86  1  0  0  0
  2 87  1  0  0  0
  3  4  1  0  0  0
  3 88  1  0  0  0
  3 89  1  0  0  0
  4  5  1  0  0  0
  4 90  1  0  0  0
  4 91  1  0  0  0
  5  6  1  0  0  0
  5 26  1  0  0  0
  5 92  1  0  0  0
  6 25  1  0  0  0
  6 93  1  0  0  0
  6 94  1  0  0  0
  7  8  2  0  0  0
  7 26  1  0  0  0
  7 29  1  0  0  0
  8  9  1  0  0  0
  8 22  1  0  0  0
  9 10  1  0  0  0
  9 27  2  0  0  0
 10 11  2  0  0  0
 10 15  1  0  0  0
 11 12  1  0  0  0
 11 95  1  0  0  0
 12 13  2  0  0  0
 12 96  1  0  0  0
 13 14  1  0  0  0
 13 31  1  0  0  0
 14 15  2  0  0  0
 14 97  1  0  0  0
 15 98  1  0  0  0
 16 17  2  0  0  0
 16 21  1  0  0  0
 16 31  1  0  0  0
 17 18  1  0  0  0
 17 99  1  0  0  0
 18 19  2  0  0  0
 18100  1  0  0  0
 19 20  1  0  0  0
 19 24  1  0  0  0
 20 21  2  0  0  0
 20101  1  0  0  0
 21 23  1  0  0  0
 22 28  1  0  0  0
 22 32  2  0  0  0
 26 27  1  0  0  0
 28102  1  0  0  0
 28103  1  0  0  0
 29104  1  0  0  0
 29105  1  0  0  0
 33 34  1  0  0  0
 33 66  1  0  0  0
 33 70  2  0  0  0
 34 36  1  0  0  0
 34 59  1  0  0  0
 34106  1  0  0  0
 35 44  2  0  0  0
 35 45  1  0  0  0
 35 68  1  0  0  0
 36 56  1  0  0  0
 36107  1  0  0  0
 37 39  1  0  0  0
 37 47  1  0  0  0
 37 66  1  0  0  0
 37108  1  0  0  0
 38 43  2  0  0  0
 38 46  1  0  0  0
 38 47  1  0  0  0
 39 64  1  0  0  0
 39 67  2  0  0  0
 40 52  1  0  0  0
 40 53  2  0  0  0
 40 58  1  0  0  0
 41109  1  0  0  0
 41110  1  0  0  0
 41111  1  0  0  0
 41 48  1  0  0  0
 42 43  1  0  0  0
 42 66  1  0  0  0
 42112  1  0  0  0
 42113  1  0  0  0
 43 44  1  0  0  0
 44114  1  0  0  0
 45 46  2  0  0  0
 45115  1  0  0  0
 46116  1  0  0  0
 47117  1  0  0  0
 47118  1  0  0  0
 48 56  1  0  0  0
 48 65  1  0  0  0
 48119  1  0  0  0
 49 50  1  0  0  0
 49 53  1  0  0  0
 49 64  1  0  0  0
 49120  1  0  0  0
 50 51  1  0  0  0
 50121  1  0  0  0
 50122  1  0  0  0
 51 52  1  0  0  0
 51123  1  0  0  0
 51124  1  0  0  0
 52125  1  0  0  0
 52126  1  0  0  0
 53 54  1  0  0  0
 54 55  2  0  0  0
 54127  1  0  0  0
 55 57  1  0  0  0
 55128  1  0  0  0
 56 69  2  0  0  0
 57 58  2  0  0  0
 57129  1  0  0  0
 58130  1  0  0  0
 59 60  1  0  0  0
 59 61  1  0  0  0
 59 62  1  0  0  0
 60131  1  0  0  0
 60132  1  0  0  0
 60133  1  0  0  0
 61134  1  0  0  0
 61135  1  0  0  0
 61136  1  0  0  0
 62137  1  0  0  0
 62138  1  0  0  0
 62139  1  0  0  0
 63 65  1  0  0  0
 63140  1  0  0  0
 63141  1  0  0  0
 63142  1  0  0  0
 64143  1  0  0  0
 65144  1  0  0  0
 68 82  1  0  0  0
 71 72  2  0  0  0
 71 73  1  0  0  0
 71145  1  0  0  0
 72 74  1  0  0  0
 72146  1  0  0  0
 73 76  2  0  0  0
 73147  1  0  0  0
 74 75  2  0  0  0
 74 80  1  0  0  0
 75 76  1  0  0  0
 75 78  1  0  0  0
 76 83  1  0  0  0
 77 81  1  0  0  0
 77 84  1  0  0  0
 77 85  2  0  0  0
 78148  1  0  0  0
 78149  1  0  0  0
 78150  1  0  0  0
 79 84  1  0  0  0
 79151  1  0  0  0
 79152  1  0  0  0
 79153  1  0  0  0
 80 84  1  0  0  0
 80154  1  0  0  0
 80155  1  0  0  0
 81 82  1  0  0  0
 81156  1  0  0  0
 81157  1  0  0  0
 82158  1  0  0  0
 82159  1  0  0  0
 83160  1  0  0  0
M  ISO  4   1 100  68 101  82 101  83 100
M  END
> <chiral flag>
0

> <version>
0

> <s_m_source_file>
/data/baiqing/PycharmProjects/Reinvent-master-3.2/result/LINK_invent/BTK/process_docking_weight1_custom_product_contain_oxygen_bond_distance_aromatic_linkinvent_7_9_3/rearranged_h_0055.sdf

> <i_m_source_file_index>
53

> <r_mmod_Potential_Energy-OPLS-2005>
-63.4083938598633

> <r_mmod_Stretch_Energy-OPLS-2005>
46.8359985351562

> <r_mmod_Bend_Energy-OPLS-2005>
100.083473205566

> <r_mmod_Torsional_Energy-OPLS-2005>
236.438201904297

> <r_mmod_Improper_Torsional_Energy-OPLS-2005>
4.47859716415405

> <r_mmod_Van_der_Waal_Energy-OPLS-2005>
172.67024230957

> <r_mmod_Electrostatic_Energy-OPLS-2005>
-409.351165771484

> <r_mmod_Solvation_Energy-OPLS-2005>
-230.970855712891

> <b_mmod_Minimization_Converged-OPLS-2005>
0

> <r_mmod_RMS_Derivative-OPLS-2005>
1.87640106678009

$$$$
53
                    3D
 Structure written by MMmdl.
155163  0  0  1  0            999 V2000
  -30.5710  -14.6857   20.3900 C   0  0  0  0  0  0
  -30.4530  -12.4429   19.3522 C   0  0  0  0  0  0
  -29.4609  -12.5167   18.1701 C   0  0  0  0  0  0
  -28.0093  -12.3117   18.6459 C   0  0  0  0  0  0
  -27.6520  -13.2045   19.8654 C   0  0  2  0  0  0
  -28.7354  -13.0785   20.9694 C   0  0  0  0  0  0
  -25.2590  -13.8185   20.5653 C   0  0  0  0  0  0
  -24.1829  -13.0417   20.9183 C   0  0  0  0  0  0
  -24.6440  -11.6942   20.8876 C   0  0  0  0  0  0
  -23.9129  -10.4288   21.0505 C   0  0  0  0  0  0
  -24.3665   -9.4188   21.9259 C   0  0  0  0  0  0
  -23.6305   -8.2251   22.0838 C   0  0  0  0  0  0
  -22.4299   -8.0320   21.3582 C   0  0  0  0  0  0
  -21.9925   -9.0320   20.4703 C   0  0  0  0  0  0
  -22.7320  -10.2171   20.3112 C   0  0  0  0  0  0
  -21.6854   -6.0765   22.5277 C   0  0  0  0  0  0
  -21.4008   -6.5645   23.8217 C   0  0  0  0  0  0
  -21.3635   -5.6796   24.9167 C   0  0  0  0  0  0
  -21.6032   -4.3056   24.7227 C   0  0  0  0  0  0
  -21.8836   -3.8168   23.4344 C   0  0  0  0  0  0
  -21.9211   -4.6991   22.3418 C   0  0  0  0  0  0
  -22.7845  -13.5252   21.1801 C   0  0  0  0  0  0
  -22.1656   -4.2140   21.1002 F   0  0  0  0  0  0
  -21.5638   -3.4549   25.7761 F   0  0  0  0  0  0
  -30.0186  -13.4387   20.3497 N   0  0  0  0  0  0
  -26.3054  -12.9314   20.3498 N   0  0  0  0  0  0
  -25.9398  -11.6498   20.6053 N   0  0  0  0  0  0
  -22.0448  -12.8213   22.0339 N   0  0  0  0  0  0
  -25.4164  -15.1916   20.4015 N   0  0  0  0  0  0
  -31.7576  -14.8758   20.1008 O   0  0  0  0  0  0
  -21.6680   -6.8902   21.4241 O   0  0  0  0  0  0
  -22.3572  -14.5551   20.6694 O   0  0  0  0  0  0
  -24.6253  -31.8611   23.1999 C   0  0  0  0  0  0
  -25.9087  -32.4783   23.8394 C   0  0  1  0  0  0
  -27.2057  -27.2998   20.1364 C   0  0  0  0  0  0
  -25.5830  -33.8579   24.2316 N   0  0  0  0  0  0
  -23.4184  -30.4962   21.5373 C   0  0  2  0  0  0
  -24.8620  -28.9501   20.0899 C   0  0  0  0  0  0
  -22.7523  -29.4720   22.4802 C   0  0  0  0  0  0
  -18.0352  -28.1368   22.8561 C   0  0  0  0  0  0
  -24.1448  -36.7332   23.2657 C   0  0  0  0  0  0
  -25.9613  -30.7844   21.3738 C   0  0  0  0  0  0
  -26.0260  -29.4081   20.7207 C   0  0  0  0  0  0
  -27.1993  -28.5967   20.7373 C   0  0  0  0  0  0
  -26.0293  -26.9049   19.4613 C   0  0  0  0  0  0
  -24.8726  -27.7059   19.4347 C   0  0  0  0  0  0
  -23.6263  -29.8285   20.1498 C   0  0  0  0  0  0
  -25.4078  -36.3131   24.0393 C   0  0  1  0  0  0
  -20.5938  -28.3838   23.1217 C   0  0  2  0  0  0
  -20.6772  -26.9451   22.5567 C   0  0  0  0  0  0
  -19.5805  -26.6426   21.5272 C   0  0  0  0  0  0
  -18.2012  -26.7895   22.1783 C   0  0  0  0  0  0
  -19.1591  -28.8916   23.2844 C   0  0  0  0  0  0
  -18.9478  -30.1479   23.8904 C   0  0  0  0  0  0
  -17.6455  -30.6575   24.0565 C   0  0  0  0  0  0
  -25.9031  -34.9466   23.5197 C   0  0  0  0  0  0
  -16.5367  -29.9020   23.6298 C   0  0  0  0  0  0
  -16.7334  -28.6440   23.0356 C   0  0  0  0  0  0
  -26.4443  -31.6573   25.0767 C   0  0  0  0  0  0
  -25.3689  -31.3640   26.1537 C   0  0  0  0  0  0
  -27.0313  -30.3019   24.6160 C   0  0  0  0  0  0
  -27.6025  -32.4312   25.7495 C   0  0  0  0  0  0
  -27.5589  -37.1845   24.8503 C   0  0  0  0  0  0
  -21.4228  -29.3106   22.3536 N   0  0  0  0  0  0
  -26.4295  -37.3813   23.9439 N   0  0  0  0  0  0
  -24.6881  -31.0704   22.0856 N   0  0  0  0  0  0
  -23.4254  -28.8237   23.2890 O   0  0  0  0  0  0
  -28.2952  -26.4155   20.2108 O   0  0  0  0  0  0
  -26.5655  -34.8940   22.4792 O   0  0  0  0  0  0
  -23.5420  -32.1327   23.7366 O   0  0  0  0  0  0
  -29.4799  -18.3610   22.9969 C   0  0  0  0  0  0
  -29.7462  -17.1484   22.3422 C   0  0  0  0  0  0
  -29.2070  -19.5358   22.2701 C   0  0  0  0  0  0
  -29.4240  -18.2868   20.1823 C   0  0  0  0  0  0
  -29.6984  -17.0657   20.9320 C   0  0  0  0  0  0
  -29.2032  -19.5522   20.8588 C   0  0  0  0  0  0
  -29.0703  -24.0389   20.8775 C   0  0  0  0  0  0
  -29.3624  -22.6886   20.9062 C   0  0  0  0  0  0
  -29.2891  -18.2323   18.6659 C   0  0  0  0  0  0
  -28.0281  -24.9453   20.1526 C   0  0  0  0  0  0
  -27.0880  -21.2997   20.5089 N   0  0  0  0  0  0
  -29.6517  -15.7079   20.4049 N   0  0  0  0  0  0
  -28.9496  -21.2565   18.6574 O   0  0  0  0  0  0
  -28.5893  -21.1756   20.0893 S   0  0  2  0  0  0
  -31.4619  -12.6439   18.9805 H   0  0  0  0  0  0
  -30.4953  -11.4466   19.7893 H   0  0  0  0  0  0
  -29.7162  -11.7824   17.4054 H   0  0  0  0  0  0
  -29.5298  -13.5021   17.7035 H   0  0  0  0  0  0
  -27.8709  -11.2540   18.8884 H   0  0  0  0  0  0
  -27.3190  -12.5075   17.8273 H   0  0  0  0  0  0
  -27.6475  -14.2304   19.4968 H   0  0  0  0  0  0
  -28.7975  -12.0546   21.3482 H   0  0  0  0  0  0
  -28.5370  -13.7143   21.8385 H   0  0  0  0  0  0
  -25.2834   -9.5635   22.4775 H   0  0  0  0  0  0
  -24.0031   -7.4657   22.7540 H   0  0  0  0  0  0
  -21.0862   -8.8887   19.8986 H   0  0  0  0  0  0
  -22.3864  -10.9728   19.6184 H   0  0  0  0  0  0
  -21.1964   -7.6140   23.9707 H   0  0  0  0  0  0
  -21.1426   -6.0517   25.9059 H   0  0  0  0  0  0
  -22.0648   -2.7621   23.2879 H   0  0  0  0  0  0
  -22.4087  -11.9899   22.4720 H   0  0  0  0  0  0
  -21.1115  -13.1293   22.2625 H   0  0  0  0  0  0
  -24.6550  -15.8370   20.5710 H   0  0  0  0  0  0
  -26.2692  -15.6692   20.1324 H   0  0  0  0  0  0
  -26.7201  -32.5455   23.1218 H   0  0  0  0  0  0
  -24.9975  -33.9675   25.0468 H   0  0  0  0  0  0
  -22.7046  -31.3161   21.3989 H   0  0  0  0  0  0
  -23.3708  -35.9672   23.3346 H   0  0  0  0  0  0
  -24.3580  -36.8917   22.2069 H   0  0  0  0  0  0
  -23.7183  -37.6543   23.6642 H   0  0  0  0  0  0
  -26.1106  -31.5225   20.5850 H   0  0  0  0  0  0
  -26.8398  -30.8333   22.0083 H   0  0  0  0  0  0
  -28.0898  -28.9281   21.2560 H   0  0  0  0  0  0
  -25.9926  -25.9561   18.9506 H   0  0  0  0  0  0
  -24.0000  -27.3698   18.8940 H   0  0  0  0  0  0
  -23.7108  -30.5942   19.3794 H   0  0  0  0  0  0
  -22.7465  -29.2451   19.8715 H   0  0  0  0  0  0
  -25.1225  -36.2063   25.0897 H   0  0  0  0  0  0
  -21.0104  -28.3543   24.1288 H   0  0  0  0  0  0
  -21.6666  -26.7308   22.1560 H   0  0  0  0  0  0
  -20.5491  -26.2481   23.3900 H   0  0  0  0  0  0
  -19.6942  -25.6370   21.1203 H   0  0  0  0  0  0
  -19.6720  -27.3294   20.6816 H   0  0  0  0  0  0
  -17.4213  -26.6441   21.4371 H   0  0  0  0  0  0
  -18.0493  -26.0138   22.9291 H   0  0  0  0  0  0
  -19.7982  -30.7367   24.2157 H   0  0  0  0  0  0
  -17.5010  -31.6290   24.5154 H   0  0  0  0  0  0
  -15.5388  -30.2935   23.7492 H   0  0  0  0  0  0
  -15.8764  -28.0676   22.7110 H   0  0  0  0  0  0
  -24.5861  -30.6999   25.7856 H   0  0  0  0  0  0
  -24.8892  -32.2752   26.5094 H   0  0  0  0  0  0
  -25.8048  -30.8720   27.0262 H   0  0  0  0  0  0
  -26.2860  -29.6777   24.1218 H   0  0  0  0  0  0
  -27.4096  -29.7259   25.4628 H   0  0  0  0  0  0
  -27.8693  -30.4386   23.9335 H   0  0  0  0  0  0
  -27.2641  -33.3611   26.2112 H   0  0  0  0  0  0
  -28.3747  -32.6917   25.0225 H   0  0  0  0  0  0
  -28.0820  -31.8447   26.5360 H   0  0  0  0  0  0
  -28.2659  -38.0078   24.7508 H   0  0  0  0  0  0
  -28.1005  -36.2639   24.6335 H   0  0  0  0  0  0
  -27.2364  -37.1548   25.8917 H   0  0  0  0  0  0
  -20.9371  -29.8926   21.6818 H   0  0  0  0  0  0
  -26.0210  -38.2941   24.1275 H   0  0  0  0  0  0
  -29.4598  -18.3708   24.0759 H   0  0  0  0  0  0
  -29.9098  -16.2777   22.9635 H   0  0  0  0  0  0
  -28.9594  -20.4376   22.8078 H   0  0  0  0  0  0
  -29.7042  -24.6356   21.5102 H   0  0  0  0  0  0
  -30.2007  -22.3949   21.5246 H   0  0  0  0  0  0
  -29.7404  -17.3243   18.2796 H   0  0  0  0  0  0
  -29.8165  -19.0603   18.1918 H   0  0  0  0  0  0
  -28.2492  -18.2798   18.3392 H   0  0  0  0  0  0
  -27.0690  -24.7356   20.6314 H   0  0  0  0  0  0
  -27.9612  -24.6058   19.1169 H   0  0  0  0  0  0
  -26.8441  -22.2729   20.6973 H   0  0  0  0  0  0
  -28.7192  -15.3248   20.4535 H   0  0  0  0  0  0
  1 25  1  0  0  0
  1 30  2  0  0  0
  1 82  1  0  0  0
  2  3  1  0  0  0
  2 25  1  0  0  0
  2 85  1  0  0  0
  2 86  1  0  0  0
  3  4  1  0  0  0
  3 87  1  0  0  0
  3 88  1  0  0  0
  4  5  1  0  0  0
  4 89  1  0  0  0
  4 90  1  0  0  0
  5  6  1  0  0  0
  5 26  1  0  0  0
  5 91  1  0  0  0
  6 25  1  0  0  0
  6 92  1  0  0  0
  6 93  1  0  0  0
  7  8  2  0  0  0
  7 26  1  0  0  0
  7 29  1  0  0  0
  8  9  1  0  0  0
  8 22  1  0  0  0
  9 10  1  0  0  0
  9 27  2  0  0  0
 10 11  2  0  0  0
 10 15  1  0  0  0
 11 12  1  0  0  0
 11 94  1  0  0  0
 12 13  2  0  0  0
 12 95  1  0  0  0
 13 14  1  0  0  0
 13 31  1  0  0  0
 14 15  2  0  0  0
 14 96  1  0  0  0
 15 97  1  0  0  0
 16 17  2  0  0  0
 16 21  1  0  0  0
 16 31  1  0  0  0
 17 18  1  0  0  0
 17 98  1  0  0  0
 18 19  2  0  0  0
 18 99  1  0  0  0
 19 20  1  0  0  0
 19 24  1  0  0  0
 20 21  2  0  0  0
 20100  1  0  0  0
 21 23  1  0  0  0
 22 28  1  0  0  0
 22 32  2  0  0  0
 26 27  1  0  0  0
 28101  1  0  0  0
 28102  1  0  0  0
 29103  1  0  0  0
 29104  1  0  0  0
 33 34  1  0  0  0
 33 66  1  0  0  0
 33 70  2  0  0  0
 34 36  1  0  0  0
 34 59  1  0  0  0
 34105  1  0  0  0
 35 44  2  0  0  0
 35 45  1  0  0  0
 35 68  1  0  0  0
 36 56  1  0  0  0
 36106  1  0  0  0
 37 39  1  0  0  0
 37 47  1  0  0  0
 37 66  1  0  0  0
 37107  1  0  0  0
 38 43  2  0  0  0
 38 46  1  0  0  0
 38 47  1  0  0  0
 39 64  1  0  0  0
 39 67  2  0  0  0
 40 52  1  0  0  0
 40 53  2  0  0  0
 40 58  1  0  0  0
 41108  1  0  0  0
 41109  1  0  0  0
 41110  1  0  0  0
 41 48  1  0  0  0
 42 43  1  0  0  0
 42 66  1  0  0  0
 42111  1  0  0  0
 42112  1  0  0  0
 43 44  1  0  0  0
 44113  1  0  0  0
 45 46  2  0  0  0
 45114  1  0  0  0
 46115  1  0  0  0
 47116  1  0  0  0
 47117  1  0  0  0
 48 56  1  0  0  0
 48 65  1  0  0  0
 48118  1  0  0  0
 49 50  1  0  0  0
 49 53  1  0  0  0
 49 64  1  0  0  0
 49119  1  0  0  0
 50 51  1  0  0  0
 50120  1  0  0  0
 50121  1  0  0  0
 51 52  1  0  0  0
 51122  1  0  0  0
 51123  1  0  0  0
 52124  1  0  0  0
 52125  1  0  0  0
 53 54  1  0  0  0
 54 55  2  0  0  0
 54126  1  0  0  0
 55 57  1  0  0  0
 55127  1  0  0  0
 56 69  2  0  0  0
 57 58  2  0  0  0
 57128  1  0  0  0
 58129  1  0  0  0
 59 60  1  0  0  0
 59 61  1  0  0  0
 59 62  1  0  0  0
 60130  1  0  0  0
 60131  1  0  0  0
 60132  1  0  0  0
 61133  1  0  0  0
 61134  1  0  0  0
 61135  1  0  0  0
 62136  1  0  0  0
 62137  1  0  0  0
 62138  1  0  0  0
 63 65  1  0  0  0
 63139  1  0  0  0
 63140  1  0  0  0
 63141  1  0  0  0
 64142  1  0  0  0
 65143  1  0  0  0
 68 80  1  0  0  0
 71 72  2  0  0  0
 71 73  1  0  0  0
 71144  1  0  0  0
 72 75  1  0  0  0
 72145  1  0  0  0
 73 76  2  0  0  0
 73146  1  0  0  0
 74 75  2  0  0  0
 74 76  1  0  0  0
 74 79  1  0  0  0
 75 82  1  0  0  0
 76 84  1  0  0  0
 77 78  2  0  0  0
 77 80  1  0  0  0
 77147  1  0  0  0
 78148  1  0  0  0
 78 84  1  0  0  0
 79149  1  0  0  0
 79150  1  0  0  0
 79151  1  0  0  0
 80152  1  0  0  0
 80153  1  0  0  0
 81 84  2  0  0  0
 81154  1  0  0  0
 82155  1  0  0  0
 83 84  2  0  0  0
M  ISO  4   1 100  68 101  80 101  82 100
M  END
> <chiral flag>
0

> <version>
0

> <s_m_source_file>
/data/baiqing/PycharmProjects/Reinvent-master-3.2/result/LINK_invent/BTK/process_docking_weight1_custom_product_contain_oxygen_bond_distance_aromatic_linkinvent_7_9_3/rearranged_h_0055.sdf

> <i_m_source_file_index>
54

> <r_mmod_Potential_Energy-OPLS-2005>
83.0615768432617

> <r_mmod_Stretch_Energy-OPLS-2005>
95.1325073242188

> <r_mmod_Bend_Energy-OPLS-2005>
173.509506225586

> <r_mmod_Torsional_Energy-OPLS-2005>
261.816955566406

> <r_mmod_Improper_Torsional_Energy-OPLS-2005>
15.4023675918579

> <r_mmod_Van_der_Waal_Energy-OPLS-2005>
135.16748046875

> <r_mmod_Electrostatic_Energy-OPLS-2005>
-421.854156494141

> <r_mmod_Solvation_Energy-OPLS-2005>
-249.003311157227

> <b_mmod_Minimization_Converged-OPLS-2005>
0

> <r_mmod_RMS_Derivative-OPLS-2005>
11.8107318878174

$$$$
54
                    3D
 Structure written by MMmdl.
163171  0  0  1  0            999 V2000
  -30.7557  -14.5068   20.6420 C   0  0  0  0  0  0
  -30.4168  -12.3586   19.4407 C   0  0  0  0  0  0
  -29.4963  -12.5256   18.2140 C   0  0  0  0  0  0
  -28.0212  -12.3566   18.6187 C   0  0  0  0  0  0
  -27.6524  -13.2154   19.8543 C   0  0  2  0  0  0
  -28.6845  -13.0393   20.9845 C   0  0  0  0  0  0
  -25.2540  -13.8159   20.5603 C   0  0  0  0  0  0
  -24.1824  -13.0427   20.9163 C   0  0  0  0  0  0
  -24.6402  -11.6906   20.8719 C   0  0  0  0  0  0
  -23.9076  -10.4294   21.0399 C   0  0  0  0  0  0
  -24.3627   -9.4211   21.9180 C   0  0  0  0  0  0
  -23.6301   -8.2247   22.0757 C   0  0  0  0  0  0
  -22.4281   -8.0286   21.3549 C   0  0  0  0  0  0
  -21.9917   -9.0257   20.4647 C   0  0  0  0  0  0
  -22.7248  -10.2133   20.3051 C   0  0  0  0  0  0
  -21.6853   -6.0741   22.5284 C   0  0  0  0  0  0
  -21.4008   -6.5647   23.8214 C   0  0  0  0  0  0
  -21.3654   -5.6799   24.9177 C   0  0  0  0  0  0
  -21.6041   -4.3060   24.7228 C   0  0  0  0  0  0
  -21.8824   -3.8155   23.4348 C   0  0  0  0  0  0
  -21.9195   -4.6971   22.3407 C   0  0  0  0  0  0
  -22.7860  -13.5219   21.1863 C   0  0  0  0  0  0
  -22.1665   -4.2154   21.0982 F   0  0  0  0  0  0
  -21.5627   -3.4547   25.7744 F   0  0  0  0  0  0
  -30.0276  -13.3557   20.4617 N   0  0  0  0  0  0
  -26.2967  -12.9348   20.3227 N   0  0  0  0  0  0
  -25.9323  -11.6504   20.5695 N   0  0  0  0  0  0
  -22.0535  -12.8197   22.0431 N   0  0  0  0  0  0
  -25.4228  -15.1874   20.3972 N   0  0  0  0  0  0
  -31.8062  -14.6820   20.0169 O   0  0  0  0  0  0
  -21.6639   -6.8886   21.4244 O   0  0  0  0  0  0
  -22.3540  -14.5529   20.6735 O   0  0  0  0  0  0
  -24.6157  -31.8650   23.2095 C   0  0  0  0  0  0
  -25.9038  -32.4816   23.8405 C   0  0  1  0  0  0
  -27.2348  -27.4152   20.1019 C   0  0  0  0  0  0
  -25.5893  -33.8619   24.2333 N   0  0  0  0  0  0
  -23.4075  -30.4871   21.5511 C   0  0  2  0  0  0
  -24.8570  -28.9532   20.1139 C   0  0  0  0  0  0
  -22.7426  -29.4639   22.5004 C   0  0  0  0  0  0
  -18.0254  -28.1385   22.8501 C   0  0  0  0  0  0
  -24.1470  -36.7301   23.2647 C   0  0  0  0  0  0
  -25.9383  -30.8257   21.3670 C   0  0  0  0  0  0
  -26.0192  -29.4596   20.7127 C   0  0  0  0  0  0
  -27.2148  -28.6991   20.7014 C   0  0  0  0  0  0
  -26.0593  -26.9320   19.4891 C   0  0  0  0  0  0
  -24.8729  -27.6898   19.4975 C   0  0  0  0  0  0
  -23.6177  -29.8201   20.1660 C   0  0  0  0  0  0
  -25.4097  -36.3108   24.0341 C   0  0  1  0  0  0
  -20.5851  -28.3665   23.1311 C   0  0  2  0  0  0
  -20.6752  -26.9397   22.5428 C   0  0  0  0  0  0
  -19.5730  -26.6373   21.5231 C   0  0  0  0  0  0
  -18.1894  -26.7936   22.1617 C   0  0  0  0  0  0
  -19.1510  -28.8841   23.2897 C   0  0  0  0  0  0
  -18.9454  -30.1451   23.8907 C   0  0  0  0  0  0
  -17.6462  -30.6609   24.0558 C   0  0  0  0  0  0
  -25.9028  -34.9473   23.5132 C   0  0  0  0  0  0
  -16.5346  -29.9114   23.6339 C   0  0  0  0  0  0
  -16.7247  -28.6520   23.0380 C   0  0  0  0  0  0
  -26.4460  -31.6608   25.0744 C   0  0  0  0  0  0
  -25.3719  -31.3710   26.1487 C   0  0  0  0  0  0
  -27.0321  -30.3058   24.6142 C   0  0  0  0  0  0
  -27.6038  -32.4334   25.7496 C   0  0  0  0  0  0
  -27.5574  -37.1788   24.8465 C   0  0  0  0  0  0
  -21.4151  -29.3028   22.3732 N   0  0  0  0  0  0
  -26.4283  -37.3794   23.9421 N   0  0  0  0  0  0
  -24.6728  -31.0735   22.1007 N   0  0  0  0  0  0
  -23.4177  -28.8177   23.3058 O   0  0  0  0  0  0
  -28.3653  -26.6199   20.1085 O   0  0  0  0  0  0
  -26.5603  -34.8923   22.4699 O   0  0  0  0  0  0
  -23.5345  -32.1415   23.7474 O   0  0  0  0  0  0
  -32.3116  -18.6420   21.4628 C   0  0  0  0  0  0
  -31.3564  -19.6288   21.1720 C   0  0  0  0  0  0
  -31.9381  -17.2906   21.5218 C   0  0  0  0  0  0
  -30.0077  -19.2868   20.9195 C   0  0  0  0  0  0
  -29.6336  -17.8989   20.9710 C   0  0  0  0  0  0
  -30.6065  -16.8868   21.2701 C   0  0  0  0  0  0
  -29.0806  -24.2324   20.5050 C   0  0  0  0  0  0
  -28.6476  -22.9449   20.5357 C   0  0  0  0  0  0
  -28.1789  -17.5097   20.7441 C   0  0  0  0  0  0
  -30.0269  -15.1616   22.8879 C   0  0  0  0  0  0
  -29.8657  -21.6776   18.7633 C   0  0  0  0  0  0
  -28.9704  -20.4268   20.6999 C   0  0  0  0  0  0
  -28.2407  -25.4429   20.9386 C   0  0  0  0  0  0
  -30.2807  -15.4890   21.4768 N   0  0  0  0  0  0
  -29.4987  -21.7411   20.1958 N   0  3  2  0  0  0
  -31.4615  -12.4451   19.1374 H   0  0  0  0  0  0
  -30.3206  -11.3541   19.8544 H   0  0  0  0  0  0
  -29.7575  -11.7981   17.4437 H   0  0  0  0  0  0
  -29.6481  -13.5109   17.7684 H   0  0  0  0  0  0
  -27.8530  -11.3010   18.8358 H   0  0  0  0  0  0
  -27.3674  -12.6001   17.7802 H   0  0  0  0  0  0
  -27.6847  -14.2571   19.5354 H   0  0  0  0  0  0
  -28.6732  -12.0159   21.3603 H   0  0  0  0  0  0
  -28.3745  -13.6601   21.8184 H   0  0  0  0  0  0
  -25.2776   -9.5689   22.4749 H   0  0  0  0  0  0
  -24.0018   -7.4640   22.7478 H   0  0  0  0  0  0
  -21.0844   -8.8770   19.8953 H   0  0  0  0  0  0
  -22.3707  -10.9666   19.6159 H   0  0  0  0  0  0
  -21.1994   -7.6151   23.9713 H   0  0  0  0  0  0
  -21.1462   -6.0528   25.9074 H   0  0  0  0  0  0
  -22.0602   -2.7615   23.2853 H   0  0  0  0  0  0
  -22.4152  -11.9817   22.4735 H   0  0  0  0  0  0
  -21.1171  -13.1235   22.2705 H   0  0  0  0  0  0
  -24.6489  -15.8379   20.4766 H   0  0  0  0  0  0
  -26.2671  -15.6166   20.0442 H   0  0  0  0  0  0
  -26.7115  -32.5523   23.1182 H   0  0  0  0  0  0
  -25.0062  -33.9781   25.0489 H   0  0  0  0  0  0
  -22.6972  -31.3041   21.4103 H   0  0  0  0  0  0
  -23.3748  -35.9614   23.3302 H   0  0  0  0  0  0
  -24.3585  -36.8930   22.2067 H   0  0  0  0  0  0
  -23.7186  -37.6484   23.6679 H   0  0  0  0  0  0
  -26.0503  -31.5905   20.5977 H   0  0  0  0  0  0
  -26.8240  -30.8809   21.9890 H   0  0  0  0  0  0
  -28.1108  -29.0818   21.1702 H   0  0  0  0  0  0
  -26.0611  -25.9619   19.0125 H   0  0  0  0  0  0
  -23.9830  -27.2931   19.0290 H   0  0  0  0  0  0
  -23.7261  -30.5959   19.4065 H   0  0  0  0  0  0
  -22.7418  -29.2400   19.8710 H   0  0  0  0  0  0
  -25.1259  -36.1985   25.0833 H   0  0  0  0  0  0
  -20.9921  -28.3247   24.1443 H   0  0  0  0  0  0
  -20.5671  -26.2284   23.3634 H   0  0  0  0  0  0
  -21.6620  -26.7455   22.1207 H   0  0  0  0  0  0
  -19.6893  -25.6282   21.1272 H   0  0  0  0  0  0
  -19.6679  -27.3181   20.6763 H   0  0  0  0  0  0
  -17.4176  -26.6714   21.3999 H   0  0  0  0  0  0
  -18.0241  -26.0073   22.8998 H   0  0  0  0  0  0
  -19.7947  -30.7239   24.2300 H   0  0  0  0  0  0
  -17.5042  -31.6299   24.5144 H   0  0  0  0  0  0
  -15.5357  -30.3028   23.7684 H   0  0  0  0  0  0
  -15.8635  -28.0850   22.7118 H   0  0  0  0  0  0
  -24.5924  -30.7019   25.7827 H   0  0  0  0  0  0
  -24.8865  -32.2858   26.4903 H   0  0  0  0  0  0
  -25.8053  -30.8920   27.0276 H   0  0  0  0  0  0
  -26.2884  -29.6794   24.1209 H   0  0  0  0  0  0
  -27.4114  -29.7320   25.4606 H   0  0  0  0  0  0
  -27.8696  -30.4391   23.9289 H   0  0  0  0  0  0
  -27.2676  -33.3650   26.2066 H   0  0  0  0  0  0
  -28.3843  -32.6870   25.0308 H   0  0  0  0  0  0
  -28.0720  -31.8472   26.5417 H   0  0  0  0  0  0
  -28.2567  -38.0108   24.7561 H   0  0  0  0  0  0
  -28.1084  -36.2642   24.6225 H   0  0  0  0  0  0
  -27.2309  -37.1368   25.8871 H   0  0  0  0  0  0
  -20.9333  -29.8786   21.6971 H   0  0  0  0  0  0
  -26.0171  -38.2856   24.1491 H   0  0  0  0  0  0
  -33.3350  -18.9248   21.6711 H   0  0  0  0  0  0
  -31.6890  -20.6569   21.1722 H   0  0  0  0  0  0
  -32.6879  -16.5578   21.7875 H   0  0  0  0  0  0
  -30.0912  -24.4560   20.1948 H   0  0  0  0  0  0
  -27.6407  -22.6869   20.8347 H   0  0  0  0  0  0
  -27.5164  -18.1105   21.3675 H   0  0  0  0  0  0
  -27.9781  -16.4675   20.9850 H   0  0  0  0  0  0
  -27.9025  -17.6681   19.7005 H   0  0  0  0  0  0
  -30.6698  -15.7486   23.5454 H   0  0  0  0  0  0
  -30.2153  -14.1143   23.1316 H   0  0  0  0  0  0
  -28.9955  -15.3981   23.1522 H   0  0  0  0  0  0
  -28.9768  -21.5964   18.1374 H   0  0  0  0  0  0
  -30.5080  -20.8225   18.5550 H   0  0  0  0  0  0
  -30.4108  -22.5716   18.4606 H   0  0  0  0  0  0
  -28.4919  -20.5942   21.6660 H   0  0  0  0  0  0
  -28.1766  -20.0998   20.0268 H   0  0  0  0  0  0
  -28.5719  -25.7259   21.9389 H   0  0  0  0  0  0
  -27.2035  -25.1215   21.0488 H   0  0  0  0  0  0
  -30.3703  -21.8515   20.6901 H   0  0  0  0  0  0
  1 25  1  0  0  0
  1 30  2  0  0  0
  1 84  1  0  0  0
  2  3  1  0  0  0
  2 25  1  0  0  0
  2 86  1  0  0  0
  2 87  1  0  0  0
  3  4  1  0  0  0
  3 88  1  0  0  0
  3 89  1  0  0  0
  4  5  1  0  0  0
  4 90  1  0  0  0
  4 91  1  0  0  0
  5  6  1  0  0  0
  5 26  1  0  0  0
  5 92  1  0  0  0
  6 25  1  0  0  0
  6 93  1  0  0  0
  6 94  1  0  0  0
  7  8  2  0  0  0
  7 26  1  0  0  0
  7 29  1  0  0  0
  8  9  1  0  0  0
  8 22  1  0  0  0
  9 10  1  0  0  0
  9 27  2  0  0  0
 10 11  2  0  0  0
 10 15  1  0  0  0
 11 12  1  0  0  0
 11 95  1  0  0  0
 12 13  2  0  0  0
 12 96  1  0  0  0
 13 14  1  0  0  0
 13 31  1  0  0  0
 14 15  2  0  0  0
 14 97  1  0  0  0
 15 98  1  0  0  0
 16 17  2  0  0  0
 16 21  1  0  0  0
 16 31  1  0  0  0
 17 18  1  0  0  0
 17 99  1  0  0  0
 18 19  2  0  0  0
 18100  1  0  0  0
 19 20  1  0  0  0
 19 24  1  0  0  0
 20 21  2  0  0  0
 20101  1  0  0  0
 21 23  1  0  0  0
 22 28  1  0  0  0
 22 32  2  0  0  0
 26 27  1  0  0  0
 28102  1  0  0  0
 28103  1  0  0  0
 29104  1  0  0  0
 29105  1  0  0  0
 33 34  1  0  0  0
 33 66  1  0  0  0
 33 70  2  0  0  0
 34 36  1  0  0  0
 34 59  1  0  0  0
 34106  1  0  0  0
 35 44  2  0  0  0
 35 45  1  0  0  0
 35 68  1  0  0  0
 36 56  1  0  0  0
 36107  1  0  0  0
 37 39  1  0  0  0
 37 47  1  0  0  0
 37 66  1  0  0  0
 37108  1  0  0  0
 38 43  2  0  0  0
 38 46  1  0  0  0
 38 47  1  0  0  0
 39 64  1  0  0  0
 39 67  2  0  0  0
 40 52  1  0  0  0
 40 53  2  0  0  0
 40 58  1  0  0  0
 41109  1  0  0  0
 41110  1  0  0  0
 41111  1  0  0  0
 41 48  1  0  0  0
 42 43  1  0  0  0
 42 66  1  0  0  0
 42112  1  0  0  0
 42113  1  0  0  0
 43 44  1  0  0  0
 44114  1  0  0  0
 45 46  2  0  0  0
 45115  1  0  0  0
 46116  1  0  0  0
 47117  1  0  0  0
 47118  1  0  0  0
 48 56  1  0  0  0
 48 65  1  0  0  0
 48119  1  0  0  0
 49 50  1  0  0  0
 49 53  1  0  0  0
 49 64  1  0  0  0
 49120  1  0  0  0
 50 51  1  0  0  0
 50121  1  0  0  0
 50122  1  0  0  0
 51 52  1  0  0  0
 51123  1  0  0  0
 51124  1  0  0  0
 52125  1  0  0  0
 52126  1  0  0  0
 53 54  1  0  0  0
 54 55  2  0  0  0
 54127  1  0  0  0
 55 57  1  0  0  0
 55128  1  0  0  0
 56 69  2  0  0  0
 57 58  2  0  0  0
 57129  1  0  0  0
 58130  1  0  0  0
 59 60  1  0  0  0
 59 61  1  0  0  0
 59 62  1  0  0  0
 60131  1  0  0  0
 60132  1  0  0  0
 60133  1  0  0  0
 61134  1  0  0  0
 61135  1  0  0  0
 61136  1  0  0  0
 62137  1  0  0  0
 62138  1  0  0  0
 62139  1  0  0  0
 63 65  1  0  0  0
 63140  1  0  0  0
 63141  1  0  0  0
 63142  1  0  0  0
 64143  1  0  0  0
 65144  1  0  0  0
 68 83  1  0  0  0
 71 72  2  0  0  0
 71 73  1  0  0  0
 71145  1  0  0  0
 72 74  1  0  0  0
 72146  1  0  0  0
 73 76  2  0  0  0
 73147  1  0  0  0
 74 75  2  0  0  0
 74 82  1  0  0  0
 75 76  1  0  0  0
 75 79  1  0  0  0
 76 84  1  0  0  0
 77 78  2  0  0  0
 77 83  1  0  0  0
 77148  1  0  0  0
 78 85  1  0  0  0
 78149  1  0  0  0
 79150  1  0  0  0
 79151  1  0  0  0
 79152  1  0  0  0
 80 84  1  0  0  0
 80153  1  0  0  0
 80154  1  0  0  0
 80155  1  0  0  0
 81156  1  0  0  0
 81157  1  0  0  0
 81158  1  0  0  0
 81 85  1  0  0  0
 82 85  1  0  0  0
 82159  1  0  0  0
 82160  1  0  0  0
 83161  1  0  0  0
 83162  1  0  0  0
 85163  1  0  0  0
M  CHG  1  85   1
M  ISO  4   1 100  68 101  83 101  84 100
M  END
> <chiral flag>
0

> <version>
0

> <s_m_source_file>
/data/baiqing/PycharmProjects/Reinvent-master-3.2/result/LINK_invent/BTK/process_docking_weight1_custom_product_contain_oxygen_bond_distance_aromatic_linkinvent_7_9_3/rearranged_h_0055.sdf

> <i_m_source_file_index>
55

> <r_mmod_Potential_Energy-OPLS-2005>
38.9669456481934

> <r_mmod_Stretch_Energy-OPLS-2005>
55.7749862670898

> <r_mmod_Bend_Energy-OPLS-2005>
114.585014343262

> <r_mmod_Torsional_Energy-OPLS-2005>
318.446594238281

> <r_mmod_Improper_Torsional_Energy-OPLS-2005>
5.1804723739624

> <r_mmod_Van_der_Waal_Energy-OPLS-2005>
155.082855224609

> <r_mmod_Electrostatic_Energy-OPLS-2005>
-196.919158935547

> <r_mmod_Solvation_Energy-OPLS-2005>
-430.877075195312

> <b_mmod_Minimization_Converged-OPLS-2005>
0

> <r_mmod_RMS_Derivative-OPLS-2005>
2.00556659698486

$$$$
55
                    3D
 Structure written by MMmdl.
155163  0  0  1  0            999 V2000
  -30.7214  -14.4103   20.5704 C   0  0  0  0  0  0
  -30.4139  -12.2674   19.4173 C   0  0  0  0  0  0
  -29.4912  -12.5061   18.2044 C   0  0  0  0  0  0
  -28.0107  -12.3756   18.6121 C   0  0  0  0  0  0
  -27.6633  -13.2035   19.8785 C   0  0  2  0  0  0
  -28.7024  -12.9607   20.9985 C   0  0  0  0  0  0
  -25.2568  -13.8140   20.5642 C   0  0  0  0  0  0
  -24.1834  -13.0425   20.9185 C   0  0  0  0  0  0
  -24.6389  -11.6894   20.8740 C   0  0  0  0  0  0
  -23.9056  -10.4285   21.0405 C   0  0  0  0  0  0
  -24.3612   -9.4204   21.9186 C   0  0  0  0  0  0
  -23.6288   -8.2240   22.0755 C   0  0  0  0  0  0
  -22.4269   -8.0281   21.3545 C   0  0  0  0  0  0
  -21.9901   -9.0253   20.4647 C   0  0  0  0  0  0
  -22.7227  -10.2134   20.3056 C   0  0  0  0  0  0
  -21.6851   -6.0736   22.5280 C   0  0  0  0  0  0
  -21.4012   -6.5639   23.8215 C   0  0  0  0  0  0
  -21.3661   -5.6795   24.9177 C   0  0  0  0  0  0
  -21.6042   -4.3056   24.7226 C   0  0  0  0  0  0
  -21.8819   -3.8149   23.4348 C   0  0  0  0  0  0
  -21.9192   -4.6966   22.3403 C   0  0  0  0  0  0
  -22.7859  -13.5229   21.1846 C   0  0  0  0  0  0
  -22.1658   -4.2152   21.0981 F   0  0  0  0  0  0
  -21.5632   -3.4538   25.7738 F   0  0  0  0  0  0
  -30.0429  -13.2405   20.4545 N   0  0  0  0  0  0
  -26.3021  -12.9316   20.3359 N   0  0  0  0  0  0
  -25.9315  -11.6478   20.5771 N   0  0  0  0  0  0
  -22.0497  -12.8227   22.0403 N   0  0  0  0  0  0
  -25.4242  -15.1843   20.3953 N   0  0  0  0  0  0
  -31.8572  -14.5747   20.1159 O   0  0  0  0  0  0
  -21.6634   -6.8877   21.4241 O   0  0  0  0  0  0
  -22.3549  -14.5541   20.6699 O   0  0  0  0  0  0
  -24.6104  -31.8705   23.2134 C   0  0  0  0  0  0
  -25.9014  -32.4837   23.8415 C   0  0  1  0  0  0
  -27.2370  -27.4802   20.0922 C   0  0  0  0  0  0
  -25.5881  -33.8634   24.2347 N   0  0  0  0  0  0
  -23.3962  -30.4932   21.5529 C   0  0  2  0  0  0
  -24.8427  -28.9617   20.1176 C   0  0  0  0  0  0
  -22.7387  -29.4670   22.5022 C   0  0  0  0  0  0
  -18.0265  -28.1373   22.8500 C   0  0  0  0  0  0
  -24.1482  -36.7328   23.2638 C   0  0  0  0  0  0
  -25.9192  -30.8511   21.3573 C   0  0  0  0  0  0
  -25.9997  -29.4878   20.7079 C   0  0  0  0  0  0
  -27.2031  -28.7543   20.6907 C   0  0  0  0  0  0
  -26.0694  -26.9551   19.4998 C   0  0  0  0  0  0
  -24.8700  -27.6918   19.5123 C   0  0  0  0  0  0
  -23.6013  -29.8225   20.1678 C   0  0  0  0  0  0
  -25.4101  -36.3124   24.0343 C   0  0  1  0  0  0
  -20.5850  -28.3651   23.1337 C   0  0  2  0  0  0
  -20.6750  -26.9389   22.5429 C   0  0  0  0  0  0
  -19.5732  -26.6383   21.5220 C   0  0  0  0  0  0
  -18.1909  -26.7925   22.1625 C   0  0  0  0  0  0
  -19.1512  -28.8829   23.2915 C   0  0  0  0  0  0
  -18.9442  -30.1440   23.8920 C   0  0  0  0  0  0
  -17.6445  -30.6581   24.0573 C   0  0  0  0  0  0
  -25.9024  -34.9484   23.5142 C   0  0  0  0  0  0
  -16.5336  -29.9086   23.6325 C   0  0  0  0  0  0
  -16.7255  -28.6503   23.0348 C   0  0  0  0  0  0
  -26.4460  -31.6605   25.0727 C   0  0  0  0  0  0
  -25.3751  -31.3698   26.1493 C   0  0  0  0  0  0
  -27.0282  -30.3056   24.6072 C   0  0  0  0  0  0
  -27.6046  -32.4318   25.7482 C   0  0  0  0  0  0
  -27.5583  -37.1811   24.8460 C   0  0  0  0  0  0
  -21.4120  -29.3027   22.3756 N   0  0  0  0  0  0
  -26.4291  -37.3804   23.9411 N   0  0  0  0  0  0
  -24.6602  -31.0844   22.1006 N   0  0  0  0  0  0
  -23.4177  -28.8216   23.3051 O   0  0  0  0  0  0
  -28.4074  -26.7693   20.0716 O   0  0  0  0  0  0
  -26.5592  -34.8932   22.4706 O   0  0  0  0  0  0
  -23.5308  -32.1433   23.7559 O   0  0  0  0  0  0
  -30.8258  -18.5451   19.1470 C   0  0  0  0  0  0
  -28.4155  -18.3627   19.4460 C   0  0  0  0  0  0
  -31.0099  -17.3937   19.9347 C   0  0  0  0  0  0
  -28.5989  -17.2084   20.2319 C   0  0  0  0  0  0
  -29.5265  -19.0113   18.8680 C   0  0  0  0  0  0
  -29.8918  -16.6826   20.4330 C   0  0  0  0  0  0
  -28.6785  -23.3539   19.7628 C   0  0  0  0  0  0
  -29.2004  -24.5066   20.2176 C   0  0  0  0  0  0
  -29.5205  -22.3518   19.1430 C   0  0  0  0  0  0
  -29.3244  -20.1949   17.9383 C   0  0  0  0  0  0
  -28.3852  -25.5944   20.8721 C   0  0  0  0  0  0
  -30.0116  -15.4265   21.0853 N   0  0  0  0  0  0
  -28.7922  -21.3565   18.6329 N   0  0  0  0  0  0
  -30.7515  -22.3885   19.0748 O   0  0  0  0  0  0
  -31.4605  -12.3479   19.1182 H   0  0  0  0  0  0
  -30.2922  -11.2519   19.7973 H   0  0  0  0  0  0
  -29.7231  -11.7986   17.4074 H   0  0  0  0  0  0
  -29.6729  -13.4996   17.7916 H   0  0  0  0  0  0
  -27.8078  -11.3192   18.7915 H   0  0  0  0  0  0
  -27.3659  -12.6710   17.7836 H   0  0  0  0  0  0
  -27.7150  -14.2545   19.5944 H   0  0  0  0  0  0
  -28.6607  -11.9229   21.3326 H   0  0  0  0  0  0
  -28.4721  -13.5576   21.8820 H   0  0  0  0  0  0
  -25.2758   -9.5679   22.4759 H   0  0  0  0  0  0
  -23.9999   -7.4627   22.7466 H   0  0  0  0  0  0
  -21.0836   -8.8765   19.8949 H   0  0  0  0  0  0
  -22.3684  -10.9674   19.6164 H   0  0  0  0  0  0
  -21.1999   -7.6145   23.9725 H   0  0  0  0  0  0
  -21.1484   -6.0520   25.9083 H   0  0  0  0  0  0
  -22.0595   -2.7611   23.2848 H   0  0  0  0  0  0
  -22.4099  -11.9885   22.4794 H   0  0  0  0  0  0
  -21.1126  -13.1277   22.2617 H   0  0  0  0  0  0
  -24.6426  -15.8269   20.4671 H   0  0  0  0  0  0
  -26.2439  -15.6037   19.9775 H   0  0  0  0  0  0
  -26.7095  -32.5565   23.1195 H   0  0  0  0  0  0
  -25.0045  -33.9805   25.0498 H   0  0  0  0  0  0
  -22.6843  -31.3093   21.4145 H   0  0  0  0  0  0
  -23.3741  -35.9662   23.3304 H   0  0  0  0  0  0
  -24.3581  -36.8939   22.2052 H   0  0  0  0  0  0
  -23.7233  -37.6535   23.6648 H   0  0  0  0  0  0
  -26.0230  -31.6181   20.5884 H   0  0  0  0  0  0
  -26.8101  -30.9080   21.9706 H   0  0  0  0  0  0
  -28.1008  -29.1586   21.1378 H   0  0  0  0  0  0
  -26.0918  -25.9829   19.0273 H   0  0  0  0  0  0
  -23.9801  -27.2810   19.0553 H   0  0  0  0  0  0
  -23.7045  -30.5954   19.4052 H   0  0  0  0  0  0
  -22.7272  -29.2370   19.8767 H   0  0  0  0  0  0
  -25.1277  -36.1998   25.0835 H   0  0  0  0  0  0
  -20.9945  -28.3204   24.1455 H   0  0  0  0  0  0
  -20.5644  -26.2257   23.3611 H   0  0  0  0  0  0
  -21.6622  -26.7431   22.1219 H   0  0  0  0  0  0
  -19.6888  -25.6301   21.1233 H   0  0  0  0  0  0
  -19.6677  -27.3212   20.6766 H   0  0  0  0  0  0
  -17.4184  -26.6692   21.4017 H   0  0  0  0  0  0
  -18.0294  -26.0055   22.9006 H   0  0  0  0  0  0
  -19.7919  -30.7253   24.2291 H   0  0  0  0  0  0
  -17.4999  -31.6262   24.5171 H   0  0  0  0  0  0
  -15.5339  -30.2995   23.7632 H   0  0  0  0  0  0
  -15.8653  -28.0831   22.7048 H   0  0  0  0  0  0
  -24.5916  -30.7047   25.7841 H   0  0  0  0  0  0
  -24.8953  -32.2848   26.4975 H   0  0  0  0  0  0
  -25.8125  -30.8850   27.0230 H   0  0  0  0  0  0
  -26.2808  -29.6823   24.1146 H   0  0  0  0  0  0
  -27.4088  -29.7284   25.4511 H   0  0  0  0  0  0
  -27.8627  -30.4392   23.9184 H   0  0  0  0  0  0
  -27.2670  -33.3599   26.2106 H   0  0  0  0  0  0
  -28.3827  -32.6905   25.0288 H   0  0  0  0  0  0
  -28.0745  -31.8414   26.5359 H   0  0  0  0  0  0
  -28.2599  -38.0111   24.7518 H   0  0  0  0  0  0
  -28.1081  -36.2645   24.6267 H   0  0  0  0  0  0
  -27.2309  -37.1443   25.8865 H   0  0  0  0  0  0
  -20.9274  -29.8760   21.6991 H   0  0  0  0  0  0
  -26.0187  -38.2881   24.1425 H   0  0  0  0  0  0
  -31.6882  -19.0504   18.7344 H   0  0  0  0  0  0
  -27.4152  -18.7275   19.2582 H   0  0  0  0  0  0
  -32.0174  -17.0450   20.1095 H   0  0  0  0  0  0
  -27.7336  -16.7056   20.6374 H   0  0  0  0  0  0
  -27.6162  -23.1795   19.8640 H   0  0  0  0  0  0
  -30.2594  -24.7068   20.1240 H   0  0  0  0  0  0
  -28.6192  -19.9071   17.1573 H   0  0  0  0  0  0
  -30.2552  -20.4381   17.4212 H   0  0  0  0  0  0
  -28.8158  -25.8222   21.8478 H   0  0  0  0  0  0
  -27.3741  -25.2256   21.0575 H   0  0  0  0  0  0
  -29.1728  -15.1127   21.5491 H   0  0  0  0  0  0
  -27.7881  -21.4119   18.7255 H   0  0  0  0  0  0
  1 25  1  0  0  0
  1 30  2  0  0  0
  1 82  1  0  0  0
  2  3  1  0  0  0
  2 25  1  0  0  0
  2 85  1  0  0  0
  2 86  1  0  0  0
  3  4  1  0  0  0
  3 87  1  0  0  0
  3 88  1  0  0  0
  4  5  1  0  0  0
  4 89  1  0  0  0
  4 90  1  0  0  0
  5  6  1  0  0  0
  5 26  1  0  0  0
  5 91  1  0  0  0
  6 25  1  0  0  0
  6 92  1  0  0  0
  6 93  1  0  0  0
  7  8  2  0  0  0
  7 26  1  0  0  0
  7 29  1  0  0  0
  8  9  1  0  0  0
  8 22  1  0  0  0
  9 10  1  0  0  0
  9 27  2  0  0  0
 10 11  2  0  0  0
 10 15  1  0  0  0
 11 12  1  0  0  0
 11 94  1  0  0  0
 12 13  2  0  0  0
 12 95  1  0  0  0
 13 14  1  0  0  0
 13 31  1  0  0  0
 14 15  2  0  0  0
 14 96  1  0  0  0
 15 97  1  0  0  0
 16 17  2  0  0  0
 16 21  1  0  0  0
 16 31  1  0  0  0
 17 18  1  0  0  0
 17 98  1  0  0  0
 18 19  2  0  0  0
 18 99  1  0  0  0
 19 20  1  0  0  0
 19 24  1  0  0  0
 20 21  2  0  0  0
 20100  1  0  0  0
 21 23  1  0  0  0
 22 28  1  0  0  0
 22 32  2  0  0  0
 26 27  1  0  0  0
 28101  1  0  0  0
 28102  1  0  0  0
 29103  1  0  0  0
 29104  1  0  0  0
 33 34  1  0  0  0
 33 66  1  0  0  0
 33 70  2  0  0  0
 34 36  1  0  0  0
 34 59  1  0  0  0
 34105  1  0  0  0
 35 44  2  0  0  0
 35 45  1  0  0  0
 35 68  1  0  0  0
 36 56  1  0  0  0
 36106  1  0  0  0
 37 39  1  0  0  0
 37 47  1  0  0  0
 37 66  1  0  0  0
 37107  1  0  0  0
 38 43  2  0  0  0
 38 46  1  0  0  0
 38 47  1  0  0  0
 39 64  1  0  0  0
 39 67  2  0  0  0
 40 52  1  0  0  0
 40 53  2  0  0  0
 40 58  1  0  0  0
 41108  1  0  0  0
 41109  1  0  0  0
 41110  1  0  0  0
 41 48  1  0  0  0
 42 43  1  0  0  0
 42 66  1  0  0  0
 42111  1  0  0  0
 42112  1  0  0  0
 43 44  1  0  0  0
 44113  1  0  0  0
 45 46  2  0  0  0
 45114  1  0  0  0
 46115  1  0  0  0
 47116  1  0  0  0
 47117  1  0  0  0
 48 56  1  0  0  0
 48 65  1  0  0  0
 48118  1  0  0  0
 49 50  1  0  0  0
 49 53  1  0  0  0
 49 64  1  0  0  0
 49119  1  0  0  0
 50 51  1  0  0  0
 50120  1  0  0  0
 50121  1  0  0  0
 51 52  1  0  0  0
 51122  1  0  0  0
 51123  1  0  0  0
 52124  1  0  0  0
 52125  1  0  0  0
 53 54  1  0  0  0
 54 55  2  0  0  0
 54126  1  0  0  0
 55 57  1  0  0  0
 55127  1  0  0  0
 56 69  2  0  0  0
 57 58  2  0  0  0
 57128  1  0  0  0
 58129  1  0  0  0
 59 60  1  0  0  0
 59 61  1  0  0  0
 59 62  1  0  0  0
 60130  1  0  0  0
 60131  1  0  0  0
 60132  1  0  0  0
 61133  1  0  0  0
 61134  1  0  0  0
 61135  1  0  0  0
 62136  1  0  0  0
 62137  1  0  0  0
 62138  1  0  0  0
 63 65  1  0  0  0
 63139  1  0  0  0
 63140  1  0  0  0
 63141  1  0  0  0
 64142  1  0  0  0
 65143  1  0  0  0
 68 81  1  0  0  0
 71 73  2  0  0  0
 71 75  1  0  0  0
 71144  1  0  0  0
 72 74  1  0  0  0
 72 75  2  0  0  0
 72145  1  0  0  0
 73 76  1  0  0  0
 73146  1  0  0  0
 74 76  2  0  0  0
 74147  1  0  0  0
 75 80  1  0  0  0
 76 82  1  0  0  0
 77 78  2  0  0  0
 77 79  1  0  0  0
 77148  1  0  0  0
 78 81  1  0  0  0
 78149  1  0  0  0
 79 83  1  0  0  0
 79 84  2  0  0  0
 80 83  1  0  0  0
 80150  1  0  0  0
 80151  1  0  0  0
 81152  1  0  0  0
 81153  1  0  0  0
 82154  1  0  0  0
 83155  1  0  0  0
M  ISO  4   1 100  68 101  81 101  82 100
M  END
> <chiral flag>
0

> <version>
0

> <s_m_source_file>
/data/baiqing/PycharmProjects/Reinvent-master-3.2/result/LINK_invent/BTK/process_docking_weight1_custom_product_contain_oxygen_bond_distance_aromatic_linkinvent_7_9_3/rearranged_h_0055.sdf

> <i_m_source_file_index>
56

> <r_mmod_Potential_Energy-OPLS-2005>
-169.844818115234

> <r_mmod_Stretch_Energy-OPLS-2005>
30.2333583831787

> <r_mmod_Bend_Energy-OPLS-2005>
83.0407257080078

> <r_mmod_Torsional_Energy-OPLS-2005>
248.093399047852

> <r_mmod_Improper_Torsional_Energy-OPLS-2005>
7.14622592926025

> <r_mmod_Van_der_Waal_Energy-OPLS-2005>
155.227676391602

> <r_mmod_Electrostatic_Energy-OPLS-2005>
-463.36962890625

> <r_mmod_Solvation_Energy-OPLS-2005>
-239.829605102539

> <b_mmod_Minimization_Converged-OPLS-2005>
0

> <r_mmod_RMS_Derivative-OPLS-2005>
0.807197093963623

$$$$
56
                    3D
 Structure written by MMmdl.
158166  0  0  1  0            999 V2000
  -30.7701  -14.3642   20.6317 C   0  0  0  0  0  0
  -30.4102  -12.2659   19.4002 C   0  0  0  0  0  0
  -29.4847  -12.5176   18.1947 C   0  0  0  0  0  0
  -28.0059  -12.3855   18.6064 C   0  0  0  0  0  0
  -27.6673  -13.2044   19.8796 C   0  0  2  0  0  0
  -28.7071  -12.9493   20.9950 C   0  0  0  0  0  0
  -25.2610  -13.8170   20.5665 C   0  0  0  0  0  0
  -24.1856  -13.0454   20.9148 C   0  0  0  0  0  0
  -24.6399  -11.6915   20.8714 C   0  0  0  0  0  0
  -23.9065  -10.4301   21.0399 C   0  0  0  0  0  0
  -24.3603   -9.4212   21.9187 C   0  0  0  0  0  0
  -23.6267   -8.2253   22.0764 C   0  0  0  0  0  0
  -22.4254   -8.0286   21.3551 C   0  0  0  0  0  0
  -21.9900   -9.0267   20.4654 C   0  0  0  0  0  0
  -22.7236  -10.2142   20.3056 C   0  0  0  0  0  0
  -21.6856   -6.0725   22.5262 C   0  0  0  0  0  0
  -21.4012   -6.5629   23.8199 C   0  0  0  0  0  0
  -21.3654   -5.6785   24.9162 C   0  0  0  0  0  0
  -21.6041   -4.3049   24.7218 C   0  0  0  0  0  0
  -21.8823   -3.8141   23.4334 C   0  0  0  0  0  0
  -21.9192   -4.6954   22.3387 C   0  0  0  0  0  0
  -22.7874  -13.5252   21.1829 C   0  0  0  0  0  0
  -22.1674   -4.2138   21.0967 F   0  0  0  0  0  0
  -21.5628   -3.4530   25.7732 F   0  0  0  0  0  0
  -30.0503  -13.2280   20.4504 N   0  0  0  0  0  0
  -26.3059  -12.9349   20.3374 N   0  0  0  0  0  0
  -25.9326  -11.6499   20.5727 N   0  0  0  0  0  0
  -22.0518  -12.8234   22.0384 N   0  0  0  0  0  0
  -25.4346  -15.1883   20.4081 N   0  0  0  0  0  0
  -31.8351  -14.5943   20.0525 O   0  0  0  0  0  0
  -21.6634   -6.8869   21.4229 O   0  0  0  0  0  0
  -22.3568  -14.5574   20.6697 O   0  0  0  0  0  0
  -24.6101  -31.8684   23.2131 C   0  0  0  0  0  0
  -25.9004  -32.4830   23.8430 C   0  0  1  0  0  0
  -27.2496  -27.4769   20.0995 C   0  0  0  0  0  0
  -25.5892  -33.8635   24.2360 N   0  0  0  0  0  0
  -23.3992  -30.4892   21.5526 C   0  0  2  0  0  0
  -24.8523  -28.9539   20.1232 C   0  0  0  0  0  0
  -22.7387  -29.4646   22.5012 C   0  0  0  0  0  0
  -18.0253  -28.1383   22.8487 C   0  0  0  0  0  0
  -24.1476  -36.7299   23.2650 C   0  0  0  0  0  0
  -25.9223  -30.8475   21.3630 C   0  0  0  0  0  0
  -26.0054  -29.4816   20.7179 C   0  0  0  0  0  0
  -27.2079  -28.7464   20.7098 C   0  0  0  0  0  0
  -26.0860  -26.9476   19.5068 C   0  0  0  0  0  0
  -24.8829  -27.6809   19.5218 C   0  0  0  0  0  0
  -23.6103  -29.8150   20.1705 C   0  0  0  0  0  0
  -25.4104  -36.3112   24.0344 C   0  0  1  0  0  0
  -20.5833  -28.3664   23.1338 C   0  0  2  0  0  0
  -20.6730  -26.9395   22.5446 C   0  0  0  0  0  0
  -19.5729  -26.6378   21.5216 C   0  0  0  0  0  0
  -18.1894  -26.7942   22.1589 C   0  0  0  0  0  0
  -19.1499  -28.8841   23.2907 C   0  0  0  0  0  0
  -18.9435  -30.1448   23.8910 C   0  0  0  0  0  0
  -17.6445  -30.6590   24.0571 C   0  0  0  0  0  0
  -25.9034  -34.9483   23.5145 C   0  0  0  0  0  0
  -16.5333  -29.9089   23.6351 C   0  0  0  0  0  0
  -16.7247  -28.6506   23.0371 C   0  0  0  0  0  0
  -26.4463  -31.6612   25.0747 C   0  0  0  0  0  0
  -25.3738  -31.3687   26.1498 C   0  0  0  0  0  0
  -27.0318  -30.3067   24.6118 C   0  0  0  0  0  0
  -27.6057  -32.4331   25.7492 C   0  0  0  0  0  0
  -27.5581  -37.1794   24.8463 C   0  0  0  0  0  0
  -21.4118  -29.3015   22.3748 N   0  0  0  0  0  0
  -26.4286  -37.3802   23.9424 N   0  0  0  0  0  0
  -24.6610  -31.0816   22.1021 N   0  0  0  0  0  0
  -23.4162  -28.8185   23.3047 O   0  0  0  0  0  0
  -28.4227  -26.7716   20.0405 O   0  0  0  0  0  0
  -26.5580  -34.8918   22.4697 O   0  0  0  0  0  0
  -23.5301  -32.1420   23.7539 O   0  0  0  0  0  0
  -29.1975  -18.3643   18.6333 C   0  0  0  0  0  0
  -29.6448  -17.3639   19.5115 C   0  0  0  0  0  0
  -29.3820  -19.7146   18.9649 C   0  0  0  0  0  0
  -30.3213  -17.6966   20.7105 C   0  0  0  0  0  0
  -30.5751  -19.0655   21.0045 C   0  0  0  0  0  0
  -30.0396  -20.0734   20.1599 C   0  0  0  0  0  0
  -29.4661  -23.6434   20.9148 C   0  0  0  0  0  0
  -28.5111  -24.5888   21.0230 C   0  0  0  0  0  0
  -29.0862  -22.2640   20.6633 C   0  0  0  0  0  0
  -31.3883  -19.4521   22.2367 C   0  0  0  0  0  0
  -30.7557  -16.6043   21.6979 C   0  0  0  0  0  0
  -28.7606  -26.0656   21.2285 C   0  0  0  0  0  0
  -30.1409  -21.4480   20.4998 N   0  0  0  0  0  0
  -30.2179  -15.2696   21.4431 N   0  0  0  0  0  0
  -27.9188  -21.8631   20.6039 O   0  0  0  0  0  0
  -31.4562  -12.3425   19.0983 H   0  0  0  0  0  0
  -30.2834  -11.2471   19.7707 H   0  0  0  0  0  0
  -29.7089  -11.8169   17.3895 H   0  0  0  0  0  0
  -29.6685  -13.5156   17.7927 H   0  0  0  0  0  0
  -27.8007  -11.3288   18.7817 H   0  0  0  0  0  0
  -27.3583  -12.6900   17.7825 H   0  0  0  0  0  0
  -27.7258  -14.2571   19.6044 H   0  0  0  0  0  0
  -28.6638  -11.9083   21.3206 H   0  0  0  0  0  0
  -28.4657  -13.5361   21.8827 H   0  0  0  0  0  0
  -25.2751   -9.5673   22.4758 H   0  0  0  0  0  0
  -23.9975   -7.4645   22.7483 H   0  0  0  0  0  0
  -21.0845   -8.8776   19.8943 H   0  0  0  0  0  0
  -22.3707  -10.9674   19.6153 H   0  0  0  0  0  0
  -21.2013   -7.6142   23.9692 H   0  0  0  0  0  0
  -21.1478   -6.0518   25.9063 H   0  0  0  0  0  0
  -22.0611   -2.7601   23.2830 H   0  0  0  0  0  0
  -22.4142  -11.9875   22.4734 H   0  0  0  0  0  0
  -21.1131  -13.1258   22.2597 H   0  0  0  0  0  0
  -24.6709  -15.8453   20.5200 H   0  0  0  0  0  0
  -26.2927  -15.6283   20.0997 H   0  0  0  0  0  0
  -26.7075  -32.5587   23.1217 H   0  0  0  0  0  0
  -25.0089  -33.9803   25.0538 H   0  0  0  0  0  0
  -22.6849  -31.3019   21.4098 H   0  0  0  0  0  0
  -23.3764  -35.9598   23.3288 H   0  0  0  0  0  0
  -24.3564  -36.8955   22.2069 H   0  0  0  0  0  0
  -23.7186  -37.6474   23.6697 H   0  0  0  0  0  0
  -26.0283  -31.6133   20.5933 H   0  0  0  0  0  0
  -26.8118  -30.9053   21.9792 H   0  0  0  0  0  0
  -28.1058  -29.1524   21.1545 H   0  0  0  0  0  0
  -26.1148  -25.9736   19.0368 H   0  0  0  0  0  0
  -23.9945  -27.2653   19.0680 H   0  0  0  0  0  0
  -23.7138  -30.5859   19.4055 H   0  0  0  0  0  0
  -22.7380  -29.2266   19.8814 H   0  0  0  0  0  0
  -25.1278  -36.1979   25.0842 H   0  0  0  0  0  0
  -20.9925  -28.3240   24.1452 H   0  0  0  0  0  0
  -20.5637  -26.2260   23.3622 H   0  0  0  0  0  0
  -21.6603  -26.7439   22.1257 H   0  0  0  0  0  0
  -19.6899  -25.6294   21.1242 H   0  0  0  0  0  0
  -19.6705  -27.3184   20.6752 H   0  0  0  0  0  0
  -17.4198  -26.6757   21.3955 H   0  0  0  0  0  0
  -18.0231  -26.0069   22.8955 H   0  0  0  0  0  0
  -19.7911  -30.7265   24.2282 H   0  0  0  0  0  0
  -17.5008  -31.6270   24.5176 H   0  0  0  0  0  0
  -15.5335  -30.3006   23.7693 H   0  0  0  0  0  0
  -15.8631  -28.0850   22.7091 H   0  0  0  0  0  0
  -24.5980  -30.6944   25.7859 H   0  0  0  0  0  0
  -24.8819  -32.2803   26.4893 H   0  0  0  0  0  0
  -25.8107  -30.8945   27.0293 H   0  0  0  0  0  0
  -26.2853  -29.6773   24.1256 H   0  0  0  0  0  0
  -27.4195  -29.7365   25.4572 H   0  0  0  0  0  0
  -27.8636  -30.4405   23.9198 H   0  0  0  0  0  0
  -27.2727  -33.3671   26.2028 H   0  0  0  0  0  0
  -28.3874  -32.6808   25.0302 H   0  0  0  0  0  0
  -28.0712  -31.8474   26.5433 H   0  0  0  0  0  0
  -28.2596  -38.0099   24.7555 H   0  0  0  0  0  0
  -28.1082  -36.2635   24.6242 H   0  0  0  0  0  0
  -27.2311  -37.1398   25.8870 H   0  0  0  0  0  0
  -20.9282  -29.8705   21.6943 H   0  0  0  0  0  0
  -26.0181  -38.2871   24.1476 H   0  0  0  0  0  0
  -28.6860  -18.0950   17.7193 H   0  0  0  0  0  0
  -29.4564  -16.3384   19.2360 H   0  0  0  0  0  0
  -29.0031  -20.4794   18.3016 H   0  0  0  0  0  0
  -30.5083  -23.9198   21.0026 H   0  0  0  0  0  0
  -27.4672  -24.3151   20.9494 H   0  0  0  0  0  0
  -32.1775  -18.7282   22.4399 H   0  0  0  0  0  0
  -30.7487  -19.5198   23.1159 H   0  0  0  0  0  0
  -31.8958  -20.4083   22.1088 H   0  0  0  0  0  0
  -30.4246  -16.8897   22.6968 H   0  0  0  0  0  0
  -31.8454  -16.5633   21.7392 H   0  0  0  0  0  0
  -29.8141  -26.2410   21.4504 H   0  0  0  0  0  0
  -28.1954  -26.4070   22.0998 H   0  0  0  0  0  0
  -31.0619  -21.8209   20.6833 H   0  0  0  0  0  0
  -29.3523  -15.0193   21.8961 H   0  0  0  0  0  0
  1 25  1  0  0  0
  1 30  2  0  0  0
  1 84  1  0  0  0
  2  3  1  0  0  0
  2 25  1  0  0  0
  2 86  1  0  0  0
  2 87  1  0  0  0
  3  4  1  0  0  0
  3 88  1  0  0  0
  3 89  1  0  0  0
  4  5  1  0  0  0
  4 90  1  0  0  0
  4 91  1  0  0  0
  5  6  1  0  0  0
  5 26  1  0  0  0
  5 92  1  0  0  0
  6 25  1  0  0  0
  6 93  1  0  0  0
  6 94  1  0  0  0
  7  8  2  0  0  0
  7 26  1  0  0  0
  7 29  1  0  0  0
  8  9  1  0  0  0
  8 22  1  0  0  0
  9 10  1  0  0  0
  9 27  2  0  0  0
 10 11  2  0  0  0
 10 15  1  0  0  0
 11 12  1  0  0  0
 11 95  1  0  0  0
 12 13  2  0  0  0
 12 96  1  0  0  0
 13 14  1  0  0  0
 13 31  1  0  0  0
 14 15  2  0  0  0
 14 97  1  0  0  0
 15 98  1  0  0  0
 16 17  2  0  0  0
 16 21  1  0  0  0
 16 31  1  0  0  0
 17 18  1  0  0  0
 17 99  1  0  0  0
 18 19  2  0  0  0
 18100  1  0  0  0
 19 20  1  0  0  0
 19 24  1  0  0  0
 20 21  2  0  0  0
 20101  1  0  0  0
 21 23  1  0  0  0
 22 28  1  0  0  0
 22 32  2  0  0  0
 26 27  1  0  0  0
 28102  1  0  0  0
 28103  1  0  0  0
 29104  1  0  0  0
 29105  1  0  0  0
 33 34  1  0  0  0
 33 66  1  0  0  0
 33 70  2  0  0  0
 34 36  1  0  0  0
 34 59  1  0  0  0
 34106  1  0  0  0
 35 44  2  0  0  0
 35 45  1  0  0  0
 35 68  1  0  0  0
 36 56  1  0  0  0
 36107  1  0  0  0
 37 39  1  0  0  0
 37 47  1  0  0  0
 37 66  1  0  0  0
 37108  1  0  0  0
 38 43  2  0  0  0
 38 46  1  0  0  0
 38 47  1  0  0  0
 39 64  1  0  0  0
 39 67  2  0  0  0
 40 52  1  0  0  0
 40 53  2  0  0  0
 40 58  1  0  0  0
 41109  1  0  0  0
 41110  1  0  0  0
 41111  1  0  0  0
 41 48  1  0  0  0
 42 43  1  0  0  0
 42 66  1  0  0  0
 42112  1  0  0  0
 42113  1  0  0  0
 43 44  1  0  0  0
 44114  1  0  0  0
 45 46  2  0  0  0
 45115  1  0  0  0
 46116  1  0  0  0
 47117  1  0  0  0
 47118  1  0  0  0
 48 56  1  0  0  0
 48 65  1  0  0  0
 48119  1  0  0  0
 49 50  1  0  0  0
 49 53  1  0  0  0
 49 64  1  0  0  0
 49120  1  0  0  0
 50 51  1  0  0  0
 50121  1  0  0  0
 50122  1  0  0  0
 51 52  1  0  0  0
 51123  1  0  0  0
 51124  1  0  0  0
 52125  1  0  0  0
 52126  1  0  0  0
 53 54  1  0  0  0
 54 55  2  0  0  0
 54127  1  0  0  0
 55 57  1  0  0  0
 55128  1  0  0  0
 56 69  2  0  0  0
 57 58  2  0  0  0
 57129  1  0  0  0
 58130  1  0  0  0
 59 60  1  0  0  0
 59 61  1  0  0  0
 59 62  1  0  0  0
 60131  1  0  0  0
 60132  1  0  0  0
 60133  1  0  0  0
 61134  1  0  0  0
 61135  1  0  0  0
 61136  1  0  0  0
 62137  1  0  0  0
 62138  1  0  0  0
 62139  1  0  0  0
 63 65  1  0  0  0
 63140  1  0  0  0
 63141  1  0  0  0
 63142  1  0  0  0
 64143  1  0  0  0
 65144  1  0  0  0
 68 82  1  0  0  0
 71 72  2  0  0  0
 71 73  1  0  0  0
 71145  1  0  0  0
 72 74  1  0  0  0
 72146  1  0  0  0
 73 76  2  0  0  0
 73147  1  0  0  0
 74 75  2  0  0  0
 74 81  1  0  0  0
 75 76  1  0  0  0
 75 80  1  0  0  0
 76 83  1  0  0  0
 77 78  2  0  0  0
 77 79  1  0  0  0
 77148  1  0  0  0
 78 82  1  0  0  0
 78149  1  0  0  0
 79 83  1  0  0  0
 79 85  2  0  0  0
 80150  1  0  0  0
 80151  1  0  0  0
 80152  1  0  0  0
 81 84  1  0  0  0
 81153  1  0  0  0
 81154  1  0  0  0
 82155  1  0  0  0
 82156  1  0  0  0
 83157  1  0  0  0
 84158  1  0  0  0
M  ISO  4   1 100  68 101  82 101  84 100
M  END
> <chiral flag>
0

> <version>
0

> <s_m_source_file>
/data/baiqing/PycharmProjects/Reinvent-master-3.2/result/LINK_invent/BTK/process_docking_weight1_custom_product_contain_oxygen_bond_distance_aromatic_linkinvent_7_9_3/rearranged_h_0055.sdf

> <i_m_source_file_index>
57

> <r_mmod_Potential_Energy-OPLS-2005>
-187.873992919922

> <r_mmod_Stretch_Energy-OPLS-2005>
33.0751647949219

> <r_mmod_Bend_Energy-OPLS-2005>
84.8585357666016

> <r_mmod_Torsional_Energy-OPLS-2005>
238.240432739258

> <r_mmod_Improper_Torsional_Energy-OPLS-2005>
2.16946721076965

> <r_mmod_Van_der_Waal_Energy-OPLS-2005>
164.035232543945

> <r_mmod_Electrostatic_Energy-OPLS-2005>
-482.304412841797

> <r_mmod_Solvation_Energy-OPLS-2005>
-234.81169128418

> <b_mmod_Minimization_Converged-OPLS-2005>
0

> <r_mmod_RMS_Derivative-OPLS-2005>
2.63278818130493

$$$$
57
                    3D
 Structure written by MMmdl.
157165  0  0  1  0            999 V2000
  -30.6596  -14.5502   20.5352 C   0  0  0  0  0  0
  -30.4333  -12.3433   19.4381 C   0  0  0  0  0  0
  -29.5025  -12.4970   18.2162 C   0  0  0  0  0  0
  -28.0241  -12.3481   18.6296 C   0  0  0  0  0  0
  -27.6584  -13.2079   19.8689 C   0  0  2  0  0  0
  -28.7013  -13.0272   20.9951 C   0  0  0  0  0  0
  -25.2589  -13.8155   20.5679 C   0  0  0  0  0  0
  -24.1845  -13.0430   20.9181 C   0  0  0  0  0  0
  -24.6395  -11.6896   20.8733 C   0  0  0  0  0  0
  -23.9054  -10.4284   21.0399 C   0  0  0  0  0  0
  -24.3609   -9.4202   21.9178 C   0  0  0  0  0  0
  -23.6287   -8.2240   22.0750 C   0  0  0  0  0  0
  -22.4270   -8.0278   21.3541 C   0  0  0  0  0  0
  -21.9903   -9.0247   20.4642 C   0  0  0  0  0  0
  -22.7227  -10.2127   20.3047 C   0  0  0  0  0  0
  -21.6849   -6.0731   22.5275 C   0  0  0  0  0  0
  -21.4016   -6.5636   23.8208 C   0  0  0  0  0  0
  -21.3661   -5.6788   24.9169 C   0  0  0  0  0  0
  -21.6042   -4.3049   24.7220 C   0  0  0  0  0  0
  -21.8819   -3.8142   23.4339 C   0  0  0  0  0  0
  -21.9195   -4.6960   22.3396 C   0  0  0  0  0  0
  -22.7869  -13.5231   21.1837 C   0  0  0  0  0  0
  -22.1661   -4.2145   21.0974 F   0  0  0  0  0  0
  -21.5627   -3.4533   25.7731 F   0  0  0  0  0  0
  -30.0251  -13.3465   20.4359 N   0  0  0  0  0  0
  -26.3015  -12.9319   20.3343 N   0  0  0  0  0  0
  -25.9325  -11.6481   20.5772 N   0  0  0  0  0  0
  -22.0507  -12.8233   22.0398 N   0  0  0  0  0  0
  -25.4311  -15.1877   20.4085 N   0  0  0  0  0  0
  -31.8079  -14.7320   20.1233 O   0  0  0  0  0  0
  -21.6635   -6.8876   21.4238 O   0  0  0  0  0  0
  -22.3549  -14.5531   20.6673 O   0  0  0  0  0  0
  -24.6208  -31.8643   23.2077 C   0  0  0  0  0  0
  -25.9079  -32.4801   23.8381 C   0  0  1  0  0  0
  -27.2258  -27.3727   20.1035 C   0  0  0  0  0  0
  -25.5919  -33.8602   24.2309 N   0  0  0  0  0  0
  -23.4109  -30.4914   21.5485 C   0  0  2  0  0  0
  -24.8554  -28.9551   20.1117 C   0  0  0  0  0  0
  -22.7444  -29.4657   22.4952 C   0  0  0  0  0  0
  -18.0280  -28.1376   22.8485 C   0  0  0  0  0  0
  -24.1490  -36.7311   23.2636 C   0  0  0  0  0  0
  -25.9485  -30.8114   21.3714 C   0  0  0  0  0  0
  -26.0218  -29.4434   20.7135 C   0  0  0  0  0  0
  -27.2090  -28.6623   20.7042 C   0  0  0  0  0  0
  -26.0370  -26.9301   19.4733 C   0  0  0  0  0  0
  -24.8617  -27.7005   19.4858 C   0  0  0  0  0  0
  -23.6214  -29.8291   20.1628 C   0  0  0  0  0  0
  -25.4110  -36.3101   24.0333 C   0  0  1  0  0  0
  -20.5877  -28.3680   23.1286 C   0  0  2  0  0  0
  -20.6771  -26.9408   22.5402 C   0  0  0  0  0  0
  -19.5750  -26.6385   21.5202 C   0  0  0  0  0  0
  -18.1929  -26.7921   22.1617 C   0  0  0  0  0  0
  -19.1532  -28.8843   23.2885 C   0  0  0  0  0  0
  -18.9459  -30.1447   23.8902 C   0  0  0  0  0  0
  -17.6462  -30.6582   24.0564 C   0  0  0  0  0  0
  -25.9043  -34.9465   23.5119 C   0  0  0  0  0  0
  -16.5352  -29.9084   23.6324 C   0  0  0  0  0  0
  -16.7270  -28.6498   23.0349 C   0  0  0  0  0  0
  -26.4479  -31.6591   25.0731 C   0  0  0  0  0  0
  -25.3734  -31.3718   26.1475 C   0  0  0  0  0  0
  -27.0310  -30.3022   24.6150 C   0  0  0  0  0  0
  -27.6049  -32.4317   25.7499 C   0  0  0  0  0  0
  -27.5580  -37.1812   24.8465 C   0  0  0  0  0  0
  -21.4164  -29.3048   22.3691 N   0  0  0  0  0  0
  -26.4294  -37.3788   23.9405 N   0  0  0  0  0  0
  -24.6783  -31.0716   22.0994 N   0  0  0  0  0  0
  -23.4196  -28.8189   23.3004 O   0  0  0  0  0  0
  -28.3619  -26.5631   20.1587 O   0  0  0  0  0  0
  -26.5608  -34.8918   22.4684 O   0  0  0  0  0  0
  -23.5389  -32.1409   23.7446 O   0  0  0  0  0  0
  -28.4804  -17.2587   22.7753 C   0  0  0  0  0  0
  -27.5608  -17.9418   23.5878 C   0  0  0  0  0  0
  -28.0538  -19.9935   22.3946 C   0  0  0  0  0  0
  -29.1996  -17.9151   21.7425 C   0  0  0  0  0  0
  -28.9951  -19.3352   21.5625 C   0  0  0  0  0  0
  -27.3422  -19.3108   23.3932 C   0  0  0  0  0  0
  -29.0380  -22.6378   20.0798 C   0  0  0  0  0  0
  -30.1691  -17.0429   20.9007 C   0  0  0  0  0  0
  -29.7193  -20.2011   20.5032 C   0  0  0  0  0  0
  -29.2817  -24.1429   20.4310 C   0  0  0  0  0  0
  -28.1710  -25.1312   19.9285 C   0  0  0  0  0  0
  -29.7319  -21.6768   20.7393 N   0  0  0  0  0  0
  -29.8805  -15.5828   20.9344 N   0  0  0  0  0  0
  -28.2300  -22.3423   19.1980 O   0  0  0  0  0  0
  -26.4529  -19.9742   24.1691 F   0  0  0  0  0  0
  -31.4759  -12.4588   19.1369 H   0  0  0  0  0  0
  -30.3549  -11.3396   19.8596 H   0  0  0  0  0  0
  -29.7535  -11.7557   17.4568 H   0  0  0  0  0  0
  -29.6587  -13.4728   17.7547 H   0  0  0  0  0  0
  -27.8497  -11.2940   18.8504 H   0  0  0  0  0  0
  -27.3702  -12.5942   17.7921 H   0  0  0  0  0  0
  -27.6896  -14.2486   19.5461 H   0  0  0  0  0  0
  -28.6928  -12.0004   21.3627 H   0  0  0  0  0  0
  -28.4578  -13.6487   21.8585 H   0  0  0  0  0  0
  -25.2751   -9.5680   22.4754 H   0  0  0  0  0  0
  -23.9990   -7.4634   22.7472 H   0  0  0  0  0  0
  -21.0831   -8.8758   19.8955 H   0  0  0  0  0  0
  -22.3675  -10.9664   19.6157 H   0  0  0  0  0  0
  -21.2012   -7.6142   23.9708 H   0  0  0  0  0  0
  -21.1484   -6.0518   25.9071 H   0  0  0  0  0  0
  -22.0604   -2.7606   23.2833 H   0  0  0  0  0  0
  -22.4112  -11.9896   22.4792 H   0  0  0  0  0  0
  -21.1125  -13.1267   22.2588 H   0  0  0  0  0  0
  -24.6642  -15.8417   20.5214 H   0  0  0  0  0  0
  -26.2801  -15.6301   20.0806 H   0  0  0  0  0  0
  -26.7151  -32.5485   23.1137 H   0  0  0  0  0  0
  -25.0073  -33.9756   25.0459 H   0  0  0  0  0  0
  -22.7020  -31.3105   21.4101 H   0  0  0  0  0  0
  -23.3747  -35.9650   23.3306 H   0  0  0  0  0  0
  -24.3587  -36.8920   22.2051 H   0  0  0  0  0  0
  -23.7246  -37.6520   23.6646 H   0  0  0  0  0  0
  -26.0760  -31.5767   20.6045 H   0  0  0  0  0  0
  -26.8314  -30.8580   21.9969 H   0  0  0  0  0  0
  -28.1042  -29.0336   21.1830 H   0  0  0  0  0  0
  -25.9845  -25.9781   18.9664 H   0  0  0  0  0  0
  -23.9680  -27.3209   19.0093 H   0  0  0  0  0  0
  -23.7369  -30.6062   19.4067 H   0  0  0  0  0  0
  -22.7423  -29.2559   19.8620 H   0  0  0  0  0  0
  -25.1288  -36.1964   25.0826 H   0  0  0  0  0  0
  -20.9974  -28.3252   24.1404 H   0  0  0  0  0  0
  -20.5668  -26.2294   23.3600 H   0  0  0  0  0  0
  -21.6642  -26.7440   22.1199 H   0  0  0  0  0  0
  -19.6914  -25.6298   21.1227 H   0  0  0  0  0  0
  -19.6681  -27.3197   20.6735 H   0  0  0  0  0  0
  -17.4196  -26.6661   21.4026 H   0  0  0  0  0  0
  -18.0341  -26.0061   22.9014 H   0  0  0  0  0  0
  -19.7940  -30.7254   24.2276 H   0  0  0  0  0  0
  -17.5022  -31.6263   24.5165 H   0  0  0  0  0  0
  -15.5356  -30.2993   23.7644 H   0  0  0  0  0  0
  -15.8668  -28.0822   22.7064 H   0  0  0  0  0  0
  -24.5915  -30.7047   25.7823 H   0  0  0  0  0  0
  -24.8914  -32.2879   26.4900 H   0  0  0  0  0  0
  -25.8082  -30.8913   27.0247 H   0  0  0  0  0  0
  -26.2865  -29.6794   24.1176 H   0  0  0  0  0  0
  -27.4023  -29.7253   25.4628 H   0  0  0  0  0  0
  -27.8729  -30.4321   23.9347 H   0  0  0  0  0  0
  -27.2662  -33.3612   26.2086 H   0  0  0  0  0  0
  -28.3855  -32.6883   25.0325 H   0  0  0  0  0  0
  -28.0718  -31.8433   26.5408 H   0  0  0  0  0  0
  -28.2605  -38.0102   24.7507 H   0  0  0  0  0  0
  -28.1067  -36.2635   24.6296 H   0  0  0  0  0  0
  -27.2300  -37.1472   25.8868 H   0  0  0  0  0  0
  -20.9326  -29.8789   21.6927 H   0  0  0  0  0  0
  -26.0183  -38.2868   24.1397 H   0  0  0  0  0  0
  -28.6191  -16.2069   22.9776 H   0  0  0  0  0  0
  -27.0219  -17.4129   24.3604 H   0  0  0  0  0  0
  -27.8515  -21.0476   22.2813 H   0  0  0  0  0  0
  -31.1845  -17.2144   21.2625 H   0  0  0  0  0  0
  -30.1465  -17.3758   19.8625 H   0  0  0  0  0  0
  -29.2833  -19.9805   19.5276 H   0  0  0  0  0  0
  -30.7571  -19.8716   20.4438 H   0  0  0  0  0  0
  -30.2409  -24.4352   20.0041 H   0  0  0  0  0  0
  -29.3821  -24.2370   21.5124 H   0  0  0  0  0  0
  -27.2474  -24.8106   20.4136 H   0  0  0  0  0  0
  -28.0338  -24.9862   18.8559 H   0  0  0  0  0  0
  -30.3772  -21.9961   21.4500 H   0  0  0  0  0  0
  -28.9439  -15.3302   21.2069 H   0  0  0  0  0  0
  1 25  1  0  0  0
  1 30  2  0  0  0
  1 83  1  0  0  0
  2  3  1  0  0  0
  2 25  1  0  0  0
  2 86  1  0  0  0
  2 87  1  0  0  0
  3  4  1  0  0  0
  3 88  1  0  0  0
  3 89  1  0  0  0
  4  5  1  0  0  0
  4 90  1  0  0  0
  4 91  1  0  0  0
  5  6  1  0  0  0
  5 26  1  0  0  0
  5 92  1  0  0  0
  6 25  1  0  0  0
  6 93  1  0  0  0
  6 94  1  0  0  0
  7  8  2  0  0  0
  7 26  1  0  0  0
  7 29  1  0  0  0
  8  9  1  0  0  0
  8 22  1  0  0  0
  9 10  1  0  0  0
  9 27  2  0  0  0
 10 11  2  0  0  0
 10 15  1  0  0  0
 11 12  1  0  0  0
 11 95  1  0  0  0
 12 13  2  0  0  0
 12 96  1  0  0  0
 13 14  1  0  0  0
 13 31  1  0  0  0
 14 15  2  0  0  0
 14 97  1  0  0  0
 15 98  1  0  0  0
 16 17  2  0  0  0
 16 21  1  0  0  0
 16 31  1  0  0  0
 17 18  1  0  0  0
 17 99  1  0  0  0
 18 19  2  0  0  0
 18100  1  0  0  0
 19 20  1  0  0  0
 19 24  1  0  0  0
 20 21  2  0  0  0
 20101  1  0  0  0
 21 23  1  0  0  0
 22 28  1  0  0  0
 22 32  2  0  0  0
 26 27  1  0  0  0
 28102  1  0  0  0
 28103  1  0  0  0
 29104  1  0  0  0
 29105  1  0  0  0
 33 34  1  0  0  0
 33 66  1  0  0  0
 33 70  2  0  0  0
 34 36  1  0  0  0
 34 59  1  0  0  0
 34106  1  0  0  0
 35 44  2  0  0  0
 35 45  1  0  0  0
 35 68  1  0  0  0
 36 56  1  0  0  0
 36107  1  0  0  0
 37 39  1  0  0  0
 37 47  1  0  0  0
 37 66  1  0  0  0
 37108  1  0  0  0
 38 43  2  0  0  0
 38 46  1  0  0  0
 38 47  1  0  0  0
 39 64  1  0  0  0
 39 67  2  0  0  0
 40 52  1  0  0  0
 40 53  2  0  0  0
 40 58  1  0  0  0
 41109  1  0  0  0
 41110  1  0  0  0
 41111  1  0  0  0
 41 48  1  0  0  0
 42 43  1  0  0  0
 42 66  1  0  0  0
 42112  1  0  0  0
 42113  1  0  0  0
 43 44  1  0  0  0
 44114  1  0  0  0
 45 46  2  0  0  0
 45115  1  0  0  0
 46116  1  0  0  0
 47117  1  0  0  0
 47118  1  0  0  0
 48 56  1  0  0  0
 48 65  1  0  0  0
 48119  1  0  0  0
 49 50  1  0  0  0
 49 53  1  0  0  0
 49 64  1  0  0  0
 49120  1  0  0  0
 50 51  1  0  0  0
 50121  1  0  0  0
 50122  1  0  0  0
 51 52  1  0  0  0
 51123  1  0  0  0
 51124  1  0  0  0
 52125  1  0  0  0
 52126  1  0  0  0
 53 54  1  0  0  0
 54 55  2  0  0  0
 54127  1  0  0  0
 55 57  1  0  0  0
 55128  1  0  0  0
 56 69  2  0  0  0
 57 58  2  0  0  0
 57129  1  0  0  0
 58130  1  0  0  0
 59 60  1  0  0  0
 59 61  1  0  0  0
 59 62  1  0  0  0
 60131  1  0  0  0
 60132  1  0  0  0
 60133  1  0  0  0
 61134  1  0  0  0
 61135  1  0  0  0
 61136  1  0  0  0
 62137  1  0  0  0
 62138  1  0  0  0
 62139  1  0  0  0
 63 65  1  0  0  0
 63140  1  0  0  0
 63141  1  0  0  0
 63142  1  0  0  0
 64143  1  0  0  0
 65144  1  0  0  0
 68 81  1  0  0  0
 71 72  2  0  0  0
 71 74  1  0  0  0
 71145  1  0  0  0
 72 76  1  0  0  0
 72146  1  0  0  0
 73 75  1  0  0  0
 73 76  2  0  0  0
 73147  1  0  0  0
 74 75  2  0  0  0
 74 78  1  0  0  0
 75 79  1  0  0  0
 76 85  1  0  0  0
 77 80  1  0  0  0
 77 82  1  0  0  0
 77 84  2  0  0  0
 78 83  1  0  0  0
 78148  1  0  0  0
 78149  1  0  0  0
 79 82  1  0  0  0
 79150  1  0  0  0
 79151  1  0  0  0
 80 81  1  0  0  0
 80152  1  0  0  0
 80153  1  0  0  0
 81154  1  0  0  0
 81155  1  0  0  0
 82156  1  0  0  0
 83157  1  0  0  0
M  ISO  4   1 100  68 101  81 101  83 100
M  END
> <chiral flag>
0

> <version>
0

> <s_m_source_file>
/data/baiqing/PycharmProjects/Reinvent-master-3.2/result/LINK_invent/BTK/process_docking_weight1_custom_product_contain_oxygen_bond_distance_aromatic_linkinvent_7_9_3/rearranged_h_0055.sdf

> <i_m_source_file_index>
58

> <r_mmod_Potential_Energy-OPLS-2005>
-180.108520507812

> <r_mmod_Stretch_Energy-OPLS-2005>
58.0337944030762

> <r_mmod_Bend_Energy-OPLS-2005>
109.579689025879

> <r_mmod_Torsional_Energy-OPLS-2005>
188.178634643555

> <r_mmod_Improper_Torsional_Energy-OPLS-2005>
4.39387702941895

> <r_mmod_Van_der_Waal_Energy-OPLS-2005>
156.767623901367

> <r_mmod_Electrostatic_Energy-OPLS-2005>
-489.445678710938

> <r_mmod_Solvation_Energy-OPLS-2005>
-235.054061889648

> <b_mmod_Minimization_Converged-OPLS-2005>
0

> <r_mmod_RMS_Derivative-OPLS-2005>
0.913362205028534

$$$$
58
                    3D
 Structure written by MMmdl.
155163  0  0  1  0            999 V2000
  -30.7192  -14.4205   20.6326 C   0  0  0  0  0  0
  -30.4177  -12.2916   19.4154 C   0  0  0  0  0  0
  -29.4874  -12.5105   18.2052 C   0  0  0  0  0  0
  -28.0086  -12.3727   18.6155 C   0  0  0  0  0  0
  -27.6627  -13.2011   19.8799 C   0  0  2  0  0  0
  -28.7000  -12.9493   20.9989 C   0  0  0  0  0  0
  -25.2580  -13.8160   20.5663 C   0  0  0  0  0  0
  -24.1827  -13.0439   20.9165 C   0  0  0  0  0  0
  -24.6367  -11.6904   20.8713 C   0  0  0  0  0  0
  -23.9029  -10.4300   21.0393 C   0  0  0  0  0  0
  -24.3585   -9.4216   21.9171 C   0  0  0  0  0  0
  -23.6276   -8.2249   22.0753 C   0  0  0  0  0  0
  -22.4267   -8.0276   21.3533 C   0  0  0  0  0  0
  -21.9886   -9.0238   20.4631 C   0  0  0  0  0  0
  -22.7202  -10.2126   20.3042 C   0  0  0  0  0  0
  -21.6839   -6.0723   22.5266 C   0  0  0  0  0  0
  -21.4013   -6.5623   23.8196 C   0  0  0  0  0  0
  -21.3663   -5.6788   24.9168 C   0  0  0  0  0  0
  -21.6054   -4.3046   24.7234 C   0  0  0  0  0  0
  -21.8820   -3.8139   23.4348 C   0  0  0  0  0  0
  -21.9188   -4.6952   22.3394 C   0  0  0  0  0  0
  -22.7848  -13.5235   21.1838 C   0  0  0  0  0  0
  -22.1654   -4.2142   21.0974 F   0  0  0  0  0  0
  -21.5635   -3.4536   25.7746 F   0  0  0  0  0  0
  -30.0389  -13.2543   20.4620 N   0  0  0  0  0  0
  -26.3009  -12.9315   20.3363 N   0  0  0  0  0  0
  -25.9292  -11.6476   20.5750 N   0  0  0  0  0  0
  -22.0506  -12.8223   22.0405 N   0  0  0  0  0  0
  -25.4310  -15.1883   20.4073 N   0  0  0  0  0  0
  -31.7957  -14.6437   20.0708 O   0  0  0  0  0  0
  -21.6631   -6.8869   21.4229 O   0  0  0  0  0  0
  -22.3527  -14.5533   20.6688 O   0  0  0  0  0  0
  -24.6132  -31.8700   23.2070 C   0  0  0  0  0  0
  -25.9035  -32.4838   23.8370 C   0  0  1  0  0  0
  -27.2433  -27.4547   20.0812 C   0  0  0  0  0  0
  -25.5887  -33.8627   24.2334 N   0  0  0  0  0  0
  -23.3970  -30.4919   21.5503 C   0  0  2  0  0  0
  -24.8425  -28.9549   20.1191 C   0  0  0  0  0  0
  -22.7398  -29.4661   22.5015 C   0  0  0  0  0  0
  -18.0275  -28.1366   22.8496 C   0  0  0  0  0  0
  -24.1474  -36.7309   23.2641 C   0  0  0  0  0  0
  -25.9226  -30.8433   21.3525 C   0  0  0  0  0  0
  -26.0000  -29.4741   20.7092 C   0  0  0  0  0  0
  -27.1977  -28.7291   20.6894 C   0  0  0  0  0  0
  -26.0580  -26.9341   19.5104 C   0  0  0  0  0  0
  -24.8655  -27.6838   19.5204 C   0  0  0  0  0  0
  -23.6005  -29.8159   20.1676 C   0  0  0  0  0  0
  -25.4097  -36.3123   24.0348 C   0  0  1  0  0  0
  -20.5857  -28.3654   23.1329 C   0  0  2  0  0  0
  -20.6740  -26.9385   22.5435 C   0  0  0  0  0  0
  -19.5730  -26.6367   21.5224 C   0  0  0  0  0  0
  -18.1912  -26.7912   22.1637 C   0  0  0  0  0  0
  -19.1521  -28.8828   23.2901 C   0  0  0  0  0  0
  -18.9461  -30.1443   23.8902 C   0  0  0  0  0  0
  -17.6462  -30.6584   24.0549 C   0  0  0  0  0  0
  -25.9038  -34.9484   23.5151 C   0  0  0  0  0  0
  -16.5354  -29.9090   23.6305 C   0  0  0  0  0  0
  -16.7267  -28.6504   23.0335 C   0  0  0  0  0  0
  -26.4441  -31.6607   25.0689 C   0  0  0  0  0  0
  -25.3683  -31.3710   26.1413 C   0  0  0  0  0  0
  -27.0282  -30.3069   24.6033 C   0  0  0  0  0  0
  -27.6009  -32.4309   25.7470 C   0  0  0  0  0  0
  -27.5581  -37.1802   24.8470 C   0  0  0  0  0  0
  -21.4133  -29.3023   22.3746 N   0  0  0  0  0  0
  -26.4287  -37.3810   23.9433 N   0  0  0  0  0  0
  -24.6629  -31.0814   22.0959 N   0  0  0  0  0  0
  -23.4187  -28.8201   23.3040 O   0  0  0  0  0  0
  -28.4630  -26.8109   20.0715 O   0  0  0  0  0  0
  -26.5602  -34.8934   22.4708 O   0  0  0  0  0  0
  -23.5335  -32.1443   23.7488 O   0  0  0  0  0  0
  -31.7912  -18.7008   21.4628 C   0  0  0  0  0  0
  -30.6820  -19.5361   21.6906 C   0  0  0  0  0  0
  -31.6218  -17.3054   21.3824 C   0  0  0  0  0  0
  -29.2311  -17.5792   21.7636 C   0  0  0  0  0  0
  -29.3950  -18.9812   21.8554 C   0  0  0  0  0  0
  -30.3347  -16.7302   21.5067 C   0  0  0  0  0  0
  -28.2363  -23.2290   20.5201 C   0  0  0  0  0  0
  -28.7915  -24.4569   20.5476 C   0  0  0  0  0  0
  -28.4967  -22.2889   21.5973 C   0  0  0  0  0  0
  -28.1991  -19.8764   22.1754 C   0  0  0  0  0  0
  -28.6410  -25.5231   19.4812 C   0  0  0  0  0  0
  -30.1028  -15.3249   21.4191 N   0  0  0  0  0  0
  -28.0741  -21.0509   21.3078 N   0  0  0  0  0  0
  -29.0579  -22.5648   22.6605 O   0  0  0  0  0  0
  -31.4618  -12.3861   19.1125 H   0  0  0  0  0  0
  -30.3142  -11.2738   19.7954 H   0  0  0  0  0  0
  -29.7184  -11.7945   17.4159 H   0  0  0  0  0  0
  -29.6621  -13.5007   17.7805 H   0  0  0  0  0  0
  -27.8091  -11.3162   18.8007 H   0  0  0  0  0  0
  -27.3610  -12.6614   17.7870 H   0  0  0  0  0  0
  -27.7183  -14.2520   19.5956 H   0  0  0  0  0  0
  -28.6717  -11.9024   21.3074 H   0  0  0  0  0  0
  -28.4512  -13.5174   21.8950 H   0  0  0  0  0  0
  -25.2729   -9.5698   22.4741 H   0  0  0  0  0  0
  -23.9975   -7.4652   22.7489 H   0  0  0  0  0  0
  -21.0816   -8.8751   19.8945 H   0  0  0  0  0  0
  -22.3647  -10.9658   19.6150 H   0  0  0  0  0  0
  -21.2006   -7.6132   23.9692 H   0  0  0  0  0  0
  -21.1484   -6.0523   25.9067 H   0  0  0  0  0  0
  -22.0601   -2.7602   23.2852 H   0  0  0  0  0  0
  -22.4127  -11.9860   22.4742 H   0  0  0  0  0  0
  -21.1134  -13.1257   22.2660 H   0  0  0  0  0  0
  -24.6661  -15.8469   20.5087 H   0  0  0  0  0  0
  -26.2874  -15.6232   20.0859 H   0  0  0  0  0  0
  -26.7103  -32.5571   23.1146 H   0  0  0  0  0  0
  -24.9988  -33.9787   25.0434 H   0  0  0  0  0  0
  -22.6835  -31.3070   21.4078 H   0  0  0  0  0  0
  -23.3749  -35.9617   23.3299 H   0  0  0  0  0  0
  -24.3558  -36.8955   22.2056 H   0  0  0  0  0  0
  -23.7208  -37.6503   23.6651 H   0  0  0  0  0  0
  -26.0188  -31.6038   20.5756 H   0  0  0  0  0  0
  -26.8189  -30.9104   21.9593 H   0  0  0  0  0  0
  -28.0969  -29.1327   21.1331 H   0  0  0  0  0  0
  -26.0179  -25.9564   19.0549 H   0  0  0  0  0  0
  -23.9726  -27.2697   19.0743 H   0  0  0  0  0  0
  -23.6959  -30.5840   19.3992 H   0  0  0  0  0  0
  -22.7284  -29.2249   19.8807 H   0  0  0  0  0  0
  -25.1260  -36.1991   25.0836 H   0  0  0  0  0  0
  -20.9954  -28.3222   24.1442 H   0  0  0  0  0  0
  -20.5684  -26.2246   23.3621 H   0  0  0  0  0  0
  -21.6609  -26.7451   22.1214 H   0  0  0  0  0  0
  -19.6886  -25.6290   21.1239 H   0  0  0  0  0  0
  -19.6663  -27.3177   20.6743 H   0  0  0  0  0  0
  -17.4185  -26.6698   21.4032 H   0  0  0  0  0  0
  -18.0295  -26.0046   22.9026 H   0  0  0  0  0  0
  -19.7931  -30.7252   24.2290 H   0  0  0  0  0  0
  -17.5024  -31.6256   24.5158 H   0  0  0  0  0  0
  -15.5367  -30.2999   23.7628 H   0  0  0  0  0  0
  -15.8660  -28.0852   22.7024 H   0  0  0  0  0  0
  -24.5838  -30.7103   25.7716 H   0  0  0  0  0  0
  -24.8867  -32.2866   26.4829 H   0  0  0  0  0  0
  -25.7982  -30.8862   27.0192 H   0  0  0  0  0  0
  -26.2833  -29.6857   24.1046 H   0  0  0  0  0  0
  -27.4060  -29.7262   25.4463 H   0  0  0  0  0  0
  -27.8637  -30.4423   23.9163 H   0  0  0  0  0  0
  -27.2636  -33.3618   26.2027 H   0  0  0  0  0  0
  -28.3814  -32.6885   25.0305 H   0  0  0  0  0  0
  -28.0647  -31.8439   26.5412 H   0  0  0  0  0  0
  -28.2579  -38.0124   24.7571 H   0  0  0  0  0  0
  -28.1114  -36.2662   24.6219 H   0  0  0  0  0  0
  -27.2299  -37.1385   25.8876 H   0  0  0  0  0  0
  -20.9300  -29.8775   21.6994 H   0  0  0  0  0  0
  -26.0188  -38.2894   24.1435 H   0  0  0  0  0  0
  -32.7762  -19.1327   21.3588 H   0  0  0  0  0  0
  -30.8297  -20.6039   21.7610 H   0  0  0  0  0  0
  -32.4977  -16.6926   21.2284 H   0  0  0  0  0  0
  -28.2435  -17.1574   21.8843 H   0  0  0  0  0  0
  -27.6043  -22.9476   19.6877 H   0  0  0  0  0  0
  -29.4260  -24.7371   21.3783 H   0  0  0  0  0  0
  -28.2733  -20.1816   23.2209 H   0  0  0  0  0  0
  -27.2734  -19.3035   22.1100 H   0  0  0  0  0  0
  -27.9159  -25.2473   18.7197 H   0  0  0  0  0  0
  -29.5950  -25.5662   18.9561 H   0  0  0  0  0  0
  -29.2405  -14.9931   21.8218 H   0  0  0  0  0  0
  -27.6021  -20.9141   20.4259 H   0  0  0  0  0  0
  1 25  1  0  0  0
  1 30  2  0  0  0
  1 82  1  0  0  0
  2  3  1  0  0  0
  2 25  1  0  0  0
  2 85  1  0  0  0
  2 86  1  0  0  0
  3  4  1  0  0  0
  3 87  1  0  0  0
  3 88  1  0  0  0
  4  5  1  0  0  0
  4 89  1  0  0  0
  4 90  1  0  0  0
  5  6  1  0  0  0
  5 26  1  0  0  0
  5 91  1  0  0  0
  6 25  1  0  0  0
  6 92  1  0  0  0
  6 93  1  0  0  0
  7  8  2  0  0  0
  7 26  1  0  0  0
  7 29  1  0  0  0
  8  9  1  0  0  0
  8 22  1  0  0  0
  9 10  1  0  0  0
  9 27  2  0  0  0
 10 11  2  0  0  0
 10 15  1  0  0  0
 11 12  1  0  0  0
 11 94  1  0  0  0
 12 13  2  0  0  0
 12 95  1  0  0  0
 13 14  1  0  0  0
 13 31  1  0  0  0
 14 15  2  0  0  0
 14 96  1  0  0  0
 15 97  1  0  0  0
 16 17  2  0  0  0
 16 21  1  0  0  0
 16 31  1  0  0  0
 17 18  1  0  0  0
 17 98  1  0  0  0
 18 19  2  0  0  0
 18 99  1  0  0  0
 19 20  1  0  0  0
 19 24  1  0  0  0
 20 21  2  0  0  0
 20100  1  0  0  0
 21 23  1  0  0  0
 22 28  1  0  0  0
 22 32  2  0  0  0
 26 27  1  0  0  0
 28101  1  0  0  0
 28102  1  0  0  0
 29103  1  0  0  0
 29104  1  0  0  0
 33 34  1  0  0  0
 33 66  1  0  0  0
 33 70  2  0  0  0
 34 36  1  0  0  0
 34 59  1  0  0  0
 34105  1  0  0  0
 35 44  2  0  0  0
 35 45  1  0  0  0
 35 68  1  0  0  0
 36 56  1  0  0  0
 36106  1  0  0  0
 37 39  1  0  0  0
 37 47  1  0  0  0
 37 66  1  0  0  0
 37107  1  0  0  0
 38 43  2  0  0  0
 38 46  1  0  0  0
 38 47  1  0  0  0
 39 64  1  0  0  0
 39 67  2  0  0  0
 40 52  1  0  0  0
 40 53  2  0  0  0
 40 58  1  0  0  0
 41108  1  0  0  0
 41109  1  0  0  0
 41110  1  0  0  0
 41 48  1  0  0  0
 42 43  1  0  0  0
 42 66  1  0  0  0
 42111  1  0  0  0
 42112  1  0  0  0
 43 44  1  0  0  0
 44113  1  0  0  0
 45 46  2  0  0  0
 45114  1  0  0  0
 46115  1  0  0  0
 47116  1  0  0  0
 47117  1  0  0  0
 48 56  1  0  0  0
 48 65  1  0  0  0
 48118  1  0  0  0
 49 50  1  0  0  0
 49 53  1  0  0  0
 49 64  1  0  0  0
 49119  1  0  0  0
 50 51  1  0  0  0
 50120  1  0  0  0
 50121  1  0  0  0
 51 52  1  0  0  0
 51122  1  0  0  0
 51123  1  0  0  0
 52124  1  0  0  0
 52125  1  0  0  0
 53 54  1  0  0  0
 54 55  2  0  0  0
 54126  1  0  0  0
 55 57  1  0  0  0
 55127  1  0  0  0
 56 69  2  0  0  0
 57 58  2  0  0  0
 57128  1  0  0  0
 58129  1  0  0  0
 59 60  1  0  0  0
 59 61  1  0  0  0
 59 62  1  0  0  0
 60130  1  0  0  0
 60131  1  0  0  0
 60132  1  0  0  0
 61133  1  0  0  0
 61134  1  0  0  0
 61135  1  0  0  0
 62136  1  0  0  0
 62137  1  0  0  0
 62138  1  0  0  0
 63 65  1  0  0  0
 63139  1  0  0  0
 63140  1  0  0  0
 63141  1  0  0  0
 64142  1  0  0  0
 65143  1  0  0  0
 68 81  1  0  0  0
 71 72  2  0  0  0
 71 73  1  0  0  0
 71144  1  0  0  0
 72 75  1  0  0  0
 72145  1  0  0  0
 73 76  2  0  0  0
 73146  1  0  0  0
 74 75  2  0  0  0
 74 76  1  0  0  0
 74147  1  0  0  0
 75 80  1  0  0  0
 76 82  1  0  0  0
 77 78  2  0  0  0
 77 79  1  0  0  0
 77148  1  0  0  0
 78 81  1  0  0  0
 78149  1  0  0  0
 79 83  1  0  0  0
 79 84  2  0  0  0
 80 83  1  0  0  0
 80150  1  0  0  0
 80151  1  0  0  0
 81152  1  0  0  0
 81153  1  0  0  0
 82154  1  0  0  0
 83155  1  0  0  0
M  ISO  4   1 100  68 101  81 101  82 100
M  END
> <chiral flag>
0

> <version>
0

> <s_m_source_file>
/data/baiqing/PycharmProjects/Reinvent-master-3.2/result/LINK_invent/BTK/process_docking_weight1_custom_product_contain_oxygen_bond_distance_aromatic_linkinvent_7_9_3/rearranged_h_0055.sdf

> <i_m_source_file_index>
59

> <r_mmod_Potential_Energy-OPLS-2005>
-198.623962402344

> <r_mmod_Stretch_Energy-OPLS-2005>
34.0698394775391

> <r_mmod_Bend_Energy-OPLS-2005>
105.001525878906

> <r_mmod_Torsional_Energy-OPLS-2005>
195.473526000977

> <r_mmod_Improper_Torsional_Energy-OPLS-2005>
2.85309195518494

> <r_mmod_Van_der_Waal_Energy-OPLS-2005>
161.974914550781

> <r_mmod_Electrostatic_Energy-OPLS-2005>
-466.150909423828

> <r_mmod_Solvation_Energy-OPLS-2005>
-241.060882568359

> <b_mmod_Minimization_Converged-OPLS-2005>
0

> <r_mmod_RMS_Derivative-OPLS-2005>
2.72616934776306

$$$$
59
                    3D
 Structure written by MMmdl.
156164  0  0  1  0            999 V2000
  -30.6227  -14.8724   20.3668 C   0  0  0  0  0  0
  -30.4276  -12.5241   19.5106 C   0  0  0  0  0  0
  -29.5185  -12.5010   18.2633 C   0  0  0  0  0  0
  -28.0500  -12.3042   18.6899 C   0  0  0  0  0  0
  -27.6354  -13.2450   19.8474 C   0  0  2  0  0  0
  -28.6790  -13.3042   20.9827 C   0  0  0  0  0  0
  -25.2516  -13.8193   20.5690 C   0  0  0  0  0  0
  -24.1791  -13.0432   20.9346 C   0  0  0  0  0  0
  -24.6441  -11.6928   20.8816 C   0  0  0  0  0  0
  -23.9131  -10.4300   21.0366 C   0  0  0  0  0  0
  -24.3647   -9.4238   21.9206 C   0  0  0  0  0  0
  -23.6343   -8.2232   22.0753 C   0  0  0  0  0  0
  -22.4277   -8.0335   21.3610 C   0  0  0  0  0  0
  -21.9965   -9.0283   20.4640 C   0  0  0  0  0  0
  -22.7282  -10.2220   20.3052 C   0  0  0  0  0  0
  -21.6887   -6.0769   22.5248 C   0  0  0  0  0  0
  -21.4030   -6.5635   23.8216 C   0  0  0  0  0  0
  -21.3613   -5.6811   24.9162 C   0  0  0  0  0  0
  -21.6069   -4.3057   24.7236 C   0  0  0  0  0  0
  -21.8795   -3.8177   23.4308 C   0  0  0  0  0  0
  -21.9190   -4.6965   22.3405 C   0  0  0  0  0  0
  -22.7827  -13.5164   21.1915 C   0  0  0  0  0  0
  -22.1663   -4.2129   21.0990 F   0  0  0  0  0  0
  -21.5613   -3.4552   25.7755 F   0  0  0  0  0  0
  -29.9627  -13.6435   20.3721 N   0  0  0  0  0  0
  -26.2902  -12.9413   20.3283 N   0  0  0  0  0  0
  -25.9375  -11.6570   20.5891 N   0  0  0  0  0  0
  -22.0491  -12.8178   22.0482 N   0  0  0  0  0  0
  -25.4188  -15.1952   20.4124 N   0  0  0  0  0  0
  -31.8228  -14.8447   20.0931 O   0  0  0  0  0  0
  -21.6638   -6.8898   21.4260 O   0  0  0  0  0  0
  -22.3480  -14.5535   20.6839 O   0  0  0  0  0  0
  -24.6387  -31.8515   23.1936 C   0  0  0  0  0  0
  -25.9108  -32.4787   23.8310 C   0  0  1  0  0  0
  -27.2950  -27.2804   20.0541 C   0  0  0  0  0  0
  -25.5924  -33.8597   24.2279 N   0  0  0  0  0  0
  -23.4394  -30.4629   21.5338 C   0  0  2  0  0  0
  -24.8870  -28.8957   20.1117 C   0  0  0  0  0  0
  -22.7579  -29.4584   22.4920 C   0  0  0  0  0  0
  -18.0328  -28.1309   22.8403 C   0  0  0  0  0  0
  -24.1505  -36.7296   23.2655 C   0  0  0  0  0  0
  -25.9831  -30.7590   21.3862 C   0  0  0  0  0  0
  -26.0549  -29.3633   20.7338 C   0  0  0  0  0  0
  -27.2462  -28.5662   20.7018 C   0  0  0  0  0  0
  -26.0805  -26.8607   19.4610 C   0  0  0  0  0  0
  -24.9045  -27.6421   19.4792 C   0  0  0  0  0  0
  -23.6547  -29.7848   20.1557 C   0  0  0  0  0  0
  -25.4121  -36.3109   24.0343 C   0  0  1  0  0  0
  -20.5923  -28.3704   23.1208 C   0  0  2  0  0  0
  -20.6883  -26.9365   22.5393 C   0  0  0  0  0  0
  -19.5859  -26.6330   21.5213 C   0  0  0  0  0  0
  -18.2097  -26.7925   22.1557 C   0  0  0  0  0  0
  -19.1546  -28.8828   23.2892 C   0  0  0  0  0  0
  -18.9459  -30.1456   23.8886 C   0  0  0  0  0  0
  -17.6433  -30.6520   24.0568 C   0  0  0  0  0  0
  -25.9063  -34.9424   23.5122 C   0  0  0  0  0  0
  -16.5328  -29.8981   23.6320 C   0  0  0  0  0  0
  -16.7324  -28.6412   23.0305 C   0  0  0  0  0  0
  -26.4444  -31.6645   25.0696 C   0  0  0  0  0  0
  -25.3694  -31.3767   26.1459 C   0  0  0  0  0  0
  -27.0308  -30.3058   24.6254 C   0  0  0  0  0  0
  -27.6018  -32.4324   25.7499 C   0  0  0  0  0  0
  -27.5593  -37.1829   24.8464 C   0  0  0  0  0  0
  -21.4276  -29.3053   22.3624 N   0  0  0  0  0  0
  -26.4294  -37.3794   23.9400 N   0  0  0  0  0  0
  -24.7010  -31.0509   22.0905 N   0  0  0  0  0  0
  -23.4236  -28.8203   23.3151 O   0  0  0  0  0  0
  -28.4835  -26.4792   19.8795 O   0  0  0  0  0  0
  -26.5631  -34.8840   22.4712 O   0  0  0  0  0  0
  -23.5465  -32.1284   23.7106 O   0  0  0  0  0  0
  -29.1964  -21.4860   21.3800 C   0  0  0  0  0  0
  -29.5452  -19.0628   21.7807 C   0  0  0  0  0  0
  -29.3276  -21.3433   19.9805 C   0  0  0  0  0  0
  -29.7046  -18.7824   20.4124 C   0  0  0  0  0  0
  -29.5054  -19.9332   19.5153 C   0  0  0  0  0  0
  -29.2864  -20.3781   22.2531 C   0  0  0  0  0  0
  -29.3626  -22.5786   19.0229 C   0  0  0  0  0  0
  -30.3292  -17.3714   20.0082 C   0  0  0  0  0  0
  -29.0895  -23.9566   18.9507 C   0  0  0  0  0  0
  -29.4310  -19.7135   18.0205 C   0  0  0  0  0  0
  -29.3601  -24.7061   17.6624 C   0  0  0  0  0  0
  -28.4521  -24.9160   20.0254 C   0  0  0  0  0  0
  -29.9277  -16.1025   20.4875 N   0  0  0  0  0  0
  -31.2317  -17.4567   19.1824 O   0  0  0  0  0  0
  -29.1859  -20.6191   23.5829 F   0  0  0  0  0  0
  -31.4650  -12.6477   19.2096 H   0  0  0  0  0  0
  -30.3831  -11.5770   20.0518 H   0  0  0  0  0  0
  -29.8247  -11.7060   17.5818 H   0  0  0  0  0  0
  -29.6060  -13.4359   17.7133 H   0  0  0  0  0  0
  -27.9707  -11.2731   19.0329 H   0  0  0  0  0  0
  -27.3706  -12.3974   17.8368 H   0  0  0  0  0  0
  -27.5979  -14.2395   19.4062 H   0  0  0  0  0  0
  -28.7451  -12.3524   21.5073 H   0  0  0  0  0  0
  -28.4066  -14.0475   21.7325 H   0  0  0  0  0  0
  -25.2769   -9.5683   22.4762 H   0  0  0  0  0  0
  -24.0022   -7.4602   22.7480 H   0  0  0  0  0  0
  -21.0867   -8.8770   19.8950 H   0  0  0  0  0  0
  -22.3670  -10.9744   19.6090 H   0  0  0  0  0  0
  -21.2009   -7.6142   23.9698 H   0  0  0  0  0  0
  -21.1474   -6.0555   25.9099 H   0  0  0  0  0  0
  -22.0614   -2.7619   23.2849 H   0  0  0  0  0  0
  -22.4172  -11.9755   22.4692 H   0  0  0  0  0  0
  -21.1126  -13.1143   22.2745 H   0  0  0  0  0  0
  -24.6676  -15.8641   20.5426 H   0  0  0  0  0  0
  -26.2654  -15.6280   20.0641 H   0  0  0  0  0  0
  -26.7158  -32.5331   23.1048 H   0  0  0  0  0  0
  -25.0042  -33.9779   25.0381 H   0  0  0  0  0  0
  -22.7357  -31.2826   21.3812 H   0  0  0  0  0  0
  -23.3781  -35.9650   23.3309 H   0  0  0  0  0  0
  -24.3599  -36.8899   22.2089 H   0  0  0  0  0  0
  -23.7174  -37.6455   23.6645 H   0  0  0  0  0  0
  -26.1107  -31.5305   20.6158 H   0  0  0  0  0  0
  -26.8619  -30.8189   22.0249 H   0  0  0  0  0  0
  -28.1425  -28.9459   21.1762 H   0  0  0  0  0  0
  -26.0747  -25.9405   18.9095 H   0  0  0  0  0  0
  -24.0221  -27.3142   18.9491 H   0  0  0  0  0  0
  -23.7540  -30.5513   19.3841 H   0  0  0  0  0  0
  -22.7840  -29.1977   19.8779 H   0  0  0  0  0  0
  -25.1308  -36.2003   25.0830 H   0  0  0  0  0  0
  -20.9933  -28.3296   24.1363 H   0  0  0  0  0  0
  -20.5749  -26.2349   23.3680 H   0  0  0  0  0  0
  -21.6857  -26.7458   22.1299 H   0  0  0  0  0  0
  -19.6895  -27.3041   20.6697 H   0  0  0  0  0  0
  -19.7038  -25.6297   21.1252 H   0  0  0  0  0  0
  -17.4386  -26.6705   21.3991 H   0  0  0  0  0  0
  -18.0353  -26.0125   22.8882 H   0  0  0  0  0  0
  -19.8091  -30.7203   24.2114 H   0  0  0  0  0  0
  -17.4917  -31.6215   24.5029 H   0  0  0  0  0  0
  -15.5214  -30.2808   23.7480 H   0  0  0  0  0  0
  -15.8740  -28.0749   22.7001 H   0  0  0  0  0  0
  -24.5860  -30.7106   25.7773 H   0  0  0  0  0  0
  -24.8864  -32.2932   26.4884 H   0  0  0  0  0  0
  -25.8017  -30.8902   27.0259 H   0  0  0  0  0  0
  -26.2895  -29.6816   24.1264 H   0  0  0  0  0  0
  -27.3968  -29.7281   25.4782 H   0  0  0  0  0  0
  -27.8776  -30.4339   23.9505 H   0  0  0  0  0  0
  -27.2700  -33.3661   26.2105 H   0  0  0  0  0  0
  -28.3862  -32.6920   25.0346 H   0  0  0  0  0  0
  -28.0752  -31.8442   26.5416 H   0  0  0  0  0  0
  -28.2663  -38.0125   24.7523 H   0  0  0  0  0  0
  -28.1071  -36.2616   24.6297 H   0  0  0  0  0  0
  -27.2327  -37.1473   25.8897 H   0  0  0  0  0  0
  -20.9406  -29.8483   21.6619 H   0  0  0  0  0  0
  -26.0204  -38.2898   24.1364 H   0  0  0  0  0  0
  -29.0698  -22.4732   21.8192 H   0  0  0  0  0  0
  -29.6765  -18.2682   22.5039 H   0  0  0  0  0  0
  -29.7032  -22.2478   18.0560 H   0  0  0  0  0  0
  -28.6111  -20.2905   17.5850 H   0  0  0  0  0  0
  -29.2628  -18.6713   17.7639 H   0  0  0  0  0  0
  -30.3515  -20.0022   17.5361 H   0  0  0  0  0  0
  -30.4294  -24.5288   17.4439 H   0  0  0  0  0  0
  -29.1514  -25.7869   17.7570 H   0  0  0  0  0  0
  -28.6810  -24.3063   16.9071 H   0  0  0  0  0  0
  -28.9786  -24.5950   20.8998 H   0  0  0  0  0  0
  -27.4291  -24.4939   20.0793 H   0  0  0  0  0  0
  -29.0345  -16.0608   20.9492 H   0  0  0  0  0  0
  1 25  1  0  0  0
  1 30  2  0  0  0
  1 83  1  0  0  0
  2  3  1  0  0  0
  2 25  1  0  0  0
  2 86  1  0  0  0
  2 87  1  0  0  0
  3  4  1  0  0  0
  3 88  1  0  0  0
  3 89  1  0  0  0
  4  5  1  0  0  0
  4 90  1  0  0  0
  4 91  1  0  0  0
  5  6  1  0  0  0
  5 26  1  0  0  0
  5 92  1  0  0  0
  6 25  1  0  0  0
  6 93  1  0  0  0
  6 94  1  0  0  0
  7  8  2  0  0  0
  7 26  1  0  0  0
  7 29  1  0  0  0
  8  9  1  0  0  0
  8 22  1  0  0  0
  9 10  1  0  0  0
  9 27  2  0  0  0
 10 11  2  0  0  0
 10 15  1  0  0  0
 11 12  1  0  0  0
 11 95  1  0  0  0
 12 13  2  0  0  0
 12 96  1  0  0  0
 13 14  1  0  0  0
 13 31  1  0  0  0
 14 15  2  0  0  0
 14 97  1  0  0  0
 15 98  1  0  0  0
 16 17  2  0  0  0
 16 21  1  0  0  0
 16 31  1  0  0  0
 17 18  1  0  0  0
 17 99  1  0  0  0
 18 19  2  0  0  0
 18100  1  0  0  0
 19 20  1  0  0  0
 19 24  1  0  0  0
 20 21  2  0  0  0
 20101  1  0  0  0
 21 23  1  0  0  0
 22 28  1  0  0  0
 22 32  2  0  0  0
 26 27  1  0  0  0
 28102  1  0  0  0
 28103  1  0  0  0
 29104  1  0  0  0
 29105  1  0  0  0
 33 34  1  0  0  0
 33 66  1  0  0  0
 33 70  2  0  0  0
 34 36  1  0  0  0
 34 59  1  0  0  0
 34106  1  0  0  0
 35 44  2  0  0  0
 35 45  1  0  0  0
 35 68  1  0  0  0
 36 56  1  0  0  0
 36107  1  0  0  0
 37 39  1  0  0  0
 37 47  1  0  0  0
 37 66  1  0  0  0
 37108  1  0  0  0
 38 43  2  0  0  0
 38 46  1  0  0  0
 38 47  1  0  0  0
 39 64  1  0  0  0
 39 67  2  0  0  0
 40 52  1  0  0  0
 40 53  2  0  0  0
 40 58  1  0  0  0
 41109  1  0  0  0
 41110  1  0  0  0
 41111  1  0  0  0
 41 48  1  0  0  0
 42 43  1  0  0  0
 42 66  1  0  0  0
 42112  1  0  0  0
 42113  1  0  0  0
 43 44  1  0  0  0
 44114  1  0  0  0
 45 46  2  0  0  0
 45115  1  0  0  0
 46116  1  0  0  0
 47117  1  0  0  0
 47118  1  0  0  0
 48 56  1  0  0  0
 48 65  1  0  0  0
 48119  1  0  0  0
 49 50  1  0  0  0
 49 53  1  0  0  0
 49 64  1  0  0  0
 49120  1  0  0  0
 50 51  1  0  0  0
 50121  1  0  0  0
 50122  1  0  0  0
 51 52  1  0  0  0
 51123  1  0  0  0
 51124  1  0  0  0
 52125  1  0  0  0
 52126  1  0  0  0
 53 54  1  0  0  0
 54 55  2  0  0  0
 54127  1  0  0  0
 55 57  1  0  0  0
 55128  1  0  0  0
 56 69  2  0  0  0
 57 58  2  0  0  0
 57129  1  0  0  0
 58130  1  0  0  0
 59 60  1  0  0  0
 59 61  1  0  0  0
 59 62  1  0  0  0
 60131  1  0  0  0
 60132  1  0  0  0
 60133  1  0  0  0
 61134  1  0  0  0
 61135  1  0  0  0
 61136  1  0  0  0
 62137  1  0  0  0
 62138  1  0  0  0
 62139  1  0  0  0
 63 65  1  0  0  0
 63140  1  0  0  0
 63141  1  0  0  0
 63142  1  0  0  0
 64143  1  0  0  0
 65144  1  0  0  0
 68 82  1  0  0  0
 71 73  2  0  0  0
 71 76  1  0  0  0
 71145  1  0  0  0
 72 74  1  0  0  0
 72 76  2  0  0  0
 72146  1  0  0  0
 73 75  1  0  0  0
 73 77  1  0  0  0
 74 75  2  0  0  0
 74 78  1  0  0  0
 75 80  1  0  0  0
 76 85  1  0  0  0
 77 79  2  0  0  0
 77147  1  0  0  0
 78 83  1  0  0  0
 78 84  2  0  0  0
 79 81  1  0  0  0
 79 82  1  0  0  0
 80148  1  0  0  0
 80149  1  0  0  0
 80150  1  0  0  0
 81151  1  0  0  0
 81152  1  0  0  0
 81153  1  0  0  0
 82154  1  0  0  0
 82155  1  0  0  0
 83156  1  0  0  0
M  ISO  4   1 100  68 101  82 101  83 100
M  END
> <chiral flag>
0

> <version>
0

> <s_m_source_file>
/data/baiqing/PycharmProjects/Reinvent-master-3.2/result/LINK_invent/BTK/process_docking_weight1_custom_product_contain_oxygen_bond_distance_aromatic_linkinvent_7_9_3/rearranged_h_0055.sdf

> <i_m_source_file_index>
60

> <r_mmod_Potential_Energy-OPLS-2005>
313.399261474609

> <r_mmod_Stretch_Energy-OPLS-2005>
199.061492919922

> <r_mmod_Bend_Energy-OPLS-2005>
232.187057495117

> <r_mmod_Torsional_Energy-OPLS-2005>
273.566192626953

> <r_mmod_Improper_Torsional_Energy-OPLS-2005>
6.72043180465698

> <r_mmod_Van_der_Waal_Energy-OPLS-2005>
146.362106323242

> <r_mmod_Electrostatic_Energy-OPLS-2005>
-446.824737548828

> <r_mmod_Solvation_Energy-OPLS-2005>
-216.736907958984

> <b_mmod_Minimization_Converged-OPLS-2005>
0

> <r_mmod_RMS_Derivative-OPLS-2005>
42.249340057373

$$$$
60
                    3D
 Structure written by MMmdl.
166174  0  0  1  0            999 V2000
  -30.6886  -14.5350   20.4743 C   0  0  0  0  0  0
  -30.4098  -12.3091   19.4479 C   0  0  0  0  0  0
  -29.4972  -12.4707   18.2136 C   0  0  0  0  0  0
  -28.0199  -12.3287   18.6288 C   0  0  0  0  0  0
  -27.6500  -13.2090   19.8541 C   0  0  2  0  0  0
  -28.6932  -13.0602   20.9816 C   0  0  0  0  0  0
  -25.2560  -13.8157   20.5674 C   0  0  0  0  0  0
  -24.1812  -13.0440   20.9167 C   0  0  0  0  0  0
  -24.6370  -11.6902   20.8704 C   0  0  0  0  0  0
  -23.9032  -10.4275   21.0364 C   0  0  0  0  0  0
  -24.3580   -9.4203   21.9172 C   0  0  0  0  0  0
  -23.6260   -8.2235   22.0755 C   0  0  0  0  0  0
  -22.4252   -8.0252   21.3534 C   0  0  0  0  0  0
  -21.9863   -9.0216   20.4646 C   0  0  0  0  0  0
  -22.7180  -10.2109   20.3043 C   0  0  0  0  0  0
  -21.6848   -6.0694   22.5269 C   0  0  0  0  0  0
  -21.4014   -6.5619   23.8189 C   0  0  0  0  0  0
  -21.3669   -5.6794   24.9170 C   0  0  0  0  0  0
  -21.6031   -4.3047   24.7237 C   0  0  0  0  0  0
  -21.8820   -3.8123   23.4367 C   0  0  0  0  0  0
  -21.9180   -4.6918   22.3404 C   0  0  0  0  0  0
  -22.7837  -13.5219   21.1846 C   0  0  0  0  0  0
  -22.1652   -4.2087   21.0984 F   0  0  0  0  0  0
  -21.5635   -3.4548   25.7757 F   0  0  0  0  0  0
  -30.0157  -13.3507   20.4129 N   0  0  0  0  0  0
  -26.2970  -12.9333   20.3285 N   0  0  0  0  0  0
  -25.9295  -11.6498   20.5760 N   0  0  0  0  0  0
  -22.0514  -12.8160   22.0408 N   0  0  0  0  0  0
  -25.4343  -15.1881   20.4111 N   0  0  0  0  0  0
  -31.8768  -14.6325   20.1701 O   0  0  0  0  0  0
  -21.6648   -6.8833   21.4226 O   0  0  0  0  0  0
  -22.3494  -14.5519   20.6714 O   0  0  0  0  0  0
  -24.6165  -31.8646   23.2091 C   0  0  0  0  0  0
  -25.9060  -32.4800   23.8394 C   0  0  1  0  0  0
  -27.2314  -27.4079   20.0937 C   0  0  0  0  0  0
  -25.5877  -33.8597   24.2288 N   0  0  0  0  0  0
  -23.4036  -30.4884   21.5493 C   0  0  2  0  0  0
  -24.8509  -28.9505   20.1137 C   0  0  0  0  0  0
  -22.7400  -29.4622   22.4950 C   0  0  0  0  0  0
  -18.0278  -28.1335   22.8479 C   0  0  0  0  0  0
  -24.1489  -36.7318   23.2639 C   0  0  0  0  0  0
  -25.9355  -30.8172   21.3708 C   0  0  0  0  0  0
  -26.0113  -29.4487   20.7198 C   0  0  0  0  0  0
  -27.1974  -28.6753   20.7254 C   0  0  0  0  0  0
  -26.0515  -26.9294   19.4852 C   0  0  0  0  0  0
  -24.8631  -27.6873   19.5008 C   0  0  0  0  0  0
  -23.6132  -29.8220   20.1628 C   0  0  0  0  0  0
  -25.4115  -36.3087   24.0320 C   0  0  1  0  0  0
  -20.5857  -28.3635   23.1297 C   0  0  2  0  0  0
  -20.6777  -26.9354   22.5411 C   0  0  0  0  0  0
  -19.5760  -26.6349   21.5214 C   0  0  0  0  0  0
  -18.1927  -26.7857   22.1648 C   0  0  0  0  0  0
  -19.1519  -28.8817   23.2879 C   0  0  0  0  0  0
  -18.9455  -30.1410   23.8890 C   0  0  0  0  0  0
  -17.6463  -30.6564   24.0541 C   0  0  0  0  0  0
  -25.9031  -34.9455   23.5108 C   0  0  0  0  0  0
  -16.5349  -29.9057   23.6314 C   0  0  0  0  0  0
  -16.7268  -28.6447   23.0340 C   0  0  0  0  0  0
  -26.4471  -31.6614   25.0751 C   0  0  0  0  0  0
  -25.3712  -31.3743   26.1483 C   0  0  0  0  0  0
  -27.0313  -30.3044   24.6162 C   0  0  0  0  0  0
  -27.6034  -32.4340   25.7517 C   0  0  0  0  0  0
  -27.5566  -37.1810   24.8451 C   0  0  0  0  0  0
  -21.4108  -29.3024   22.3699 N   0  0  0  0  0  0
  -26.4295  -37.3778   23.9379 N   0  0  0  0  0  0
  -24.6695  -31.0734   22.0997 N   0  0  0  0  0  0
  -23.4156  -28.8162   23.3007 O   0  0  0  0  0  0
  -28.3850  -26.6426   20.1393 O   0  0  0  0  0  0
  -26.5606  -34.8909   22.4669 O   0  0  0  0  0  0
  -23.5360  -32.1406   23.7481 O   0  0  0  0  0  0
  -28.8382  -16.8687   23.7702 C   0  0  0  0  0  0
  -29.3737  -16.0452   22.7740 C   0  0  0  0  0  0
  -28.4275  -18.1865   23.4806 C   0  0  0  0  0  0
  -29.5086  -16.5236   21.4568 C   0  0  0  0  0  0
  -29.1847  -17.8846   21.1705 C   0  0  0  0  0  0
  -28.6140  -18.7273   22.1719 C   0  0  0  0  0  0
  -28.4009  -24.4197   18.8966 C   0  0  0  0  0  0
  -27.7651  -18.9574   24.6140 C   0  0  0  0  0  0
  -27.5010  -19.8404   17.9042 C   0  0  0  0  0  0
  -28.7996  -25.9256   18.9591 C   0  0  0  0  0  0
  -27.0781  -20.0404   19.3687 C   0  0  0  0  0  0
  -27.3116  -22.4827   20.0517 C   0  0  0  0  0  0
  -27.9776  -21.0489   20.1322 C   0  0  1  0  0  0
  -29.9318  -15.6558   20.3976 N   0  0  0  0  0  0
  -28.1430  -23.7136   20.0181 N   0  0  0  0  0  0
  -28.3178  -23.8872   17.7866 O   0  0  0  0  0  0
  -26.7662  -20.6425   22.4501 O   0  0  0  0  0  0
  -29.1817  -21.3367   22.5142 O   0  0  0  0  0  0
  -29.4216  -18.3533   19.9207 F   0  0  0  0  0  0
  -28.1321  -20.4988   21.9111 S   0  0  0  0  0  0
  -31.4613  -12.3680   19.1657 H   0  0  0  0  0  0
  -30.2750  -11.3180   19.8855 H   0  0  0  0  0  0
  -29.7445  -11.7263   17.4564 H   0  0  0  0  0  0
  -29.6631  -13.4450   17.7564 H   0  0  0  0  0  0
  -27.8551  -11.2791   18.8770 H   0  0  0  0  0  0
  -27.3609  -12.5464   17.7893 H   0  0  0  0  0  0
  -27.6730  -14.2453   19.5157 H   0  0  0  0  0  0
  -28.6798  -12.0458   21.3845 H   0  0  0  0  0  0
  -28.4465  -13.7145   21.8143 H   0  0  0  0  0  0
  -25.2731   -9.5674   22.4754 H   0  0  0  0  0  0
  -23.9947   -7.4628   22.7487 H   0  0  0  0  0  0
  -21.0785   -8.8720   19.8966 H   0  0  0  0  0  0
  -22.3611  -10.9636   19.6149 H   0  0  0  0  0  0
  -21.2038   -7.6138   23.9663 H   0  0  0  0  0  0
  -21.1497   -6.0552   25.9064 H   0  0  0  0  0  0
  -22.0597   -2.7583   23.2899 H   0  0  0  0  0  0
  -22.4164  -11.9805   22.4719 H   0  0  0  0  0  0
  -21.1168  -13.1179   22.2739 H   0  0  0  0  0  0
  -24.6857  -15.8590   20.5415 H   0  0  0  0  0  0
  -26.3030  -15.6110   20.1086 H   0  0  0  0  0  0
  -26.7145  -32.5506   23.1177 H   0  0  0  0  0  0
  -24.9989  -33.9748   25.0411 H   0  0  0  0  0  0
  -22.6936  -31.3084   21.4108 H   0  0  0  0  0  0
  -23.3728  -35.9678   23.3334 H   0  0  0  0  0  0
  -24.3602  -36.8899   22.2046 H   0  0  0  0  0  0
  -23.7274  -37.6537   23.6665 H   0  0  0  0  0  0
  -26.0620  -31.5827   20.6038 H   0  0  0  0  0  0
  -26.8188  -30.8689   21.9944 H   0  0  0  0  0  0
  -28.0844  -29.0396   21.2231 H   0  0  0  0  0  0
  -26.0283  -25.9560   19.0242 H   0  0  0  0  0  0
  -23.9671  -27.2904   19.0425 H   0  0  0  0  0  0
  -23.7255  -30.5986   19.4047 H   0  0  0  0  0  0
  -22.7346  -29.2443   19.8653 H   0  0  0  0  0  0
  -25.1311  -36.1951   25.0825 H   0  0  0  0  0  0
  -20.9967  -28.3216   24.1409 H   0  0  0  0  0  0
  -21.6639  -26.7320   22.1209 H   0  0  0  0  0  0
  -20.5669  -26.2250   23.3633 H   0  0  0  0  0  0
  -19.6916  -25.6268   21.1218 H   0  0  0  0  0  0
  -19.6727  -27.3202   20.6764 H   0  0  0  0  0  0
  -17.4186  -26.6494   21.4086 H   0  0  0  0  0  0
  -18.0378  -26.0047   22.9096 H   0  0  0  0  0  0
  -19.7945  -30.7196   24.2276 H   0  0  0  0  0  0
  -17.5033  -31.6251   24.5144 H   0  0  0  0  0  0
  -15.5351  -30.2951   23.7654 H   0  0  0  0  0  0
  -15.8664  -28.0732   22.7094 H   0  0  0  0  0  0
  -24.5868  -30.7106   25.7813 H   0  0  0  0  0  0
  -24.8939  -32.2915   26.4939 H   0  0  0  0  0  0
  -25.8042  -30.8894   27.0241 H   0  0  0  0  0  0
  -26.2879  -29.6793   24.1170 H   0  0  0  0  0  0
  -27.4007  -29.7293   25.4665 H   0  0  0  0  0  0
  -27.8767  -30.4356   23.9397 H   0  0  0  0  0  0
  -27.2638  -33.3609   26.2159 H   0  0  0  0  0  0
  -28.3827  -32.6928   25.0337 H   0  0  0  0  0  0
  -28.0737  -31.8426   26.5373 H   0  0  0  0  0  0
  -28.2596  -38.0082   24.7458 H   0  0  0  0  0  0
  -28.1033  -36.2603   24.6352 H   0  0  0  0  0  0
  -27.2271  -37.1560   25.8847 H   0  0  0  0  0  0
  -20.9263  -29.8755   21.6915 H   0  0  0  0  0  0
  -26.0168  -38.2852   24.1376 H   0  0  0  0  0  0
  -28.7202  -16.4637   24.7656 H   0  0  0  0  0  0
  -29.6520  -15.0357   23.0426 H   0  0  0  0  0  0
  -27.9348  -18.4673   25.5722 H   0  0  0  0  0  0
  -26.6835  -18.9920   24.4593 H   0  0  0  0  0  0
  -28.1346  -19.9787   24.7048 H   0  0  0  0  0  0
  -26.7539  -19.2635   17.3551 H   0  0  0  0  0  0
  -28.4433  -19.2977   17.8284 H   0  0  0  0  0  0
  -27.6269  -20.7972   17.3969 H   0  0  0  0  0  0
  -28.4234  -26.4330   18.0677 H   0  0  0  0  0  0
  -29.8867  -25.9940   18.8986 H   0  0  0  0  0  0
  -27.0608  -19.0733   19.8663 H   0  0  0  0  0  0
  -26.0369  -20.3604   19.4039 H   0  0  0  0  0  0
  -26.6212  -22.6027   20.8877 H   0  0  0  0  0  0
  -26.6520  -22.5170   19.1809 H   0  0  0  0  0  0
  -28.9849  -21.0399   19.7157 H   0  0  0  0  0  0
  -30.1882  -16.1997   19.5853 H   0  0  0  0  0  0
  -28.2491  -24.2225   20.8874 H   0  0  0  0  0  0
  1 25  1  0  0  0
  1 30  2  0  0  0
  1 84  1  0  0  0
  2  3  1  0  0  0
  2 25  1  0  0  0
  2 91  1  0  0  0
  2 92  1  0  0  0
  3  4  1  0  0  0
  3 93  1  0  0  0
  3 94  1  0  0  0
  4  5  1  0  0  0
  4 95  1  0  0  0
  4 96  1  0  0  0
  5  6  1  0  0  0
  5 26  1  0  0  0
  5 97  1  0  0  0
  6 25  1  0  0  0
  6 98  1  0  0  0
  6 99  1  0  0  0
  7  8  2  0  0  0
  7 26  1  0  0  0
  7 29  1  0  0  0
  8  9  1  0  0  0
  8 22  1  0  0  0
  9 10  1  0  0  0
  9 27  2  0  0  0
 10 11  2  0  0  0
 10 15  1  0  0  0
 11 12  1  0  0  0
 11100  1  0  0  0
 12 13  2  0  0  0
 12101  1  0  0  0
 13 14  1  0  0  0
 13 31  1  0  0  0
 14 15  2  0  0  0
 14102  1  0  0  0
 15103  1  0  0  0
 16 17  2  0  0  0
 16 21  1  0  0  0
 16 31  1  0  0  0
 17 18  1  0  0  0
 17104  1  0  0  0
 18 19  2  0  0  0
 18105  1  0  0  0
 19 20  1  0  0  0
 19 24  1  0  0  0
 20 21  2  0  0  0
 20106  1  0  0  0
 21 23  1  0  0  0
 22 28  1  0  0  0
 22 32  2  0  0  0
 26 27  1  0  0  0
 28107  1  0  0  0
 28108  1  0  0  0
 29109  1  0  0  0
 29110  1  0  0  0
 33 34  1  0  0  0
 33 66  1  0  0  0
 33 70  2  0  0  0
 34 36  1  0  0  0
 34 59  1  0  0  0
 34111  1  0  0  0
 35 44  2  0  0  0
 35 45  1  0  0  0
 35 68  1  0  0  0
 36 56  1  0  0  0
 36112  1  0  0  0
 37 39  1  0  0  0
 37 47  1  0  0  0
 37 66  1  0  0  0
 37113  1  0  0  0
 38 43  2  0  0  0
 38 46  1  0  0  0
 38 47  1  0  0  0
 39 64  1  0  0  0
 39 67  2  0  0  0
 40 52  1  0  0  0
 40 53  2  0  0  0
 40 58  1  0  0  0
 41114  1  0  0  0
 41115  1  0  0  0
 41116  1  0  0  0
 41 48  1  0  0  0
 42 43  1  0  0  0
 42 66  1  0  0  0
 42117  1  0  0  0
 42118  1  0  0  0
 43 44  1  0  0  0
 44119  1  0  0  0
 45 46  2  0  0  0
 45120  1  0  0  0
 46121  1  0  0  0
 47122  1  0  0  0
 47123  1  0  0  0
 48 56  1  0  0  0
 48 65  1  0  0  0
 48124  1  0  0  0
 49 50  1  0  0  0
 49 53  1  0  0  0
 49 64  1  0  0  0
 49125  1  0  0  0
 50 51  1  0  0  0
 50126  1  0  0  0
 50127  1  0  0  0
 51 52  1  0  0  0
 51128  1  0  0  0
 51129  1  0  0  0
 52130  1  0  0  0
 52131  1  0  0  0
 53 54  1  0  0  0
 54 55  2  0  0  0
 54132  1  0  0  0
 55 57  1  0  0  0
 55133  1  0  0  0
 56 69  2  0  0  0
 57 58  2  0  0  0
 57134  1  0  0  0
 58135  1  0  0  0
 59 60  1  0  0  0
 59 61  1  0  0  0
 59 62  1  0  0  0
 60136  1  0  0  0
 60137  1  0  0  0
 60138  1  0  0  0
 61139  1  0  0  0
 61140  1  0  0  0
 61141  1  0  0  0
 62142  1  0  0  0
 62143  1  0  0  0
 62144  1  0  0  0
 63 65  1  0  0  0
 63145  1  0  0  0
 63146  1  0  0  0
 63147  1  0  0  0
 64148  1  0  0  0
 65149  1  0  0  0
 68 80  1  0  0  0
 71 72  2  0  0  0
 71 73  1  0  0  0
 71150  1  0  0  0
 72 74  1  0  0  0
 72151  1  0  0  0
 73 76  2  0  0  0
 73 78  1  0  0  0
 74 75  2  0  0  0
 74 84  1  0  0  0
 75 76  1  0  0  0
 75 89  1  0  0  0
 76 90  1  0  0  0
 77 80  1  0  0  0
 77 85  1  0  0  0
 77 86  2  0  0  0
 78152  1  0  0  0
 78153  1  0  0  0
 78154  1  0  0  0
 79 81  1  0  0  0
 79155  1  0  0  0
 79156  1  0  0  0
 79157  1  0  0  0
 80158  1  0  0  0
 80159  1  0  0  0
 81160  1  0  0  0
 81161  1  0  0  0
 81 83  1  0  0  0
 82 83  1  0  0  0
 82 85  1  0  0  0
 82162  1  0  0  0
 82163  1  0  0  0
 83 90  1  0  0  0
 83164  1  0  0  0
 84165  1  0  0  0
 85166  1  0  0  0
 87 90  2  0  0  0
 88 90  2  0  0  0
M  ISO  4   1 100  68 101  80 101  84 100
M  END
> <chiral flag>
0

> <version>
0

> <s_m_source_file>
/data/baiqing/PycharmProjects/Reinvent-master-3.2/result/LINK_invent/BTK/process_docking_weight1_custom_product_contain_oxygen_bond_distance_aromatic_linkinvent_7_9_3/rearranged_h_0055.sdf

> <i_m_source_file_index>
61

> <r_mmod_Potential_Energy-OPLS-2005>
50.0880737304688

> <r_mmod_Stretch_Energy-OPLS-2005>
53.7648124694824

> <r_mmod_Bend_Energy-OPLS-2005>
153.883987426758

> <r_mmod_Torsional_Energy-OPLS-2005>
294.966918945312

> <r_mmod_Improper_Torsional_Energy-OPLS-2005>
19.3011035919189

> <r_mmod_Van_der_Waal_Energy-OPLS-2005>
139.085754394531

> <r_mmod_Electrostatic_Energy-OPLS-2005>
-391.123168945312

> <r_mmod_Solvation_Energy-OPLS-2005>
-246.077056884766

> <b_mmod_Minimization_Converged-OPLS-2005>
0

> <r_mmod_RMS_Derivative-OPLS-2005>
5.19115924835205

$$$$
61
                    3D
 Structure written by MMmdl.
154162  0  0  1  0            999 V2000
  -30.9364  -14.7913   19.7661 C   0  0  0  0  0  0
  -31.1837  -12.3834   19.6018 C   0  0  0  0  0  0
  -30.4990  -12.3913   18.2873 C   0  0  0  0  0  0
  -29.1191  -12.6016   18.6426 C   0  0  0  0  0  0
  -28.4203  -13.6314   19.9808 C   0  0  2  0  0  0
  -29.4735  -13.1960   21.0318 C   0  0  0  0  0  0
  -24.6435  -14.3575   20.8360 C   0  0  0  0  0  0
  -23.8149  -13.3480   21.2796 C   0  0  0  0  0  0
  -24.3081  -12.0676   20.9592 C   0  0  0  0  0  0
  -23.7913  -10.6387   21.0275 C   0  0  0  0  0  0
  -24.3065   -9.6282   21.8974 C   0  0  0  0  0  0
  -23.6555   -8.3681   22.0541 C   0  0  0  0  0  0
  -22.4635   -8.0880   21.3392 C   0  0  0  0  0  0
  -21.9987   -9.0547   20.4290 C   0  0  0  0  0  0
  -22.6543  -10.2926   20.2697 C   0  0  0  0  0  0
  -21.7282   -6.1010   22.5223 C   0  0  0  0  0  0
  -21.4301   -6.5860   23.8156 C   0  0  0  0  0  0
  -21.3715   -5.6954   24.9081 C   0  0  0  0  0  0
  -21.6028   -4.3204   24.7124 C   0  0  0  0  0  0
  -21.8802   -3.8309   23.4242 C   0  0  0  0  0  0
  -21.9349   -4.7172   22.3331 C   0  0  0  0  0  0
  -22.3977  -13.6076   21.4297 C   0  0  0  0  0  0
  -22.1754   -4.2307   21.0920 F   0  0  0  0  0  0
  -21.5528   -3.4662   25.7626 F   0  0  0  0  0  0
  -30.6727  -13.5466   20.3142 N   0  0  0  0  0  0
  -25.6334  -13.7866   20.1621 N   0  0  0  0  0  0
  -24.7247  -12.6335   19.8684 N   0  0  0  0  0  0
  -21.7394  -12.7928   22.2250 N   0  0  0  0  0  0
  -24.5665  -15.7228   20.8011 N   0  0  0  0  0  0
  -32.0647  -15.1938   19.9707 O   0  0  0  0  0  0
  -21.7351   -6.9160   21.4139 O   0  0  0  0  0  0
  -21.8892  -14.5362   20.8084 O   0  0  0  0  0  0
  -24.7015  -31.7757   23.1428 C   0  0  0  0  0  0
  -25.9559  -32.4298   23.7963 C   0  0  1  0  0  0
  -26.9321  -26.3748   20.2592 C   0  0  0  0  0  0
  -25.6090  -33.8155   24.1816 N   0  0  0  0  0  0
  -23.5161  -30.3949   21.5052 C   0  0  2  0  0  0
  -24.9173  -28.6969   20.1008 C   0  0  0  0  0  0
  -22.7761  -29.4244   22.4658 C   0  0  0  0  0  0
  -18.0326  -28.1442   22.8424 C   0  0  0  0  0  0
  -24.1514  -36.7059   23.2649 C   0  0  0  0  0  0
  -26.1017  -30.3967   21.4481 C   0  0  0  0  0  0
  -26.1075  -28.9367   20.7940 C   0  0  0  0  0  0
  -27.1123  -27.8021   20.8390 C   0  0  0  0  0  0
  -25.7756  -26.4402   19.4572 C   0  0  0  0  0  0
  -24.8140  -27.4891   19.3976 C   0  0  0  0  0  0
  -23.7617  -29.7129   20.1298 C   0  0  0  0  0  0
  -25.4187  -36.2793   24.0243 C   0  0  1  0  0  0
  -20.5960  -28.3806   23.1110 C   0  0  2  0  0  0
  -20.6808  -26.9464   22.5397 C   0  0  0  0  0  0
  -19.5802  -26.6381   21.5198 C   0  0  0  0  0  0
  -18.1972  -26.7962   22.1593 C   0  0  0  0  0  0
  -19.1596  -28.8952   23.2734 C   0  0  0  0  0  0
  -18.9522  -30.1529   23.8794 C   0  0  0  0  0  0
  -17.6522  -30.6625   24.0553 C   0  0  0  0  0  0
  -25.9197  -34.9196   23.4875 C   0  0  0  0  0  0
  -16.5400  -29.9111   23.6366 C   0  0  0  0  0  0
  -16.7306  -28.6534   23.0359 C   0  0  0  0  0  0
  -26.4665  -31.6440   25.0687 C   0  0  0  0  0  0
  -25.3685  -31.3841   26.1273 C   0  0  0  0  0  0
  -27.0616  -30.2740   24.6782 C   0  0  0  0  0  0
  -27.6073  -32.4355   25.7523 C   0  0  0  0  0  0
  -27.5572  -37.1689   24.8473 C   0  0  0  0  0  0
  -21.4410  -29.3008   22.3402 N   0  0  0  0  0  0
  -26.4280  -37.3595   23.9412 N   0  0  0  0  0  0
  -24.8026  -30.8981   22.0809 N   0  0  0  0  0  0
  -23.4157  -28.7859   23.3050 O   0  0  0  0  0  0
  -27.6344  -24.9292   20.3250 O   0  0  0  0  0  0
  -26.5844  -34.8824   22.4500 O   0  0  0  0  0  0
  -23.6030  -32.0996   23.6286 O   0  0  0  0  0  0
  -26.9729  -11.9446   19.9489 C   0  0  0  0  0  0
  -27.0552  -12.8174   21.6192 C   0  0  0  0  0  0
  -26.8243  -13.1328   18.4029 C   0  0  0  0  0  0
  -27.1576  -14.6895   21.6626 C   0  0  0  0  0  0
  -27.1178  -14.9616   18.6719 C   0  0  0  0  0  0
  -27.1336  -15.8209   20.2204 C   0  0  0  0  0  0
  -27.0112  -19.1856   20.5094 C   0  0  0  0  0  0
  -28.5999  -15.4705   18.0694 C   0  0  0  0  0  0
  -27.5748  -21.0741   20.1781 C   0  0  0  0  0  0
  -27.0955  -23.1119   20.3460 C   0  0  0  0  0  0
  -27.4016  -17.6416   20.1383 N   0  0  0  0  0  0
  -30.0641  -15.4772   18.8155 N   0  0  0  0  0  0
  -26.0473  -19.2020   21.2770 O   0  0  0  0  0  0
  -32.2626  -12.4708   19.4622 H   0  0  0  0  0  0
  -31.0345  -11.4394   20.1299 H   0  0  0  0  0  0
  -30.6557  -11.4507   17.7520 H   0  0  0  0  0  0
  -30.9050  -13.1656   17.6299 H   0  0  0  0  0  0
  -28.8225  -11.5529   18.6679 H   0  0  0  0  0  0
  -28.9026  -12.9383   17.6279 H   0  0  0  0  0  0
  -28.7951  -14.5340   20.2707 H   0  0  0  0  0  0
  -29.4340  -12.1335   21.2841 H   0  0  0  0  0  0
  -29.4836  -13.7434   21.9786 H   0  0  0  0  0  0
  -25.1807   -9.8518   22.4921 H   0  0  0  0  0  0
  -24.0681   -7.6420   22.7400 H   0  0  0  0  0  0
  -21.1088   -8.8534   19.8485 H   0  0  0  0  0  0
  -22.2336  -11.0246   19.5940 H   0  0  0  0  0  0
  -21.2405   -7.6387   23.9699 H   0  0  0  0  0  0
  -21.1477   -6.0676   25.8977 H   0  0  0  0  0  0
  -22.0462   -2.7756   23.2698 H   0  0  0  0  0  0
  -22.2166  -12.0525   22.7161 H   0  0  0  0  0  0
  -20.7445  -12.9112   22.3540 H   0  0  0  0  0  0
  -25.2736  -16.2920   20.3526 H   0  0  0  0  0  0
  -23.8115  -16.2667   21.2001 H   0  0  0  0  0  0
  -26.7608  -32.4626   23.0611 H   0  0  0  0  0  0
  -25.0129  -33.9165   24.9901 H   0  0  0  0  0  0
  -22.8523  -31.2447   21.3307 H   0  0  0  0  0  0
  -23.3821  -35.9338   23.3226 H   0  0  0  0  0  0
  -24.3564  -36.8828   22.2078 H   0  0  0  0  0  0
  -23.7232  -37.6183   23.6812 H   0  0  0  0  0  0
  -26.3561  -31.1078   20.6616 H   0  0  0  0  0  0
  -26.9393  -30.4398   22.1298 H   0  0  0  0  0  0
  -27.9964  -27.9693   21.4373 H   0  0  0  0  0  0
  -25.5289  -25.5454   18.9039 H   0  0  0  0  0  0
  -23.9240  -27.3123   18.8086 H   0  0  0  0  0  0
  -23.9775  -30.4821   19.3870 H   0  0  0  0  0  0
  -22.8441  -29.2324   19.7853 H   0  0  0  0  0  0
  -25.1406  -36.1488   25.0724 H   0  0  0  0  0  0
  -21.0004  -28.3464   24.1258 H   0  0  0  0  0  0
  -20.5691  -26.2438   23.3662 H   0  0  0  0  0  0
  -21.6679  -26.7434   22.1231 H   0  0  0  0  0  0
  -19.6988  -25.6266   21.1300 H   0  0  0  0  0  0
  -19.6773  -27.3132   20.6681 H   0  0  0  0  0  0
  -17.4248  -26.6650   21.3993 H   0  0  0  0  0  0
  -18.0401  -26.0128   22.9024 H   0  0  0  0  0  0
  -19.8011  -30.7341   24.2129 H   0  0  0  0  0  0
  -17.5097  -31.6304   24.5175 H   0  0  0  0  0  0
  -15.5409  -30.3004   23.7778 H   0  0  0  0  0  0
  -15.8683  -28.0844   22.7137 H   0  0  0  0  0  0
  -24.5928  -30.7109   25.7595 H   0  0  0  0  0  0
  -24.8823  -32.3088   26.4389 H   0  0  0  0  0  0
  -25.7829  -30.9231   27.0245 H   0  0  0  0  0  0
  -26.3344  -29.6273   24.1859 H   0  0  0  0  0  0
  -27.3998  -29.7291   25.5602 H   0  0  0  0  0  0
  -27.9362  -30.3779   24.0359 H   0  0  0  0  0  0
  -27.2585  -33.3758   26.1802 H   0  0  0  0  0  0
  -28.4050  -32.6734   25.0477 H   0  0  0  0  0  0
  -28.0554  -31.8685   26.5691 H   0  0  0  0  0  0
  -28.2532  -38.0038   24.7555 H   0  0  0  0  0  0
  -28.1129  -36.2561   24.6268 H   0  0  0  0  0  0
  -27.2287  -37.1272   25.8874 H   0  0  0  0  0  0
  -20.9736  -29.8617   21.6408 H   0  0  0  0  0  0
  -26.0065  -38.2617   24.1460 H   0  0  0  0  0  0
  -26.9177  -10.8679   19.8654 H   0  0  0  0  0  0
  -27.0862  -12.2449   22.5365 H   0  0  0  0  0  0
  -26.7892  -12.7156   17.4046 H   0  0  0  0  0  0
  -27.2434  -15.1487   22.6384 H   0  0  0  0  0  0
  -28.4374  -16.5136   17.8005 H   0  0  0  0  0  0
  -28.7366  -15.0008   17.0960 H   0  0  0  0  0  0
  -27.8856  -21.0046   19.1350 H   0  0  0  0  0  0
  -28.5228  -21.0461   20.7145 H   0  0  0  0  0  0
  -26.5923  -23.0994   21.3132 H   0  0  0  0  0  0
  -26.2686  -23.1759   19.6377 H   0  0  0  0  0  0
  -28.1261  -17.7877   19.4489 H   0  0  0  0  0  0
  -30.5697  -16.2948   18.5083 H   0  0  0  0  0  0
  1 25  1  0  0  0
  1 30  2  0  0  0
  1 82  1  0  0  0
  2  3  1  0  0  0
  2 25  1  0  0  0
  2 84  1  0  0  0
  2 85  1  0  0  0
  3  4  1  0  0  0
  3 86  1  0  0  0
  3 87  1  0  0  0
  4  5  1  0  0  0
  4 88  1  0  0  0
  4 89  1  0  0  0
  5  6  1  0  0  0
  5 26  1  0  0  0
  5 90  1  0  0  0
  6 25  1  0  0  0
  6 91  1  0  0  0
  6 92  1  0  0  0
  7  8  2  0  0  0
  7 26  1  0  0  0
  7 29  1  0  0  0
  8  9  1  0  0  0
  8 22  1  0  0  0
  9 10  1  0  0  0
  9 27  2  0  0  0
 10 11  2  0  0  0
 10 15  1  0  0  0
 11 12  1  0  0  0
 11 93  1  0  0  0
 12 13  2  0  0  0
 12 94  1  0  0  0
 13 14  1  0  0  0
 13 31  1  0  0  0
 14 15  2  0  0  0
 14 95  1  0  0  0
 15 96  1  0  0  0
 16 17  2  0  0  0
 16 21  1  0  0  0
 16 31  1  0  0  0
 17 18  1  0  0  0
 17 97  1  0  0  0
 18 19  2  0  0  0
 18 98  1  0  0  0
 19 20  1  0  0  0
 19 24  1  0  0  0
 20 21  2  0  0  0
 20 99  1  0  0  0
 21 23  1  0  0  0
 22 28  1  0  0  0
 22 32  2  0  0  0
 26 27  1  0  0  0
 28100  1  0  0  0
 28101  1  0  0  0
 29102  1  0  0  0
 29103  1  0  0  0
 33 34  1  0  0  0
 33 66  1  0  0  0
 33 70  2  0  0  0
 34 36  1  0  0  0
 34 59  1  0  0  0
 34104  1  0  0  0
 35 44  2  0  0  0
 35 45  1  0  0  0
 35 68  1  0  0  0
 36 56  1  0  0  0
 36105  1  0  0  0
 37 39  1  0  0  0
 37 47  1  0  0  0
 37 66  1  0  0  0
 37106  1  0  0  0
 38 43  2  0  0  0
 38 46  1  0  0  0
 38 47  1  0  0  0
 39 64  1  0  0  0
 39 67  2  0  0  0
 40 52  1  0  0  0
 40 53  2  0  0  0
 40 58  1  0  0  0
 41107  1  0  0  0
 41108  1  0  0  0
 41109  1  0  0  0
 41 48  1  0  0  0
 42 43  1  0  0  0
 42 66  1  0  0  0
 42110  1  0  0  0
 42111  1  0  0  0
 43 44  1  0  0  0
 44112  1  0  0  0
 45 46  2  0  0  0
 45113  1  0  0  0
 46114  1  0  0  0
 47115  1  0  0  0
 47116  1  0  0  0
 48 56  1  0  0  0
 48 65  1  0  0  0
 48117  1  0  0  0
 49 50  1  0  0  0
 49 53  1  0  0  0
 49 64  1  0  0  0
 49118  1  0  0  0
 50 51  1  0  0  0
 50119  1  0  0  0
 50120  1  0  0  0
 51 52  1  0  0  0
 51121  1  0  0  0
 51122  1  0  0  0
 52123  1  0  0  0
 52124  1  0  0  0
 53 54  1  0  0  0
 54 55  2  0  0  0
 54125  1  0  0  0
 55 57  1  0  0  0
 55126  1  0  0  0
 56 69  2  0  0  0
 57 58  2  0  0  0
 57127  1  0  0  0
 58128  1  0  0  0
 59 60  1  0  0  0
 59 61  1  0  0  0
 59 62  1  0  0  0
 60129  1  0  0  0
 60130  1  0  0  0
 60131  1  0  0  0
 61132  1  0  0  0
 61133  1  0  0  0
 61134  1  0  0  0
 62135  1  0  0  0
 62136  1  0  0  0
 62137  1  0  0  0
 63 65  1  0  0  0
 63138  1  0  0  0
 63139  1  0  0  0
 63140  1  0  0  0
 64141  1  0  0  0
 65142  1  0  0  0
 68 80  1  0  0  0
 71 72  2  0  0  0
 71 73  1  0  0  0
 71143  1  0  0  0
 72 74  1  0  0  0
 72144  1  0  0  0
 73 75  2  0  0  0
 73145  1  0  0  0
 74 76  2  0  0  0
 74146  1  0  0  0
 75 76  1  0  0  0
 75 78  1  0  0  0
 76 81  1  0  0  0
 77 79  1  0  0  0
 77 81  1  0  0  0
 77 83  2  0  0  0
 78 82  1  0  0  0
 78147  1  0  0  0
 78148  1  0  0  0
 79 80  1  0  0  0
 79149  1  0  0  0
 79150  1  0  0  0
 80151  1  0  0  0
 80152  1  0  0  0
 81153  1  0  0  0
 82154  1  0  0  0
M  ISO  4   1 100  68 101  80 101  82 100
M  END
> <chiral flag>
0

> <version>
0

> <s_m_source_file>
/data/baiqing/PycharmProjects/Reinvent-master-3.2/result/LINK_invent/BTK/process_docking_weight1_custom_product_contain_oxygen_bond_distance_aromatic_linkinvent_7_9_3/rearranged_h_0055.sdf

> <i_m_source_file_index>
62

> <r_mmod_Potential_Energy-OPLS-2005>
13339.064453125

> <r_mmod_Stretch_Energy-OPLS-2005>
7037.4716796875

> <r_mmod_Bend_Energy-OPLS-2005>
1191.48059082031

> <r_mmod_Torsional_Energy-OPLS-2005>
607.409606933594

> <r_mmod_Improper_Torsional_Energy-OPLS-2005>
50.0547142028809

> <r_mmod_Van_der_Waal_Energy-OPLS-2005>
2957.46215820312

> <r_mmod_Electrostatic_Energy-OPLS-2005>
-385.90478515625

> <r_mmod_Solvation_Energy-OPLS-2005>
-265.80322265625

> <b_mmod_Minimization_Converged-OPLS-2005>
0

> <r_mmod_RMS_Derivative-OPLS-2005>
3.37862586975098

$$$$
62
                    3D
 Structure written by MMmdl.
160168  0  0  1  0            999 V2000
  -30.6787  -14.5055   20.5394 C   0  0  0  0  0  0
  -30.4190  -12.3130   19.4432 C   0  0  0  0  0  0
  -29.4984  -12.5121   18.2195 C   0  0  0  0  0  0
  -28.0178  -12.3768   18.6248 C   0  0  0  0  0  0
  -27.6614  -13.2117   19.8848 C   0  0  2  0  0  0
  -28.7016  -13.0049   21.0106 C   0  0  0  0  0  0
  -25.2572  -13.8162   20.5700 C   0  0  0  0  0  0
  -24.1827  -13.0434   20.9168 C   0  0  0  0  0  0
  -24.6393  -11.6901   20.8743 C   0  0  0  0  0  0
  -23.9068  -10.4284   21.0410 C   0  0  0  0  0  0
  -24.3620   -9.4185   21.9182 C   0  0  0  0  0  0
  -23.6294   -8.2226   22.0746 C   0  0  0  0  0  0
  -22.4267   -8.0286   21.3554 C   0  0  0  0  0  0
  -21.9909   -9.0260   20.4641 C   0  0  0  0  0  0
  -22.7245  -10.2133   20.3059 C   0  0  0  0  0  0
  -21.6842   -6.0740   22.5274 C   0  0  0  0  0  0
  -21.4005   -6.5642   23.8211 C   0  0  0  0  0  0
  -21.3673   -5.6799   24.9175 C   0  0  0  0  0  0
  -21.6045   -4.3062   24.7217 C   0  0  0  0  0  0
  -21.8819   -3.8150   23.4336 C   0  0  0  0  0  0
  -21.9181   -4.6968   22.3394 C   0  0  0  0  0  0
  -22.7845  -13.5225   21.1862 C   0  0  0  0  0  0
  -22.1647   -4.2148   21.0973 F   0  0  0  0  0  0
  -21.5647   -3.4555   25.7733 F   0  0  0  0  0  0
  -30.0321  -13.3076   20.4603 N   0  0  0  0  0  0
  -26.3024  -12.9343   20.3422 N   0  0  0  0  0  0
  -25.9327  -11.6499   20.5796 N   0  0  0  0  0  0
  -22.0511  -12.8199   22.0427 N   0  0  0  0  0  0
  -25.4287  -15.1882   20.4120 N   0  0  0  0  0  0
  -31.8167  -14.6772   20.0932 O   0  0  0  0  0  0
  -21.6636   -6.8883   21.4237 O   0  0  0  0  0  0
  -22.3524  -14.5544   20.6740 O   0  0  0  0  0  0
  -24.6157  -31.8670   23.2085 C   0  0  0  0  0  0
  -25.9040  -32.4823   23.8394 C   0  0  1  0  0  0
  -27.2400  -27.4235   20.1026 C   0  0  0  0  0  0
  -25.5898  -33.8624   24.2327 N   0  0  0  0  0  0
  -23.4065  -30.4869   21.5506 C   0  0  2  0  0  0
  -24.8569  -28.9515   20.1162 C   0  0  0  0  0  0
  -22.7423  -29.4643   22.5004 C   0  0  0  0  0  0
  -18.0269  -28.1382   22.8481 C   0  0  0  0  0  0
  -24.1484  -36.7315   23.2638 C   0  0  0  0  0  0
  -25.9361  -30.8285   21.3643 C   0  0  0  0  0  0
  -26.0171  -29.4615   20.7124 C   0  0  0  0  0  0
  -27.2160  -28.7073   20.6975 C   0  0  0  0  0  0
  -26.0653  -26.9303   19.4976 C   0  0  0  0  0  0
  -24.8762  -27.6862   19.5037 C   0  0  0  0  0  0
  -23.6160  -29.8171   20.1659 C   0  0  0  0  0  0
  -25.4107  -36.3121   24.0334 C   0  0  1  0  0  0
  -20.5860  -28.3673   23.1318 C   0  0  2  0  0  0
  -20.6770  -26.9405   22.5430 C   0  0  0  0  0  0
  -19.5753  -26.6387   21.5222 C   0  0  0  0  0  0
  -18.1924  -26.7924   22.1623 C   0  0  0  0  0  0
  -19.1521  -28.8845   23.2888 C   0  0  0  0  0  0
  -18.9443  -30.1449   23.8900 C   0  0  0  0  0  0
  -17.6451  -30.6589   24.0558 C   0  0  0  0  0  0
  -25.9029  -34.9479   23.5130 C   0  0  0  0  0  0
  -16.5340  -29.9088   23.6329 C   0  0  0  0  0  0
  -16.7267  -28.6511   23.0341 C   0  0  0  0  0  0
  -26.4467  -31.6608   25.0727 C   0  0  0  0  0  0
  -25.3717  -31.3701   26.1461 C   0  0  0  0  0  0
  -27.0313  -30.3056   24.6113 C   0  0  0  0  0  0
  -27.6056  -32.4326   25.7473 C   0  0  0  0  0  0
  -27.5586  -37.1803   24.8455 C   0  0  0  0  0  0
  -21.4152  -29.3024   22.3722 N   0  0  0  0  0  0
  -26.4294  -37.3807   23.9405 N   0  0  0  0  0  0
  -24.6710  -31.0754   22.0998 N   0  0  0  0  0  0
  -23.4180  -28.8196   23.3064 O   0  0  0  0  0  0
  -28.3892  -26.6583   20.0889 O   0  0  0  0  0  0
  -26.5605  -34.8928   22.4694 O   0  0  0  0  0  0
  -23.5342  -32.1448   23.7453 O   0  0  0  0  0  0
  -29.5467  -16.7040   18.8464 C   0  0  0  0  0  0
  -29.6081  -18.0404   20.8765 C   0  0  0  0  0  0
  -29.1833  -17.8375   18.0949 C   0  0  0  0  0  0
  -29.0030  -19.0886   18.7381 C   0  0  0  0  0  0
  -29.7379  -16.7720   20.2425 C   0  0  0  0  0  0
  -29.2816  -19.2134   20.1318 C   0  0  0  0  0  0
  -29.6335  -21.6737   20.4741 C   0  0  0  0  0  0
  -28.4482  -20.2620   17.9312 C   0  0  0  0  0  0
  -29.0074  -22.9402   21.1042 C   0  0  0  0  0  0
  -29.0169  -24.2202   20.2049 C   0  0  0  0  0  0
  -28.3222  -25.4438   20.8639 C   0  0  0  0  0  0
  -28.9427  -17.6630   16.5986 C   0  0  0  0  0  0
  -29.1127  -20.4699   20.8134 N   0  0  0  0  0  0
  -29.9437  -15.5535   20.9809 N   0  0  0  0  0  0
  -30.5921  -21.7894   19.7061 O   0  0  0  0  0  0
  -27.6624  -17.3642   16.3787 F   0  0  0  0  0  0
  -29.7049  -16.6926   16.0922 F   0  0  0  0  0  0
  -31.4662  -12.4005   19.1477 H   0  0  0  0  0  0
  -30.3045  -11.3028   19.8417 H   0  0  0  0  0  0
  -29.7414  -11.7886   17.4395 H   0  0  0  0  0  0
  -29.6734  -13.4957   17.7815 H   0  0  0  0  0  0
  -27.8205  -11.3214   18.8156 H   0  0  0  0  0  0
  -27.3722  -12.6576   17.7920 H   0  0  0  0  0  0
  -27.6988  -14.2599   19.5907 H   0  0  0  0  0  0
  -28.6793  -11.9727   21.3636 H   0  0  0  0  0  0
  -28.4662  -13.6182   21.8820 H   0  0  0  0  0  0
  -25.2765   -9.5655   22.4759 H   0  0  0  0  0  0
  -23.9995   -7.4600   22.7458 H   0  0  0  0  0  0
  -21.0848   -8.8801   19.8931 H   0  0  0  0  0  0
  -22.3721  -10.9690   19.6182 H   0  0  0  0  0  0
  -21.2002   -7.6150   23.9720 H   0  0  0  0  0  0
  -21.1505   -6.0530   25.9085 H   0  0  0  0  0  0
  -22.0587   -2.7610   23.2841 H   0  0  0  0  0  0
  -22.4143  -11.9820   22.4730 H   0  0  0  0  0  0
  -21.1149  -13.1221   22.2727 H   0  0  0  0  0  0
  -24.6639  -15.8442   20.5206 H   0  0  0  0  0  0
  -26.2897  -15.6281   20.1133 H   0  0  0  0  0  0
  -26.7115  -32.5541   23.1160 H   0  0  0  0  0  0
  -25.0040  -33.9795   25.0468 H   0  0  0  0  0  0
  -22.6942  -31.3024   21.4103 H   0  0  0  0  0  0
  -23.3754  -35.9639   23.3300 H   0  0  0  0  0  0
  -24.3580  -36.8942   22.2053 H   0  0  0  0  0  0
  -23.7233  -37.6507   23.6664 H   0  0  0  0  0  0
  -26.0486  -31.5932   20.5946 H   0  0  0  0  0  0
  -26.8221  -30.8852   21.9848 H   0  0  0  0  0  0
  -28.1137  -29.0981   21.1548 H   0  0  0  0  0  0
  -26.0711  -25.9597   19.0211 H   0  0  0  0  0  0
  -23.9870  -27.2898   19.0332 H   0  0  0  0  0  0
  -23.7196  -30.5919   19.4062 H   0  0  0  0  0  0
  -22.7413  -29.2338   19.8731 H   0  0  0  0  0  0
  -25.1285  -36.1988   25.0828 H   0  0  0  0  0  0
  -20.9933  -28.3251   24.1448 H   0  0  0  0  0  0
  -20.5710  -26.2270   23.3617 H   0  0  0  0  0  0
  -21.6639  -26.7478   22.1202 H   0  0  0  0  0  0
  -19.6918  -25.6299   21.1253 H   0  0  0  0  0  0
  -19.6701  -27.3194   20.6742 H   0  0  0  0  0  0
  -17.4200  -26.6669   21.4011 H   0  0  0  0  0  0
  -18.0311  -26.0070   22.9023 H   0  0  0  0  0  0
  -19.7918  -30.7253   24.2284 H   0  0  0  0  0  0
  -17.5007  -31.6269   24.5153 H   0  0  0  0  0  0
  -15.5341  -30.2991   23.7657 H   0  0  0  0  0  0
  -15.8662  -28.0843   22.7044 H   0  0  0  0  0  0
  -24.5873  -30.7088   25.7760 H   0  0  0  0  0  0
  -24.8916  -32.2850   26.4942 H   0  0  0  0  0  0
  -25.8034  -30.8821   27.0207 H   0  0  0  0  0  0
  -26.2870  -29.6799   24.1174 H   0  0  0  0  0  0
  -27.4097  -29.7311   25.4578 H   0  0  0  0  0  0
  -27.8694  -30.4387   23.9266 H   0  0  0  0  0  0
  -27.2698  -33.3622   26.2074 H   0  0  0  0  0  0
  -28.3827  -32.6894   25.0264 H   0  0  0  0  0  0
  -28.0765  -31.8441   26.5356 H   0  0  0  0  0  0
  -28.2587  -38.0120   24.7549 H   0  0  0  0  0  0
  -28.1107  -36.2656   24.6235 H   0  0  0  0  0  0
  -27.2307  -37.1392   25.8858 H   0  0  0  0  0  0
  -20.9330  -29.8725   21.6914 H   0  0  0  0  0  0
  -26.0186  -38.2881   24.1433 H   0  0  0  0  0  0
  -29.6289  -15.7560   18.3346 H   0  0  0  0  0  0
  -29.7509  -18.1136   21.9459 H   0  0  0  0  0  0
  -27.7789  -19.9341   17.1378 H   0  0  0  0  0  0
  -29.2570  -20.8406   17.4837 H   0  0  0  0  0  0
  -27.8451  -20.9294   18.5460 H   0  0  0  0  0  0
  -29.5319  -23.1466   22.0373 H   0  0  0  0  0  0
  -27.9771  -22.7090   21.3780 H   0  0  0  0  0  0
  -28.5285  -24.0008   19.2541 H   0  0  0  0  0  0
  -30.0468  -24.4851   19.9601 H   0  0  0  0  0  0
  -28.8072  -25.6566   21.8169 H   0  0  0  0  0  0
  -27.2925  -25.1756   21.1099 H   0  0  0  0  0  0
  -29.1815  -18.5601   16.0250 H   0  0  0  0  0  0
  -28.4797  -20.4667   21.6013 H   0  0  0  0  0  0
  -29.1711  -15.2922   21.5750 H   0  0  0  0  0  0
  1 25  1  0  0  0
  1 30  2  0  0  0
  1 84  1  0  0  0
  2  3  1  0  0  0
  2 25  1  0  0  0
  2 88  1  0  0  0
  2 89  1  0  0  0
  3  4  1  0  0  0
  3 90  1  0  0  0
  3 91  1  0  0  0
  4  5  1  0  0  0
  4 92  1  0  0  0
  4 93  1  0  0  0
  5  6  1  0  0  0
  5 26  1  0  0  0
  5 94  1  0  0  0
  6 25  1  0  0  0
  6 95  1  0  0  0
  6 96  1  0  0  0
  7  8  2  0  0  0
  7 26  1  0  0  0
  7 29  1  0  0  0
  8  9  1  0  0  0
  8 22  1  0  0  0
  9 10  1  0  0  0
  9 27  2  0  0  0
 10 11  2  0  0  0
 10 15  1  0  0  0
 11 12  1  0  0  0
 11 97  1  0  0  0
 12 13  2  0  0  0
 12 98  1  0  0  0
 13 14  1  0  0  0
 13 31  1  0  0  0
 14 15  2  0  0  0
 14 99  1  0  0  0
 15100  1  0  0  0
 16 17  2  0  0  0
 16 21  1  0  0  0
 16 31  1  0  0  0
 17 18  1  0  0  0
 17101  1  0  0  0
 18 19  2  0  0  0
 18102  1  0  0  0
 19 20  1  0  0  0
 19 24  1  0  0  0
 20 21  2  0  0  0
 20103  1  0  0  0
 21 23  1  0  0  0
 22 28  1  0  0  0
 22 32  2  0  0  0
 26 27  1  0  0  0
 28104  1  0  0  0
 28105  1  0  0  0
 29106  1  0  0  0
 29107  1  0  0  0
 33 34  1  0  0  0
 33 66  1  0  0  0
 33 70  2  0  0  0
 34 36  1  0  0  0
 34 59  1  0  0  0
 34108  1  0  0  0
 35 44  2  0  0  0
 35 45  1  0  0  0
 35 68  1  0  0  0
 36 56  1  0  0  0
 36109  1  0  0  0
 37 39  1  0  0  0
 37 47  1  0  0  0
 37 66  1  0  0  0
 37110  1  0  0  0
 38 43  2  0  0  0
 38 46  1  0  0  0
 38 47  1  0  0  0
 39 64  1  0  0  0
 39 67  2  0  0  0
 40 52  1  0  0  0
 40 53  2  0  0  0
 40 58  1  0  0  0
 41111  1  0  0  0
 41112  1  0  0  0
 41113  1  0  0  0
 41 48  1  0  0  0
 42 43  1  0  0  0
 42 66  1  0  0  0
 42114  1  0  0  0
 42115  1  0  0  0
 43 44  1  0  0  0
 44116  1  0  0  0
 45 46  2  0  0  0
 45117  1  0  0  0
 46118  1  0  0  0
 47119  1  0  0  0
 47120  1  0  0  0
 48 56  1  0  0  0
 48 65  1  0  0  0
 48121  1  0  0  0
 49 50  1  0  0  0
 49 53  1  0  0  0
 49 64  1  0  0  0
 49122  1  0  0  0
 50 51  1  0  0  0
 50123  1  0  0  0
 50124  1  0  0  0
 51 52  1  0  0  0
 51125  1  0  0  0
 51126  1  0  0  0
 52127  1  0  0  0
 52128  1  0  0  0
 53 54  1  0  0  0
 54 55  2  0  0  0
 54129  1  0  0  0
 55 57  1  0  0  0
 55130  1  0  0  0
 56 69  2  0  0  0
 57 58  2  0  0  0
 57131  1  0  0  0
 58132  1  0  0  0
 59 60  1  0  0  0
 59 61  1  0  0  0
 59 62  1  0  0  0
 60133  1  0  0  0
 60134  1  0  0  0
 60135  1  0  0  0
 61136  1  0  0  0
 61137  1  0  0  0
 61138  1  0  0  0
 62139  1  0  0  0
 62140  1  0  0  0
 62141  1  0  0  0
 63 65  1  0  0  0
 63142  1  0  0  0
 63143  1  0  0  0
 63144  1  0  0  0
 64145  1  0  0  0
 65146  1  0  0  0
 68 81  1  0  0  0
 71 73  2  0  0  0
 71 75  1  0  0  0
 71147  1  0  0  0
 72 75  2  0  0  0
 72 76  1  0  0  0
 72148  1  0  0  0
 73 74  1  0  0  0
 73 82  1  0  0  0
 74 76  2  0  0  0
 74 78  1  0  0  0
 75 84  1  0  0  0
 76 83  1  0  0  0
 77 79  1  0  0  0
 77 83  1  0  0  0
 77 85  2  0  0  0
 78149  1  0  0  0
 78150  1  0  0  0
 78151  1  0  0  0
 79 80  1  0  0  0
 79152  1  0  0  0
 79153  1  0  0  0
 80 81  1  0  0  0
 80154  1  0  0  0
 80155  1  0  0  0
 81156  1  0  0  0
 81157  1  0  0  0
 82 86  1  0  0  0
 82 87  1  0  0  0
 82158  1  0  0  0
 83159  1  0  0  0
 84160  1  0  0  0
M  ISO  4   1 100  68 101  81 101  84 100
M  END
> <chiral flag>
0

> <version>
0

> <s_m_source_file>
/data/baiqing/PycharmProjects/Reinvent-master-3.2/result/LINK_invent/BTK/process_docking_weight1_custom_product_contain_oxygen_bond_distance_aromatic_linkinvent_7_9_3/rearranged_h_0055.sdf

> <i_m_source_file_index>
63

> <r_mmod_Potential_Energy-OPLS-2005>
-47.1979637145996

> <r_mmod_Stretch_Energy-OPLS-2005>
46.0069274902344

> <r_mmod_Bend_Energy-OPLS-2005>
96.0015563964844

> <r_mmod_Torsional_Energy-OPLS-2005>
298.432464599609

> <r_mmod_Improper_Torsional_Energy-OPLS-2005>
7.04997396469116

> <r_mmod_Van_der_Waal_Energy-OPLS-2005>
152.732406616211

> <r_mmod_Electrostatic_Energy-OPLS-2005>
-425.070770263672

> <r_mmod_Solvation_Energy-OPLS-2005>
-237.891998291016

> <b_mmod_Minimization_Converged-OPLS-2005>
0

> <r_mmod_RMS_Derivative-OPLS-2005>
1.97830617427826

$$$$
63
                    3D
 Structure written by MMmdl.
164173  0  0  1  0            999 V2000
  -30.6577  -14.4938   20.5185 C   0  0  0  0  0  0
  -30.4231  -12.2997   19.4360 C   0  0  0  0  0  0
  -29.5005  -12.5007   18.2147 C   0  0  0  0  0  0
  -28.0174  -12.3583   18.6168 C   0  0  0  0  0  0
  -27.6558  -13.2034   19.8686 C   0  0  2  0  0  0
  -28.6932  -12.9860   20.9959 C   0  0  0  0  0  0
  -25.2552  -13.8123   20.5661 C   0  0  0  0  0  0
  -24.1809  -13.0405   20.9164 C   0  0  0  0  0  0
  -24.6354  -11.6871   20.8712 C   0  0  0  0  0  0
  -23.9017  -10.4265   21.0399 C   0  0  0  0  0  0
  -24.3583   -9.4193   21.9178 C   0  0  0  0  0  0
  -23.6277   -8.2219   22.0745 C   0  0  0  0  0  0
  -22.4257   -8.0243   21.3530 C   0  0  0  0  0  0
  -21.9883   -9.0207   20.4629 C   0  0  0  0  0  0
  -22.7192  -10.2097   20.3051 C   0  0  0  0  0  0
  -21.6836   -6.0724   22.5280 C   0  0  0  0  0  0
  -21.3994   -6.5632   23.8209 C   0  0  0  0  0  0
  -21.3669   -5.6789   24.9180 C   0  0  0  0  0  0
  -21.6065   -4.3056   24.7232 C   0  0  0  0  0  0
  -21.8813   -3.8138   23.4355 C   0  0  0  0  0  0
  -21.9181   -4.6954   22.3409 C   0  0  0  0  0  0
  -22.7839  -13.5211   21.1856 C   0  0  0  0  0  0
  -22.1649   -4.2149   21.0985 F   0  0  0  0  0  0
  -21.5661   -3.4536   25.7747 F   0  0  0  0  0  0
  -30.0268  -13.2897   20.4511 N   0  0  0  0  0  0
  -26.2968  -12.9292   20.3294 N   0  0  0  0  0  0
  -25.9265  -11.6447   20.5696 N   0  0  0  0  0  0
  -22.0468  -12.8228   22.0426 N   0  0  0  0  0  0
  -25.4265  -15.1846   20.4098 N   0  0  0  0  0  0
  -31.8111  -14.6612   20.1144 O   0  0  0  0  0  0
  -21.6616   -6.8858   21.4228 O   0  0  0  0  0  0
  -22.3529  -14.5519   20.6712 O   0  0  0  0  0  0
  -24.6138  -31.8691   23.2109 C   0  0  0  0  0  0
  -25.9040  -32.4810   23.8403 C   0  0  1  0  0  0
  -27.2267  -27.4315   20.0999 C   0  0  0  0  0  0
  -25.5903  -33.8614   24.2321 N   0  0  0  0  0  0
  -23.4005  -30.4936   21.5520 C   0  0  2  0  0  0
  -24.8490  -28.9609   20.1146 C   0  0  0  0  0  0
  -22.7397  -29.4654   22.4983 C   0  0  0  0  0  0
  -18.0284  -28.1351   22.8505 C   0  0  0  0  0  0
  -24.1495  -36.7317   23.2638 C   0  0  0  0  0  0
  -25.9314  -30.8281   21.3709 C   0  0  0  0  0  0
  -26.0071  -29.4615   20.7238 C   0  0  0  0  0  0
  -27.1979  -28.6990   20.7296 C   0  0  0  0  0  0
  -26.0668  -26.9655   19.4507 C   0  0  0  0  0  0
  -24.8726  -27.7089   19.4779 C   0  0  0  0  0  0
  -23.6103  -29.8268   20.1664 C   0  0  0  0  0  0
  -25.4117  -36.3104   24.0333 C   0  0  1  0  0  0
  -20.5877  -28.3618   23.1311 C   0  0  2  0  0  0
  -20.6765  -26.9365   22.5397 C   0  0  0  0  0  0
  -19.5743  -26.6402   21.5169 C   0  0  0  0  0  0
  -18.1915  -26.7918   22.1596 C   0  0  0  0  0  0
  -19.1544  -28.8804   23.2911 C   0  0  0  0  0  0
  -18.9480  -30.1397   23.8923 C   0  0  0  0  0  0
  -17.6478  -30.6554   24.0566 C   0  0  0  0  0  0
  -25.9042  -34.9465   23.5126 C   0  0  0  0  0  0
  -16.5369  -29.9072   23.6317 C   0  0  0  0  0  0
  -16.7269  -28.6471   23.0362 C   0  0  0  0  0  0
  -26.4479  -31.6590   25.0726 C   0  0  0  0  0  0
  -25.3738  -31.3710   26.1462 C   0  0  0  0  0  0
  -27.0315  -30.3036   24.6103 C   0  0  0  0  0  0
  -27.6045  -32.4320   25.7491 C   0  0  0  0  0  0
  -27.5579  -37.1810   24.8464 C   0  0  0  0  0  0
  -21.4132  -29.2994   22.3713 N   0  0  0  0  0  0
  -26.4295  -37.3790   23.9397 N   0  0  0  0  0  0
  -24.6662  -31.0776   22.1026 N   0  0  0  0  0  0
  -23.4190  -28.8223   23.3035 O   0  0  0  0  0  0
  -28.3542  -26.6391   20.0863 O   0  0  0  0  0  0
  -26.5597  -34.8917   22.4681 O   0  0  0  0  0  0
  -23.5326  -32.1464   23.7485 O   0  0  0  0  0  0
  -30.1233  -18.3507   18.4040 C   0  0  0  0  0  0
  -30.3467  -17.1116   19.0303 C   0  0  0  0  0  0
  -29.0366  -17.8527   20.9311 C   0  0  0  0  0  0
  -29.3383  -19.3480   19.0176 C   0  0  0  0  0  0
  -28.8061  -19.1139   20.3137 C   0  0  0  0  0  0
  -29.7920  -16.8312   20.3001 C   0  0  0  0  0  0
  -29.3464  -22.0713   21.5507 C   0  0  0  0  0  0
  -29.6294  -23.5862   21.4363 C   0  0  0  0  0  0
  -27.4117  -23.9096   20.3486 C   0  0  0  0  0  0
  -27.0800  -22.4234   20.5979 C   0  0  0  0  0  0
  -28.3595  -24.4631   21.4182 C   0  0  1  0  0  0
  -29.0569  -20.6201   18.2358 C   0  0  0  0  0  0
  -27.8878  -20.1204   21.0341 C   0  0  0  0  0  0
  -28.6541  -25.9980   21.3369 C   0  0  0  0  0  0
  -28.2175  -21.5666   20.9934 N   0  0  0  0  0  0
  -29.8802  -15.5301   20.9081 N   0  0  0  0  0  0
  -30.1816  -21.3624   22.1204 O   0  0  0  0  0  0
  -31.4710  -12.3924   19.1443 H   0  0  0  0  0  0
  -30.3175  -11.2906   19.8379 H   0  0  0  0  0  0
  -29.7440  -11.7738   17.4396 H   0  0  0  0  0  0
  -29.6703  -13.4874   17.7800 H   0  0  0  0  0  0
  -27.8308  -11.3028   18.8183 H   0  0  0  0  0  0
  -27.3704  -12.6227   17.7782 H   0  0  0  0  0  0
  -27.6939  -14.2492   19.5594 H   0  0  0  0  0  0
  -28.6691  -11.9489   21.3363 H   0  0  0  0  0  0
  -28.4551  -13.5861   21.8756 H   0  0  0  0  0  0
  -25.2732   -9.5697   22.4750 H   0  0  0  0  0  0
  -24.0000   -7.4621   22.7483 H   0  0  0  0  0  0
  -21.0814   -8.8706   19.8945 H   0  0  0  0  0  0
  -22.3630  -10.9629   19.6170 H   0  0  0  0  0  0
  -21.1953   -7.6134   23.9713 H   0  0  0  0  0  0
  -21.1509   -6.0524   25.9090 H   0  0  0  0  0  0
  -22.0582   -2.7598   23.2852 H   0  0  0  0  0  0
  -22.4043  -11.9892   22.4853 H   0  0  0  0  0  0
  -21.1068  -13.1247   22.2568 H   0  0  0  0  0  0
  -24.6559  -15.8364   20.5135 H   0  0  0  0  0  0
  -26.2845  -15.6247   20.0978 H   0  0  0  0  0  0
  -26.7101  -32.5528   23.1152 H   0  0  0  0  0  0
  -25.0056  -33.9799   25.0462 H   0  0  0  0  0  0
  -22.6899  -31.3108   21.4141 H   0  0  0  0  0  0
  -23.3741  -35.9665   23.3317 H   0  0  0  0  0  0
  -24.3585  -36.8923   22.2048 H   0  0  0  0  0  0
  -23.7264  -37.6537   23.6648 H   0  0  0  0  0  0
  -26.0441  -31.5944   20.6016 H   0  0  0  0  0  0
  -26.8179  -30.8817   21.9905 H   0  0  0  0  0  0
  -28.0857  -29.0779   21.2170 H   0  0  0  0  0  0
  -26.0796  -26.0250   18.9211 H   0  0  0  0  0  0
  -23.9878  -27.3221   18.9908 H   0  0  0  0  0  0
  -23.7131  -30.6030   19.4072 H   0  0  0  0  0  0
  -22.7351  -29.2458   19.8701 H   0  0  0  0  0  0
  -25.1287  -36.1973   25.0827 H   0  0  0  0  0  0
  -20.9993  -28.3171   24.1420 H   0  0  0  0  0  0
  -20.5672  -26.2224   23.3572 H   0  0  0  0  0  0
  -21.6640  -26.7420   22.1167 H   0  0  0  0  0  0
  -19.6874  -25.6345   21.1104 H   0  0  0  0  0  0
  -19.6670  -27.3291   20.6750 H   0  0  0  0  0  0
  -17.4186  -26.6736   21.3974 H   0  0  0  0  0  0
  -18.0280  -26.0003   22.8930 H   0  0  0  0  0  0
  -19.7973  -30.7184   24.2289 H   0  0  0  0  0  0
  -17.5051  -31.6225   24.5148 H   0  0  0  0  0  0
  -15.5380  -30.2994   23.7610 H   0  0  0  0  0  0
  -15.8673  -28.0797   22.7071 H   0  0  0  0  0  0
  -24.5887  -30.7086   25.7799 H   0  0  0  0  0  0
  -24.8956  -32.2880   26.4922 H   0  0  0  0  0  0
  -25.8076  -30.8866   27.0211 H   0  0  0  0  0  0
  -26.2877  -29.6786   24.1150 H   0  0  0  0  0  0
  -27.4088  -29.7275   25.4556 H   0  0  0  0  0  0
  -27.8704  -30.4360   23.9264 H   0  0  0  0  0  0
  -27.2650  -33.3596   26.2105 H   0  0  0  0  0  0
  -28.3838  -32.6916   25.0315 H   0  0  0  0  0  0
  -28.0730  -31.8428   26.5376 H   0  0  0  0  0  0
  -28.2603  -38.0101   24.7488 H   0  0  0  0  0  0
  -28.1066  -36.2624   24.6316 H   0  0  0  0  0  0
  -27.2287  -37.1496   25.8867 H   0  0  0  0  0  0
  -20.9266  -29.8706   21.6943 H   0  0  0  0  0  0
  -26.0184  -38.2871   24.1391 H   0  0  0  0  0  0
  -30.5379  -18.5182   17.4183 H   0  0  0  0  0  0
  -30.9111  -16.3703   18.4841 H   0  0  0  0  0  0
  -28.5920  -17.6555   21.8973 H   0  0  0  0  0  0
  -30.2111  -23.7469   20.5293 H   0  0  0  0  0  0
  -30.2676  -23.8836   22.2690 H   0  0  0  0  0  0
  -26.4777  -24.4664   20.3579 H   0  0  0  0  0  0
  -27.8503  -24.0344   19.3565 H   0  0  0  0  0  0
  -26.5858  -22.0192   19.7130 H   0  0  0  0  0  0
  -26.3479  -22.3668   21.4061 H   0  0  0  0  0  0
  -27.8717  -24.3118   22.3826 H   0  0  0  0  0  0
  -29.6283  -21.4589   18.6324 H   0  0  0  0  0  0
  -27.9949  -20.8660   18.2615 H   0  0  0  0  0  0
  -29.3354  -20.5121   17.1882 H   0  0  0  0  0  0
  -27.8042  -19.8310   22.0816 H   0  0  0  0  0  0
  -26.8907  -19.9618   20.6171 H   0  0  0  0  0  0
  -29.7101  -26.1788   21.5408 H   0  0  0  0  0  0
  -28.1289  -26.4953   22.1545 H   0  0  0  0  0  0
  -29.0764  -15.2638   21.4557 H   0  0  0  0  0  0
  1 25  1  0  0  0
  1 30  2  0  0  0
  1 86  1  0  0  0
  2  3  1  0  0  0
  2 25  1  0  0  0
  2 88  1  0  0  0
  2 89  1  0  0  0
  3  4  1  0  0  0
  3 90  1  0  0  0
  3 91  1  0  0  0
  4  5  1  0  0  0
  4 92  1  0  0  0
  4 93  1  0  0  0
  5  6  1  0  0  0
  5 26  1  0  0  0
  5 94  1  0  0  0
  6 25  1  0  0  0
  6 95  1  0  0  0
  6 96  1  0  0  0
  7  8  2  0  0  0
  7 26  1  0  0  0
  7 29  1  0  0  0
  8  9  1  0  0  0
  8 22  1  0  0  0
  9 10  1  0  0  0
  9 27  2  0  0  0
 10 11  2  0  0  0
 10 15  1  0  0  0
 11 12  1  0  0  0
 11 97  1  0  0  0
 12 13  2  0  0  0
 12 98  1  0  0  0
 13 14  1  0  0  0
 13 31  1  0  0  0
 14 15  2  0  0  0
 14 99  1  0  0  0
 15100  1  0  0  0
 16 17  2  0  0  0
 16 21  1  0  0  0
 16 31  1  0  0  0
 17 18  1  0  0  0
 17101  1  0  0  0
 18 19  2  0  0  0
 18102  1  0  0  0
 19 20  1  0  0  0
 19 24  1  0  0  0
 20 21  2  0  0  0
 20103  1  0  0  0
 21 23  1  0  0  0
 22 28  1  0  0  0
 22 32  2  0  0  0
 26 27  1  0  0  0
 28104  1  0  0  0
 28105  1  0  0  0
 29106  1  0  0  0
 29107  1  0  0  0
 33 34  1  0  0  0
 33 66  1  0  0  0
 33 70  2  0  0  0
 34 36  1  0  0  0
 34 59  1  0  0  0
 34108  1  0  0  0
 35 44  2  0  0  0
 35 45  1  0  0  0
 35 68  1  0  0  0
 36 56  1  0  0  0
 36109  1  0  0  0
 37 39  1  0  0  0
 37 47  1  0  0  0
 37 66  1  0  0  0
 37110  1  0  0  0
 38 43  2  0  0  0
 38 46  1  0  0  0
 38 47  1  0  0  0
 39 64  1  0  0  0
 39 67  2  0  0  0
 40 52  1  0  0  0
 40 53  2  0  0  0
 40 58  1  0  0  0
 41111  1  0  0  0
 41112  1  0  0  0
 41113  1  0  0  0
 41 48  1  0  0  0
 42 43  1  0  0  0
 42 66  1  0  0  0
 42114  1  0  0  0
 42115  1  0  0  0
 43 44  1  0  0  0
 44116  1  0  0  0
 45 46  2  0  0  0
 45117  1  0  0  0
 46118  1  0  0  0
 47119  1  0  0  0
 47120  1  0  0  0
 48 56  1  0  0  0
 48 65  1  0  0  0
 48121  1  0  0  0
 49 50  1  0  0  0
 49 53  1  0  0  0
 49 64  1  0  0  0
 49122  1  0  0  0
 50 51  1  0  0  0
 50123  1  0  0  0
 50124  1  0  0  0
 51 52  1  0  0  0
 51125  1  0  0  0
 51126  1  0  0  0
 52127  1  0  0  0
 52128  1  0  0  0
 53 54  1  0  0  0
 54 55  2  0  0  0
 54129  1  0  0  0
 55 57  1  0  0  0
 55130  1  0  0  0
 56 69  2  0  0  0
 57 58  2  0  0  0
 57131  1  0  0  0
 58132  1  0  0  0
 59 60  1  0  0  0
 59 61  1  0  0  0
 59 62  1  0  0  0
 60133  1  0  0  0
 60134  1  0  0  0
 60135  1  0  0  0
 61136  1  0  0  0
 61137  1  0  0  0
 61138  1  0  0  0
 62139  1  0  0  0
 62140  1  0  0  0
 62141  1  0  0  0
 63 65  1  0  0  0
 63142  1  0  0  0
 63143  1  0  0  0
 63144  1  0  0  0
 64145  1  0  0  0
 65146  1  0  0  0
 68 84  1  0  0  0
 71 72  2  0  0  0
 71 74  1  0  0  0
 71147  1  0  0  0
 72 76  1  0  0  0
 72148  1  0  0  0
 73 75  1  0  0  0
 73 76  2  0  0  0
 73149  1  0  0  0
 74 75  2  0  0  0
 74 82  1  0  0  0
 75 83  1  0  0  0
 76 86  1  0  0  0
 77 78  1  0  0  0
 77 85  1  0  0  0
 77 87  2  0  0  0
 78 81  1  0  0  0
 78150  1  0  0  0
 78151  1  0  0  0
 79 80  1  0  0  0
 79 81  1  0  0  0
 79152  1  0  0  0
 79153  1  0  0  0
 80 85  1  0  0  0
 80154  1  0  0  0
 80155  1  0  0  0
 81 84  1  0  0  0
 81156  1  0  0  0
 82157  1  0  0  0
 82158  1  0  0  0
 82159  1  0  0  0
 83 85  1  0  0  0
 83160  1  0  0  0
 83161  1  0  0  0
 84162  1  0  0  0
 84163  1  0  0  0
 86164  1  0  0  0
M  ISO  4   1 100  68 101  84 101  86 100
M  END
> <chiral flag>
0

> <version>
0

> <s_m_source_file>
/data/baiqing/PycharmProjects/Reinvent-master-3.2/result/LINK_invent/BTK/process_docking_weight1_custom_product_contain_oxygen_bond_distance_aromatic_linkinvent_7_9_3/rearranged_h_0055.sdf

> <i_m_source_file_index>
64

> <r_mmod_Potential_Energy-OPLS-2005>
4.01880741119385

> <r_mmod_Stretch_Energy-OPLS-2005>
44.0081520080566

> <r_mmod_Bend_Energy-OPLS-2005>
110.070503234863

> <r_mmod_Torsional_Energy-OPLS-2005>
287.900970458984

> <r_mmod_Improper_Torsional_Energy-OPLS-2005>
6.34795951843262

> <r_mmod_Van_der_Waal_Energy-OPLS-2005>
160.289291381836

> <r_mmod_Electrostatic_Energy-OPLS-2005>
-391.033538818359

> <r_mmod_Solvation_Energy-OPLS-2005>
-230.109939575195

> <b_mmod_Minimization_Converged-OPLS-2005>
0

> <r_mmod_RMS_Derivative-OPLS-2005>
3.20136952400208

$$$$
64
                    3D
 Structure written by MMmdl.
180190  0  0  1  0            999 V2000
  -30.6505  -14.5346   20.4908 C   0  0  0  0  0  0
  -30.4264  -12.3022   19.4911 C   0  0  0  0  0  0
  -29.5268  -12.4663   18.2478 C   0  0  0  0  0  0
  -28.0366  -12.3420   18.6295 C   0  0  0  0  0  0
  -27.6482  -13.2074   19.8539 C   0  0  2  0  0  0
  -28.6793  -13.0670   20.9983 C   0  0  0  0  0  0
  -25.2547  -13.8107   20.5722 C   0  0  0  0  0  0
  -24.1794  -13.0440   20.9173 C   0  0  0  0  0  0
  -24.6312  -11.6887   20.8630 C   0  0  0  0  0  0
  -23.8954  -10.4310   21.0292 C   0  0  0  0  0  0
  -24.3515   -9.4239   21.9070 C   0  0  0  0  0  0
  -23.6241   -8.2265   22.0675 C   0  0  0  0  0  0
  -22.4248   -8.0230   21.3472 C   0  0  0  0  0  0
  -21.9857   -9.0187   20.4558 C   0  0  0  0  0  0
  -22.7121  -10.2099   20.2941 C   0  0  0  0  0  0
  -21.6879   -6.0628   22.5230 C   0  0  0  0  0  0
  -21.4012   -6.5540   23.8158 C   0  0  0  0  0  0
  -21.3715   -5.6720   24.9159 C   0  0  0  0  0  0
  -21.6074   -4.2973   24.7202 C   0  0  0  0  0  0
  -21.8786   -3.8047   23.4300 C   0  0  0  0  0  0
  -21.9190   -4.6861   22.3352 C   0  0  0  0  0  0
  -22.7813  -13.5265   21.1828 C   0  0  0  0  0  0
  -22.1657   -4.2032   21.0936 F   0  0  0  0  0  0
  -21.5724   -3.4413   25.7697 F   0  0  0  0  0  0
  -30.0269  -13.3246   20.4699 N   0  0  0  0  0  0
  -26.2921  -12.9277   20.3163 N   0  0  0  0  0  0
  -25.9219  -11.6463   20.5581 N   0  0  0  0  0  0
  -22.0457  -12.8296   22.0353 N   0  0  0  0  0  0
  -25.4325  -15.1881   20.4450 N   0  0  0  0  0  0
  -31.8438  -14.6592   20.2249 O   0  0  0  0  0  0
  -21.6672   -6.8782   21.4186 O   0  0  0  0  0  0
  -22.3543  -14.5596   20.6656 O   0  0  0  0  0  0
  -24.6066  -31.8727   23.2152 C   0  0  0  0  0  0
  -25.8985  -32.4824   23.8450 C   0  0  1  0  0  0
  -27.2680  -27.5137   20.0723 C   0  0  0  0  0  0
  -25.5901  -33.8625   24.2360 N   0  0  0  0  0  0
  -23.3931  -30.4924   21.5534 C   0  0  2  0  0  0
  -24.8413  -28.9511   20.1270 C   0  0  0  0  0  0
  -22.7370  -29.4658   22.5043 C   0  0  0  0  0  0
  -18.0248  -28.1413   22.8488 C   0  0  0  0  0  0
  -24.1497  -36.7346   23.2641 C   0  0  0  0  0  0
  -25.9135  -30.8538   21.3604 C   0  0  0  0  0  0
  -25.9927  -29.4933   20.7121 C   0  0  0  0  0  0
  -27.2005  -28.7802   20.6880 C   0  0  0  0  0  0
  -26.0926  -26.9501   19.5296 C   0  0  0  0  0  0
  -24.8789  -27.6690   19.5463 C   0  0  0  0  0  0
  -23.5969  -29.8111   20.1708 C   0  0  0  0  0  0
  -25.4104  -36.3126   24.0338 C   0  0  1  0  0  0
  -20.5823  -28.3649   23.1353 C   0  0  2  0  0  0
  -20.6732  -26.9386   22.5443 C   0  0  0  0  0  0
  -19.5729  -26.6372   21.5229 C   0  0  0  0  0  0
  -18.1874  -26.7969   22.1581 C   0  0  0  0  0  0
  -19.1495  -28.8853   23.2922 C   0  0  0  0  0  0
  -18.9447  -30.1475   23.8883 C   0  0  0  0  0  0
  -17.6447  -30.6605   24.0551 C   0  0  0  0  0  0
  -25.9050  -34.9480   23.5147 C   0  0  0  0  0  0
  -16.5341  -29.9091   23.6343 C   0  0  0  0  0  0
  -16.7230  -28.6532   23.0336 C   0  0  0  0  0  0
  -26.4443  -31.6607   25.0767 C   0  0  0  0  0  0
  -25.3742  -31.3680   26.1544 C   0  0  0  0  0  0
  -27.0283  -30.3061   24.6100 C   0  0  0  0  0  0
  -27.6023  -32.4314   25.7525 C   0  0  0  0  0  0
  -27.5620  -37.1784   24.8405 C   0  0  0  0  0  0
  -21.4103  -29.3000   22.3745 N   0  0  0  0  0  0
  -26.4281  -37.3825   23.9440 N   0  0  0  0  0  0
  -24.6552  -31.0884   22.1000 N   0  0  0  0  0  0
  -23.4191  -28.8212   23.3078 O   0  0  0  0  0  0
  -28.4600  -26.8367   19.9605 O   0  0  0  0  0  0
  -26.5596  -34.8934   22.4687 O   0  0  0  0  0  0
  -23.5284  -32.1458   23.7587 O   0  0  0  0  0  0
  -32.7279  -24.7627   23.1166 C   0  0  0  0  0  0
  -31.9733  -22.6895   24.1316 C   0  0  0  0  0  0
  -31.8200  -24.5764   22.0556 C   0  0  0  0  0  0
  -31.0463  -22.4883   23.0837 C   0  0  0  0  0  0
  -30.9774  -23.4278   22.0118 C   0  0  0  0  0  0
  -32.8066  -23.8197   24.1510 C   0  0  0  0  0  0
  -29.1006  -17.8114   20.9082 C   0  0  0  0  0  0
  -29.5841  -19.0246   20.5738 C   0  0  0  0  0  0
  -32.5522  -18.4492   22.2997 C   0  0  0  0  0  0
  -32.1757  -17.1702   22.4532 C   0  0  0  0  0  0
  -29.9358  -18.9329   23.8235 C   0  0  0  0  0  0
  -30.5536  -19.8880   23.0898 C   0  0  0  0  0  0
  -29.9197  -16.6343   21.2817 C   0  0  0  0  0  0
  -31.7103  -25.6735   21.1017 C   0  0  0  0  0  0
  -31.0451  -19.4376   20.5830 C   0  0  0  0  0  0
  -30.0475  -17.4076   23.7931 C   0  0  0  0  0  0
  -31.6197  -19.6161   22.0098 C   0  0  2  0  0  0
  -30.7425  -16.6992   22.6005 C   0  0  2  0  0  0
  -29.9675  -23.2525   20.8777 C   0  0  0  0  0  0
  -30.0563  -21.3329   23.2478 C   0  0  0  0  0  0
  -30.6046  -27.9056   20.6336 C   0  0  0  0  0  0
  -29.5791  -27.6325   19.5165 C   0  0  0  0  0  0
  -29.7830  -15.6230   20.5006 N   0  0  0  0  0  0
  -32.3918  -25.6682   19.9598 N   0  0  0  0  0  0
  -30.9071  -26.6939   21.4150 N   0  3  0  0  0  0
  -33.6562  -24.0207   25.1849 F   0  0  0  0  0  0
  -31.4728  -12.3882   19.2085 H   0  0  0  0  0  0
  -30.3152  -11.3077   19.9289 H   0  0  0  0  0  0
  -29.8041  -11.7244   17.4939 H   0  0  0  0  0  0
  -29.6947  -13.4449   17.7904 H   0  0  0  0  0  0
  -27.8369  -11.2942   18.8476 H   0  0  0  0  0  0
  -27.4060  -12.5978   17.7738 H   0  0  0  0  0  0
  -27.6703  -14.2413   19.5098 H   0  0  0  0  0  0
  -28.6470  -12.0744   21.4520 H   0  0  0  0  0  0
  -28.4408  -13.7715   21.8014 H   0  0  0  0  0  0
  -25.2625   -9.5798   22.4636 H   0  0  0  0  0  0
  -23.9928   -7.4717   22.7465 H   0  0  0  0  0  0
  -21.0762   -8.8589   19.8918 H   0  0  0  0  0  0
  -22.3437  -10.9579   19.6041 H   0  0  0  0  0  0
  -21.1982   -7.6070   23.9630 H   0  0  0  0  0  0
  -21.1623   -6.0455   25.9065 H   0  0  0  0  0  0
  -22.0559   -2.7487   23.2827 H   0  0  0  0  0  0
  -22.4171  -11.9979   22.4720 H   0  0  0  0  0  0
  -21.1027  -13.1203   22.2480 H   0  0  0  0  0  0
  -24.6785  -15.8312   20.6587 H   0  0  0  0  0  0
  -26.3021  -15.6482   20.2020 H   0  0  0  0  0  0
  -26.7057  -32.5578   23.1254 H   0  0  0  0  0  0
  -25.0039  -33.9775   25.0494 H   0  0  0  0  0  0
  -22.6785  -31.3081   21.4094 H   0  0  0  0  0  0
  -23.3837  -35.9595   23.3063 H   0  0  0  0  0  0
  -24.3686  -36.9205   22.2128 H   0  0  0  0  0  0
  -23.7128  -37.6392   23.6853 H   0  0  0  0  0  0
  -26.0240  -31.6210   20.5934 H   0  0  0  0  0  0
  -26.8051  -30.9042   21.9745 H   0  0  0  0  0  0
  -28.0818  -29.2179   21.1276 H   0  0  0  0  0  0
  -26.1190  -25.9727   19.0726 H   0  0  0  0  0  0
  -23.9850  -27.2358   19.1180 H   0  0  0  0  0  0
  -23.7045  -30.5819   19.4038 H   0  0  0  0  0  0
  -22.7259  -29.2208   19.8800 H   0  0  0  0  0  0
  -25.1252  -36.1972   25.0820 H   0  0  0  0  0  0
  -20.9926  -28.3226   24.1487 H   0  0  0  0  0  0
  -20.5618  -26.2259   23.3633 H   0  0  0  0  0  0
  -21.6609  -26.7404   22.1281 H   0  0  0  0  0  0
  -19.6891  -25.6285   21.1265 H   0  0  0  0  0  0
  -19.6710  -27.3154   20.6756 H   0  0  0  0  0  0
  -17.4197  -26.6814   21.3917 H   0  0  0  0  0  0
  -18.0166  -26.0062   22.8907 H   0  0  0  0  0  0
  -19.7920  -30.7297   24.2242 H   0  0  0  0  0  0
  -17.5009  -31.6263   24.5186 H   0  0  0  0  0  0
  -15.5350  -30.3020   23.7651 H   0  0  0  0  0  0
  -15.8633  -28.0865   22.7040 H   0  0  0  0  0  0
  -24.5788  -30.7181   25.7866 H   0  0  0  0  0  0
  -24.9095  -32.2848   26.5178 H   0  0  0  0  0  0
  -25.8163  -30.8681   27.0178 H   0  0  0  0  0  0
  -26.2815  -29.6833   24.1147 H   0  0  0  0  0  0
  -27.4030  -29.7282   25.4562 H   0  0  0  0  0  0
  -27.8669  -30.4385   23.9243 H   0  0  0  0  0  0
  -27.2607  -33.3574   26.2148 H   0  0  0  0  0  0
  -28.3800  -32.6910   25.0339 H   0  0  0  0  0  0
  -28.0700  -31.8380   26.5390 H   0  0  0  0  0  0
  -28.2437  -38.0269   24.7696 H   0  0  0  0  0  0
  -28.1300  -36.2807   24.5907 H   0  0  0  0  0  0
  -27.2397  -37.1010   25.8800 H   0  0  0  0  0  0
  -20.9302  -29.8810   21.6995 H   0  0  0  0  0  0
  -26.0151  -38.2858   24.1570 H   0  0  0  0  0  0
  -33.3305  -25.6603   23.1635 H   0  0  0  0  0  0
  -32.0019  -22.0086   24.9697 H   0  0  0  0  0  0
  -28.0344  -17.6471   20.8682 H   0  0  0  0  0  0
  -28.8905  -19.8106   20.3109 H   0  0  0  0  0  0
  -33.6085  -18.6742   22.2569 H   0  0  0  0  0  0
  -32.9414  -16.4152   22.5582 H   0  0  0  0  0  0
  -29.1996  -19.2637   24.5436 H   0  0  0  0  0  0
  -31.1557  -20.3593   20.0167 H   0  0  0  0  0  0
  -31.6179  -18.6884   20.0274 H   0  0  0  0  0  0
  -29.0359  -17.0088   23.9033 H   0  0  0  0  0  0
  -30.5725  -17.1144   24.7059 H   0  0  0  0  0  0
  -32.3070  -20.4655   22.0015 H   0  0  0  0  0  0
  -30.8255  -15.6713   22.9573 H   0  0  0  0  0  0
  -30.3231  -23.6616   19.9335 H   0  0  0  0  0  0
  -29.0318  -23.7497   21.1403 H   0  0  0  0  0  0
  -29.7525  -22.2063   20.6716 H   0  0  0  0  0  0
  -29.1969  -21.4600   22.5920 H   0  0  0  0  0  0
  -29.6186  -21.4471   24.2419 H   0  0  0  0  0  0
  -30.2085  -28.6571   21.3165 H   0  0  0  0  0  0
  -31.5149  -28.3403   20.2160 H   0  0  0  0  0  0
  -30.0717  -27.1265   18.6861 H   0  0  0  0  0  0
  -29.2587  -28.5877   19.1001 H   0  0  0  0  0  0
  -32.9432  -24.8596   19.7172 H   0  0  0  0  0  0
  -32.4187  -26.4550   19.3346 H   0  0  0  0  0  0
  -30.3391  -26.5516   22.2451 H   0  0  0  0  0  0
  1 25  1  0  0  0
  1 30  2  0  0  0
  1 93  1  0  0  0
  2  3  1  0  0  0
  2 25  1  0  0  0
  2 97  1  0  0  0
  2 98  1  0  0  0
  3  4  1  0  0  0
  3 99  1  0  0  0
  3100  1  0  0  0
  4  5  1  0  0  0
  4101  1  0  0  0
  4102  1  0  0  0
  5  6  1  0  0  0
  5 26  1  0  0  0
  5103  1  0  0  0
  6 25  1  0  0  0
  6104  1  0  0  0
  6105  1  0  0  0
  7  8  2  0  0  0
  7 26  1  0  0  0
  7 29  1  0  0  0
  8  9  1  0  0  0
  8 22  1  0  0  0
  9 10  1  0  0  0
  9 27  2  0  0  0
 10 11  2  0  0  0
 10 15  1  0  0  0
 11 12  1  0  0  0
 11106  1  0  0  0
 12 13  2  0  0  0
 12107  1  0  0  0
 13 14  1  0  0  0
 13 31  1  0  0  0
 14 15  2  0  0  0
 14108  1  0  0  0
 15109  1  0  0  0
 16 17  2  0  0  0
 16 21  1  0  0  0
 16 31  1  0  0  0
 17 18  1  0  0  0
 17110  1  0  0  0
 18 19  2  0  0  0
 18111  1  0  0  0
 19 20  1  0  0  0
 19 24  1  0  0  0
 20 21  2  0  0  0
 20112  1  0  0  0
 21 23  1  0  0  0
 22 28  1  0  0  0
 22 32  2  0  0  0
 26 27  1  0  0  0
 28113  1  0  0  0
 28114  1  0  0  0
 29115  1  0  0  0
 29116  1  0  0  0
 33 34  1  0  0  0
 33 66  1  0  0  0
 33 70  2  0  0  0
 34 36  1  0  0  0
 34 59  1  0  0  0
 34117  1  0  0  0
 35 44  2  0  0  0
 35 45  1  0  0  0
 35 68  1  0  0  0
 36 56  1  0  0  0
 36118  1  0  0  0
 37 39  1  0  0  0
 37 47  1  0  0  0
 37 66  1  0  0  0
 37119  1  0  0  0
 38 43  2  0  0  0
 38 46  1  0  0  0
 38 47  1  0  0  0
 39 64  1  0  0  0
 39 67  2  0  0  0
 40 52  1  0  0  0
 40 53  2  0  0  0
 40 58  1  0  0  0
 41120  1  0  0  0
 41121  1  0  0  0
 41122  1  0  0  0
 41 48  1  0  0  0
 42 43  1  0  0  0
 42 66  1  0  0  0
 42123  1  0  0  0
 42124  1  0  0  0
 43 44  1  0  0  0
 44125  1  0  0  0
 45 46  2  0  0  0
 45126  1  0  0  0
 46127  1  0  0  0
 47128  1  0  0  0
 47129  1  0  0  0
 48 56  1  0  0  0
 48 65  1  0  0  0
 48130  1  0  0  0
 49 50  1  0  0  0
 49 53  1  0  0  0
 49 64  1  0  0  0
 49131  1  0  0  0
 50 51  1  0  0  0
 50132  1  0  0  0
 50133  1  0  0  0
 51 52  1  0  0  0
 51134  1  0  0  0
 51135  1  0  0  0
 52136  1  0  0  0
 52137  1  0  0  0
 53 54  1  0  0  0
 54 55  2  0  0  0
 54138  1  0  0  0
 55 57  1  0  0  0
 55139  1  0  0  0
 56 69  2  0  0  0
 57 58  2  0  0  0
 57140  1  0  0  0
 58141  1  0  0  0
 59 60  1  0  0  0
 59 61  1  0  0  0
 59 62  1  0  0  0
 60142  1  0  0  0
 60143  1  0  0  0
 60144  1  0  0  0
 61145  1  0  0  0
 61146  1  0  0  0
 61147  1  0  0  0
 62148  1  0  0  0
 62149  1  0  0  0
 62150  1  0  0  0
 63 65  1  0  0  0
 63151  1  0  0  0
 63152  1  0  0  0
 63153  1  0  0  0
 64154  1  0  0  0
 65155  1  0  0  0
 68 92  1  0  0  0
 71 73  2  0  0  0
 71 76  1  0  0  0
 71156  1  0  0  0
 72 74  1  0  0  0
 72 76  2  0  0  0
 72157  1  0  0  0
 73 75  1  0  0  0
 73 84  1  0  0  0
 74 75  2  0  0  0
 74 90  1  0  0  0
 75 89  1  0  0  0
 76 96  1  0  0  0
 77 78  2  0  0  0
 77 83  1  0  0  0
 77158  1  0  0  0
 78 85  1  0  0  0
 78159  1  0  0  0
 79 80  2  0  0  0
 79 87  1  0  0  0
 79160  1  0  0  0
 80 88  1  0  0  0
 80161  1  0  0  0
 81 82  2  0  0  0
 81 86  1  0  0  0
 81162  1  0  0  0
 82 87  1  0  0  0
 82 90  1  0  0  0
 83 88  1  0  0  0
 83 93  2  0  0  0
 84 94  1  0  0  0
 84 95  2  0  0  0
 85163  1  0  0  0
 85164  1  0  0  0
 85 87  1  0  0  0
 86165  1  0  0  0
 86166  1  0  0  0
 86 88  1  0  0  0
 87167  1  0  0  0
 88168  1  0  0  0
 89169  1  0  0  0
 89170  1  0  0  0
 89171  1  0  0  0
 90172  1  0  0  0
 90173  1  0  0  0
 91 92  1  0  0  0
 91 95  1  0  0  0
 91174  1  0  0  0
 91175  1  0  0  0
 92176  1  0  0  0
 92177  1  0  0  0
 94178  1  0  0  0
 94179  1  0  0  0
 95180  1  0  0  0
M  CHG  1  95   1
M  ISO  4   1 100  68 101  92 101  93 100
M  END
> <chiral flag>
0

> <version>
0

> <s_m_source_file>
/data/baiqing/PycharmProjects/Reinvent-master-3.2/result/LINK_invent/BTK/process_docking_weight1_custom_product_contain_oxygen_bond_distance_aromatic_linkinvent_7_9_3/rearranged_h_0055.sdf

> <i_m_source_file_index>
65

> <r_mmod_Potential_Energy-OPLS-2005>
-67.2238693237305

> <r_mmod_Stretch_Energy-OPLS-2005>
45.1724319458008

> <r_mmod_Bend_Energy-OPLS-2005>
158.519866943359

> <r_mmod_Torsional_Energy-OPLS-2005>
306.696960449219

> <r_mmod_Improper_Torsional_Energy-OPLS-2005>
10.9856224060059

> <r_mmod_Van_der_Waal_Energy-OPLS-2005>
169.286636352539

> <r_mmod_Electrostatic_Energy-OPLS-2005>
-402.394714355469

> <r_mmod_Solvation_Energy-OPLS-2005>
-379.835418701172

> <b_mmod_Minimization_Converged-OPLS-2005>
0

> <r_mmod_RMS_Derivative-OPLS-2005>
8.72329521179199

$$$$
65
                    3D
 Structure written by MMmdl.
158166  0  0  1  0            999 V2000
  -30.7701  -14.3642   20.6317 C   0  0  0  0  0  0
  -30.4102  -12.2659   19.4002 C   0  0  0  0  0  0
  -29.4847  -12.5176   18.1947 C   0  0  0  0  0  0
  -28.0059  -12.3855   18.6064 C   0  0  0  0  0  0
  -27.6673  -13.2044   19.8796 C   0  0  2  0  0  0
  -28.7071  -12.9493   20.9950 C   0  0  0  0  0  0
  -25.2610  -13.8170   20.5665 C   0  0  0  0  0  0
  -24.1856  -13.0454   20.9148 C   0  0  0  0  0  0
  -24.6399  -11.6915   20.8714 C   0  0  0  0  0  0
  -23.9065  -10.4301   21.0399 C   0  0  0  0  0  0
  -24.3603   -9.4212   21.9187 C   0  0  0  0  0  0
  -23.6267   -8.2253   22.0764 C   0  0  0  0  0  0
  -22.4254   -8.0286   21.3551 C   0  0  0  0  0  0
  -21.9900   -9.0267   20.4654 C   0  0  0  0  0  0
  -22.7236  -10.2142   20.3056 C   0  0  0  0  0  0
  -21.6856   -6.0725   22.5262 C   0  0  0  0  0  0
  -21.4012   -6.5629   23.8199 C   0  0  0  0  0  0
  -21.3654   -5.6785   24.9162 C   0  0  0  0  0  0
  -21.6041   -4.3049   24.7218 C   0  0  0  0  0  0
  -21.8823   -3.8141   23.4334 C   0  0  0  0  0  0
  -21.9192   -4.6954   22.3387 C   0  0  0  0  0  0
  -22.7874  -13.5252   21.1829 C   0  0  0  0  0  0
  -22.1674   -4.2138   21.0967 F   0  0  0  0  0  0
  -21.5628   -3.4530   25.7732 F   0  0  0  0  0  0
  -30.0503  -13.2280   20.4504 N   0  0  0  0  0  0
  -26.3059  -12.9349   20.3374 N   0  0  0  0  0  0
  -25.9326  -11.6499   20.5727 N   0  0  0  0  0  0
  -22.0518  -12.8234   22.0384 N   0  0  0  0  0  0
  -25.4346  -15.1883   20.4081 N   0  0  0  0  0  0
  -31.8351  -14.5943   20.0525 O   0  0  0  0  0  0
  -21.6634   -6.8869   21.4229 O   0  0  0  0  0  0
  -22.3568  -14.5574   20.6697 O   0  0  0  0  0  0
  -24.6101  -31.8684   23.2131 C   0  0  0  0  0  0
  -25.9004  -32.4830   23.8430 C   0  0  1  0  0  0
  -27.2496  -27.4769   20.0995 C   0  0  0  0  0  0
  -25.5892  -33.8635   24.2360 N   0  0  0  0  0  0
  -23.3992  -30.4892   21.5526 C   0  0  2  0  0  0
  -24.8523  -28.9539   20.1232 C   0  0  0  0  0  0
  -22.7387  -29.4646   22.5012 C   0  0  0  0  0  0
  -18.0253  -28.1383   22.8487 C   0  0  0  0  0  0
  -24.1476  -36.7299   23.2650 C   0  0  0  0  0  0
  -25.9223  -30.8475   21.3630 C   0  0  0  0  0  0
  -26.0054  -29.4816   20.7179 C   0  0  0  0  0  0
  -27.2079  -28.7464   20.7098 C   0  0  0  0  0  0
  -26.0860  -26.9476   19.5068 C   0  0  0  0  0  0
  -24.8829  -27.6809   19.5218 C   0  0  0  0  0  0
  -23.6103  -29.8150   20.1705 C   0  0  0  0  0  0
  -25.4104  -36.3112   24.0344 C   0  0  1  0  0  0
  -20.5833  -28.3664   23.1338 C   0  0  2  0  0  0
  -20.6730  -26.9395   22.5446 C   0  0  0  0  0  0
  -19.5729  -26.6378   21.5216 C   0  0  0  0  0  0
  -18.1894  -26.7942   22.1589 C   0  0  0  0  0  0
  -19.1499  -28.8841   23.2907 C   0  0  0  0  0  0
  -18.9435  -30.1448   23.8910 C   0  0  0  0  0  0
  -17.6445  -30.6590   24.0571 C   0  0  0  0  0  0
  -25.9034  -34.9483   23.5145 C   0  0  0  0  0  0
  -16.5333  -29.9089   23.6351 C   0  0  0  0  0  0
  -16.7247  -28.6506   23.0371 C   0  0  0  0  0  0
  -26.4463  -31.6612   25.0747 C   0  0  0  0  0  0
  -25.3738  -31.3687   26.1498 C   0  0  0  0  0  0
  -27.0318  -30.3067   24.6118 C   0  0  0  0  0  0
  -27.6057  -32.4331   25.7492 C   0  0  0  0  0  0
  -27.5581  -37.1794   24.8463 C   0  0  0  0  0  0
  -21.4118  -29.3015   22.3748 N   0  0  0  0  0  0
  -26.4286  -37.3802   23.9424 N   0  0  0  0  0  0
  -24.6610  -31.0816   22.1021 N   0  0  0  0  0  0
  -23.4162  -28.8185   23.3047 O   0  0  0  0  0  0
  -28.4227  -26.7716   20.0405 O   0  0  0  0  0  0
  -26.5580  -34.8918   22.4697 O   0  0  0  0  0  0
  -23.5301  -32.1420   23.7539 O   0  0  0  0  0  0
  -29.1975  -18.3643   18.6333 C   0  0  0  0  0  0
  -29.6448  -17.3639   19.5115 C   0  0  0  0  0  0
  -29.3820  -19.7146   18.9649 C   0  0  0  0  0  0
  -30.3213  -17.6966   20.7105 C   0  0  0  0  0  0
  -30.5751  -19.0655   21.0045 C   0  0  0  0  0  0
  -30.0396  -20.0734   20.1599 C   0  0  0  0  0  0
  -29.4661  -23.6434   20.9148 C   0  0  0  0  0  0
  -28.5111  -24.5888   21.0230 C   0  0  0  0  0  0
  -29.0862  -22.2640   20.6633 C   0  0  0  0  0  0
  -31.3883  -19.4521   22.2367 C   0  0  0  0  0  0
  -30.7557  -16.6043   21.6979 C   0  0  0  0  0  0
  -28.7606  -26.0656   21.2285 C   0  0  0  0  0  0
  -30.1409  -21.4480   20.4998 N   0  0  0  0  0  0
  -30.2179  -15.2696   21.4431 N   0  0  0  0  0  0
  -27.9188  -21.8631   20.6039 O   0  0  0  0  0  0
  -31.4562  -12.3425   19.0983 H   0  0  0  0  0  0
  -30.2834  -11.2471   19.7707 H   0  0  0  0  0  0
  -29.7089  -11.8169   17.3895 H   0  0  0  0  0  0
  -29.6685  -13.5156   17.7927 H   0  0  0  0  0  0
  -27.8007  -11.3288   18.7817 H   0  0  0  0  0  0
  -27.3583  -12.6900   17.7825 H   0  0  0  0  0  0
  -27.7258  -14.2571   19.6044 H   0  0  0  0  0  0
  -28.6638  -11.9083   21.3206 H   0  0  0  0  0  0
  -28.4657  -13.5361   21.8827 H   0  0  0  0  0  0
  -25.2751   -9.5673   22.4758 H   0  0  0  0  0  0
  -23.9975   -7.4645   22.7483 H   0  0  0  0  0  0
  -21.0845   -8.8776   19.8943 H   0  0  0  0  0  0
  -22.3707  -10.9674   19.6153 H   0  0  0  0  0  0
  -21.2013   -7.6142   23.9692 H   0  0  0  0  0  0
  -21.1478   -6.0518   25.9063 H   0  0  0  0  0  0
  -22.0611   -2.7601   23.2830 H   0  0  0  0  0  0
  -22.4142  -11.9875   22.4734 H   0  0  0  0  0  0
  -21.1131  -13.1258   22.2597 H   0  0  0  0  0  0
  -24.6709  -15.8453   20.5200 H   0  0  0  0  0  0
  -26.2927  -15.6283   20.0997 H   0  0  0  0  0  0
  -26.7075  -32.5587   23.1217 H   0  0  0  0  0  0
  -25.0089  -33.9803   25.0538 H   0  0  0  0  0  0
  -22.6849  -31.3019   21.4098 H   0  0  0  0  0  0
  -23.3764  -35.9598   23.3288 H   0  0  0  0  0  0
  -24.3564  -36.8955   22.2069 H   0  0  0  0  0  0
  -23.7186  -37.6474   23.6697 H   0  0  0  0  0  0
  -26.0283  -31.6133   20.5933 H   0  0  0  0  0  0
  -26.8118  -30.9053   21.9792 H   0  0  0  0  0  0
  -28.1058  -29.1524   21.1545 H   0  0  0  0  0  0
  -26.1148  -25.9736   19.0368 H   0  0  0  0  0  0
  -23.9945  -27.2653   19.0680 H   0  0  0  0  0  0
  -23.7138  -30.5859   19.4055 H   0  0  0  0  0  0
  -22.7380  -29.2266   19.8814 H   0  0  0  0  0  0
  -25.1278  -36.1979   25.0842 H   0  0  0  0  0  0
  -20.9925  -28.3240   24.1452 H   0  0  0  0  0  0
  -20.5637  -26.2260   23.3622 H   0  0  0  0  0  0
  -21.6603  -26.7439   22.1257 H   0  0  0  0  0  0
  -19.6899  -25.6294   21.1242 H   0  0  0  0  0  0
  -19.6705  -27.3184   20.6752 H   0  0  0  0  0  0
  -17.4198  -26.6757   21.3955 H   0  0  0  0  0  0
  -18.0231  -26.0069   22.8955 H   0  0  0  0  0  0
  -19.7911  -30.7265   24.2282 H   0  0  0  0  0  0
  -17.5008  -31.6270   24.5176 H   0  0  0  0  0  0
  -15.5335  -30.3006   23.7693 H   0  0  0  0  0  0
  -15.8631  -28.0850   22.7091 H   0  0  0  0  0  0
  -24.5980  -30.6944   25.7859 H   0  0  0  0  0  0
  -24.8819  -32.2803   26.4893 H   0  0  0  0  0  0
  -25.8107  -30.8945   27.0293 H   0  0  0  0  0  0
  -26.2853  -29.6773   24.1256 H   0  0  0  0  0  0
  -27.4195  -29.7365   25.4572 H   0  0  0  0  0  0
  -27.8636  -30.4405   23.9198 H   0  0  0  0  0  0
  -27.2727  -33.3671   26.2028 H   0  0  0  0  0  0
  -28.3874  -32.6808   25.0302 H   0  0  0  0  0  0
  -28.0712  -31.8474   26.5433 H   0  0  0  0  0  0
  -28.2596  -38.0099   24.7555 H   0  0  0  0  0  0
  -28.1082  -36.2635   24.6242 H   0  0  0  0  0  0
  -27.2311  -37.1398   25.8870 H   0  0  0  0  0  0
  -20.9282  -29.8705   21.6943 H   0  0  0  0  0  0
  -26.0181  -38.2871   24.1476 H   0  0  0  0  0  0
  -28.6860  -18.0950   17.7193 H   0  0  0  0  0  0
  -29.4564  -16.3384   19.2360 H   0  0  0  0  0  0
  -29.0031  -20.4794   18.3016 H   0  0  0  0  0  0
  -30.5083  -23.9198   21.0026 H   0  0  0  0  0  0
  -27.4672  -24.3151   20.9494 H   0  0  0  0  0  0
  -32.1775  -18.7282   22.4399 H   0  0  0  0  0  0
  -30.7487  -19.5198   23.1159 H   0  0  0  0  0  0
  -31.8958  -20.4083   22.1088 H   0  0  0  0  0  0
  -30.4246  -16.8897   22.6968 H   0  0  0  0  0  0
  -31.8454  -16.5633   21.7392 H   0  0  0  0  0  0
  -29.8141  -26.2410   21.4504 H   0  0  0  0  0  0
  -28.1954  -26.4070   22.0998 H   0  0  0  0  0  0
  -31.0619  -21.8209   20.6833 H   0  0  0  0  0  0
  -29.3523  -15.0193   21.8961 H   0  0  0  0  0  0
  1 25  1  0  0  0
  1 30  2  0  0  0
  1 84  1  0  0  0
  2  3  1  0  0  0
  2 25  1  0  0  0
  2 86  1  0  0  0
  2 87  1  0  0  0
  3  4  1  0  0  0
  3 88  1  0  0  0
  3 89  1  0  0  0
  4  5  1  0  0  0
  4 90  1  0  0  0
  4 91  1  0  0  0
  5  6  1  0  0  0
  5 26  1  0  0  0
  5 92  1  0  0  0
  6 25  1  0  0  0
  6 93  1  0  0  0
  6 94  1  0  0  0
  7  8  2  0  0  0
  7 26  1  0  0  0
  7 29  1  0  0  0
  8  9  1  0  0  0
  8 22  1  0  0  0
  9 10  1  0  0  0
  9 27  2  0  0  0
 10 11  2  0  0  0
 10 15  1  0  0  0
 11 12  1  0  0  0
 11 95  1  0  0  0
 12 13  2  0  0  0
 12 96  1  0  0  0
 13 14  1  0  0  0
 13 31  1  0  0  0
 14 15  2  0  0  0
 14 97  1  0  0  0
 15 98  1  0  0  0
 16 17  2  0  0  0
 16 21  1  0  0  0
 16 31  1  0  0  0
 17 18  1  0  0  0
 17 99  1  0  0  0
 18 19  2  0  0  0
 18100  1  0  0  0
 19 20  1  0  0  0
 19 24  1  0  0  0
 20 21  2  0  0  0
 20101  1  0  0  0
 21 23  1  0  0  0
 22 28  1  0  0  0
 22 32  2  0  0  0
 26 27  1  0  0  0
 28102  1  0  0  0
 28103  1  0  0  0
 29104  1  0  0  0
 29105  1  0  0  0
 33 34  1  0  0  0
 33 66  1  0  0  0
 33 70  2  0  0  0
 34 36  1  0  0  0
 34 59  1  0  0  0
 34106  1  0  0  0
 35 44  2  0  0  0
 35 45  1  0  0  0
 35 68  1  0  0  0
 36 56  1  0  0  0
 36107  1  0  0  0
 37 39  1  0  0  0
 37 47  1  0  0  0
 37 66  1  0  0  0
 37108  1  0  0  0
 38 43  2  0  0  0
 38 46  1  0  0  0
 38 47  1  0  0  0
 39 64  1  0  0  0
 39 67  2  0  0  0
 40 52  1  0  0  0
 40 53  2  0  0  0
 40 58  1  0  0  0
 41109  1  0  0  0
 41110  1  0  0  0
 41111  1  0  0  0
 41 48  1  0  0  0
 42 43  1  0  0  0
 42 66  1  0  0  0
 42112  1  0  0  0
 42113  1  0  0  0
 43 44  1  0  0  0
 44114  1  0  0  0
 45 46  2  0  0  0
 45115  1  0  0  0
 46116  1  0  0  0
 47117  1  0  0  0
 47118  1  0  0  0
 48 56  1  0  0  0
 48 65  1  0  0  0
 48119  1  0  0  0
 49 50  1  0  0  0
 49 53  1  0  0  0
 49 64  1  0  0  0
 49120  1  0  0  0
 50 51  1  0  0  0
 50121  1  0  0  0
 50122  1  0  0  0
 51 52  1  0  0  0
 51123  1  0  0  0
 51124  1  0  0  0
 52125  1  0  0  0
 52126  1  0  0  0
 53 54  1  0  0  0
 54 55  2  0  0  0
 54127  1  0  0  0
 55 57  1  0  0  0
 55128  1  0  0  0
 56 69  2  0  0  0
 57 58  2  0  0  0
 57129  1  0  0  0
 58130  1  0  0  0
 59 60  1  0  0  0
 59 61  1  0  0  0
 59 62  1  0  0  0
 60131  1  0  0  0
 60132  1  0  0  0
 60133  1  0  0  0
 61134  1  0  0  0
 61135  1  0  0  0
 61136  1  0  0  0
 62137  1  0  0  0
 62138  1  0  0  0
 62139  1  0  0  0
 63 65  1  0  0  0
 63140  1  0  0  0
 63141  1  0  0  0
 63142  1  0  0  0
 64143  1  0  0  0
 65144  1  0  0  0
 68 82  1  0  0  0
 71 72  2  0  0  0
 71 73  1  0  0  0
 71145  1  0  0  0
 72 74  1  0  0  0
 72146  1  0  0  0
 73 76  2  0  0  0
 73147  1  0  0  0
 74 75  2  0  0  0
 74 81  1  0  0  0
 75 76  1  0  0  0
 75 80  1  0  0  0
 76 83  1  0  0  0
 77 78  2  0  0  0
 77 79  1  0  0  0
 77148  1  0  0  0
 78 82  1  0  0  0
 78149  1  0  0  0
 79 83  1  0  0  0
 79 85  2  0  0  0
 80150  1  0  0  0
 80151  1  0  0  0
 80152  1  0  0  0
 81 84  1  0  0  0
 81153  1  0  0  0
 81154  1  0  0  0
 82155  1  0  0  0
 82156  1  0  0  0
 83157  1  0  0  0
 84158  1  0  0  0
M  ISO  4   1 100  68 101  82 101  84 100
M  END
> <chiral flag>
0

> <version>
0

> <s_m_source_file>
/data/baiqing/PycharmProjects/Reinvent-master-3.2/result/LINK_invent/BTK/process_docking_weight1_custom_product_contain_oxygen_bond_distance_aromatic_linkinvent_7_9_3/rearranged_h_0055.sdf

> <i_m_source_file_index>
66

> <r_mmod_Potential_Energy-OPLS-2005>
-187.873992919922

> <r_mmod_Stretch_Energy-OPLS-2005>
33.0751647949219

> <r_mmod_Bend_Energy-OPLS-2005>
84.8585357666016

> <r_mmod_Torsional_Energy-OPLS-2005>
238.240432739258

> <r_mmod_Improper_Torsional_Energy-OPLS-2005>
2.16946721076965

> <r_mmod_Van_der_Waal_Energy-OPLS-2005>
164.035232543945

> <r_mmod_Electrostatic_Energy-OPLS-2005>
-482.304412841797

> <r_mmod_Solvation_Energy-OPLS-2005>
-234.81169128418

> <b_mmod_Minimization_Converged-OPLS-2005>
0

> <r_mmod_RMS_Derivative-OPLS-2005>
2.63278818130493

$$$$
66
                    3D
 Structure written by MMmdl.
164173  0  0  1  0            999 V2000
  -30.6577  -14.4938   20.5185 C   0  0  0  0  0  0
  -30.4231  -12.2997   19.4360 C   0  0  0  0  0  0
  -29.5005  -12.5007   18.2147 C   0  0  0  0  0  0
  -28.0174  -12.3583   18.6168 C   0  0  0  0  0  0
  -27.6558  -13.2034   19.8686 C   0  0  2  0  0  0
  -28.6932  -12.9860   20.9959 C   0  0  0  0  0  0
  -25.2552  -13.8123   20.5661 C   0  0  0  0  0  0
  -24.1809  -13.0405   20.9164 C   0  0  0  0  0  0
  -24.6354  -11.6871   20.8712 C   0  0  0  0  0  0
  -23.9017  -10.4265   21.0399 C   0  0  0  0  0  0
  -24.3583   -9.4193   21.9178 C   0  0  0  0  0  0
  -23.6277   -8.2219   22.0745 C   0  0  0  0  0  0
  -22.4257   -8.0243   21.3530 C   0  0  0  0  0  0
  -21.9883   -9.0207   20.4629 C   0  0  0  0  0  0
  -22.7192  -10.2097   20.3051 C   0  0  0  0  0  0
  -21.6836   -6.0724   22.5280 C   0  0  0  0  0  0
  -21.3994   -6.5632   23.8209 C   0  0  0  0  0  0
  -21.3669   -5.6789   24.9180 C   0  0  0  0  0  0
  -21.6065   -4.3056   24.7232 C   0  0  0  0  0  0
  -21.8813   -3.8138   23.4355 C   0  0  0  0  0  0
  -21.9181   -4.6954   22.3409 C   0  0  0  0  0  0
  -22.7839  -13.5211   21.1856 C   0  0  0  0  0  0
  -22.1649   -4.2149   21.0985 F   0  0  0  0  0  0
  -21.5661   -3.4536   25.7747 F   0  0  0  0  0  0
  -30.0268  -13.2897   20.4511 N   0  0  0  0  0  0
  -26.2968  -12.9292   20.3294 N   0  0  0  0  0  0
  -25.9265  -11.6447   20.5696 N   0  0  0  0  0  0
  -22.0468  -12.8228   22.0426 N   0  0  0  0  0  0
  -25.4265  -15.1846   20.4098 N   0  0  0  0  0  0
  -31.8111  -14.6612   20.1144 O   0  0  0  0  0  0
  -21.6616   -6.8858   21.4228 O   0  0  0  0  0  0
  -22.3529  -14.5519   20.6712 O   0  0  0  0  0  0
  -24.6138  -31.8691   23.2109 C   0  0  0  0  0  0
  -25.9040  -32.4810   23.8403 C   0  0  1  0  0  0
  -27.2267  -27.4315   20.0999 C   0  0  0  0  0  0
  -25.5903  -33.8614   24.2321 N   0  0  0  0  0  0
  -23.4005  -30.4936   21.5520 C   0  0  2  0  0  0
  -24.8490  -28.9609   20.1146 C   0  0  0  0  0  0
  -22.7397  -29.4654   22.4983 C   0  0  0  0  0  0
  -18.0284  -28.1351   22.8505 C   0  0  0  0  0  0
  -24.1495  -36.7317   23.2638 C   0  0  0  0  0  0
  -25.9314  -30.8281   21.3709 C   0  0  0  0  0  0
  -26.0071  -29.4615   20.7238 C   0  0  0  0  0  0
  -27.1979  -28.6990   20.7296 C   0  0  0  0  0  0
  -26.0668  -26.9655   19.4507 C   0  0  0  0  0  0
  -24.8726  -27.7089   19.4779 C   0  0  0  0  0  0
  -23.6103  -29.8268   20.1664 C   0  0  0  0  0  0
  -25.4117  -36.3104   24.0333 C   0  0  1  0  0  0
  -20.5877  -28.3618   23.1311 C   0  0  2  0  0  0
  -20.6765  -26.9365   22.5397 C   0  0  0  0  0  0
  -19.5743  -26.6402   21.5169 C   0  0  0  0  0  0
  -18.1915  -26.7918   22.1596 C   0  0  0  0  0  0
  -19.1544  -28.8804   23.2911 C   0  0  0  0  0  0
  -18.9480  -30.1397   23.8923 C   0  0  0  0  0  0
  -17.6478  -30.6554   24.0566 C   0  0  0  0  0  0
  -25.9042  -34.9465   23.5126 C   0  0  0  0  0  0
  -16.5369  -29.9072   23.6317 C   0  0  0  0  0  0
  -16.7269  -28.6471   23.0362 C   0  0  0  0  0  0
  -26.4479  -31.6590   25.0726 C   0  0  0  0  0  0
  -25.3738  -31.3710   26.1462 C   0  0  0  0  0  0
  -27.0315  -30.3036   24.6103 C   0  0  0  0  0  0
  -27.6045  -32.4320   25.7491 C   0  0  0  0  0  0
  -27.5579  -37.1810   24.8464 C   0  0  0  0  0  0
  -21.4132  -29.2994   22.3713 N   0  0  0  0  0  0
  -26.4295  -37.3790   23.9397 N   0  0  0  0  0  0
  -24.6662  -31.0776   22.1026 N   0  0  0  0  0  0
  -23.4190  -28.8223   23.3035 O   0  0  0  0  0  0
  -28.3542  -26.6391   20.0863 O   0  0  0  0  0  0
  -26.5597  -34.8917   22.4681 O   0  0  0  0  0  0
  -23.5326  -32.1464   23.7485 O   0  0  0  0  0  0
  -30.1233  -18.3507   18.4040 C   0  0  0  0  0  0
  -30.3467  -17.1116   19.0303 C   0  0  0  0  0  0
  -29.0366  -17.8527   20.9311 C   0  0  0  0  0  0
  -29.3383  -19.3480   19.0176 C   0  0  0  0  0  0
  -28.8061  -19.1139   20.3137 C   0  0  0  0  0  0
  -29.7920  -16.8312   20.3001 C   0  0  0  0  0  0
  -29.3464  -22.0713   21.5507 C   0  0  0  0  0  0
  -29.6294  -23.5862   21.4363 C   0  0  0  0  0  0
  -27.4117  -23.9096   20.3486 C   0  0  0  0  0  0
  -27.0800  -22.4234   20.5979 C   0  0  0  0  0  0
  -28.3595  -24.4631   21.4182 C   0  0  1  0  0  0
  -29.0569  -20.6201   18.2358 C   0  0  0  0  0  0
  -27.8878  -20.1204   21.0341 C   0  0  0  0  0  0
  -28.6541  -25.9980   21.3369 C   0  0  0  0  0  0
  -28.2175  -21.5666   20.9934 N   0  0  0  0  0  0
  -29.8802  -15.5301   20.9081 N   0  0  0  0  0  0
  -30.1816  -21.3624   22.1204 O   0  0  0  0  0  0
  -31.4710  -12.3924   19.1443 H   0  0  0  0  0  0
  -30.3175  -11.2906   19.8379 H   0  0  0  0  0  0
  -29.7440  -11.7738   17.4396 H   0  0  0  0  0  0
  -29.6703  -13.4874   17.7800 H   0  0  0  0  0  0
  -27.8308  -11.3028   18.8183 H   0  0  0  0  0  0
  -27.3704  -12.6227   17.7782 H   0  0  0  0  0  0
  -27.6939  -14.2492   19.5594 H   0  0  0  0  0  0
  -28.6691  -11.9489   21.3363 H   0  0  0  0  0  0
  -28.4551  -13.5861   21.8756 H   0  0  0  0  0  0
  -25.2732   -9.5697   22.4750 H   0  0  0  0  0  0
  -24.0000   -7.4621   22.7483 H   0  0  0  0  0  0
  -21.0814   -8.8706   19.8945 H   0  0  0  0  0  0
  -22.3630  -10.9629   19.6170 H   0  0  0  0  0  0
  -21.1953   -7.6134   23.9713 H   0  0  0  0  0  0
  -21.1509   -6.0524   25.9090 H   0  0  0  0  0  0
  -22.0582   -2.7598   23.2852 H   0  0  0  0  0  0
  -22.4043  -11.9892   22.4853 H   0  0  0  0  0  0
  -21.1068  -13.1247   22.2568 H   0  0  0  0  0  0
  -24.6559  -15.8364   20.5135 H   0  0  0  0  0  0
  -26.2845  -15.6247   20.0978 H   0  0  0  0  0  0
  -26.7101  -32.5528   23.1152 H   0  0  0  0  0  0
  -25.0056  -33.9799   25.0462 H   0  0  0  0  0  0
  -22.6899  -31.3108   21.4141 H   0  0  0  0  0  0
  -23.3741  -35.9665   23.3317 H   0  0  0  0  0  0
  -24.3585  -36.8923   22.2048 H   0  0  0  0  0  0
  -23.7264  -37.6537   23.6648 H   0  0  0  0  0  0
  -26.0441  -31.5944   20.6016 H   0  0  0  0  0  0
  -26.8179  -30.8817   21.9905 H   0  0  0  0  0  0
  -28.0857  -29.0779   21.2170 H   0  0  0  0  0  0
  -26.0796  -26.0250   18.9211 H   0  0  0  0  0  0
  -23.9878  -27.3221   18.9908 H   0  0  0  0  0  0
  -23.7131  -30.6030   19.4072 H   0  0  0  0  0  0
  -22.7351  -29.2458   19.8701 H   0  0  0  0  0  0
  -25.1287  -36.1973   25.0827 H   0  0  0  0  0  0
  -20.9993  -28.3171   24.1420 H   0  0  0  0  0  0
  -20.5672  -26.2224   23.3572 H   0  0  0  0  0  0
  -21.6640  -26.7420   22.1167 H   0  0  0  0  0  0
  -19.6874  -25.6345   21.1104 H   0  0  0  0  0  0
  -19.6670  -27.3291   20.6750 H   0  0  0  0  0  0
  -17.4186  -26.6736   21.3974 H   0  0  0  0  0  0
  -18.0280  -26.0003   22.8930 H   0  0  0  0  0  0
  -19.7973  -30.7184   24.2289 H   0  0  0  0  0  0
  -17.5051  -31.6225   24.5148 H   0  0  0  0  0  0
  -15.5380  -30.2994   23.7610 H   0  0  0  0  0  0
  -15.8673  -28.0797   22.7071 H   0  0  0  0  0  0
  -24.5887  -30.7086   25.7799 H   0  0  0  0  0  0
  -24.8956  -32.2880   26.4922 H   0  0  0  0  0  0
  -25.8076  -30.8866   27.0211 H   0  0  0  0  0  0
  -26.2877  -29.6786   24.1150 H   0  0  0  0  0  0
  -27.4088  -29.7275   25.4556 H   0  0  0  0  0  0
  -27.8704  -30.4360   23.9264 H   0  0  0  0  0  0
  -27.2650  -33.3596   26.2105 H   0  0  0  0  0  0
  -28.3838  -32.6916   25.0315 H   0  0  0  0  0  0
  -28.0730  -31.8428   26.5376 H   0  0  0  0  0  0
  -28.2603  -38.0101   24.7488 H   0  0  0  0  0  0
  -28.1066  -36.2624   24.6316 H   0  0  0  0  0  0
  -27.2287  -37.1496   25.8867 H   0  0  0  0  0  0
  -20.9266  -29.8706   21.6943 H   0  0  0  0  0  0
  -26.0184  -38.2871   24.1391 H   0  0  0  0  0  0
  -30.5379  -18.5182   17.4183 H   0  0  0  0  0  0
  -30.9111  -16.3703   18.4841 H   0  0  0  0  0  0
  -28.5920  -17.6555   21.8973 H   0  0  0  0  0  0
  -30.2111  -23.7469   20.5293 H   0  0  0  0  0  0
  -30.2676  -23.8836   22.2690 H   0  0  0  0  0  0
  -26.4777  -24.4664   20.3579 H   0  0  0  0  0  0
  -27.8503  -24.0344   19.3565 H   0  0  0  0  0  0
  -26.5858  -22.0192   19.7130 H   0  0  0  0  0  0
  -26.3479  -22.3668   21.4061 H   0  0  0  0  0  0
  -27.8717  -24.3118   22.3826 H   0  0  0  0  0  0
  -29.6283  -21.4589   18.6324 H   0  0  0  0  0  0
  -27.9949  -20.8660   18.2615 H   0  0  0  0  0  0
  -29.3354  -20.5121   17.1882 H   0  0  0  0  0  0
  -27.8042  -19.8310   22.0816 H   0  0  0  0  0  0
  -26.8907  -19.9618   20.6171 H   0  0  0  0  0  0
  -29.7101  -26.1788   21.5408 H   0  0  0  0  0  0
  -28.1289  -26.4953   22.1545 H   0  0  0  0  0  0
  -29.0764  -15.2638   21.4557 H   0  0  0  0  0  0
  1 25  1  0  0  0
  1 30  2  0  0  0
  1 86  1  0  0  0
  2  3  1  0  0  0
  2 25  1  0  0  0
  2 88  1  0  0  0
  2 89  1  0  0  0
  3  4  1  0  0  0
  3 90  1  0  0  0
  3 91  1  0  0  0
  4  5  1  0  0  0
  4 92  1  0  0  0
  4 93  1  0  0  0
  5  6  1  0  0  0
  5 26  1  0  0  0
  5 94  1  0  0  0
  6 25  1  0  0  0
  6 95  1  0  0  0
  6 96  1  0  0  0
  7  8  2  0  0  0
  7 26  1  0  0  0
  7 29  1  0  0  0
  8  9  1  0  0  0
  8 22  1  0  0  0
  9 10  1  0  0  0
  9 27  2  0  0  0
 10 11  2  0  0  0
 10 15  1  0  0  0
 11 12  1  0  0  0
 11 97  1  0  0  0
 12 13  2  0  0  0
 12 98  1  0  0  0
 13 14  1  0  0  0
 13 31  1  0  0  0
 14 15  2  0  0  0
 14 99  1  0  0  0
 15100  1  0  0  0
 16 17  2  0  0  0
 16 21  1  0  0  0
 16 31  1  0  0  0
 17 18  1  0  0  0
 17101  1  0  0  0
 18 19  2  0  0  0
 18102  1  0  0  0
 19 20  1  0  0  0
 19 24  1  0  0  0
 20 21  2  0  0  0
 20103  1  0  0  0
 21 23  1  0  0  0
 22 28  1  0  0  0
 22 32  2  0  0  0
 26 27  1  0  0  0
 28104  1  0  0  0
 28105  1  0  0  0
 29106  1  0  0  0
 29107  1  0  0  0
 33 34  1  0  0  0
 33 66  1  0  0  0
 33 70  2  0  0  0
 34 36  1  0  0  0
 34 59  1  0  0  0
 34108  1  0  0  0
 35 44  2  0  0  0
 35 45  1  0  0  0
 35 68  1  0  0  0
 36 56  1  0  0  0
 36109  1  0  0  0
 37 39  1  0  0  0
 37 47  1  0  0  0
 37 66  1  0  0  0
 37110  1  0  0  0
 38 43  2  0  0  0
 38 46  1  0  0  0
 38 47  1  0  0  0
 39 64  1  0  0  0
 39 67  2  0  0  0
 40 52  1  0  0  0
 40 53  2  0  0  0
 40 58  1  0  0  0
 41111  1  0  0  0
 41112  1  0  0  0
 41113  1  0  0  0
 41 48  1  0  0  0
 42 43  1  0  0  0
 42 66  1  0  0  0
 42114  1  0  0  0
 42115  1  0  0  0
 43 44  1  0  0  0
 44116  1  0  0  0
 45 46  2  0  0  0
 45117  1  0  0  0
 46118  1  0  0  0
 47119  1  0  0  0
 47120  1  0  0  0
 48 56  1  0  0  0
 48 65  1  0  0  0
 48121  1  0  0  0
 49 50  1  0  0  0
 49 53  1  0  0  0
 49 64  1  0  0  0
 49122  1  0  0  0
 50 51  1  0  0  0
 50123  1  0  0  0
 50124  1  0  0  0
 51 52  1  0  0  0
 51125  1  0  0  0
 51126  1  0  0  0
 52127  1  0  0  0
 52128  1  0  0  0
 53 54  1  0  0  0
 54 55  2  0  0  0
 54129  1  0  0  0
 55 57  1  0  0  0
 55130  1  0  0  0
 56 69  2  0  0  0
 57 58  2  0  0  0
 57131  1  0  0  0
 58132  1  0  0  0
 59 60  1  0  0  0
 59 61  1  0  0  0
 59 62  1  0  0  0
 60133  1  0  0  0
 60134  1  0  0  0
 60135  1  0  0  0
 61136  1  0  0  0
 61137  1  0  0  0
 61138  1  0  0  0
 62139  1  0  0  0
 62140  1  0  0  0
 62141  1  0  0  0
 63 65  1  0  0  0
 63142  1  0  0  0
 63143  1  0  0  0
 63144  1  0  0  0
 64145  1  0  0  0
 65146  1  0  0  0
 68 84  1  0  0  0
 71 72  2  0  0  0
 71 74  1  0  0  0
 71147  1  0  0  0
 72 76  1  0  0  0
 72148  1  0  0  0
 73 75  1  0  0  0
 73 76  2  0  0  0
 73149  1  0  0  0
 74 75  2  0  0  0
 74 82  1  0  0  0
 75 83  1  0  0  0
 76 86  1  0  0  0
 77 78  1  0  0  0
 77 85  1  0  0  0
 77 87  2  0  0  0
 78 81  1  0  0  0
 78150  1  0  0  0
 78151  1  0  0  0
 79 80  1  0  0  0
 79 81  1  0  0  0
 79152  1  0  0  0
 79153  1  0  0  0
 80 85  1  0  0  0
 80154  1  0  0  0
 80155  1  0  0  0
 81 84  1  0  0  0
 81156  1  0  0  0
 82157  1  0  0  0
 82158  1  0  0  0
 82159  1  0  0  0
 83 85  1  0  0  0
 83160  1  0  0  0
 83161  1  0  0  0
 84162  1  0  0  0
 84163  1  0  0  0
 86164  1  0  0  0
M  ISO  4   1 100  68 101  84 101  86 100
M  END
> <chiral flag>
0

> <version>
0

> <s_m_source_file>
/data/baiqing/PycharmProjects/Reinvent-master-3.2/result/LINK_invent/BTK/process_docking_weight1_custom_product_contain_oxygen_bond_distance_aromatic_linkinvent_7_9_3/rearranged_h_0055.sdf

> <i_m_source_file_index>
67

> <r_mmod_Potential_Energy-OPLS-2005>
4.01880741119385

> <r_mmod_Stretch_Energy-OPLS-2005>
44.0081520080566

> <r_mmod_Bend_Energy-OPLS-2005>
110.070503234863

> <r_mmod_Torsional_Energy-OPLS-2005>
287.900970458984

> <r_mmod_Improper_Torsional_Energy-OPLS-2005>
6.34795951843262

> <r_mmod_Van_der_Waal_Energy-OPLS-2005>
160.289291381836

> <r_mmod_Electrostatic_Energy-OPLS-2005>
-391.033538818359

> <r_mmod_Solvation_Energy-OPLS-2005>
-230.109939575195

> <b_mmod_Minimization_Converged-OPLS-2005>
0

> <r_mmod_RMS_Derivative-OPLS-2005>
3.20136952400208

$$$$
67
                    3D
 Structure written by MMmdl.
159167  0  0  1  0            999 V2000
  -30.7276  -14.5163   20.5312 C   0  0  0  0  0  0
  -30.4070  -12.3217   19.4334 C   0  0  0  0  0  0
  -29.4861  -12.4845   18.2077 C   0  0  0  0  0  0
  -28.0128  -12.3453   18.6330 C   0  0  0  0  0  0
  -27.6553  -13.2190   19.8636 C   0  0  2  0  0  0
  -28.7001  -13.0587   20.9895 C   0  0  0  0  0  0
  -25.2589  -13.8208   20.5717 C   0  0  0  0  0  0
  -24.1860  -13.0447   20.9225 C   0  0  0  0  0  0
  -24.6441  -11.6933   20.8791 C   0  0  0  0  0  0
  -23.9124  -10.4297   21.0438 C   0  0  0  0  0  0
  -24.3645   -9.4201   21.9211 C   0  0  0  0  0  0
  -23.6302   -8.2254   22.0777 C   0  0  0  0  0  0
  -22.4295   -8.0303   21.3566 C   0  0  0  0  0  0
  -21.9946   -9.0284   20.4675 C   0  0  0  0  0  0
  -22.7303  -10.2148   20.3081 C   0  0  0  0  0  0
  -21.6843   -6.0761   22.5300 C   0  0  0  0  0  0
  -21.4007   -6.5654   23.8239 C   0  0  0  0  0  0
  -21.3653   -5.6800   24.9196 C   0  0  0  0  0  0
  -21.6035   -4.3064   24.7241 C   0  0  0  0  0  0
  -21.8808   -3.8161   23.4363 C   0  0  0  0  0  0
  -21.9185   -4.6985   22.3421 C   0  0  0  0  0  0
  -22.7890  -13.5251   21.1849 C   0  0  0  0  0  0
  -22.1661   -4.2169   21.1006 F   0  0  0  0  0  0
  -21.5615   -3.4548   25.7757 F   0  0  0  0  0  0
  -30.0252  -13.3490   20.4212 N   0  0  0  0  0  0
  -26.3017  -12.9399   20.3366 N   0  0  0  0  0  0
  -25.9367  -11.6552   20.5818 N   0  0  0  0  0  0
  -22.0510  -12.8253   22.0394 N   0  0  0  0  0  0
  -25.4250  -15.1932   20.4148 N   0  0  0  0  0  0
  -31.8604  -14.6241   20.0545 O   0  0  0  0  0  0
  -21.6641   -6.8909   21.4274 O   0  0  0  0  0  0
  -22.3591  -14.5549   20.6680 O   0  0  0  0  0  0
  -24.6185  -31.8658   23.2149 C   0  0  0  0  0  0
  -25.9079  -32.4820   23.8432 C   0  0  1  0  0  0
  -27.2261  -27.4110   20.0796 C   0  0  0  0  0  0
  -25.5918  -33.8627   24.2327 N   0  0  0  0  0  0
  -23.4062  -30.4958   21.5512 C   0  0  2  0  0  0
  -24.8524  -28.9674   20.1081 C   0  0  0  0  0  0
  -22.7433  -29.4638   22.4947 C   0  0  0  0  0  0
  -18.0283  -28.1350   22.8447 C   0  0  0  0  0  0
  -24.1499  -36.7328   23.2646 C   0  0  0  0  0  0
  -25.9451  -30.8152   21.3817 C   0  0  0  0  0  0
  -26.0132  -29.4570   20.7146 C   0  0  0  0  0  0
  -27.2005  -28.6856   20.6972 C   0  0  0  0  0  0
  -26.0433  -26.9531   19.4496 C   0  0  0  0  0  0
  -24.8657  -27.7184   19.4694 C   0  0  0  0  0  0
  -23.6199  -29.8423   20.1613 C   0  0  0  0  0  0
  -25.4122  -36.3115   24.0343 C   0  0  1  0  0  0
  -20.5862  -28.3649   23.1303 C   0  0  2  0  0  0
  -20.6780  -26.9385   22.5402 C   0  0  0  0  0  0
  -19.5766  -26.6351   21.5199 C   0  0  0  0  0  0
  -18.1927  -26.7902   22.1580 C   0  0  0  0  0  0
  -19.1524  -28.8823   23.2874 C   0  0  0  0  0  0
  -18.9477  -30.1422   23.8897 C   0  0  0  0  0  0
  -17.6491  -30.6566   24.0560 C   0  0  0  0  0  0
  -25.9054  -34.9478   23.5134 C   0  0  0  0  0  0
  -16.5373  -29.9064   23.6331 C   0  0  0  0  0  0
  -16.7279  -28.6484   23.0320 C   0  0  0  0  0  0
  -26.4476  -31.6624   25.0787 C   0  0  0  0  0  0
  -25.3733  -31.3751   26.1539 C   0  0  0  0  0  0
  -27.0329  -30.3079   24.6192 C   0  0  0  0  0  0
  -27.6024  -32.4401   25.7517 C   0  0  0  0  0  0
  -27.5587  -37.1822   24.8462 C   0  0  0  0  0  0
  -21.4148  -29.3036   22.3723 N   0  0  0  0  0  0
  -26.4308  -37.3794   23.9405 N   0  0  0  0  0  0
  -24.6742  -31.0752   22.1047 N   0  0  0  0  0  0
  -23.4212  -28.8149   23.2948 O   0  0  0  0  0  0
  -28.3855  -26.6500   20.1136 O   0  0  0  0  0  0
  -26.5599  -34.8911   22.4678 O   0  0  0  0  0  0
  -23.5372  -32.1419   23.7547 O   0  0  0  0  0  0
  -27.4722  -19.2718   21.3433 C   0  0  0  0  0  0
  -28.0932  -20.5304   21.2937 C   0  0  0  0  0  0
  -28.1817  -18.1179   20.9728 C   0  0  0  0  0  0
  -29.4202  -20.6842   20.8241 C   0  0  0  0  0  0
  -29.5112  -18.2001   20.5074 C   0  0  0  0  0  0
  -30.1003  -19.5012   20.3496 C   0  0  0  0  0  0
  -30.0337  -22.0637   20.9555 C   0  0  0  0  0  0
  -29.4644  -24.4196   20.3337 C   0  0  0  0  0  0
  -31.4458  -19.6032   19.6213 C   0  0  0  0  0  0
  -29.8626  -15.8340   22.3649 C   0  0  0  0  0  0
  -30.2591  -16.8908   20.1240 C   0  0  0  0  0  0
  -28.3055  -25.2496   19.7353 C   0  0  0  0  0  0
  -29.2810  -23.0675   20.3924 N   0  0  0  0  0  0
  -30.0499  -15.6370   20.9190 N   0  0  0  0  0  0
  -30.4726  -25.0284   20.7128 O   0  0  0  0  0  0
  -31.4619  -22.2199   21.8414 S   0  0  0  0  0  0
  -31.4541  -12.3822   19.1320 H   0  0  0  0  0  0
  -30.2854  -11.3257   19.8684 H   0  0  0  0  0  0
  -29.7240  -11.7307   17.4564 H   0  0  0  0  0  0
  -29.6526  -13.4519   17.7326 H   0  0  0  0  0  0
  -27.8429  -11.2945   18.8684 H   0  0  0  0  0  0
  -27.3497  -12.5753   17.7980 H   0  0  0  0  0  0
  -27.6833  -14.2580   19.5313 H   0  0  0  0  0  0
  -28.6854  -12.0474   21.3982 H   0  0  0  0  0  0
  -28.4518  -13.7155   21.8219 H   0  0  0  0  0  0
  -25.2789   -9.5657   22.4801 H   0  0  0  0  0  0
  -23.9983   -7.4654   22.7502 H   0  0  0  0  0  0
  -21.0866   -8.8852   19.8989 H   0  0  0  0  0  0
  -22.3796  -10.9704   19.6184 H   0  0  0  0  0  0
  -21.1998   -7.6155   23.9753 H   0  0  0  0  0  0
  -21.1478   -6.0528   25.9095 H   0  0  0  0  0  0
  -22.0578   -2.7624   23.2874 H   0  0  0  0  0  0
  -22.4068  -11.9906   22.4794 H   0  0  0  0  0  0
  -21.1136  -13.1332   22.2557 H   0  0  0  0  0  0
  -24.6512  -15.8383   20.5338 H   0  0  0  0  0  0
  -26.2683  -15.6426   20.0821 H   0  0  0  0  0  0
  -26.7116  -32.5488   23.1154 H   0  0  0  0  0  0
  -25.0169  -33.9802   25.0533 H   0  0  0  0  0  0
  -22.6963  -31.3142   21.4134 H   0  0  0  0  0  0
  -23.3759  -35.9648   23.3326 H   0  0  0  0  0  0
  -24.3607  -36.8943   22.2057 H   0  0  0  0  0  0
  -23.7239  -37.6537   23.6654 H   0  0  0  0  0  0
  -26.0846  -31.5857   20.6235 H   0  0  0  0  0  0
  -26.8272  -30.8463   22.0117 H   0  0  0  0  0  0
  -28.0954  -29.0573   21.1779 H   0  0  0  0  0  0
  -26.0037  -26.0104   18.9245 H   0  0  0  0  0  0
  -23.9777  -27.3483   18.9752 H   0  0  0  0  0  0
  -23.7445  -30.6299   19.4146 H   0  0  0  0  0  0
  -22.7419  -29.2770   19.8470 H   0  0  0  0  0  0
  -25.1280  -36.2006   25.0839 H   0  0  0  0  0  0
  -20.9948  -28.3198   24.1431 H   0  0  0  0  0  0
  -20.5717  -26.2222   23.3569 H   0  0  0  0  0  0
  -21.6642  -26.7443   22.1162 H   0  0  0  0  0  0
  -19.6973  -25.6270   21.1205 H   0  0  0  0  0  0
  -19.6756  -27.3165   20.6748 H   0  0  0  0  0  0
  -17.4221  -26.6670   21.3962 H   0  0  0  0  0  0
  -18.0336  -26.0012   22.8950 H   0  0  0  0  0  0
  -19.7966  -30.7203   24.2255 H   0  0  0  0  0  0
  -17.5062  -31.6251   24.5141 H   0  0  0  0  0  0
  -15.5371  -30.2984   23.7678 H   0  0  0  0  0  0
  -15.8649  -28.0844   22.7025 H   0  0  0  0  0  0
  -24.5866  -30.7142   25.7894 H   0  0  0  0  0  0
  -24.8961  -32.2924   26.5035 H   0  0  0  0  0  0
  -25.8075  -30.8886   27.0282 H   0  0  0  0  0  0
  -26.2902  -29.6834   24.1223 H   0  0  0  0  0  0
  -27.4111  -29.7339   25.4653 H   0  0  0  0  0  0
  -27.8705  -30.4442   23.9339 H   0  0  0  0  0  0
  -27.2625  -33.3705   26.2078 H   0  0  0  0  0  0
  -28.3801  -32.7003   25.0324 H   0  0  0  0  0  0
  -28.0702  -31.8561   26.5453 H   0  0  0  0  0  0
  -28.2582  -38.0132   24.7524 H   0  0  0  0  0  0
  -28.1103  -36.2678   24.6262 H   0  0  0  0  0  0
  -27.2325  -37.1458   25.8865 H   0  0  0  0  0  0
  -20.9316  -29.8822   21.6985 H   0  0  0  0  0  0
  -26.0217  -38.2876   24.1405 H   0  0  0  0  0  0
  -26.4551  -19.1877   21.6944 H   0  0  0  0  0  0
  -27.5297  -21.3821   21.6512 H   0  0  0  0  0  0
  -27.6842  -17.1629   21.0446 H   0  0  0  0  0  0
  -31.7008  -20.6224   19.3344 H   0  0  0  0  0  0
  -31.4214  -19.0385   18.6895 H   0  0  0  0  0  0
  -32.2630  -19.2145   20.2301 H   0  0  0  0  0  0
  -28.8112  -15.9868   22.6081 H   0  0  0  0  0  0
  -30.4241  -16.7004   22.7186 H   0  0  0  0  0  0
  -30.1968  -14.9776   22.9562 H   0  0  0  0  0  0
  -31.3312  -17.0884   20.1081 H   0  0  0  0  0  0
  -29.9891  -16.6766   19.0882 H   0  0  0  0  0  0
  -27.3744  -24.7912   20.0751 H   0  0  0  0  0  0
  -28.3449  -25.1763   18.6482 H   0  0  0  0  0  0
  -28.4193  -22.7576   19.9696 H   0  0  0  0  0  0
  1 25  1  0  0  0
  1 30  2  0  0  0
  1 84  1  0  0  0
  2  3  1  0  0  0
  2 25  1  0  0  0
  2 87  1  0  0  0
  2 88  1  0  0  0
  3  4  1  0  0  0
  3 89  1  0  0  0
  3 90  1  0  0  0
  4  5  1  0  0  0
  4 91  1  0  0  0
  4 92  1  0  0  0
  5  6  1  0  0  0
  5 26  1  0  0  0
  5 93  1  0  0  0
  6 25  1  0  0  0
  6 94  1  0  0  0
  6 95  1  0  0  0
  7  8  2  0  0  0
  7 26  1  0  0  0
  7 29  1  0  0  0
  8  9  1  0  0  0
  8 22  1  0  0  0
  9 10  1  0  0  0
  9 27  2  0  0  0
 10 11  2  0  0  0
 10 15  1  0  0  0
 11 12  1  0  0  0
 11 96  1  0  0  0
 12 13  2  0  0  0
 12 97  1  0  0  0
 13 14  1  0  0  0
 13 31  1  0  0  0
 14 15  2  0  0  0
 14 98  1  0  0  0
 15 99  1  0  0  0
 16 17  2  0  0  0
 16 21  1  0  0  0
 16 31  1  0  0  0
 17 18  1  0  0  0
 17100  1  0  0  0
 18 19  2  0  0  0
 18101  1  0  0  0
 19 20  1  0  0  0
 19 24  1  0  0  0
 20 21  2  0  0  0
 20102  1  0  0  0
 21 23  1  0  0  0
 22 28  1  0  0  0
 22 32  2  0  0  0
 26 27  1  0  0  0
 28103  1  0  0  0
 28104  1  0  0  0
 29105  1  0  0  0
 29106  1  0  0  0
 33 34  1  0  0  0
 33 66  1  0  0  0
 33 70  2  0  0  0
 34 36  1  0  0  0
 34 59  1  0  0  0
 34107  1  0  0  0
 35 44  2  0  0  0
 35 45  1  0  0  0
 35 68  1  0  0  0
 36 56  1  0  0  0
 36108  1  0  0  0
 37 39  1  0  0  0
 37 47  1  0  0  0
 37 66  1  0  0  0
 37109  1  0  0  0
 38 43  2  0  0  0
 38 46  1  0  0  0
 38 47  1  0  0  0
 39 64  1  0  0  0
 39 67  2  0  0  0
 40 52  1  0  0  0
 40 53  2  0  0  0
 40 58  1  0  0  0
 41110  1  0  0  0
 41111  1  0  0  0
 41112  1  0  0  0
 41 48  1  0  0  0
 42 43  1  0  0  0
 42 66  1  0  0  0
 42113  1  0  0  0
 42114  1  0  0  0
 43 44  1  0  0  0
 44115  1  0  0  0
 45 46  2  0  0  0
 45116  1  0  0  0
 46117  1  0  0  0
 47118  1  0  0  0
 47119  1  0  0  0
 48 56  1  0  0  0
 48 65  1  0  0  0
 48120  1  0  0  0
 49 50  1  0  0  0
 49 53  1  0  0  0
 49 64  1  0  0  0
 49121  1  0  0  0
 50 51  1  0  0  0
 50122  1  0  0  0
 50123  1  0  0  0
 51 52  1  0  0  0
 51124  1  0  0  0
 51125  1  0  0  0
 52126  1  0  0  0
 52127  1  0  0  0
 53 54  1  0  0  0
 54 55  2  0  0  0
 54128  1  0  0  0
 55 57  1  0  0  0
 55129  1  0  0  0
 56 69  2  0  0  0
 57 58  2  0  0  0
 57130  1  0  0  0
 58131  1  0  0  0
 59 60  1  0  0  0
 59 61  1  0  0  0
 59 62  1  0  0  0
 60132  1  0  0  0
 60133  1  0  0  0
 60134  1  0  0  0
 61135  1  0  0  0
 61136  1  0  0  0
 61137  1  0  0  0
 62138  1  0  0  0
 62139  1  0  0  0
 62140  1  0  0  0
 63 65  1  0  0  0
 63141  1  0  0  0
 63142  1  0  0  0
 63143  1  0  0  0
 64144  1  0  0  0
 65145  1  0  0  0
 68 82  1  0  0  0
 71 72  2  0  0  0
 71 73  1  0  0  0
 71146  1  0  0  0
 72 74  1  0  0  0
 72147  1  0  0  0
 73 75  2  0  0  0
 73148  1  0  0  0
 74 76  2  0  0  0
 74 77  1  0  0  0
 75 76  1  0  0  0
 75 81  1  0  0  0
 76 79  1  0  0  0
 77 83  1  0  0  0
 77 86  2  0  0  0
 78 82  1  0  0  0
 78 83  1  0  0  0
 78 85  2  0  0  0
 79149  1  0  0  0
 79150  1  0  0  0
 79151  1  0  0  0
 80 84  1  0  0  0
 80152  1  0  0  0
 80153  1  0  0  0
 80154  1  0  0  0
 81 84  1  0  0  0
 81155  1  0  0  0
 81156  1  0  0  0
 82157  1  0  0  0
 82158  1  0  0  0
 83159  1  0  0  0
M  ISO  4   1 100  68 101  82 101  84 100
M  END
> <chiral flag>
0

> <version>
0

> <s_m_source_file>
/data/baiqing/PycharmProjects/Reinvent-master-3.2/result/LINK_invent/BTK/process_docking_weight1_custom_product_contain_oxygen_bond_distance_aromatic_linkinvent_7_9_3/rearranged_h_0055.sdf

> <i_m_source_file_index>
68

> <r_mmod_Potential_Energy-OPLS-2005>
86.8859176635742

> <r_mmod_Stretch_Energy-OPLS-2005>
60.7323799133301

> <r_mmod_Bend_Energy-OPLS-2005>
123.767890930176

> <r_mmod_Torsional_Energy-OPLS-2005>
280.212036132812

> <r_mmod_Improper_Torsional_Energy-OPLS-2005>
10.3970909118652

> <r_mmod_Van_der_Waal_Energy-OPLS-2005>
181.918655395508

> <r_mmod_Electrostatic_Energy-OPLS-2005>
-328.329467773438

> <r_mmod_Solvation_Energy-OPLS-2005>
-262.984161376953

> <b_mmod_Minimization_Converged-OPLS-2005>
0

> <r_mmod_RMS_Derivative-OPLS-2005>
4.83577823638916

$$$$
68
                    3D
 Structure written by MMmdl.
166175  0  0  1  0            999 V2000
  -30.6725  -14.4963   20.4965 C   0  0  0  0  0  0
  -30.4315  -12.2973   19.4380 C   0  0  0  0  0  0
  -29.5034  -12.4926   18.2182 C   0  0  0  0  0  0
  -28.0236  -12.3564   18.6315 C   0  0  0  0  0  0
  -27.6677  -13.2013   19.8841 C   0  0  2  0  0  0
  -28.7134  -12.9934   21.0072 C   0  0  0  0  0  0
  -25.2601  -13.8139   20.5726 C   0  0  0  0  0  0
  -24.1871  -13.0420   20.9224 C   0  0  0  0  0  0
  -24.6432  -11.6893   20.8794 C   0  0  0  0  0  0
  -23.9093  -10.4284   21.0441 C   0  0  0  0  0  0
  -24.3630   -9.4173   21.9211 C   0  0  0  0  0  0
  -23.6298   -8.2204   22.0762 C   0  0  0  0  0  0
  -22.4255   -8.0293   21.3575 C   0  0  0  0  0  0
  -21.9918   -9.0265   20.4654 C   0  0  0  0  0  0
  -22.7271  -10.2120   20.3081 C   0  0  0  0  0  0
  -21.6823   -6.0767   22.5318 C   0  0  0  0  0  0
  -21.3996   -6.5671   23.8255 C   0  0  0  0  0  0
  -21.3637   -5.6823   24.9215 C   0  0  0  0  0  0
  -21.6039   -4.3095   24.7244 C   0  0  0  0  0  0
  -21.8804   -3.8180   23.4369 C   0  0  0  0  0  0
  -21.9165   -4.6998   22.3425 C   0  0  0  0  0  0
  -22.7863  -13.5192   21.1871 C   0  0  0  0  0  0
  -22.1657   -4.2194   21.0993 F   0  0  0  0  0  0
  -21.5615   -3.4573   25.7743 F   0  0  0  0  0  0
  -30.0436  -13.2914   20.4520 N   0  0  0  0  0  0
  -26.3070  -12.9323   20.3457 N   0  0  0  0  0  0
  -25.9364  -11.6490   20.5847 N   0  0  0  0  0  0
  -22.0487  -12.8223   22.0430 N   0  0  0  0  0  0
  -25.4236  -15.1876   20.4113 N   0  0  0  0  0  0
  -31.8116  -14.6788   20.0626 O   0  0  0  0  0  0
  -21.6618   -6.8900   21.4276 O   0  0  0  0  0  0
  -22.3565  -14.5503   20.6689 O   0  0  0  0  0  0
  -24.6097  -31.8669   23.2118 C   0  0  0  0  0  0
  -25.8976  -32.4841   23.8427 C   0  0  1  0  0  0
  -27.2669  -27.4561   20.1037 C   0  0  0  0  0  0
  -25.5850  -33.8639   24.2380 N   0  0  0  0  0  0
  -23.4041  -30.4869   21.5441 C   0  0  2  0  0  0
  -24.8629  -28.9478   20.1239 C   0  0  0  0  0  0
  -22.7399  -29.4634   22.4931 C   0  0  0  0  0  0
  -18.0263  -28.1391   22.8458 C   0  0  0  0  0  0
  -24.1478  -36.7323   23.2651 C   0  0  0  0  0  0
  -25.9272  -30.8382   21.3662 C   0  0  0  0  0  0
  -26.0150  -29.4663   20.7293 C   0  0  0  0  0  0
  -27.2181  -28.7246   20.7274 C   0  0  0  0  0  0
  -26.1016  -26.9488   19.4940 C   0  0  0  0  0  0
  -24.8985  -27.6835   19.5074 C   0  0  0  0  0  0
  -23.6206  -29.8097   20.1623 C   0  0  0  0  0  0
  -25.4100  -36.3143   24.0364 C   0  0  1  0  0  0
  -20.5847  -28.3680   23.1284 C   0  0  2  0  0  0
  -20.6747  -26.9407   22.5402 C   0  0  0  0  0  0
  -19.5752  -26.6385   21.5181 C   0  0  0  0  0  0
  -18.1920  -26.7930   22.1586 C   0  0  0  0  0  0
  -19.1514  -28.8846   23.2868 C   0  0  0  0  0  0
  -18.9448  -30.1436   23.8899 C   0  0  0  0  0  0
  -17.6461  -30.6595   24.0554 C   0  0  0  0  0  0
  -25.9005  -34.9494   23.5186 C   0  0  0  0  0  0
  -16.5345  -29.9101   23.6326 C   0  0  0  0  0  0
  -16.7250  -28.6515   23.0340 C   0  0  0  0  0  0
  -26.4425  -31.6608   25.0744 C   0  0  0  0  0  0
  -25.3697  -31.3681   26.1502 C   0  0  0  0  0  0
  -27.0310  -30.3083   24.6102 C   0  0  0  0  0  0
  -27.6053  -32.4291   25.7471 C   0  0  0  0  0  0
  -27.5588  -37.1826   24.8473 C   0  0  0  0  0  0
  -21.4117  -29.3052   22.3688 N   0  0  0  0  0  0
  -26.4311  -37.3811   23.9407 N   0  0  0  0  0  0
  -24.6638  -31.0798   22.0998 N   0  0  0  0  0  0
  -23.4153  -28.8162   23.2983 O   0  0  0  0  0  0
  -28.4328  -26.7287   19.9946 O   0  0  0  0  0  0
  -26.5555  -34.8923   22.4744 O   0  0  0  0  0  0
  -23.5279  -32.1389   23.7506 O   0  0  0  0  0  0
  -31.5132  -18.2879   19.9203 C   0  0  0  0  0  0
  -29.2432  -19.0970   20.1176 C   0  0  0  0  0  0
  -30.1370  -18.0114   20.0038 C   0  0  0  0  0  0
  -31.9883  -19.6236   19.8931 C   0  0  0  0  0  0
  -31.0833  -20.7292   19.9520 C   0  0  0  0  0  0
  -29.6963  -20.4369   20.0882 C   0  0  0  0  0  0
  -31.4684  -23.1495   21.9984 C   0  0  0  0  0  0
  -30.5927  -24.4143   20.1617 C   0  0  0  0  0  0
  -31.0410  -24.2382   22.9849 C   0  0  0  0  0  0
  -31.2145  -25.6156   22.3506 C   0  0  0  0  0  0
  -30.4550  -25.7178   21.0123 C   0  0  2  0  0  0
  -33.4881  -19.8192   19.7401 C   0  0  0  0  0  0
  -31.6047  -22.1834   19.7598 C   0  0  0  0  0  0
  -29.6042  -16.5942   19.7748 C   0  0  0  0  0  0
  -28.9913  -26.2176   21.2068 C   0  0  0  0  0  0
  -31.1576  -23.2737   20.6797 N   0  0  0  0  0  0
  -29.8685  -15.5396   20.7699 N   0  0  0  0  0  0
  -32.0912  -22.1857   22.4543 O   0  0  0  0  0  0
  -30.2383  -24.4816   18.9789 O   0  0  0  0  0  0
  -28.4980  -21.6816   20.1383 Cl  0  0  0  0  0  0
  -31.4779  -12.3892   19.1385 H   0  0  0  0  0  0
  -30.3236  -11.2880   19.8345 H   0  0  0  0  0  0
  -29.7325  -11.7607   17.4420 H   0  0  0  0  0  0
  -29.6797  -13.4765   17.7766 H   0  0  0  0  0  0
  -27.8346  -11.3003   18.8311 H   0  0  0  0  0  0
  -27.3759  -12.6292   17.7986 H   0  0  0  0  0  0
  -27.7084  -14.2457   19.5795 H   0  0  0  0  0  0
  -28.6916  -11.9622   21.3604 H   0  0  0  0  0  0
  -28.4896  -13.6079   21.8810 H   0  0  0  0  0  0
  -25.2776   -9.5640   22.4784 H   0  0  0  0  0  0
  -23.9997   -7.4585   22.7485 H   0  0  0  0  0  0
  -21.0850   -8.8807   19.8953 H   0  0  0  0  0  0
  -22.3764  -10.9673   19.6199 H   0  0  0  0  0  0
  -21.1998   -7.6179   23.9779 H   0  0  0  0  0  0
  -21.1470   -6.0563   25.9126 H   0  0  0  0  0  0
  -22.0578   -2.7638   23.2873 H   0  0  0  0  0  0
  -22.4093  -11.9867   22.4838 H   0  0  0  0  0  0
  -21.1095  -13.1243   22.2595 H   0  0  0  0  0  0
  -24.6383  -15.8232   20.5111 H   0  0  0  0  0  0
  -26.2652  -15.6443   20.0867 H   0  0  0  0  0  0
  -26.7047  -32.5588   23.1207 H   0  0  0  0  0  0
  -25.0031  -33.9789   25.0550 H   0  0  0  0  0  0
  -22.6936  -31.3018   21.3948 H   0  0  0  0  0  0
  -23.3745  -35.9657   23.3363 H   0  0  0  0  0  0
  -24.3568  -36.8869   22.2055 H   0  0  0  0  0  0
  -23.7208  -37.6550   23.6598 H   0  0  0  0  0  0
  -26.0298  -31.5980   20.5901 H   0  0  0  0  0  0
  -26.8169  -30.9067   21.9790 H   0  0  0  0  0  0
  -28.1072  -29.1357   21.1855 H   0  0  0  0  0  0
  -26.1330  -25.9846   19.0059 H   0  0  0  0  0  0
  -24.0184  -27.2795   19.0268 H   0  0  0  0  0  0
  -23.7236  -30.5755   19.3922 H   0  0  0  0  0  0
  -22.7516  -29.2167   19.8704 H   0  0  0  0  0  0
  -25.1271  -36.2069   25.0857 H   0  0  0  0  0  0
  -20.9934  -28.3259   24.1411 H   0  0  0  0  0  0
  -20.5615  -26.2295   23.3590 H   0  0  0  0  0  0
  -21.6624  -26.7422   22.1236 H   0  0  0  0  0  0
  -19.6934  -25.6293   21.1223 H   0  0  0  0  0  0
  -19.6732  -27.3171   20.6692 H   0  0  0  0  0  0
  -17.4188  -26.6629   21.3989 H   0  0  0  0  0  0
  -18.0361  -26.0074   22.8992 H   0  0  0  0  0  0
  -19.7925  -30.7223   24.2294 H   0  0  0  0  0  0
  -17.5032  -31.6279   24.5161 H   0  0  0  0  0  0
  -15.5356  -30.3028   23.7671 H   0  0  0  0  0  0
  -15.8620  -28.0852   22.7087 H   0  0  0  0  0  0
  -24.5881  -30.7021   25.7819 H   0  0  0  0  0  0
  -24.8858  -32.2820   26.4963 H   0  0  0  0  0  0
  -25.8053  -30.8834   27.0255 H   0  0  0  0  0  0
  -26.2889  -29.6805   24.1161 H   0  0  0  0  0  0
  -27.4142  -29.7346   25.4556 H   0  0  0  0  0  0
  -27.8669  -30.4478   23.9244 H   0  0  0  0  0  0
  -27.2755  -33.3595   26.2092 H   0  0  0  0  0  0
  -28.3822  -32.6816   25.0246 H   0  0  0  0  0  0
  -28.0755  -31.8361   26.5326 H   0  0  0  0  0  0
  -28.2643  -38.0082   24.7497 H   0  0  0  0  0  0
  -28.1041  -36.2627   24.6347 H   0  0  0  0  0  0
  -27.2293  -37.1535   25.8868 H   0  0  0  0  0  0
  -20.9286  -29.8795   21.6912 H   0  0  0  0  0  0
  -26.0235  -38.2913   24.1386 H   0  0  0  0  0  0
  -32.2009  -17.4590   19.8117 H   0  0  0  0  0  0
  -28.1795  -18.9114   20.1624 H   0  0  0  0  0  0
  -31.6365  -24.1712   23.8949 H   0  0  0  0  0  0
  -30.0055  -24.0608   23.2732 H   0  0  0  0  0  0
  -32.2776  -25.7972   22.1735 H   0  0  0  0  0  0
  -30.9038  -26.3899   23.0540 H   0  0  0  0  0  0
  -30.9615  -26.5056   20.4520 H   0  0  0  0  0  0
  -34.0056  -18.8601   19.6835 H   0  0  0  0  0  0
  -33.9014  -20.3625   20.5909 H   0  0  0  0  0  0
  -33.7237  -20.3682   18.8284 H   0  0  0  0  0  0
  -31.4162  -22.4249   18.7143 H   0  0  0  0  0  0
  -32.6928  -22.1991   19.8150 H   0  0  0  0  0  0
  -29.9576  -16.2843   18.7878 H   0  0  0  0  0  0
  -28.5203  -16.6513   19.6823 H   0  0  0  0  0  0
  -28.9771  -27.0102   21.9581 H   0  0  0  0  0  0
  -28.3616  -25.4134   21.5896 H   0  0  0  0  0  0
  -29.0547  -15.2906   21.3103 H   0  0  0  0  0  0
  1 25  1  0  0  0
  1 30  2  0  0  0
  1 87  1  0  0  0
  2  3  1  0  0  0
  2 25  1  0  0  0
  2 91  1  0  0  0
  2 92  1  0  0  0
  3  4  1  0  0  0
  3 93  1  0  0  0
  3 94  1  0  0  0
  4  5  1  0  0  0
  4 95  1  0  0  0
  4 96  1  0  0  0
  5  6  1  0  0  0
  5 26  1  0  0  0
  5 97  1  0  0  0
  6 25  1  0  0  0
  6 98  1  0  0  0
  6 99  1  0  0  0
  7  8  2  0  0  0
  7 26  1  0  0  0
  7 29  1  0  0  0
  8  9  1  0  0  0
  8 22  1  0  0  0
  9 10  1  0  0  0
  9 27  2  0  0  0
 10 11  2  0  0  0
 10 15  1  0  0  0
 11 12  1  0  0  0
 11100  1  0  0  0
 12 13  2  0  0  0
 12101  1  0  0  0
 13 14  1  0  0  0
 13 31  1  0  0  0
 14 15  2  0  0  0
 14102  1  0  0  0
 15103  1  0  0  0
 16 17  2  0  0  0
 16 21  1  0  0  0
 16 31  1  0  0  0
 17 18  1  0  0  0
 17104  1  0  0  0
 18 19  2  0  0  0
 18105  1  0  0  0
 19 20  1  0  0  0
 19 24  1  0  0  0
 20 21  2  0  0  0
 20106  1  0  0  0
 21 23  1  0  0  0
 22 28  1  0  0  0
 22 32  2  0  0  0
 26 27  1  0  0  0
 28107  1  0  0  0
 28108  1  0  0  0
 29109  1  0  0  0
 29110  1  0  0  0
 33 34  1  0  0  0
 33 66  1  0  0  0
 33 70  2  0  0  0
 34 36  1  0  0  0
 34 59  1  0  0  0
 34111  1  0  0  0
 35 44  2  0  0  0
 35 45  1  0  0  0
 35 68  1  0  0  0
 36 56  1  0  0  0
 36112  1  0  0  0
 37 39  1  0  0  0
 37 47  1  0  0  0
 37 66  1  0  0  0
 37113  1  0  0  0
 38 43  2  0  0  0
 38 46  1  0  0  0
 38 47  1  0  0  0
 39 64  1  0  0  0
 39 67  2  0  0  0
 40 52  1  0  0  0
 40 53  2  0  0  0
 40 58  1  0  0  0
 41114  1  0  0  0
 41115  1  0  0  0
 41116  1  0  0  0
 41 48  1  0  0  0
 42 43  1  0  0  0
 42 66  1  0  0  0
 42117  1  0  0  0
 42118  1  0  0  0
 43 44  1  0  0  0
 44119  1  0  0  0
 45 46  2  0  0  0
 45120  1  0  0  0
 46121  1  0  0  0
 47122  1  0  0  0
 47123  1  0  0  0
 48 56  1  0  0  0
 48 65  1  0  0  0
 48124  1  0  0  0
 49 50  1  0  0  0
 49 53  1  0  0  0
 49 64  1  0  0  0
 49125  1  0  0  0
 50 51  1  0  0  0
 50126  1  0  0  0
 50127  1  0  0  0
 51 52  1  0  0  0
 51128  1  0  0  0
 51129  1  0  0  0
 52130  1  0  0  0
 52131  1  0  0  0
 53 54  1  0  0  0
 54 55  2  0  0  0
 54132  1  0  0  0
 55 57  1  0  0  0
 55133  1  0  0  0
 56 69  2  0  0  0
 57 58  2  0  0  0
 57134  1  0  0  0
 58135  1  0  0  0
 59 60  1  0  0  0
 59 61  1  0  0  0
 59 62  1  0  0  0
 60136  1  0  0  0
 60137  1  0  0  0
 60138  1  0  0  0
 61139  1  0  0  0
 61140  1  0  0  0
 61141  1  0  0  0
 62142  1  0  0  0
 62143  1  0  0  0
 62144  1  0  0  0
 63 65  1  0  0  0
 63145  1  0  0  0
 63146  1  0  0  0
 63147  1  0  0  0
 64148  1  0  0  0
 65149  1  0  0  0
 68 85  1  0  0  0
 71 73  2  0  0  0
 71 74  1  0  0  0
 71150  1  0  0  0
 72 73  1  0  0  0
 72 76  2  0  0  0
 72151  1  0  0  0
 73 84  1  0  0  0
 74 75  2  0  0  0
 74 82  1  0  0  0
 75 76  1  0  0  0
 75 83  1  0  0  0
 76 90  1  0  0  0
 77 79  1  0  0  0
 77 86  1  0  0  0
 77 88  2  0  0  0
 78 81  1  0  0  0
 78 86  1  0  0  0
 78 89  2  0  0  0
 79 80  1  0  0  0
 79152  1  0  0  0
 79153  1  0  0  0
 80 81  1  0  0  0
 80154  1  0  0  0
 80155  1  0  0  0
 81 85  1  0  0  0
 81156  1  0  0  0
 82157  1  0  0  0
 82158  1  0  0  0
 82159  1  0  0  0
 83 86  1  0  0  0
 83160  1  0  0  0
 83161  1  0  0  0
 84 87  1  0  0  0
 84162  1  0  0  0
 84163  1  0  0  0
 85164  1  0  0  0
 85165  1  0  0  0
 87166  1  0  0  0
M  ISO  4   1 100  68 101  85 101  87 100
M  END
> <chiral flag>
0

> <version>
0

> <s_m_source_file>
/data/baiqing/PycharmProjects/Reinvent-master-3.2/result/LINK_invent/BTK/process_docking_weight1_custom_product_contain_oxygen_bond_distance_aromatic_linkinvent_7_9_3/rearranged_h_0055.sdf

> <i_m_source_file_index>
69

> <r_mmod_Potential_Energy-OPLS-2005>
-60.5145454406738

> <r_mmod_Stretch_Energy-OPLS-2005>
50.5775947570801

> <r_mmod_Bend_Energy-OPLS-2005>
118.192497253418

> <r_mmod_Torsional_Energy-OPLS-2005>
264.734130859375

> <r_mmod_Improper_Torsional_Energy-OPLS-2005>
12.8303785324097

> <r_mmod_Van_der_Waal_Energy-OPLS-2005>
165.286468505859

> <r_mmod_Electrostatic_Energy-OPLS-2005>
-440.908416748047

> <r_mmod_Solvation_Energy-OPLS-2005>
-245.018264770508

> <b_mmod_Minimization_Converged-OPLS-2005>
0

> <r_mmod_RMS_Derivative-OPLS-2005>
4.49780416488647

$$$$
69
                    3D
 Structure written by MMmdl.
180190  0  0  1  0            999 V2000
  -30.7213  -14.4055   20.7545 C   0  0  0  0  0  0
  -30.4037  -12.3384   19.4143 C   0  0  0  0  0  0
  -29.4784  -12.5601   18.1982 C   0  0  0  0  0  0
  -28.0000  -12.3900   18.6019 C   0  0  0  0  0  0
  -27.6361  -13.2016   19.8715 C   0  0  2  0  0  0
  -28.6701  -12.9505   20.9923 C   0  0  0  0  0  0
  -25.2320  -13.8041   20.5664 C   0  0  0  0  0  0
  -24.1615  -13.0296   20.9084 C   0  0  0  0  0  0
  -24.6212  -11.6810   20.8669 C   0  0  0  0  0  0
  -23.8926  -10.4224   21.0382 C   0  0  0  0  0  0
  -24.3516   -9.4204   21.9202 C   0  0  0  0  0  0
  -23.6208   -8.2246   22.0789 C   0  0  0  0  0  0
  -22.4206   -8.0249   21.3552 C   0  0  0  0  0  0
  -21.9807   -9.0195   20.4670 C   0  0  0  0  0  0
  -22.7103  -10.2078   20.3053 C   0  0  0  0  0  0
  -21.6837   -6.0707   22.5245 C   0  0  0  0  0  0
  -21.4006   -6.5610   23.8181 C   0  0  0  0  0  0
  -21.3646   -5.6752   24.9123 C   0  0  0  0  0  0
  -21.6022   -4.3014   24.7161 C   0  0  0  0  0  0
  -21.8828   -3.8124   23.4279 C   0  0  0  0  0  0
  -21.9204   -4.6955   22.3346 C   0  0  0  0  0  0
  -22.7679  -13.5163   21.1762 C   0  0  0  0  0  0
  -22.1705   -4.2162   21.0921 F   0  0  0  0  0  0
  -21.5619   -3.4507   25.7682 F   0  0  0  0  0  0
  -30.0036  -13.2837   20.4676 N   0  0  0  0  0  0
  -26.2793  -12.9263   20.3327 N   0  0  0  0  0  0
  -25.9139  -11.6425   20.5729 N   0  0  0  0  0  0
  -22.0295  -12.8300   22.0403 N   0  0  0  0  0  0
  -25.3793  -15.1770   20.4246 N   0  0  0  0  0  0
  -31.7912  -14.6711   20.1884 O   0  0  0  0  0  0
  -21.6611   -6.8837   21.4210 O   0  0  0  0  0  0
  -22.3417  -14.5479   20.6607 O   0  0  0  0  0  0
  -24.6152  -31.8677   23.2157 C   0  0  0  0  0  0
  -25.9079  -32.4783   23.8409 C   0  0  1  0  0  0
  -27.2286  -27.4499   20.0545 C   0  0  0  0  0  0
  -25.5976  -33.8598   24.2356 N   0  0  0  0  0  0
  -23.3972  -30.4955   21.5563 C   0  0  2  0  0  0
  -24.8352  -28.9634   20.1158 C   0  0  0  0  0  0
  -22.7416  -29.4661   22.5023 C   0  0  0  0  0  0
  -18.0249  -28.1351   22.8476 C   0  0  0  0  0  0
  -24.1463  -36.7256   23.2644 C   0  0  0  0  0  0
  -25.9288  -30.8275   21.3719 C   0  0  0  0  0  0
  -26.0007  -29.4686   20.7120 C   0  0  0  0  0  0
  -27.1967  -28.7167   20.6870 C   0  0  0  0  0  0
  -26.0351  -26.9566   19.4713 C   0  0  0  0  0  0
  -24.8473  -27.7005   19.5047 C   0  0  0  0  0  0
  -23.6007  -29.8300   20.1684 C   0  0  0  0  0  0
  -25.4077  -36.3067   24.0353 C   0  0  1  0  0  0
  -20.5849  -28.3637   23.1325 C   0  0  2  0  0  0
  -20.6752  -26.9388   22.5408 C   0  0  0  0  0  0
  -19.5730  -26.6360   21.5186 C   0  0  0  0  0  0
  -18.1910  -26.7903   22.1596 C   0  0  0  0  0  0
  -19.1520  -28.8811   23.2887 C   0  0  0  0  0  0
  -18.9446  -30.1422   23.8874 C   0  0  0  0  0  0
  -17.6457  -30.6575   24.0530 C   0  0  0  0  0  0
  -25.9038  -34.9440   23.5138 C   0  0  0  0  0  0
  -16.5326  -29.9064   23.6323 C   0  0  0  0  0  0
  -16.7256  -28.6484   23.0352 C   0  0  0  0  0  0
  -26.4509  -31.6584   25.0731 C   0  0  0  0  0  0
  -25.3804  -31.3702   26.1504 C   0  0  0  0  0  0
  -27.0357  -30.3031   24.6123 C   0  0  0  0  0  0
  -27.6076  -32.4315   25.7502 C   0  0  0  0  0  0
  -27.5564  -37.1772   24.8477 C   0  0  0  0  0  0
  -21.4166  -29.3009   22.3787 N   0  0  0  0  0  0
  -26.4252  -37.3769   23.9449 N   0  0  0  0  0  0
  -24.6647  -31.0791   22.1048 N   0  0  0  0  0  0
  -23.4223  -28.8194   23.3045 O   0  0  0  0  0  0
  -28.4113  -26.7329   20.0100 O   0  0  0  0  0  0
  -26.5566  -34.8910   22.4672 O   0  0  0  0  0  0
  -23.5361  -32.1443   23.7568 O   0  0  0  0  0  0
  -27.9428  -23.0943   19.4441 C   0  0  0  0  0  0
  -26.8947  -17.8182   21.6689 C   0  0  0  0  0  0
  -28.5766  -16.5119   20.4942 C   0  0  0  0  0  0
  -28.8920  -25.3489   18.0892 C   0  0  0  0  0  0
  -28.4198  -22.9433   18.1205 C   0  0  0  0  0  0
  -27.9654  -24.3443   20.1044 C   0  0  0  0  0  0
  -27.4602  -17.3759   20.4555 C   0  0  0  0  0  0
  -27.4084  -17.3741   22.9079 C   0  0  0  0  0  0
  -28.8880  -24.0948   17.4335 C   0  0  0  0  0  0
  -28.5537  -16.5332   22.9416 C   0  0  0  0  0  0
  -29.1282  -16.0711   21.7235 C   0  0  0  0  0  0
  -28.4325  -25.4875   19.4182 C   0  0  0  0  0  0
  -28.7094  -19.0991   18.2526 C   0  0  0  0  0  0
  -29.2244  -20.5317   18.3543 C   0  0  0  0  0  0
  -27.0098  -21.0252   17.1285 C   0  0  0  0  0  0
  -26.4483  -20.0464   18.1793 C   0  0  0  0  0  0
  -28.4257  -21.5394   17.4858 C   0  0  1  0  0  0
  -27.4562  -24.4489   21.5341 C   0  0  0  0  0  0
  -26.6543  -17.7651   24.1749 C   0  0  0  0  0  0
  -29.3692  -24.0354   15.9888 C   0  0  0  0  0  0
  -29.1561  -16.0881   24.2719 C   0  0  0  0  0  0
  -26.8181  -17.7602   19.1153 C   0  0  0  0  0  0
  -27.3877  -18.9553   18.4896 N   0  0  0  0  0  0
  -30.2536  -15.1841   21.7544 N   0  0  0  0  0  0
  -29.5002  -18.1689   18.0820 O   0  0  0  0  0  0
  -31.4513  -12.4452   19.1257 H   0  0  0  0  0  0
  -30.3032  -11.3206   19.7920 H   0  0  0  0  0  0
  -29.7377  -11.8735   17.3881 H   0  0  0  0  0  0
  -29.6245  -13.5682   17.8080 H   0  0  0  0  0  0
  -27.8138  -11.3317   18.7841 H   0  0  0  0  0  0
  -27.3560  -12.6849   17.7726 H   0  0  0  0  0  0
  -27.6707  -14.2487   19.5846 H   0  0  0  0  0  0
  -28.6513  -11.8976   21.2803 H   0  0  0  0  0  0
  -28.3934  -13.4924   21.8984 H   0  0  0  0  0  0
  -25.2665   -9.5781   22.4766 H   0  0  0  0  0  0
  -23.9948   -7.4702   22.7554 H   0  0  0  0  0  0
  -21.0729   -8.8653   19.9004 H   0  0  0  0  0  0
  -22.3525  -10.9597   19.6160 H   0  0  0  0  0  0
  -21.2018   -7.6122   23.9681 H   0  0  0  0  0  0
  -21.1471   -6.0464   25.9018 H   0  0  0  0  0  0
  -22.0642   -2.7594   23.2731 H   0  0  0  0  0  0
  -22.3754  -11.9952   22.4886 H   0  0  0  0  0  0
  -21.0974  -13.1580   22.2580 H   0  0  0  0  0  0
  -24.6069  -15.8017   20.6308 H   0  0  0  0  0  0
  -26.2730  -15.6568   20.3933 H   0  0  0  0  0  0
  -26.7141  -32.5468   23.1169 H   0  0  0  0  0  0
  -25.0282  -33.9762   25.0603 H   0  0  0  0  0  0
  -22.6796  -31.3077   21.4220 H   0  0  0  0  0  0
  -23.3741  -35.9580   23.3295 H   0  0  0  0  0  0
  -24.3564  -36.8852   22.2064 H   0  0  0  0  0  0
  -23.7199  -37.6461   23.6641 H   0  0  0  0  0  0
  -26.0567  -31.6024   20.6132 H   0  0  0  0  0  0
  -26.8161  -30.8665   21.9954 H   0  0  0  0  0  0
  -28.0953  -29.1068   21.1481 H   0  0  0  0  0  0
  -26.0071  -25.9950   18.9774 H   0  0  0  0  0  0
  -23.9527  -27.3031   19.0413 H   0  0  0  0  0  0
  -23.7045  -30.6023   19.4036 H   0  0  0  0  0  0
  -22.7208  -29.2492   19.8788 H   0  0  0  0  0  0
  -25.1243  -36.1922   25.0847 H   0  0  0  0  0  0
  -20.9892  -28.3172   24.1454 H   0  0  0  0  0  0
  -20.5611  -26.2256   23.3590 H   0  0  0  0  0  0
  -21.6642  -26.7416   22.1221 H   0  0  0  0  0  0
  -19.6897  -25.6269   21.1220 H   0  0  0  0  0  0
  -19.6664  -27.3161   20.6703 H   0  0  0  0  0  0
  -17.4188  -26.6643   21.3992 H   0  0  0  0  0  0
  -18.0301  -26.0039   22.8986 H   0  0  0  0  0  0
  -19.7944  -30.7237   24.2243 H   0  0  0  0  0  0
  -17.5015  -31.6253   24.5161 H   0  0  0  0  0  0
  -15.5340  -30.2939   23.7700 H   0  0  0  0  0  0
  -15.8638  -28.0780   22.7079 H   0  0  0  0  0  0
  -24.5978  -30.7020   25.7904 H   0  0  0  0  0  0
  -24.8984  -32.2858   26.4952 H   0  0  0  0  0  0
  -25.8208  -30.8915   27.0262 H   0  0  0  0  0  0
  -26.2907  -29.6766   24.1203 H   0  0  0  0  0  0
  -27.4186  -29.7289   25.4575 H   0  0  0  0  0  0
  -27.8721  -30.4352   23.9248 H   0  0  0  0  0  0
  -27.2693  -33.3617   26.2089 H   0  0  0  0  0  0
  -28.3921  -32.6873   25.0362 H   0  0  0  0  0  0
  -28.0717  -31.8437   26.5439 H   0  0  0  0  0  0
  -28.2588  -38.0061   24.7528 H   0  0  0  0  0  0
  -28.1045  -36.2600   24.6271 H   0  0  0  0  0  0
  -27.2295  -37.1405   25.8882 H   0  0  0  0  0  0
  -20.9351  -29.8776   21.7030 H   0  0  0  0  0  0
  -26.0127  -38.2852   24.1426 H   0  0  0  0  0  0
  -27.5556  -22.2344   19.9740 H   0  0  0  0  0  0
  -26.0273  -18.4626   21.6415 H   0  0  0  0  0  0
  -29.0086  -16.1772   19.5658 H   0  0  0  0  0  0
  -29.2399  -26.2263   17.5628 H   0  0  0  0  0  0
  -30.2919  -20.5724   18.1447 H   0  0  0  0  0  0
  -29.1190  -20.7583   19.4150 H   0  0  0  0  0  0
  -26.3182  -21.8411   16.9114 H   0  0  0  0  0  0
  -27.0786  -20.4554   16.1968 H   0  0  0  0  0  0
  -25.5123  -19.6327   17.7945 H   0  0  0  0  0  0
  -26.2152  -20.5770   19.0997 H   0  0  0  0  0  0
  -28.9650  -21.5852   16.5407 H   0  0  0  0  0  0
  -27.5774  -23.5033   22.0631 H   0  0  0  0  0  0
  -26.3976  -24.7137   21.5337 H   0  0  0  0  0  0
  -27.9920  -25.2153   22.0947 H   0  0  0  0  0  0
  -25.6598  -18.1484   23.9355 H   0  0  0  0  0  0
  -27.1884  -18.5208   24.7516 H   0  0  0  0  0  0
  -26.4853  -16.9015   24.8198 H   0  0  0  0  0  0
  -29.5818  -25.0308   15.5952 H   0  0  0  0  0  0
  -28.6079  -23.5876   15.3513 H   0  0  0  0  0  0
  -30.2814  -23.4456   15.8983 H   0  0  0  0  0  0
  -28.7420  -16.6016   25.1417 H   0  0  0  0  0  0
  -30.2282  -16.2792   24.2933 H   0  0  0  0  0  0
  -29.0044  -15.0199   24.4054 H   0  0  0  0  0  0
  -25.7517  -17.9309   19.2817 H   0  0  0  0  0  0
  -26.8489  -16.9202   18.4227 H   0  0  0  0  0  0
  -30.9592  -15.4675   22.4180 H   0  0  0  0  0  0
  1 25  1  0  0  0
  1 30  2  0  0  0
  1 94  1  0  0  0
  2  3  1  0  0  0
  2 25  1  0  0  0
  2 96  1  0  0  0
  2 97  1  0  0  0
  3  4  1  0  0  0
  3 98  1  0  0  0
  3 99  1  0  0  0
  4  5  1  0  0  0
  4100  1  0  0  0
  4101  1  0  0  0
  5  6  1  0  0  0
  5 26  1  0  0  0
  5102  1  0  0  0
  6 25  1  0  0  0
  6103  1  0  0  0
  6104  1  0  0  0
  7  8  2  0  0  0
  7 26  1  0  0  0
  7 29  1  0  0  0
  8  9  1  0  0  0
  8 22  1  0  0  0
  9 10  1  0  0  0
  9 27  2  0  0  0
 10 11  2  0  0  0
 10 15  1  0  0  0
 11 12  1  0  0  0
 11105  1  0  0  0
 12 13  2  0  0  0
 12106  1  0  0  0
 13 14  1  0  0  0
 13 31  1  0  0  0
 14 15  2  0  0  0
 14107  1  0  0  0
 15108  1  0  0  0
 16 17  2  0  0  0
 16 21  1  0  0  0
 16 31  1  0  0  0
 17 18  1  0  0  0
 17109  1  0  0  0
 18 19  2  0  0  0
 18110  1  0  0  0
 19 20  1  0  0  0
 19 24  1  0  0  0
 20 21  2  0  0  0
 20111  1  0  0  0
 21 23  1  0  0  0
 22 28  1  0  0  0
 22 32  2  0  0  0
 26 27  1  0  0  0
 28112  1  0  0  0
 28113  1  0  0  0
 29114  1  0  0  0
 29115  1  0  0  0
 33 34  1  0  0  0
 33 66  1  0  0  0
 33 70  2  0  0  0
 34 36  1  0  0  0
 34 59  1  0  0  0
 34116  1  0  0  0
 35 44  2  0  0  0
 35 45  1  0  0  0
 35 68  1  0  0  0
 36 56  1  0  0  0
 36117  1  0  0  0
 37 39  1  0  0  0
 37 47  1  0  0  0
 37 66  1  0  0  0
 37118  1  0  0  0
 38 43  2  0  0  0
 38 46  1  0  0  0
 38 47  1  0  0  0
 39 64  1  0  0  0
 39 67  2  0  0  0
 40 52  1  0  0  0
 40 53  2  0  0  0
 40 58  1  0  0  0
 41119  1  0  0  0
 41120  1  0  0  0
 41121  1  0  0  0
 41 48  1  0  0  0
 42 43  1  0  0  0
 42 66  1  0  0  0
 42122  1  0  0  0
 42123  1  0  0  0
 43 44  1  0  0  0
 44124  1  0  0  0
 45 46  2  0  0  0
 45125  1  0  0  0
 46126  1  0  0  0
 47127  1  0  0  0
 47128  1  0  0  0
 48 56  1  0  0  0
 48 65  1  0  0  0
 48129  1  0  0  0
 49 50  1  0  0  0
 49 53  1  0  0  0
 49 64  1  0  0  0
 49130  1  0  0  0
 50 51  1  0  0  0
 50131  1  0  0  0
 50132  1  0  0  0
 51 52  1  0  0  0
 51133  1  0  0  0
 51134  1  0  0  0
 52135  1  0  0  0
 52136  1  0  0  0
 53 54  1  0  0  0
 54 55  2  0  0  0
 54137  1  0  0  0
 55 57  1  0  0  0
 55138  1  0  0  0
 56 69  2  0  0  0
 57 58  2  0  0  0
 57139  1  0  0  0
 58140  1  0  0  0
 59 60  1  0  0  0
 59 61  1  0  0  0
 59 62  1  0  0  0
 60141  1  0  0  0
 60142  1  0  0  0
 60143  1  0  0  0
 61144  1  0  0  0
 61145  1  0  0  0
 61146  1  0  0  0
 62147  1  0  0  0
 62148  1  0  0  0
 62149  1  0  0  0
 63 65  1  0  0  0
 63150  1  0  0  0
 63151  1  0  0  0
 63152  1  0  0  0
 64153  1  0  0  0
 65154  1  0  0  0
 68 82  1  0  0  0
 71 75  2  0  0  0
 71 76  1  0  0  0
 71155  1  0  0  0
 72 77  2  0  0  0
 72 78  1  0  0  0
 72156  1  0  0  0
 73 77  1  0  0  0
 73 81  2  0  0  0
 73157  1  0  0  0
 74 79  2  0  0  0
 74 82  1  0  0  0
 74158  1  0  0  0
 75 79  1  0  0  0
 75 87  1  0  0  0
 76 82  2  0  0  0
 76 88  1  0  0  0
 77 92  1  0  0  0
 78 80  2  0  0  0
 78 89  1  0  0  0
 79 90  1  0  0  0
 80 81  1  0  0  0
 80 91  1  0  0  0
 81 94  1  0  0  0
 83 84  1  0  0  0
 83 93  1  0  0  0
 83 95  2  0  0  0
 84 87  1  0  0  0
 84159  1  0  0  0
 84160  1  0  0  0
 85 86  1  0  0  0
 85 87  1  0  0  0
 85161  1  0  0  0
 85162  1  0  0  0
 86 93  1  0  0  0
 86163  1  0  0  0
 86164  1  0  0  0
 87165  1  0  0  0
 88166  1  0  0  0
 88167  1  0  0  0
 88168  1  0  0  0
 89169  1  0  0  0
 89170  1  0  0  0
 89171  1  0  0  0
 90172  1  0  0  0
 90173  1  0  0  0
 90174  1  0  0  0
 91175  1  0  0  0
 91176  1  0  0  0
 91177  1  0  0  0
 92 93  1  0  0  0
 92178  1  0  0  0
 92179  1  0  0  0
 94180  1  0  0  0
M  ISO  4   1 100  68 101  82 101  94 100
M  END
> <chiral flag>
0

> <version>
0

> <s_m_source_file>
/data/baiqing/PycharmProjects/Reinvent-master-3.2/result/LINK_invent/BTK/process_docking_weight1_custom_product_contain_oxygen_bond_distance_aromatic_linkinvent_7_9_3/rearranged_h_0055.sdf

> <i_m_source_file_index>
70

> <r_mmod_Potential_Energy-OPLS-2005>
10.9659719467163

> <r_mmod_Stretch_Energy-OPLS-2005>
43.8899002075195

> <r_mmod_Bend_Energy-OPLS-2005>
105.113136291504

> <r_mmod_Torsional_Energy-OPLS-2005>
306.877899169922

> <r_mmod_Improper_Torsional_Energy-OPLS-2005>
5.87669658660889

> <r_mmod_Van_der_Waal_Energy-OPLS-2005>
190.838821411133

> <r_mmod_Electrostatic_Energy-OPLS-2005>
-446.319732666016

> <r_mmod_Solvation_Energy-OPLS-2005>
-208.838256835938

> <b_mmod_Minimization_Converged-OPLS-2005>
0

> <r_mmod_RMS_Derivative-OPLS-2005>
7.62032079696655

$$$$
70
                    3D
 Structure written by MMmdl.
166174  0  0  1  0            999 V2000
  -31.4607  -13.1313   21.1795 C   0  0  0  0  0  0
  -31.3204  -13.1312   18.6281 C   0  0  0  0  0  0
  -30.0985  -14.4916   17.9368 C   0  0  0  0  0  0
  -28.1536  -14.7232   18.3731 C   0  0  0  0  0  0
  -27.3121  -13.6651   19.8327 C   0  0  2  0  0  0
  -29.8225  -11.4625   20.2479 C   0  0  0  0  0  0
  -24.8477  -14.1877   20.8357 C   0  0  0  0  0  0
  -23.8021  -13.3011   20.9930 C   0  0  0  0  0  0
  -24.2548  -11.9765   21.0201 C   0  0  0  0  0  0
  -23.7382  -10.5795   21.0949 C   0  0  0  0  0  0
  -24.2854   -9.5588   21.9231 C   0  0  0  0  0  0
  -23.6367   -8.3033   22.0545 C   0  0  0  0  0  0
  -22.4390   -8.0495   21.3420 C   0  0  0  0  0  0
  -21.9636   -9.0251   20.4505 C   0  0  0  0  0  0
  -22.6100  -10.2645   20.3206 C   0  0  0  0  0  0
  -21.7106   -6.0806   22.5244 C   0  0  0  0  0  0
  -21.4200   -6.5731   23.8160 C   0  0  0  0  0  0
  -21.3707   -5.6886   24.9130 C   0  0  0  0  0  0
  -21.6021   -4.3125   24.7213 C   0  0  0  0  0  0
  -21.8784   -3.8186   23.4348 C   0  0  0  0  0  0
  -21.9271   -4.6999   22.3401 C   0  0  0  0  0  0
  -22.4219  -13.6727   21.1846 C   0  0  0  0  0  0
  -22.1703   -4.2147   21.0988 F   0  0  0  0  0  0
  -21.5557   -3.4613   25.7730 F   0  0  0  0  0  0
  -31.2392  -12.2740   20.0657 N   0  0  0  0  0  0
  -25.9231  -13.4665   20.6866 N   0  0  0  0  0  0
  -25.4368  -12.2546   21.2564 N   0  0  0  0  0  0
  -21.7417  -12.9187   22.0366 N   0  0  0  0  0  0
  -25.0517  -15.5235   20.8219 N   0  0  0  0  0  0
  -32.1007  -14.1929   20.9786 O   0  0  0  0  0  0
  -21.7088   -6.8847   21.4124 O   0  0  0  0  0  0
  -21.9906  -14.6738   20.6372 O   0  0  0  0  0  0
  -24.6899  -31.8039   23.1635 C   0  0  0  0  0  0
  -25.9517  -32.4451   23.8098 C   0  0  1  0  0  0
  -26.8908  -26.6475   20.0216 C   0  0  0  0  0  0
  -25.6110  -33.8291   24.1967 N   0  0  0  0  0  0
  -23.4876  -30.4460   21.5329 C   0  0  2  0  0  0
  -24.8608  -28.8256   20.0743 C   0  0  0  0  0  0
  -22.7705  -29.4399   22.4742 C   0  0  0  0  0  0
  -18.0324  -28.1417   22.8455 C   0  0  0  0  0  0
  -24.1499  -36.7132   23.2643 C   0  0  0  0  0  0
  -26.0776  -30.4932   21.4302 C   0  0  0  0  0  0
  -26.0732  -29.0775   20.7261 C   0  0  0  0  0  0
  -27.1068  -27.9989   20.6830 C   0  0  0  0  0  0
  -25.6981  -26.6541   19.3070 C   0  0  0  0  0  0
  -24.7156  -27.6486   19.3486 C   0  0  0  0  0  0
  -23.7067  -29.8164   20.1413 C   0  0  0  0  0  0
  -25.4157  -36.2885   24.0269 C   0  0  1  0  0  0
  -20.5955  -28.3768   23.1152 C   0  0  2  0  0  0
  -20.6806  -26.9444   22.5383 C   0  0  0  0  0  0
  -19.5774  -26.6375   21.5206 C   0  0  0  0  0  0
  -18.1958  -26.7945   22.1619 C   0  0  0  0  0  0
  -19.1590  -28.8914   23.2789 C   0  0  0  0  0  0
  -18.9501  -30.1501   23.8830 C   0  0  0  0  0  0
  -17.6495  -30.6604   24.0552 C   0  0  0  0  0  0
  -25.9164  -34.9280   23.4939 C   0  0  0  0  0  0
  -16.5382  -29.9090   23.6353 C   0  0  0  0  0  0
  -16.7305  -28.6512   23.0365 C   0  0  0  0  0  0
  -26.4644  -31.6506   25.0745 C   0  0  0  0  0  0
  -25.3684  -31.3855   26.1343 C   0  0  0  0  0  0
  -27.0581  -30.2832   24.6712 C   0  0  0  0  0  0
  -27.6080  -32.4378   25.7566 C   0  0  0  0  0  0
  -27.5570  -37.1724   24.8461 C   0  0  0  0  0  0
  -21.4365  -29.3048   22.3494 N   0  0  0  0  0  0
  -26.4265  -37.3664   23.9419 N   0  0  0  0  0  0
  -24.7815  -30.9471   22.0916 N   0  0  0  0  0  0
  -23.4212  -28.7911   23.2970 O   0  0  0  0  0  0
  -27.5493  -25.2638   19.9365 O   0  0  0  0  0  0
  -26.5772  -34.8859   22.4537 O   0  0  0  0  0  0
  -23.5947  -32.1188   23.6621 O   0  0  0  0  0  0
  -28.9105  -12.5548   18.5650 C   0  0  0  0  0  0
  -29.4197  -13.6880   20.1175 C   0  0  0  0  0  0
  -27.7740  -11.7858   21.1522 C   0  0  0  0  0  0
  -27.1046  -11.3637   19.5394 C   0  0  0  0  0  0
  -28.0187  -11.4378   18.4837 C   0  0  0  0  0  0
  -28.8774  -13.1070   21.4997 C   0  0  0  0  0  0
  -25.8530  -12.1761   18.4286 C   0  0  0  0  0  0
  -27.1411  -21.9431   19.2921 C   0  0  0  0  0  0
  -25.6030  -17.3351   18.6197 C   0  0  0  0  0  0
  -27.9628  -10.5513   17.2398 C   0  0  0  0  0  0
  -24.2097  -13.5077   17.1974 C   0  0  0  0  0  0
  -26.1638  -20.3629   19.1374 C   0  0  0  0  0  0
  -26.7167  -23.7279   19.6268 C   0  0  0  0  0  0
  -25.7200  -15.5632   17.9474 C   0  0  0  0  0  0
  -30.3071  -13.1182   22.0533 N   0  0  0  0  0  0
  -26.4052  -18.6634   18.6624 N   0  0  0  0  0  0
  -25.4268  -13.7180   18.0321 N   0  0  0  0  0  0
  -25.1597  -11.2684   17.9487 O   0  0  0  0  0  0
  -28.3512  -21.7587   19.1227 O   0  0  0  0  0  0
  -24.4785  -17.5646   19.0720 O   0  0  0  0  0  0
  -32.3169  -13.5731   18.5830 H   0  0  0  0  0  0
  -31.4108  -12.3553   17.8657 H   0  0  0  0  0  0
  -30.1940  -14.4948   16.8497 H   0  0  0  0  0  0
  -30.5610  -15.4444   18.2023 H   0  0  0  0  0  0
  -27.7548  -14.4417   17.3998 H   0  0  0  0  0  0
  -28.0451  -15.7928   18.5472 H   0  0  0  0  0  0
  -27.3882  -14.5991   20.4216 H   0  0  0  0  0  0
  -29.9169  -10.6022   19.5741 H   0  0  0  0  0  0
  -29.9212  -10.8795   21.1796 H   0  0  0  0  0  0
  -25.1742   -9.7647   22.5032 H   0  0  0  0  0  0
  -24.0513   -7.5566   22.7162 H   0  0  0  0  0  0
  -21.0700   -8.8313   19.8734 H   0  0  0  0  0  0
  -22.1931  -11.0067   19.6541 H   0  0  0  0  0  0
  -21.2285   -7.6263   23.9651 H   0  0  0  0  0  0
  -21.1513   -6.0647   25.9017 H   0  0  0  0  0  0
  -22.0471   -2.7639   23.2854 H   0  0  0  0  0  0
  -22.1726  -12.1317   22.4985 H   0  0  0  0  0  0
  -20.7790  -13.1407   22.2463 H   0  0  0  0  0  0
  -24.3002  -16.1956   20.6967 H   0  0  0  0  0  0
  -25.9666  -15.9484   20.7748 H   0  0  0  0  0  0
  -26.7565  -32.4801   23.0754 H   0  0  0  0  0  0
  -25.0194  -33.9335   25.0079 H   0  0  0  0  0  0
  -22.8129  -31.2930   21.3910 H   0  0  0  0  0  0
  -23.3802  -35.9418   23.3227 H   0  0  0  0  0  0
  -24.3570  -36.8879   22.2074 H   0  0  0  0  0  0
  -23.7208  -37.6265   23.6774 H   0  0  0  0  0  0
  -26.3262  -31.2343   20.6694 H   0  0  0  0  0  0
  -26.9200  -30.4986   22.1085 H   0  0  0  0  0  0
  -28.0243  -28.1545   21.2323 H   0  0  0  0  0  0
  -25.4294  -25.7991   18.7121 H   0  0  0  0  0  0
  -23.7976  -27.4762   18.8023 H   0  0  0  0  0  0
  -23.9139  -30.6085   19.4207 H   0  0  0  0  0  0
  -22.7864  -29.3428   19.7949 H   0  0  0  0  0  0
  -25.1358  -36.1636   25.0755 H   0  0  0  0  0  0
  -21.0034  -28.3382   24.1279 H   0  0  0  0  0  0
  -20.5705  -26.2385   23.3629 H   0  0  0  0  0  0
  -21.6664  -26.7426   22.1174 H   0  0  0  0  0  0
  -19.6937  -25.6270   21.1277 H   0  0  0  0  0  0
  -19.6713  -27.3149   20.6708 H   0  0  0  0  0  0
  -17.4222  -26.6673   21.4029 H   0  0  0  0  0  0
  -18.0365  -26.0107   22.9037 H   0  0  0  0  0  0
  -19.7977  -30.7334   24.2168 H   0  0  0  0  0  0
  -17.5049  -31.6278   24.5167 H   0  0  0  0  0  0
  -15.5381  -30.2973   23.7725 H   0  0  0  0  0  0
  -15.8701  -28.0815   22.7120 H   0  0  0  0  0  0
  -24.5886  -30.7186   25.7646 H   0  0  0  0  0  0
  -24.8860  -32.3092   26.4548 H   0  0  0  0  0  0
  -25.7838  -30.9157   27.0266 H   0  0  0  0  0  0
  -26.3292  -29.6397   24.1774 H   0  0  0  0  0  0
  -27.4030  -29.7343   25.5486 H   0  0  0  0  0  0
  -27.9280  -30.3937   24.0235 H   0  0  0  0  0  0
  -27.2609  -33.3746   26.1939 H   0  0  0  0  0  0
  -28.4000  -32.6834   25.0479 H   0  0  0  0  0  0
  -28.0631  -31.8651   26.5656 H   0  0  0  0  0  0
  -28.2514  -38.0091   24.7576 H   0  0  0  0  0  0
  -28.1140  -36.2617   24.6206 H   0  0  0  0  0  0
  -27.2293  -37.1257   25.8861 H   0  0  0  0  0  0
  -20.9625  -29.8787   21.6659 H   0  0  0  0  0  0
  -26.0080  -38.2695   24.1479 H   0  0  0  0  0  0
  -29.2634  -12.5497   17.5392 H   0  0  0  0  0  0
  -29.9211  -14.6564   20.1606 H   0  0  0  0  0  0
  -27.6230  -11.0596   21.9400 H   0  0  0  0  0  0
  -28.9636  -10.1995   16.9859 H   0  0  0  0  0  0
  -27.5673  -11.0930   16.3788 H   0  0  0  0  0  0
  -27.3403   -9.6729   17.4124 H   0  0  0  0  0  0
  -23.4318  -12.9931   17.7653 H   0  0  0  0  0  0
  -24.4514  -12.9125   16.3134 H   0  0  0  0  0  0
  -23.7006  -14.3710   16.7813 H   0  0  0  0  0  0
  -25.3154  -20.6713   18.5272 H   0  0  0  0  0  0
  -25.7376  -20.2675   20.1359 H   0  0  0  0  0  0
  -25.9995  -23.6595   20.4451 H   0  0  0  0  0  0
  -26.1035  -23.9298   18.7521 H   0  0  0  0  0  0
  -26.2576  -15.7245   17.0137 H   0  0  0  0  0  0
  -24.7393  -15.7999   17.5672 H   0  0  0  0  0  0
  -30.4297  -13.6796   22.8843 H   0  0  0  0  0  0
  -27.3311  -18.5391   18.2705 H   0  0  0  0  0  0
  1 25  1  0  0  0
  1 30  2  0  0  0
  1 85  1  0  0  0
  2  3  1  0  0  0
  2 25  1  0  0  0
  2 91  1  0  0  0
  2 92  1  0  0  0
  3  4  1  0  0  0
  3 93  1  0  0  0
  3 94  1  0  0  0
  4  5  1  0  0  0
  4 95  1  0  0  0
  4 96  1  0  0  0
  5  6  1  0  0  0
  5 26  1  0  0  0
  5 97  1  0  0  0
  6 25  1  0  0  0
  6 98  1  0  0  0
  6 99  1  0  0  0
  7  8  2  0  0  0
  7 26  1  0  0  0
  7 29  1  0  0  0
  8  9  1  0  0  0
  8 22  1  0  0  0
  9 10  1  0  0  0
  9 27  2  0  0  0
 10 11  2  0  0  0
 10 15  1  0  0  0
 11 12  1  0  0  0
 11100  1  0  0  0
 12 13  2  0  0  0
 12101  1  0  0  0
 13 14  1  0  0  0
 13 31  1  0  0  0
 14 15  2  0  0  0
 14102  1  0  0  0
 15103  1  0  0  0
 16 17  2  0  0  0
 16 21  1  0  0  0
 16 31  1  0  0  0
 17 18  1  0  0  0
 17104  1  0  0  0
 18 19  2  0  0  0
 18105  1  0  0  0
 19 20  1  0  0  0
 19 24  1  0  0  0
 20 21  2  0  0  0
 20106  1  0  0  0
 21 23  1  0  0  0
 22 28  1  0  0  0
 22 32  2  0  0  0
 26 27  1  0  0  0
 28107  1  0  0  0
 28108  1  0  0  0
 29109  1  0  0  0
 29110  1  0  0  0
 33 34  1  0  0  0
 33 66  1  0  0  0
 33 70  2  0  0  0
 34 36  1  0  0  0
 34 59  1  0  0  0
 34111  1  0  0  0
 35 44  2  0  0  0
 35 45  1  0  0  0
 35 68  1  0  0  0
 36 56  1  0  0  0
 36112  1  0  0  0
 37 39  1  0  0  0
 37 47  1  0  0  0
 37 66  1  0  0  0
 37113  1  0  0  0
 38 43  2  0  0  0
 38 46  1  0  0  0
 38 47  1  0  0  0
 39 64  1  0  0  0
 39 67  2  0  0  0
 40 52  1  0  0  0
 40 53  2  0  0  0
 40 58  1  0  0  0
 41114  1  0  0  0
 41115  1  0  0  0
 41116  1  0  0  0
 41 48  1  0  0  0
 42 43  1  0  0  0
 42 66  1  0  0  0
 42117  1  0  0  0
 42118  1  0  0  0
 43 44  1  0  0  0
 44119  1  0  0  0
 45 46  2  0  0  0
 45120  1  0  0  0
 46121  1  0  0  0
 47122  1  0  0  0
 47123  1  0  0  0
 48 56  1  0  0  0
 48 65  1  0  0  0
 48124  1  0  0  0
 49 50  1  0  0  0
 49 53  1  0  0  0
 49 64  1  0  0  0
 49125  1  0  0  0
 50 51  1  0  0  0
 50126  1  0  0  0
 50127  1  0  0  0
 51 52  1  0  0  0
 51128  1  0  0  0
 51129  1  0  0  0
 52130  1  0  0  0
 52131  1  0  0  0
 53 54  1  0  0  0
 54 55  2  0  0  0
 54132  1  0  0  0
 55 57  1  0  0  0
 55133  1  0  0  0
 56 69  2  0  0  0
 57 58  2  0  0  0
 57134  1  0  0  0
 58135  1  0  0  0
 59 60  1  0  0  0
 59 61  1  0  0  0
 59 62  1  0  0  0
 60136  1  0  0  0
 60137  1  0  0  0
 60138  1  0  0  0
 61139  1  0  0  0
 61140  1  0  0  0
 61141  1  0  0  0
 62142  1  0  0  0
 62143  1  0  0  0
 62144  1  0  0  0
 63 65  1  0  0  0
 63145  1  0  0  0
 63146  1  0  0  0
 63147  1  0  0  0
 64148  1  0  0  0
 65149  1  0  0  0
 68 83  1  0  0  0
 71 72  2  0  0  0
 71 75  1  0  0  0
 71150  1  0  0  0
 72 76  1  0  0  0
 72151  1  0  0  0
 73 74  1  0  0  0
 73 76  2  0  0  0
 73152  1  0  0  0
 74 75  2  0  0  0
 74 77  1  0  0  0
 75 80  1  0  0  0
 76 85  1  0  0  0
 77 87  1  0  0  0
 77 88  2  0  0  0
 78 82  1  0  0  0
 78 83  1  0  0  0
 78 89  2  0  0  0
 79 84  1  0  0  0
 79 86  1  0  0  0
 79 90  2  0  0  0
 80153  1  0  0  0
 80154  1  0  0  0
 80155  1  0  0  0
 81 87  1  0  0  0
 81156  1  0  0  0
 81157  1  0  0  0
 81158  1  0  0  0
 82 86  1  0  0  0
 82159  1  0  0  0
 82160  1  0  0  0
 83161  1  0  0  0
 83162  1  0  0  0
 84 87  1  0  0  0
 84163  1  0  0  0
 84164  1  0  0  0
 85165  1  0  0  0
 86166  1  0  0  0
M  ISO  4   1 100  68 101  83 101  85 100
M  END
> <chiral flag>
0

> <version>
0

> <s_m_source_file>
/data/baiqing/PycharmProjects/Reinvent-master-3.2/result/LINK_invent/BTK/process_docking_weight1_custom_product_contain_oxygen_bond_distance_aromatic_linkinvent_7_9_3/rearranged_h_0055.sdf

> <i_m_source_file_index>
71

> <r_mmod_Potential_Energy-OPLS-2005>
16442.697265625

> <r_mmod_Stretch_Energy-OPLS-2005>
7835.4169921875

> <r_mmod_Bend_Energy-OPLS-2005>
1603.23693847656

> <r_mmod_Torsional_Energy-OPLS-2005>
676.008544921875

> <r_mmod_Improper_Torsional_Energy-OPLS-2005>
101.091705322266

> <r_mmod_Van_der_Waal_Energy-OPLS-2005>
3853.81372070312

> <r_mmod_Electrostatic_Energy-OPLS-2005>
-439.155090332031

> <r_mmod_Solvation_Energy-OPLS-2005>
-282.039459228516

> <b_mmod_Minimization_Converged-OPLS-2005>
0

> <r_mmod_RMS_Derivative-OPLS-2005>
3.4523766040802

$$$$
71
                    3D
 Structure written by MMmdl.
153161  0  0  1  0            999 V2000
  -30.5975  -14.6799   20.4879 C   0  0  0  0  0  0
  -30.4419  -12.4143   19.4614 C   0  0  0  0  0  0
  -29.5115  -12.5075   18.2306 C   0  0  0  0  0  0
  -28.0349  -12.3404   18.6414 C   0  0  0  0  0  0
  -27.6523  -13.2172   19.8630 C   0  0  2  0  0  0
  -28.6952  -13.0866   20.9954 C   0  0  0  0  0  0
  -25.2559  -13.8171   20.5681 C   0  0  0  0  0  0
  -24.1826  -13.0439   20.9190 C   0  0  0  0  0  0
  -24.6392  -11.6908   20.8739 C   0  0  0  0  0  0
  -23.9065  -10.4294   21.0407 C   0  0  0  0  0  0
  -24.3618   -9.4211   21.9184 C   0  0  0  0  0  0
  -23.6294   -8.2245   22.0756 C   0  0  0  0  0  0
  -22.4276   -8.0283   21.3545 C   0  0  0  0  0  0
  -21.9912   -9.0257   20.4647 C   0  0  0  0  0  0
  -22.7240  -10.2138   20.3056 C   0  0  0  0  0  0
  -21.6852   -6.0738   22.5277 C   0  0  0  0  0  0
  -21.4013   -6.5640   23.8212 C   0  0  0  0  0  0
  -21.3659   -5.6793   24.9174 C   0  0  0  0  0  0
  -21.6044   -4.3057   24.7223 C   0  0  0  0  0  0
  -21.8819   -3.8149   23.4343 C   0  0  0  0  0  0
  -21.9194   -4.6964   22.3401 C   0  0  0  0  0  0
  -22.7851  -13.5236   21.1856 C   0  0  0  0  0  0
  -22.1662   -4.2153   21.0977 F   0  0  0  0  0  0
  -21.5631   -3.4539   25.7735 F   0  0  0  0  0  0
  -30.0073  -13.4407   20.4324 N   0  0  0  0  0  0
  -26.2982  -12.9347   20.3313 N   0  0  0  0  0  0
  -25.9320  -11.6502   20.5756 N   0  0  0  0  0  0
  -22.0492  -12.8225   22.0407 N   0  0  0  0  0  0
  -25.4279  -15.1893   20.4087 N   0  0  0  0  0  0
  -31.7571  -14.8459   20.0970 O   0  0  0  0  0  0
  -21.6643   -6.8879   21.4239 O   0  0  0  0  0  0
  -22.3538  -14.5543   20.6705 O   0  0  0  0  0  0
  -24.6274  -31.8587   23.2004 C   0  0  0  0  0  0
  -25.9111  -32.4773   23.8341 C   0  0  1  0  0  0
  -27.2240  -27.3024   20.1211 C   0  0  0  0  0  0
  -25.5918  -33.8572   24.2272 N   0  0  0  0  0  0
  -23.4227  -30.4827   21.5427 C   0  0  2  0  0  0
  -24.8699  -28.9362   20.1093 C   0  0  0  0  0  0
  -22.7487  -29.4620   22.4909 C   0  0  0  0  0  0
  -18.0294  -28.1397   22.8498 C   0  0  0  0  0  0
  -24.1486  -36.7285   23.2638 C   0  0  0  0  0  0
  -25.9653  -30.7862   21.3732 C   0  0  0  0  0  0
  -26.0400  -29.4128   20.7134 C   0  0  0  0  0  0
  -27.2209  -28.6092   20.7072 C   0  0  0  0  0  0
  -26.0301  -26.8841   19.4885 C   0  0  0  0  0  0
  -24.8681  -27.6785   19.4868 C   0  0  0  0  0  0
  -23.6390  -29.8186   20.1574 C   0  0  0  0  0  0
  -25.4114  -36.3077   24.0327 C   0  0  1  0  0  0
  -20.5898  -28.3689   23.1281 C   0  0  2  0  0  0
  -20.6783  -26.9408   22.5415 C   0  0  0  0  0  0
  -19.5755  -26.6390   21.5222 C   0  0  0  0  0  0
  -18.1934  -26.7941   22.1632 C   0  0  0  0  0  0
  -19.1549  -28.8863   23.2888 C   0  0  0  0  0  0
  -18.9468  -30.1469   23.8896 C   0  0  0  0  0  0
  -17.6467  -30.6596   24.0574 C   0  0  0  0  0  0
  -25.9056  -34.9447   23.5103 C   0  0  0  0  0  0
  -16.5359  -29.9098   23.6339 C   0  0  0  0  0  0
  -16.7280  -28.6516   23.0354 C   0  0  0  0  0  0
  -26.4492  -31.6591   25.0717 C   0  0  0  0  0  0
  -25.3722  -31.3753   26.1445 C   0  0  0  0  0  0
  -27.0330  -30.3008   24.6184 C   0  0  0  0  0  0
  -27.6040  -32.4333   25.7498 C   0  0  0  0  0  0
  -27.5584  -37.1796   24.8459 C   0  0  0  0  0  0
  -21.4195  -29.3047   22.3672 N   0  0  0  0  0  0
  -26.4288  -37.3778   23.9417 N   0  0  0  0  0  0
  -24.6905  -31.0595   22.0952 N   0  0  0  0  0  0
  -23.4205  -28.8152   23.2989 O   0  0  0  0  0  0
  -28.3361  -26.4419   20.1801 O   0  0  0  0  0  0
  -26.5622  -34.8919   22.4669 O   0  0  0  0  0  0
  -23.5435  -32.1373   23.7332 O   0  0  0  0  0  0
  -30.7064  -19.3034   19.7184 C   0  0  0  0  0  0
  -30.6910  -17.8756   19.7962 C   0  0  0  0  0  0
  -29.0207  -18.0293   21.5006 C   0  0  0  0  0  0
  -29.9275  -20.1660   20.5569 C   0  0  0  0  0  0
  -29.0512  -19.4647   21.4444 C   0  0  0  0  0  0
  -29.8634  -17.1877   20.7187 C   0  0  0  0  0  0
  -30.2436  -21.6851   20.6285 C   0  0  0  0  0  0
  -29.2994  -24.0482   20.5415 C   0  0  0  0  0  0
  -28.1724  -20.2316   22.4219 C   0  0  0  0  0  0
  -28.1207  -24.9699   20.0262 C   0  0  0  0  0  0
  -29.7834  -15.7239   20.8669 N   0  0  0  0  0  0
  -29.2619  -22.6564   20.4021 N   0  0  0  0  0  0
  -30.2280  -24.6576   21.0863 O   0  0  0  0  0  0
  -31.8615  -21.9983   20.9925 S   0  0  0  0  0  0
  -31.4808  -12.5517   19.1563 H   0  0  0  0  0  0
  -30.3926  -11.4210   19.9102 H   0  0  0  0  0  0
  -29.7817  -11.7481   17.4954 H   0  0  0  0  0  0
  -29.6490  -13.4715   17.7380 H   0  0  0  0  0  0
  -27.8772  -11.2879   18.8794 H   0  0  0  0  0  0
  -27.3807  -12.5620   17.7972 H   0  0  0  0  0  0
  -27.6666  -14.2501   19.5149 H   0  0  0  0  0  0
  -28.7147  -12.0687   21.3862 H   0  0  0  0  0  0
  -28.4320  -13.7230   21.8414 H   0  0  0  0  0  0
  -25.2761   -9.5687   22.4762 H   0  0  0  0  0  0
  -24.0004   -7.4634   22.7474 H   0  0  0  0  0  0
  -21.0846   -8.8769   19.8952 H   0  0  0  0  0  0
  -22.3692  -10.9674   19.6167 H   0  0  0  0  0  0
  -21.2003   -7.6148   23.9712 H   0  0  0  0  0  0
  -21.1483   -6.0526   25.9076 H   0  0  0  0  0  0
  -22.0598   -2.7612   23.2840 H   0  0  0  0  0  0
  -22.4102  -11.9879   22.4784 H   0  0  0  0  0  0
  -21.1112  -13.1250   22.2619 H   0  0  0  0  0  0
  -24.6607  -15.8438   20.5146 H   0  0  0  0  0  0
  -26.2743  -15.6253   20.0642 H   0  0  0  0  0  0
  -26.7181  -32.5440   23.1095 H   0  0  0  0  0  0
  -25.0068  -33.9717   25.0417 H   0  0  0  0  0  0
  -22.7175  -31.3038   21.3997 H   0  0  0  0  0  0
  -23.3750  -35.9614   23.3290 H   0  0  0  0  0  0
  -24.3584  -36.8914   22.2053 H   0  0  0  0  0  0
  -23.7229  -37.6482   23.6664 H   0  0  0  0  0  0
  -26.1028  -31.5513   20.6076 H   0  0  0  0  0  0
  -26.8431  -30.8319   22.0059 H   0  0  0  0  0  0
  -28.1188  -28.9722   21.1890 H   0  0  0  0  0  0
  -25.9673  -25.9243   18.9975 H   0  0  0  0  0  0
  -23.9715  -27.3097   19.0078 H   0  0  0  0  0  0
  -23.7612  -30.5960   19.4014 H   0  0  0  0  0  0
  -22.7581  -29.2504   19.8535 H   0  0  0  0  0  0
  -25.1299  -36.1925   25.0818 H   0  0  0  0  0  0
  -21.0010  -28.3264   24.1394 H   0  0  0  0  0  0
  -20.5690  -26.2295   23.3615 H   0  0  0  0  0  0
  -21.6649  -26.7445   22.1202 H   0  0  0  0  0  0
  -19.6902  -25.6300   21.1251 H   0  0  0  0  0  0
  -19.6691  -27.3205   20.6755 H   0  0  0  0  0  0
  -17.4209  -26.6700   21.4027 H   0  0  0  0  0  0
  -18.0319  -26.0091   22.9034 H   0  0  0  0  0  0
  -19.7943  -30.7302   24.2245 H   0  0  0  0  0  0
  -17.5019  -31.6270   24.5188 H   0  0  0  0  0  0
  -15.5359  -30.3004   23.7656 H   0  0  0  0  0  0
  -15.8683  -28.0846   22.7051 H   0  0  0  0  0  0
  -24.5890  -30.7106   25.7787 H   0  0  0  0  0  0
  -24.8923  -32.2931   26.4850 H   0  0  0  0  0  0
  -25.8043  -30.8951   27.0231 H   0  0  0  0  0  0
  -26.2906  -29.6769   24.1191 H   0  0  0  0  0  0
  -27.3999  -29.7263   25.4700 H   0  0  0  0  0  0
  -27.8790  -30.4292   23.9428 H   0  0  0  0  0  0
  -27.2630  -33.3625   26.2082 H   0  0  0  0  0  0
  -28.3850  -32.6910   25.0330 H   0  0  0  0  0  0
  -28.0704  -31.8454   26.5417 H   0  0  0  0  0  0
  -28.2586  -38.0112   24.7546 H   0  0  0  0  0  0
  -28.1101  -36.2646   24.6237 H   0  0  0  0  0  0
  -27.2313  -37.1388   25.8865 H   0  0  0  0  0  0
  -20.9358  -29.8770   21.6892 H   0  0  0  0  0  0
  -26.0162  -38.2845   24.1442 H   0  0  0  0  0  0
  -31.4026  -19.7523   19.0230 H   0  0  0  0  0  0
  -31.3413  -17.3141   19.1403 H   0  0  0  0  0  0
  -28.3488  -17.5609   22.2064 H   0  0  0  0  0  0
  -27.6967  -19.5644   23.1412 H   0  0  0  0  0  0
  -27.3827  -20.7661   21.8933 H   0  0  0  0  0  0
  -28.7575  -20.9534   22.9932 H   0  0  0  0  0  0
  -27.2248  -24.6692   20.5704 H   0  0  0  0  0  0
  -27.9573  -24.7446   18.9718 H   0  0  0  0  0  0
  -28.9207  -15.3980   21.2751 H   0  0  0  0  0  0
  -28.3851  -22.2958   20.0585 H   0  0  0  0  0  0
  1 25  1  0  0  0
  1 30  2  0  0  0
  1 81  1  0  0  0
  2  3  1  0  0  0
  2 25  1  0  0  0
  2 85  1  0  0  0
  2 86  1  0  0  0
  3  4  1  0  0  0
  3 87  1  0  0  0
  3 88  1  0  0  0
  4  5  1  0  0  0
  4 89  1  0  0  0
  4 90  1  0  0  0
  5  6  1  0  0  0
  5 26  1  0  0  0
  5 91  1  0  0  0
  6 25  1  0  0  0
  6 92  1  0  0  0
  6 93  1  0  0  0
  7  8  2  0  0  0
  7 26  1  0  0  0
  7 29  1  0  0  0
  8  9  1  0  0  0
  8 22  1  0  0  0
  9 10  1  0  0  0
  9 27  2  0  0  0
 10 11  2  0  0  0
 10 15  1  0  0  0
 11 12  1  0  0  0
 11 94  1  0  0  0
 12 13  2  0  0  0
 12 95  1  0  0  0
 13 14  1  0  0  0
 13 31  1  0  0  0
 14 15  2  0  0  0
 14 96  1  0  0  0
 15 97  1  0  0  0
 16 17  2  0  0  0
 16 21  1  0  0  0
 16 31  1  0  0  0
 17 18  1  0  0  0
 17 98  1  0  0  0
 18 19  2  0  0  0
 18 99  1  0  0  0
 19 20  1  0  0  0
 19 24  1  0  0  0
 20 21  2  0  0  0
 20100  1  0  0  0
 21 23  1  0  0  0
 22 28  1  0  0  0
 22 32  2  0  0  0
 26 27  1  0  0  0
 28101  1  0  0  0
 28102  1  0  0  0
 29103  1  0  0  0
 29104  1  0  0  0
 33 34  1  0  0  0
 33 66  1  0  0  0
 33 70  2  0  0  0
 34 36  1  0  0  0
 34 59  1  0  0  0
 34105  1  0  0  0
 35 44  2  0  0  0
 35 45  1  0  0  0
 35 68  1  0  0  0
 36 56  1  0  0  0
 36106  1  0  0  0
 37 39  1  0  0  0
 37 47  1  0  0  0
 37 66  1  0  0  0
 37107  1  0  0  0
 38 43  2  0  0  0
 38 46  1  0  0  0
 38 47  1  0  0  0
 39 64  1  0  0  0
 39 67  2  0  0  0
 40 52  1  0  0  0
 40 53  2  0  0  0
 40 58  1  0  0  0
 41108  1  0  0  0
 41109  1  0  0  0
 41110  1  0  0  0
 41 48  1  0  0  0
 42 43  1  0  0  0
 42 66  1  0  0  0
 42111  1  0  0  0
 42112  1  0  0  0
 43 44  1  0  0  0
 44113  1  0  0  0
 45 46  2  0  0  0
 45114  1  0  0  0
 46115  1  0  0  0
 47116  1  0  0  0
 47117  1  0  0  0
 48 56  1  0  0  0
 48 65  1  0  0  0
 48118  1  0  0  0
 49 50  1  0  0  0
 49 53  1  0  0  0
 49 64  1  0  0  0
 49119  1  0  0  0
 50 51  1  0  0  0
 50120  1  0  0  0
 50121  1  0  0  0
 51 52  1  0  0  0
 51122  1  0  0  0
 51123  1  0  0  0
 52124  1  0  0  0
 52125  1  0  0  0
 53 54  1  0  0  0
 54 55  2  0  0  0
 54126  1  0  0  0
 55 57  1  0  0  0
 55127  1  0  0  0
 56 69  2  0  0  0
 57 58  2  0  0  0
 57128  1  0  0  0
 58129  1  0  0  0
 59 60  1  0  0  0
 59 61  1  0  0  0
 59 62  1  0  0  0
 60130  1  0  0  0
 60131  1  0  0  0
 60132  1  0  0  0
 61133  1  0  0  0
 61134  1  0  0  0
 61135  1  0  0  0
 62136  1  0  0  0
 62137  1  0  0  0
 62138  1  0  0  0
 63 65  1  0  0  0
 63139  1  0  0  0
 63140  1  0  0  0
 63141  1  0  0  0
 64142  1  0  0  0
 65143  1  0  0  0
 68 80  1  0  0  0
 71 72  2  0  0  0
 71 74  1  0  0  0
 71144  1  0  0  0
 72 76  1  0  0  0
 72145  1  0  0  0
 73 75  1  0  0  0
 73 76  2  0  0  0
 73146  1  0  0  0
 74 75  2  0  0  0
 74 77  1  0  0  0
 75 79  1  0  0  0
 76 81  1  0  0  0
 77 82  1  0  0  0
 77 84  2  0  0  0
 78 80  1  0  0  0
 78 82  1  0  0  0
 78 83  2  0  0  0
 79147  1  0  0  0
 79148  1  0  0  0
 79149  1  0  0  0
 80150  1  0  0  0
 80151  1  0  0  0
 81152  1  0  0  0
 82153  1  0  0  0
M  ISO  4   1 100  68 101  80 101  81 100
M  END
> <chiral flag>
0

> <version>
0

> <s_m_source_file>
/data/baiqing/PycharmProjects/Reinvent-master-3.2/result/LINK_invent/BTK/process_docking_weight1_custom_product_contain_oxygen_bond_distance_aromatic_linkinvent_7_9_3/rearranged_h_0055.sdf

> <i_m_source_file_index>
72

> <r_mmod_Potential_Energy-OPLS-2005>
66.3732299804688

> <r_mmod_Stretch_Energy-OPLS-2005>
102.485649108887

> <r_mmod_Bend_Energy-OPLS-2005>
152.355361938477

> <r_mmod_Torsional_Energy-OPLS-2005>
239.887054443359

> <r_mmod_Improper_Torsional_Energy-OPLS-2005>
4.99781608581543

> <r_mmod_Van_der_Waal_Energy-OPLS-2005>
164.010986328125

> <r_mmod_Electrostatic_Energy-OPLS-2005>
-370.031829833984

> <r_mmod_Solvation_Energy-OPLS-2005>
-287.184967041016

> <b_mmod_Minimization_Converged-OPLS-2005>
0

> <r_mmod_RMS_Derivative-OPLS-2005>
1.29318857192993

$$$$
72
                    3D
 Structure written by MMmdl.
166174  0  0  1  0            999 V2000
  -30.7150  -14.4208   20.6301 C   0  0  0  0  0  0
  -30.4089  -12.2940   19.4037 C   0  0  0  0  0  0
  -29.4803  -12.5283   18.1973 C   0  0  0  0  0  0
  -27.9983  -12.3947   18.6015 C   0  0  0  0  0  0
  -27.6632  -13.2038   19.8802 C   0  0  2  0  0  0
  -28.7031  -12.9408   20.9914 C   0  0  0  0  0  0
  -25.2616  -13.8186   20.5597 C   0  0  0  0  0  0
  -24.1861  -13.0465   20.9140 C   0  0  0  0  0  0
  -24.6383  -11.6926   20.8739 C   0  0  0  0  0  0
  -23.9054  -10.4286   21.0365 C   0  0  0  0  0  0
  -24.3590   -9.4201   21.9138 C   0  0  0  0  0  0
  -23.6263   -8.2246   22.0726 C   0  0  0  0  0  0
  -22.4273   -8.0249   21.3503 C   0  0  0  0  0  0
  -21.9886   -9.0230   20.4635 C   0  0  0  0  0  0
  -22.7225  -10.2102   20.3024 C   0  0  0  0  0  0
  -21.6831   -6.0736   22.5285 C   0  0  0  0  0  0
  -21.4023   -6.5635   23.8225 C   0  0  0  0  0  0
  -21.3677   -5.6791   24.9186 C   0  0  0  0  0  0
  -21.6051   -4.3053   24.7237 C   0  0  0  0  0  0
  -21.8821   -3.8142   23.4353 C   0  0  0  0  0  0
  -21.9173   -4.6964   22.3408 C   0  0  0  0  0  0
  -22.7905  -13.5256   21.1839 C   0  0  0  0  0  0
  -22.1644   -4.2135   21.0984 F   0  0  0  0  0  0
  -21.5616   -3.4533   25.7750 F   0  0  0  0  0  0
  -30.0359  -13.2548   20.4541 N   0  0  0  0  0  0
  -26.3027  -12.9326   20.3369 N   0  0  0  0  0  0
  -25.9291  -11.6487   20.5745 N   0  0  0  0  0  0
  -22.0553  -12.8227   22.0393 N   0  0  0  0  0  0
  -25.4432  -15.1857   20.3943 N   0  0  0  0  0  0
  -31.7836  -14.6685   20.0666 O   0  0  0  0  0  0
  -21.6629   -6.8854   21.4233 O   0  0  0  0  0  0
  -22.3552  -14.5511   20.6653 O   0  0  0  0  0  0
  -24.6157  -31.8715   23.2122 C   0  0  0  0  0  0
  -25.9054  -32.4848   23.8408 C   0  0  1  0  0  0
  -27.2291  -27.4433   20.1031 C   0  0  0  0  0  0
  -25.5921  -33.8637   24.2317 N   0  0  0  0  0  0
  -23.4038  -30.4957   21.5508 C   0  0  2  0  0  0
  -24.8451  -28.9611   20.1060 C   0  0  0  0  0  0
  -22.7377  -29.4695   22.4976 C   0  0  0  0  0  0
  -18.0199  -28.1326   22.8580 C   0  0  0  0  0  0
  -24.1495  -36.7309   23.2657 C   0  0  0  0  0  0
  -25.9279  -30.8377   21.3633 C   0  0  0  0  0  0
  -26.0012  -29.4725   20.7096 C   0  0  0  0  0  0
  -27.1987  -28.7236   20.7056 C   0  0  0  0  0  0
  -26.0654  -26.9501   19.4792 C   0  0  0  0  0  0
  -24.8705  -27.6972   19.4905 C   0  0  0  0  0  0
  -23.6049  -29.8269   20.1615 C   0  0  0  0  0  0
  -25.4116  -36.3102   24.0349 C   0  0  1  0  0  0
  -20.5808  -28.3734   23.1253 C   0  0  2  0  0  0
  -20.6771  -26.9539   22.5231 C   0  0  0  0  0  0
  -19.5597  -26.6214   21.5331 C   0  0  0  0  0  0
  -18.1819  -26.7793   22.1867 C   0  0  0  0  0  0
  -19.1450  -28.8864   23.2812 C   0  0  0  0  0  0
  -18.9353  -30.1455   23.8842 C   0  0  0  0  0  0
  -17.6301  -30.6532   24.0457 C   0  0  0  0  0  0
  -25.9039  -34.9487   23.5137 C   0  0  0  0  0  0
  -16.5189  -29.9051   23.6232 C   0  0  0  0  0  0
  -16.7172  -28.6429   23.0417 C   0  0  0  0  0  0
  -26.4456  -31.6611   25.0724 C   0  0  0  0  0  0
  -25.3695  -31.3738   26.1457 C   0  0  0  0  0  0
  -27.0330  -30.3057   24.6124 C   0  0  0  0  0  0
  -27.6025  -32.4324   25.7480 C   0  0  0  0  0  0
  -27.5569  -37.1823   24.8468 C   0  0  0  0  0  0
  -21.4074  -29.3161   22.3742 N   0  0  0  0  0  0
  -26.4279  -37.3780   23.9419 N   0  0  0  0  0  0
  -24.6703  -31.0828   22.0991 N   0  0  0  0  0  0
  -23.4137  -28.8172   23.2983 O   0  0  0  0  0  0
  -28.3520  -26.6428   20.1355 O   0  0  0  0  0  0
  -26.5607  -34.8948   22.4686 O   0  0  0  0  0  0
  -23.5329  -32.1455   23.7474 O   0  0  0  0  0  0
  -27.7559  -18.2208   19.3252 C   0  0  0  0  0  0
  -27.6526  -19.5361   19.7995 C   0  0  0  0  0  0
  -28.6674  -17.3375   19.9154 C   0  0  0  0  0  0
  -28.4645  -19.9988   20.8570 C   0  0  0  0  0  0
  -29.5002  -17.7533   20.9782 C   0  0  0  0  0  0
  -29.4230  -19.1091   21.4414 C   0  0  0  0  0  0
  -28.1902  -21.3870   21.3858 C   0  0  0  0  0  0
  -30.3875  -19.5896   22.5246 C   0  0  0  0  0  0
  -30.3686  -24.3153   21.6863 C   0  0  0  0  0  0
  -28.3458  -24.4201   23.1340 C   0  0  0  0  0  0
  -30.4807  -16.7392   21.5950 C   0  0  0  0  0  0
  -28.0702  -23.8252   20.6804 C   0  0  0  0  0  0
  -28.7316  -26.2401   21.4576 C   0  0  0  0  0  0
  -28.8748  -24.6959   21.7093 C   0  0  0  0  0  0
  -28.4655  -22.4056   20.5527 N   0  0  0  0  0  0
  -30.1042  -15.3262   21.4117 N   0  0  0  0  0  0
  -27.6723  -21.5305   22.4964 O   0  0  0  0  0  0
  -31.4493  -12.3888   19.0996 H   0  0  0  0  0  0
  -30.2979  -11.2720   19.7712 H   0  0  0  0  0  0
  -29.7068  -11.8290   17.3879 H   0  0  0  0  0  0
  -29.6564  -13.5244   17.7952 H   0  0  0  0  0  0
  -27.7764  -11.3376   18.7504 H   0  0  0  0  0  0
  -27.3593  -12.7267   17.7817 H   0  0  0  0  0  0
  -27.7216  -14.2601   19.6189 H   0  0  0  0  0  0
  -28.6726  -11.8922   21.2911 H   0  0  0  0  0  0
  -28.4556  -13.4948   21.8981 H   0  0  0  0  0  0
  -25.2691   -9.5685   22.4763 H   0  0  0  0  0  0
  -23.9956   -7.4644   22.7433 H   0  0  0  0  0  0
  -21.0835   -8.8770   19.8930 H   0  0  0  0  0  0
  -22.3649  -10.9661   19.6169 H   0  0  0  0  0  0
  -21.2044   -7.6139   23.9741 H   0  0  0  0  0  0
  -21.1493   -6.0502   25.9084 H   0  0  0  0  0  0
  -22.0570   -2.7590   23.2862 H   0  0  0  0  0  0
  -22.4110  -11.9820   22.4689 H   0  0  0  0  0  0
  -21.1185  -13.1266   22.2600 H   0  0  0  0  0  0
  -24.6861  -15.8548   20.4728 H   0  0  0  0  0  0
  -26.3059  -15.6005   20.0631 H   0  0  0  0  0  0
  -26.7098  -32.5536   23.1160 H   0  0  0  0  0  0
  -25.0063  -33.9778   25.0449 H   0  0  0  0  0  0
  -22.6978  -31.3180   21.4099 H   0  0  0  0  0  0
  -23.3740  -35.9653   23.3332 H   0  0  0  0  0  0
  -24.3578  -36.8901   22.2058 H   0  0  0  0  0  0
  -23.7249  -37.6531   23.6639 H   0  0  0  0  0  0
  -26.0441  -31.5992   20.5930 H   0  0  0  0  0  0
  -26.8109  -30.8833   21.9837 H   0  0  0  0  0  0
  -28.0873  -29.1138   21.1773 H   0  0  0  0  0  0
  -26.0768  -25.9736   19.0185 H   0  0  0  0  0  0
  -23.9832  -27.3007   19.0166 H   0  0  0  0  0  0
  -23.7076  -30.6029   19.4034 H   0  0  0  0  0  0
  -22.7259  -29.2462   19.8729 H   0  0  0  0  0  0
  -25.1284  -36.1975   25.0826 H   0  0  0  0  0  0
  -20.9843  -28.3249   24.1362 H   0  0  0  0  0  0
  -20.6162  -26.2318   23.3387 H   0  0  0  0  0  0
  -21.6429  -26.7844   22.0493 H   0  0  0  0  0  0
  -19.6422  -27.2760   20.6645 H   0  0  0  0  0  0
  -19.6842  -25.6018   21.1562 H   0  0  0  0  0  0
  -17.4042  -26.6555   21.4326 H   0  0  0  0  0  0
  -18.0196  -25.9990   22.9348 H   0  0  0  0  0  0
  -19.7791  -30.7312   24.2260 H   0  0  0  0  0  0
  -17.4861  -31.6227   24.5005 H   0  0  0  0  0  0
  -15.5227  -30.2967   23.7397 H   0  0  0  0  0  0
  -15.8655  -28.0586   22.7200 H   0  0  0  0  0  0
  -24.5838  -30.7137   25.7754 H   0  0  0  0  0  0
  -24.8938  -32.2917   26.4917 H   0  0  0  0  0  0
  -25.8015  -30.8857   27.0199 H   0  0  0  0  0  0
  -26.2913  -29.6797   24.1154 H   0  0  0  0  0  0
  -27.4066  -29.7313   25.4614 H   0  0  0  0  0  0
  -27.8734  -30.4403   23.9318 H   0  0  0  0  0  0
  -27.2657  -33.3596   26.2135 H   0  0  0  0  0  0
  -28.3808  -32.6956   25.0295 H   0  0  0  0  0  0
  -28.0752  -31.8420   26.5347 H   0  0  0  0  0  0
  -28.2610  -38.0095   24.7489 H   0  0  0  0  0  0
  -28.1045  -36.2637   24.6321 H   0  0  0  0  0  0
  -27.2306  -37.1496   25.8874 H   0  0  0  0  0  0
  -20.9189  -29.8976   21.7104 H   0  0  0  0  0  0
  -26.0189  -38.2862   24.1379 H   0  0  0  0  0  0
  -27.1235  -17.8894   18.5119 H   0  0  0  0  0  0
  -26.9161  -20.1883   19.3554 H   0  0  0  0  0  0
  -28.7266  -16.3361   19.5211 H   0  0  0  0  0  0
  -30.4396  -20.6750   22.6166 H   0  0  0  0  0  0
  -31.4053  -19.2790   22.2797 H   0  0  0  0  0  0
  -30.1259  -19.1777   23.5053 H   0  0  0  0  0  0
  -30.5248  -23.2770   21.9889 H   0  0  0  0  0  0
  -30.9495  -24.9236   22.3778 H   0  0  0  0  0  0
  -30.8036  -24.4394   20.6958 H   0  0  0  0  0  0
  -28.7647  -23.5113   23.5670 H   0  0  0  0  0  0
  -27.2626  -24.2959   23.1266 H   0  0  0  0  0  0
  -28.5690  -25.2292   23.8279 H   0  0  0  0  0  0
  -30.5616  -16.9000   22.6735 H   0  0  0  0  0  0
  -31.4688  -16.9389   21.1838 H   0  0  0  0  0  0
  -28.1962  -24.2423   19.6828 H   0  0  0  0  0  0
  -26.9986  -23.8966   20.8761 H   0  0  0  0  0  0
  -29.6783  -26.7342   21.6767 H   0  0  0  0  0  0
  -28.0366  -26.6639   22.1877 H   0  0  0  0  0  0
  -28.9200  -22.1561   19.6836 H   0  0  0  0  0  0
  -29.2500  -15.0286   21.8552 H   0  0  0  0  0  0
  1 25  1  0  0  0
  1 30  2  0  0  0
  1 86  1  0  0  0
  2  3  1  0  0  0
  2 25  1  0  0  0
  2 88  1  0  0  0
  2 89  1  0  0  0
  3  4  1  0  0  0
  3 90  1  0  0  0
  3 91  1  0  0  0
  4  5  1  0  0  0
  4 92  1  0  0  0
  4 93  1  0  0  0
  5  6  1  0  0  0
  5 26  1  0  0  0
  5 94  1  0  0  0
  6 25  1  0  0  0
  6 95  1  0  0  0
  6 96  1  0  0  0
  7  8  2  0  0  0
  7 26  1  0  0  0
  7 29  1  0  0  0
  8  9  1  0  0  0
  8 22  1  0  0  0
  9 10  1  0  0  0
  9 27  2  0  0  0
 10 11  2  0  0  0
 10 15  1  0  0  0
 11 12  1  0  0  0
 11 97  1  0  0  0
 12 13  2  0  0  0
 12 98  1  0  0  0
 13 14  1  0  0  0
 13 31  1  0  0  0
 14 15  2  0  0  0
 14 99  1  0  0  0
 15100  1  0  0  0
 16 17  2  0  0  0
 16 21  1  0  0  0
 16 31  1  0  0  0
 17 18  1  0  0  0
 17101  1  0  0  0
 18 19  2  0  0  0
 18102  1  0  0  0
 19 20  1  0  0  0
 19 24  1  0  0  0
 20 21  2  0  0  0
 20103  1  0  0  0
 21 23  1  0  0  0
 22 28  1  0  0  0
 22 32  2  0  0  0
 26 27  1  0  0  0
 28104  1  0  0  0
 28105  1  0  0  0
 29106  1  0  0  0
 29107  1  0  0  0
 33 34  1  0  0  0
 33 66  1  0  0  0
 33 70  2  0  0  0
 34 36  1  0  0  0
 34 59  1  0  0  0
 34108  1  0  0  0
 35 44  2  0  0  0
 35 45  1  0  0  0
 35 68  1  0  0  0
 36 56  1  0  0  0
 36109  1  0  0  0
 37 39  1  0  0  0
 37 47  1  0  0  0
 37 66  1  0  0  0
 37110  1  0  0  0
 38 43  2  0  0  0
 38 46  1  0  0  0
 38 47  1  0  0  0
 39 64  1  0  0  0
 39 67  2  0  0  0
 40 52  1  0  0  0
 40 53  2  0  0  0
 40 58  1  0  0  0
 41111  1  0  0  0
 41112  1  0  0  0
 41113  1  0  0  0
 41 48  1  0  0  0
 42 43  1  0  0  0
 42 66  1  0  0  0
 42114  1  0  0  0
 42115  1  0  0  0
 43 44  1  0  0  0
 44116  1  0  0  0
 45 46  2  0  0  0
 45117  1  0  0  0
 46118  1  0  0  0
 47119  1  0  0  0
 47120  1  0  0  0
 48 56  1  0  0  0
 48 65  1  0  0  0
 48121  1  0  0  0
 49 50  1  0  0  0
 49 53  1  0  0  0
 49 64  1  0  0  0
 49122  1  0  0  0
 50 51  1  0  0  0
 50123  1  0  0  0
 50124  1  0  0  0
 51 52  1  0  0  0
 51125  1  0  0  0
 51126  1  0  0  0
 52127  1  0  0  0
 52128  1  0  0  0
 53 54  1  0  0  0
 54 55  2  0  0  0
 54129  1  0  0  0
 55 57  1  0  0  0
 55130  1  0  0  0
 56 69  2  0  0  0
 57 58  2  0  0  0
 57131  1  0  0  0
 58132  1  0  0  0
 59 60  1  0  0  0
 59 61  1  0  0  0
 59 62  1  0  0  0
 60133  1  0  0  0
 60134  1  0  0  0
 60135  1  0  0  0
 61136  1  0  0  0
 61137  1  0  0  0
 61138  1  0  0  0
 62139  1  0  0  0
 62140  1  0  0  0
 62141  1  0  0  0
 63 65  1  0  0  0
 63142  1  0  0  0
 63143  1  0  0  0
 63144  1  0  0  0
 64145  1  0  0  0
 65146  1  0  0  0
 68 83  1  0  0  0
 71 72  2  0  0  0
 71 73  1  0  0  0
 71147  1  0  0  0
 72 74  1  0  0  0
 72148  1  0  0  0
 73 75  2  0  0  0
 73149  1  0  0  0
 74 76  2  0  0  0
 74 77  1  0  0  0
 75 76  1  0  0  0
 75 81  1  0  0  0
 76 78  1  0  0  0
 77 85  1  0  0  0
 77 87  2  0  0  0
 78150  1  0  0  0
 78151  1  0  0  0
 78152  1  0  0  0
 79153  1  0  0  0
 79154  1  0  0  0
 79155  1  0  0  0
 79 84  1  0  0  0
 80 84  1  0  0  0
 80156  1  0  0  0
 80157  1  0  0  0
 80158  1  0  0  0
 81 86  1  0  0  0
 81159  1  0  0  0
 81160  1  0  0  0
 82 84  1  0  0  0
 82 85  1  0  0  0
 82161  1  0  0  0
 82162  1  0  0  0
 83 84  1  0  0  0
 83163  1  0  0  0
 83164  1  0  0  0
 85165  1  0  0  0
 86166  1  0  0  0
M  ISO  4   1 100  68 101  83 101  86 100
M  END
> <chiral flag>
0

> <version>
0

> <s_m_source_file>
/data/baiqing/PycharmProjects/Reinvent-master-3.2/result/LINK_invent/BTK/process_docking_weight1_custom_product_contain_oxygen_bond_distance_aromatic_linkinvent_7_9_3/rearranged_h_0055.sdf

> <i_m_source_file_index>
73

> <r_mmod_Potential_Energy-OPLS-2005>
-92.4633636474609

> <r_mmod_Stretch_Energy-OPLS-2005>
43.5781021118164

> <r_mmod_Bend_Energy-OPLS-2005>
107.055946350098

> <r_mmod_Torsional_Energy-OPLS-2005>
269.382171630859

> <r_mmod_Improper_Torsional_Energy-OPLS-2005>
3.15241122245789

> <r_mmod_Van_der_Waal_Energy-OPLS-2005>
159.605453491211

> <r_mmod_Electrostatic_Energy-OPLS-2005>
-464.713531494141

> <r_mmod_Solvation_Energy-OPLS-2005>
-221.144180297852

> <b_mmod_Minimization_Converged-OPLS-2005>
0

> <r_mmod_RMS_Derivative-OPLS-2005>
8.88017463684082

$$$$
73
                    3D
 Structure written by MMmdl.
162170  0  0  1  0            999 V2000
  -30.6486  -14.5007   20.6137 C   0  0  0  0  0  0
  -30.4426  -12.3411   19.3990 C   0  0  0  0  0  0
  -29.4901  -12.5296   18.1946 C   0  0  0  0  0  0
  -28.0152  -12.3651   18.6187 C   0  0  0  0  0  0
  -27.6656  -13.1913   19.8821 C   0  0  2  0  0  0
  -28.7137  -12.9355   20.9918 C   0  0  0  0  0  0
  -25.2627  -13.8125   20.5646 C   0  0  0  0  0  0
  -24.1871  -13.0410   20.9169 C   0  0  0  0  0  0
  -24.6409  -11.6871   20.8720 C   0  0  0  0  0  0
  -23.9054  -10.4279   21.0385 C   0  0  0  0  0  0
  -24.3612   -9.4193   21.9149 C   0  0  0  0  0  0
  -23.6298   -8.2223   22.0728 C   0  0  0  0  0  0
  -22.4269   -8.0262   21.3539 C   0  0  0  0  0  0
  -21.9908   -9.0227   20.4635 C   0  0  0  0  0  0
  -22.7230  -10.2104   20.3041 C   0  0  0  0  0  0
  -21.6850   -6.0715   22.5267 C   0  0  0  0  0  0
  -21.4008   -6.5626   23.8197 C   0  0  0  0  0  0
  -21.3665   -5.6794   24.9173 C   0  0  0  0  0  0
  -21.6052   -4.3053   24.7238 C   0  0  0  0  0  0
  -21.8822   -3.8132   23.4362 C   0  0  0  0  0  0
  -21.9199   -4.6940   22.3408 C   0  0  0  0  0  0
  -22.7887  -13.5173   21.1867 C   0  0  0  0  0  0
  -22.1667   -4.2114   21.0988 F   0  0  0  0  0  0
  -21.5637   -3.4549   25.7760 F   0  0  0  0  0  0
  -30.0364  -13.2937   20.4436 N   0  0  0  0  0  0
  -26.3049  -12.9260   20.3396 N   0  0  0  0  0  0
  -25.9338  -11.6422   20.5796 N   0  0  0  0  0  0
  -22.0592  -12.8135   22.0460 N   0  0  0  0  0  0
  -25.4417  -15.1825   20.3970 N   0  0  0  0  0  0
  -31.7749  -14.7571   20.1727 O   0  0  0  0  0  0
  -21.6640   -6.8848   21.4228 O   0  0  0  0  0  0
  -22.3542  -14.5471   20.6737 O   0  0  0  0  0  0
  -24.6162  -31.8674   23.2108 C   0  0  0  0  0  0
  -25.9015  -32.4837   23.8413 C   0  0  1  0  0  0
  -27.2169  -27.4039   20.1066 C   0  0  0  0  0  0
  -25.5820  -33.8632   24.2321 N   0  0  0  0  0  0
  -23.4066  -30.4962   21.5519 C   0  0  2  0  0  0
  -24.8501  -28.9688   20.1081 C   0  0  0  0  0  0
  -22.7426  -29.4668   22.4987 C   0  0  0  0  0  0
  -18.0295  -28.1378   22.8513 C   0  0  0  0  0  0
  -24.1473  -36.7337   23.2656 C   0  0  0  0  0  0
  -25.9409  -30.8274   21.3679 C   0  0  0  0  0  0
  -26.0159  -29.4621   20.7089 C   0  0  0  0  0  0
  -27.2059  -28.6910   20.7018 C   0  0  0  0  0  0
  -26.0394  -26.9469   19.4734 C   0  0  0  0  0  0
  -24.8597  -27.7127   19.4785 C   0  0  0  0  0  0
  -23.6166  -29.8414   20.1644 C   0  0  0  0  0  0
  -25.4107  -36.3152   24.0357 C   0  0  1  0  0  0
  -20.5893  -28.3681   23.1365 C   0  0  2  0  0  0
  -20.6757  -26.9413   22.5448 C   0  0  0  0  0  0
  -19.5765  -26.6418   21.5214 C   0  0  0  0  0  0
  -18.1973  -26.7916   22.1643 C   0  0  0  0  0  0
  -19.1554  -28.8852   23.2949 C   0  0  0  0  0  0
  -18.9478  -30.1441   23.8960 C   0  0  0  0  0  0
  -17.6486  -30.6593   24.0589 C   0  0  0  0  0  0
  -25.9014  -34.9487   23.5163 C   0  0  0  0  0  0
  -16.5385  -29.9097   23.6320 C   0  0  0  0  0  0
  -16.7295  -28.6526   23.0341 C   0  0  0  0  0  0
  -26.4416  -31.6641   25.0750 C   0  0  0  0  0  0
  -25.3670  -31.3718   26.1488 C   0  0  0  0  0  0
  -27.0237  -30.3084   24.6136 C   0  0  0  0  0  0
  -27.6002  -32.4362   25.7514 C   0  0  0  0  0  0
  -27.5594  -37.1845   24.8475 C   0  0  0  0  0  0
  -21.4150  -29.3064   22.3762 N   0  0  0  0  0  0
  -26.4309  -37.3823   23.9415 N   0  0  0  0  0  0
  -24.6738  -31.0755   22.1028 N   0  0  0  0  0  0
  -23.4183  -28.8163   23.2994 O   0  0  0  0  0  0
  -28.3361  -26.5888   20.1624 O   0  0  0  0  0  0
  -26.5616  -34.8943   22.4745 O   0  0  0  0  0  0
  -23.5353  -32.1409   23.7497 O   0  0  0  0  0  0
  -30.1905  -18.2706   23.5052 C   0  0  0  0  0  0
  -30.3150  -16.9848   22.9494 C   0  0  0  0  0  0
  -29.6834  -17.8846   20.7796 C   0  0  0  0  0  0
  -29.5185  -19.1942   21.3329 C   0  0  0  0  0  0
  -29.7548  -19.3684   22.7325 C   0  0  0  0  0  0
  -30.0410  -16.7711   21.5862 C   0  0  0  0  0  0
  -28.9834  -20.2902   20.4731 C   0  0  0  0  0  0
  -29.4974  -20.6688   23.4923 C   0  0  0  0  0  0
  -28.0209  -25.4736   22.2838 C   0  0  0  0  0  0
  -29.1621  -24.1876   20.3862 C   0  0  0  0  0  0
  -28.5625  -22.7704   20.0967 C   0  0  0  0  0  0
  -28.1051  -25.2805   20.7593 C   0  0  2  0  0  0
  -28.0911  -19.9925   19.5280 N   0  0  0  0  0  0
  -29.8254  -15.4305   21.1443 N   0  0  0  0  0  0
  -29.3174  -21.5956   20.6315 N   0  3  0  0  0  0
  -31.4798  -12.4842   19.0901 H   0  0  0  0  0  0
  -30.3761  -11.3204   19.7759 H   0  0  0  0  0  0
  -29.7303  -11.8192   17.4019 H   0  0  0  0  0  0
  -29.6362  -13.5207   17.7637 H   0  0  0  0  0  0
  -27.8405  -11.3048   18.8110 H   0  0  0  0  0  0
  -27.3512  -12.6371   17.7963 H   0  0  0  0  0  0
  -27.7202  -14.2422   19.5961 H   0  0  0  0  0  0
  -28.7133  -11.8837   21.2830 H   0  0  0  0  0  0
  -28.4681  -13.4750   21.9084 H   0  0  0  0  0  0
  -25.2762   -9.5641   22.4726 H   0  0  0  0  0  0
  -23.9993   -7.4606   22.7434 H   0  0  0  0  0  0
  -21.0842   -8.8761   19.8948 H   0  0  0  0  0  0
  -22.3696  -10.9643   19.6157 H   0  0  0  0  0  0
  -21.1993   -7.6138   23.9683 H   0  0  0  0  0  0
  -21.1484   -6.0534   25.9065 H   0  0  0  0  0  0
  -22.0602   -2.7594   23.2891 H   0  0  0  0  0  0
  -22.4285  -11.9765   22.4730 H   0  0  0  0  0  0
  -21.1218  -13.1096   22.2754 H   0  0  0  0  0  0
  -24.6704  -15.8388   20.4590 H   0  0  0  0  0  0
  -26.2921  -15.6070   20.0458 H   0  0  0  0  0  0
  -26.7093  -32.5545   23.1187 H   0  0  0  0  0  0
  -24.9849  -33.9777   25.0380 H   0  0  0  0  0  0
  -22.6954  -31.3168   21.4165 H   0  0  0  0  0  0
  -23.3729  -35.9676   23.3357 H   0  0  0  0  0  0
  -24.3546  -36.8901   22.2057 H   0  0  0  0  0  0
  -23.7206  -37.6557   23.6625 H   0  0  0  0  0  0
  -26.0532  -31.5974   20.6027 H   0  0  0  0  0  0
  -26.8274  -30.8818   21.9885 H   0  0  0  0  0  0
  -28.1033  -29.0582   21.1806 H   0  0  0  0  0  0
  -26.0200  -25.9905   18.9727 H   0  0  0  0  0  0
  -23.9701  -27.3348   18.9924 H   0  0  0  0  0  0
  -23.7350  -30.6297   19.4188 H   0  0  0  0  0  0
  -22.7385  -29.2762   19.8513 H   0  0  0  0  0  0
  -25.1285  -36.2069   25.0855 H   0  0  0  0  0  0
  -21.0028  -28.3256   24.1466 H   0  0  0  0  0  0
  -20.5623  -26.2289   23.3614 H   0  0  0  0  0  0
  -21.6644  -26.7397   22.1285 H   0  0  0  0  0  0
  -19.6956  -25.6372   21.1164 H   0  0  0  0  0  0
  -19.6695  -27.3277   20.6791 H   0  0  0  0  0  0
  -17.4196  -26.6545   21.4147 H   0  0  0  0  0  0
  -18.0484  -26.0099   22.9121 H   0  0  0  0  0  0
  -19.7966  -30.7223   24.2367 H   0  0  0  0  0  0
  -17.5063  -31.6279   24.5179 H   0  0  0  0  0  0
  -15.5383  -30.3035   23.7634 H   0  0  0  0  0  0
  -15.8717  -28.0863   22.7014 H   0  0  0  0  0  0
  -24.5825  -30.7095   25.7799 H   0  0  0  0  0  0
  -24.8849  -32.2845   26.5011 H   0  0  0  0  0  0
  -25.7996  -30.8821   27.0219 H   0  0  0  0  0  0
  -26.2769  -29.6885   24.1168 H   0  0  0  0  0  0
  -27.3944  -29.7290   25.4605 H   0  0  0  0  0  0
  -27.8626  -30.4372   23.9296 H   0  0  0  0  0  0
  -27.2616  -33.3633   26.2152 H   0  0  0  0  0  0
  -28.3777  -32.6999   25.0326 H   0  0  0  0  0  0
  -28.0714  -31.8455   26.5384 H   0  0  0  0  0  0
  -28.2671  -38.0090   24.7499 H   0  0  0  0  0  0
  -28.1023  -36.2630   24.6335 H   0  0  0  0  0  0
  -27.2302  -37.1548   25.8874 H   0  0  0  0  0  0
  -20.9297  -29.8856   21.7052 H   0  0  0  0  0  0
  -26.0231  -38.2928   24.1365 H   0  0  0  0  0  0
  -30.3630  -18.3959   24.5661 H   0  0  0  0  0  0
  -30.5451  -16.1551   23.6014 H   0  0  0  0  0  0
  -29.4455  -17.7068   19.7401 H   0  0  0  0  0  0
  -29.2745  -20.4555   24.5388 H   0  0  0  0  0  0
  -28.6385  -21.2211   23.1167 H   0  0  0  0  0  0
  -30.3716  -21.3177   23.4736 H   0  0  0  0  0  0
  -27.8610  -24.5244   22.7941 H   0  0  0  0  0  0
  -27.1970  -26.1333   22.5616 H   0  0  0  0  0  0
  -28.9383  -25.9172   22.6766 H   0  0  0  0  0  0
  -29.9446  -24.1382   21.1441 H   0  0  0  0  0  0
  -29.6630  -24.5126   19.4753 H   0  0  0  0  0  0
  -28.4406  -22.6626   19.0181 H   0  0  0  0  0  0
  -27.5566  -22.7037   20.5183 H   0  0  0  0  0  0
  -27.1396  -24.8917   20.4365 H   0  0  0  0  0  0
  -27.7428  -19.0476   19.4529 H   0  0  0  0  0  0
  -27.7830  -20.6677   18.8489 H   0  0  0  0  0  0
  -28.9288  -15.0442   21.4014 H   0  0  0  0  0  0
  -30.0463  -21.7772   21.3074 H   0  0  0  0  0  0
  1 25  1  0  0  0
  1 30  2  0  0  0
  1 84  1  0  0  0
  2  3  1  0  0  0
  2 25  1  0  0  0
  2 86  1  0  0  0
  2 87  1  0  0  0
  3  4  1  0  0  0
  3 88  1  0  0  0
  3 89  1  0  0  0
  4  5  1  0  0  0
  4 90  1  0  0  0
  4 91  1  0  0  0
  5  6  1  0  0  0
  5 26  1  0  0  0
  5 92  1  0  0  0
  6 25  1  0  0  0
  6 93  1  0  0  0
  6 94  1  0  0  0
  7  8  2  0  0  0
  7 26  1  0  0  0
  7 29  1  0  0  0
  8  9  1  0  0  0
  8 22  1  0  0  0
  9 10  1  0  0  0
  9 27  2  0  0  0
 10 11  2  0  0  0
 10 15  1  0  0  0
 11 12  1  0  0  0
 11 95  1  0  0  0
 12 13  2  0  0  0
 12 96  1  0  0  0
 13 14  1  0  0  0
 13 31  1  0  0  0
 14 15  2  0  0  0
 14 97  1  0  0  0
 15 98  1  0  0  0
 16 17  2  0  0  0
 16 21  1  0  0  0
 16 31  1  0  0  0
 17 18  1  0  0  0
 17 99  1  0  0  0
 18 19  2  0  0  0
 18100  1  0  0  0
 19 20  1  0  0  0
 19 24  1  0  0  0
 20 21  2  0  0  0
 20101  1  0  0  0
 21 23  1  0  0  0
 22 28  1  0  0  0
 22 32  2  0  0  0
 26 27  1  0  0  0
 28102  1  0  0  0
 28103  1  0  0  0
 29104  1  0  0  0
 29105  1  0  0  0
 33 34  1  0  0  0
 33 66  1  0  0  0
 33 70  2  0  0  0
 34 36  1  0  0  0
 34 59  1  0  0  0
 34106  1  0  0  0
 35 44  2  0  0  0
 35 45  1  0  0  0
 35 68  1  0  0  0
 36 56  1  0  0  0
 36107  1  0  0  0
 37 39  1  0  0  0
 37 47  1  0  0  0
 37 66  1  0  0  0
 37108  1  0  0  0
 38 43  2  0  0  0
 38 46  1  0  0  0
 38 47  1  0  0  0
 39 64  1  0  0  0
 39 67  2  0  0  0
 40 52  1  0  0  0
 40 53  2  0  0  0
 40 58  1  0  0  0
 41109  1  0  0  0
 41110  1  0  0  0
 41111  1  0  0  0
 41 48  1  0  0  0
 42 43  1  0  0  0
 42 66  1  0  0  0
 42112  1  0  0  0
 42113  1  0  0  0
 43 44  1  0  0  0
 44114  1  0  0  0
 45 46  2  0  0  0
 45115  1  0  0  0
 46116  1  0  0  0
 47117  1  0  0  0
 47118  1  0  0  0
 48 56  1  0  0  0
 48 65  1  0  0  0
 48119  1  0  0  0
 49 50  1  0  0  0
 49 53  1  0  0  0
 49 64  1  0  0  0
 49120  1  0  0  0
 50 51  1  0  0  0
 50121  1  0  0  0
 50122  1  0  0  0
 51 52  1  0  0  0
 51123  1  0  0  0
 51124  1  0  0  0
 52125  1  0  0  0
 52126  1  0  0  0
 53 54  1  0  0  0
 54 55  2  0  0  0
 54127  1  0  0  0
 55 57  1  0  0  0
 55128  1  0  0  0
 56 69  2  0  0  0
 57 58  2  0  0  0
 57129  1  0  0  0
 58130  1  0  0  0
 59 60  1  0  0  0
 59 61  1  0  0  0
 59 62  1  0  0  0
 60131  1  0  0  0
 60132  1  0  0  0
 60133  1  0  0  0
 61134  1  0  0  0
 61135  1  0  0  0
 61136  1  0  0  0
 62137  1  0  0  0
 62138  1  0  0  0
 62139  1  0  0  0
 63 65  1  0  0  0
 63140  1  0  0  0
 63141  1  0  0  0
 63142  1  0  0  0
 64143  1  0  0  0
 65144  1  0  0  0
 68 82  1  0  0  0
 71 72  2  0  0  0
 71 75  1  0  0  0
 71145  1  0  0  0
 72 76  1  0  0  0
 72146  1  0  0  0
 73 74  1  0  0  0
 73 76  2  0  0  0
 73147  1  0  0  0
 74 75  2  0  0  0
 74 77  1  0  0  0
 75 78  1  0  0  0
 76 84  1  0  0  0
 77 83  1  0  0  0
 77 85  2  0  0  0
 78148  1  0  0  0
 78149  1  0  0  0
 78150  1  0  0  0
 79151  1  0  0  0
 79152  1  0  0  0
 79153  1  0  0  0
 79 82  1  0  0  0
 80 81  1  0  0  0
 80 82  1  0  0  0
 80154  1  0  0  0
 80155  1  0  0  0
 81 85  1  0  0  0
 81156  1  0  0  0
 81157  1  0  0  0
 82158  1  0  0  0
 83159  1  0  0  0
 83160  1  0  0  0
 84161  1  0  0  0
 85162  1  0  0  0
M  CHG  1  85   1
M  ISO  4   1 100  68 101  82 101  84 100
M  END
> <chiral flag>
0

> <version>
0

> <s_m_source_file>
/data/baiqing/PycharmProjects/Reinvent-master-3.2/result/LINK_invent/BTK/process_docking_weight1_custom_product_contain_oxygen_bond_distance_aromatic_linkinvent_7_9_3/rearranged_h_0055.sdf

> <i_m_source_file_index>
74

> <r_mmod_Potential_Energy-OPLS-2005>
-154.47102355957

> <r_mmod_Stretch_Energy-OPLS-2005>
48.4766807556152

> <r_mmod_Bend_Energy-OPLS-2005>
108.831665039062

> <r_mmod_Torsional_Energy-OPLS-2005>
278.551666259766

> <r_mmod_Improper_Torsional_Energy-OPLS-2005>
7.9369683265686

> <r_mmod_Van_der_Waal_Energy-OPLS-2005>
161.014389038086

> <r_mmod_Electrostatic_Energy-OPLS-2005>
-363.222686767578

> <r_mmod_Solvation_Energy-OPLS-2005>
-417.574371337891

> <b_mmod_Minimization_Converged-OPLS-2005>
0

> <r_mmod_RMS_Derivative-OPLS-2005>
4.95906639099121

$$$$
74
                    3D
 Structure written by MMmdl.
167176  0  0  1  0            999 V2000
  -30.7092  -14.4452   20.5863 C   0  0  0  0  0  0
  -30.4242  -12.2931   19.4382 C   0  0  0  0  0  0
  -29.5045  -12.5109   18.2196 C   0  0  0  0  0  0
  -28.0218  -12.3811   18.6229 C   0  0  0  0  0  0
  -27.6685  -13.2068   19.8897 C   0  0  2  0  0  0
  -28.7045  -12.9748   21.0131 C   0  0  0  0  0  0
  -25.2628  -13.8180   20.5705 C   0  0  0  0  0  0
  -24.1842  -13.0457   20.9174 C   0  0  0  0  0  0
  -24.6370  -11.6923   20.8727 C   0  0  0  0  0  0
  -23.9014  -10.4312   21.0389 C   0  0  0  0  0  0
  -24.3578   -9.4241   21.9179 C   0  0  0  0  0  0
  -23.6278   -8.2258   22.0747 C   0  0  0  0  0  0
  -22.4275   -8.0265   21.3537 C   0  0  0  0  0  0
  -21.9882   -9.0225   20.4642 C   0  0  0  0  0  0
  -22.7182  -10.2133   20.3049 C   0  0  0  0  0  0
  -21.6854   -6.0714   22.5269 C   0  0  0  0  0  0
  -21.4016   -6.5620   23.8198 C   0  0  0  0  0  0
  -21.3673   -5.6775   24.9160 C   0  0  0  0  0  0
  -21.6051   -4.3042   24.7208 C   0  0  0  0  0  0
  -21.8818   -3.8134   23.4337 C   0  0  0  0  0  0
  -21.9193   -4.6945   22.3397 C   0  0  0  0  0  0
  -22.7873  -13.5279   21.1803 C   0  0  0  0  0  0
  -22.1664   -4.2129   21.0976 F   0  0  0  0  0  0
  -21.5635   -3.4522   25.7727 F   0  0  0  0  0  0
  -30.0378  -13.2701   20.4691 N   0  0  0  0  0  0
  -26.3061  -12.9334   20.3417 N   0  0  0  0  0  0
  -25.9319  -11.6498   20.5800 N   0  0  0  0  0  0
  -22.0456  -12.8305   22.0355 N   0  0  0  0  0  0
  -25.4404  -15.1885   20.4135 N   0  0  0  0  0  0
  -31.8498  -14.5998   20.1384 O   0  0  0  0  0  0
  -21.6660   -6.8863   21.4232 O   0  0  0  0  0  0
  -22.3580  -14.5577   20.6637 O   0  0  0  0  0  0
  -24.6153  -31.8678   23.2120 C   0  0  0  0  0  0
  -25.9052  -32.4833   23.8404 C   0  0  1  0  0  0
  -27.2380  -27.4407   20.0882 C   0  0  0  0  0  0
  -25.5927  -33.8632   24.2341 N   0  0  0  0  0  0
  -23.4020  -30.4917   21.5525 C   0  0  2  0  0  0
  -24.8444  -28.9557   20.1184 C   0  0  0  0  0  0
  -22.7416  -29.4665   22.5020 C   0  0  0  0  0  0
  -18.0256  -28.1387   22.8492 C   0  0  0  0  0  0
  -24.1465  -36.7315   23.2638 C   0  0  0  0  0  0
  -25.9283  -30.8343   21.3614 C   0  0  0  0  0  0
  -26.0030  -29.4687   20.7121 C   0  0  0  0  0  0
  -27.1989  -28.7180   20.6940 C   0  0  0  0  0  0
  -26.0464  -26.9289   19.5182 C   0  0  0  0  0  0
  -24.8595  -27.6830   19.5257 C   0  0  0  0  0  0
  -23.6080  -29.8232   20.1679 C   0  0  0  0  0  0
  -25.4091  -36.3118   24.0339 C   0  0  1  0  0  0
  -20.5855  -28.3663   23.1330 C   0  0  2  0  0  0
  -20.6748  -26.9409   22.5416 C   0  0  0  0  0  0
  -19.5722  -26.6390   21.5219 C   0  0  0  0  0  0
  -18.1904  -26.7932   22.1631 C   0  0  0  0  0  0
  -19.1509  -28.8840   23.2905 C   0  0  0  0  0  0
  -18.9438  -30.1451   23.8906 C   0  0  0  0  0  0
  -17.6449  -30.6588   24.0576 C   0  0  0  0  0  0
  -25.9021  -34.9485   23.5123 C   0  0  0  0  0  0
  -16.5342  -29.9092   23.6336 C   0  0  0  0  0  0
  -16.7253  -28.6514   23.0343 C   0  0  0  0  0  0
  -26.4475  -31.6629   25.0747 C   0  0  0  0  0  0
  -25.3745  -31.3749   26.1510 C   0  0  0  0  0  0
  -27.0296  -30.3071   24.6122 C   0  0  0  0  0  0
  -27.6044  -32.4358   25.7511 C   0  0  0  0  0  0
  -27.5564  -37.1809   24.8473 C   0  0  0  0  0  0
  -21.4142  -29.3039   22.3762 N   0  0  0  0  0  0
  -26.4274  -37.3810   23.9421 N   0  0  0  0  0  0
  -24.6671  -31.0793   22.1020 N   0  0  0  0  0  0
  -23.4197  -28.8217   23.3067 O   0  0  0  0  0  0
  -28.4489  -26.7741   20.0796 O   0  0  0  0  0  0
  -26.5575  -34.8938   22.4682 O   0  0  0  0  0  0
  -23.5348  -32.1441   23.7518 O   0  0  0  0  0  0
  -29.7182  -17.9155   21.5037 C   0  0  0  0  0  0
  -30.6058  -17.1540   19.3801 C   0  0  0  0  0  0
  -29.9242  -19.2694   21.1215 C   0  0  0  0  0  0
  -30.8190  -18.4807   18.9679 C   0  0  0  0  0  0
  -30.5598  -19.5425   19.8711 C   0  0  0  0  0  0
  -30.1232  -16.8453   20.6695 C   0  0  0  0  0  0
  -27.9932  -21.7904   20.7468 C   0  0  0  0  0  0
  -27.8595  -23.0697   19.8996 C   0  0  0  0  0  0
  -29.7990  -24.0538   21.1778 C   0  0  0  0  0  0
  -29.7428  -22.8533   22.1389 C   0  0  0  0  0  0
  -28.4355  -24.3498   20.5352 C   0  0  1  0  0  0
  -31.0200  -20.9424   19.4846 C   0  0  0  0  0  0
  -29.4889  -20.3635   22.1242 C   0  0  0  0  0  0
  -28.5627  -25.4796   19.4818 C   0  0  0  0  0  0
  -31.3690  -18.7264   17.5605 C   0  0  0  0  0  0
  -29.0527  -21.6723   21.5845 N   0  0  0  0  0  0
  -30.0096  -15.4819   21.0976 N   0  0  0  0  0  0
  -27.1937  -20.8721   20.5478 O   0  0  0  0  0  0
  -30.6828  -19.6815   16.9290 F   0  0  0  0  0  0
  -31.3224  -17.6303   16.8017 F   0  0  0  0  0  0
  -31.4686  -12.3907   19.1358 H   0  0  0  0  0  0
  -30.3154  -11.2793   19.8283 H   0  0  0  0  0  0
  -29.7450  -11.7919   17.4350 H   0  0  0  0  0  0
  -29.6901  -13.4993   17.7963 H   0  0  0  0  0  0
  -27.8182  -11.3256   18.8049 H   0  0  0  0  0  0
  -27.3784  -12.6766   17.7939 H   0  0  0  0  0  0
  -27.7191  -14.2598   19.6139 H   0  0  0  0  0  0
  -28.6735  -11.9378   21.3530 H   0  0  0  0  0  0
  -28.4718  -13.5769   21.8936 H   0  0  0  0  0  0
  -25.2702   -9.5748   22.4757 H   0  0  0  0  0  0
  -23.9982   -7.4675   22.7485 H   0  0  0  0  0  0
  -21.0796   -8.8740   19.8960 H   0  0  0  0  0  0
  -22.3610  -10.9659   19.6174 H   0  0  0  0  0  0
  -21.2008   -7.6132   23.9690 H   0  0  0  0  0  0
  -21.1510   -6.0511   25.9060 H   0  0  0  0  0  0
  -22.0592   -2.7582   23.2848 H   0  0  0  0  0  0
  -22.4017  -12.0001   22.4843 H   0  0  0  0  0  0
  -21.1070  -13.1397   22.2463 H   0  0  0  0  0  0
  -24.6879  -15.8574   20.5349 H   0  0  0  0  0  0
  -26.3035  -15.6191   20.1030 H   0  0  0  0  0  0
  -26.7141  -32.5526   23.1175 H   0  0  0  0  0  0
  -25.0148  -33.9813   25.0533 H   0  0  0  0  0  0
  -22.6882  -31.3061   21.4122 H   0  0  0  0  0  0
  -23.3732  -35.9644   23.3321 H   0  0  0  0  0  0
  -24.3554  -36.8909   22.2051 H   0  0  0  0  0  0
  -23.7205  -37.6520   23.6635 H   0  0  0  0  0  0
  -26.0294  -31.5936   20.5848 H   0  0  0  0  0  0
  -26.8228  -30.8943   21.9696 H   0  0  0  0  0  0
  -28.0957  -29.1192   21.1430 H   0  0  0  0  0  0
  -25.9919  -25.9508   19.0665 H   0  0  0  0  0  0
  -23.9642  -27.2738   19.0777 H   0  0  0  0  0  0
  -23.7195  -30.5949   19.4057 H   0  0  0  0  0  0
  -22.7313  -29.2424   19.8754 H   0  0  0  0  0  0
  -25.1252  -36.1986   25.0830 H   0  0  0  0  0  0
  -20.9913  -28.3205   24.1463 H   0  0  0  0  0  0
  -20.5657  -26.2273   23.3603 H   0  0  0  0  0  0
  -21.6616  -26.7453   22.1206 H   0  0  0  0  0  0
  -19.6889  -25.6301   21.1241 H   0  0  0  0  0  0
  -19.6656  -27.3203   20.6758 H   0  0  0  0  0  0
  -17.4177  -26.6683   21.4041 H   0  0  0  0  0  0
  -18.0298  -26.0078   22.9023 H   0  0  0  0  0  0
  -19.7919  -30.7270   24.2278 H   0  0  0  0  0  0
  -17.4999  -31.6272   24.5178 H   0  0  0  0  0  0
  -15.5340  -30.2997   23.7652 H   0  0  0  0  0  0
  -15.8652  -28.0849   22.7032 H   0  0  0  0  0  0
  -24.5906  -30.7098   25.7881 H   0  0  0  0  0  0
  -24.8942  -32.2903   26.4979 H   0  0  0  0  0  0
  -25.8108  -30.8925   27.0266 H   0  0  0  0  0  0
  -26.2829  -29.6854   24.1171 H   0  0  0  0  0  0
  -27.4057  -29.7304   25.4588 H   0  0  0  0  0  0
  -27.8669  -30.4410   23.9270 H   0  0  0  0  0  0
  -27.2671  -33.3672   26.2087 H   0  0  0  0  0  0
  -28.3860  -32.6922   25.0341 H   0  0  0  0  0  0
  -28.0714  -31.8492   26.5438 H   0  0  0  0  0  0
  -28.2606  -38.0087   24.7510 H   0  0  0  0  0  0
  -28.1024  -36.2617   24.6288 H   0  0  0  0  0  0
  -27.2286  -37.1463   25.8880 H   0  0  0  0  0  0
  -20.9311  -29.8787   21.6998 H   0  0  0  0  0  0
  -26.0161  -38.2884   24.1431 H   0  0  0  0  0  0
  -29.2710  -17.6996   22.4639 H   0  0  0  0  0  0
  -30.8520  -16.3588   18.6920 H   0  0  0  0  0  0
  -26.8081  -23.2258   19.6558 H   0  0  0  0  0  0
  -28.3697  -22.8749   18.9559 H   0  0  0  0  0  0
  -30.5369  -23.8521   20.4000 H   0  0  0  0  0  0
  -30.1561  -24.9358   21.7110 H   0  0  0  0  0  0
  -29.2300  -23.1445   23.0583 H   0  0  0  0  0  0
  -30.7674  -22.6051   22.4248 H   0  0  0  0  0  0
  -27.7408  -24.6719   21.3127 H   0  0  0  0  0  0
  -31.3897  -21.4805   20.3547 H   0  0  0  0  0  0
  -30.2147  -21.5076   19.0221 H   0  0  0  0  0  0
  -31.8496  -20.9306   18.7812 H   0  0  0  0  0  0
  -30.3197  -20.5040   22.8169 H   0  0  0  0  0  0
  -28.6764  -19.9718   22.7376 H   0  0  0  0  0  0
  -27.9009  -25.3331   18.6308 H   0  0  0  0  0  0
  -29.5503  -25.4312   19.0234 H   0  0  0  0  0  0
  -32.4165  -19.0262   17.6058 H   0  0  0  0  0  0
  -29.2246  -15.2485   21.6863 H   0  0  0  0  0  0
  1 25  1  0  0  0
  1 30  2  0  0  0
  1 87  1  0  0  0
  2  3  1  0  0  0
  2 25  1  0  0  0
  2 91  1  0  0  0
  2 92  1  0  0  0
  3  4  1  0  0  0
  3 93  1  0  0  0
  3 94  1  0  0  0
  4  5  1  0  0  0
  4 95  1  0  0  0
  4 96  1  0  0  0
  5  6  1  0  0  0
  5 26  1  0  0  0
  5 97  1  0  0  0
  6 25  1  0  0  0
  6 98  1  0  0  0
  6 99  1  0  0  0
  7  8  2  0  0  0
  7 26  1  0  0  0
  7 29  1  0  0  0
  8  9  1  0  0  0
  8 22  1  0  0  0
  9 10  1  0  0  0
  9 27  2  0  0  0
 10 11  2  0  0  0
 10 15  1  0  0  0
 11 12  1  0  0  0
 11100  1  0  0  0
 12 13  2  0  0  0
 12101  1  0  0  0
 13 14  1  0  0  0
 13 31  1  0  0  0
 14 15  2  0  0  0
 14102  1  0  0  0
 15103  1  0  0  0
 16 17  2  0  0  0
 16 21  1  0  0  0
 16 31  1  0  0  0
 17 18  1  0  0  0
 17104  1  0  0  0
 18 19  2  0  0  0
 18105  1  0  0  0
 19 20  1  0  0  0
 19 24  1  0  0  0
 20 21  2  0  0  0
 20106  1  0  0  0
 21 23  1  0  0  0
 22 28  1  0  0  0
 22 32  2  0  0  0
 26 27  1  0  0  0
 28107  1  0  0  0
 28108  1  0  0  0
 29109  1  0  0  0
 29110  1  0  0  0
 33 34  1  0  0  0
 33 66  1  0  0  0
 33 70  2  0  0  0
 34 36  1  0  0  0
 34 59  1  0  0  0
 34111  1  0  0  0
 35 44  2  0  0  0
 35 45  1  0  0  0
 35 68  1  0  0  0
 36 56  1  0  0  0
 36112  1  0  0  0
 37 39  1  0  0  0
 37 47  1  0  0  0
 37 66  1  0  0  0
 37113  1  0  0  0
 38 43  2  0  0  0
 38 46  1  0  0  0
 38 47  1  0  0  0
 39 64  1  0  0  0
 39 67  2  0  0  0
 40 52  1  0  0  0
 40 53  2  0  0  0
 40 58  1  0  0  0
 41114  1  0  0  0
 41115  1  0  0  0
 41116  1  0  0  0
 41 48  1  0  0  0
 42 43  1  0  0  0
 42 66  1  0  0  0
 42117  1  0  0  0
 42118  1  0  0  0
 43 44  1  0  0  0
 44119  1  0  0  0
 45 46  2  0  0  0
 45120  1  0  0  0
 46121  1  0  0  0
 47122  1  0  0  0
 47123  1  0  0  0
 48 56  1  0  0  0
 48 65  1  0  0  0
 48124  1  0  0  0
 49 50  1  0  0  0
 49 53  1  0  0  0
 49 64  1  0  0  0
 49125  1  0  0  0
 50 51  1  0  0  0
 50126  1  0  0  0
 50127  1  0  0  0
 51 52  1  0  0  0
 51128  1  0  0  0
 51129  1  0  0  0
 52130  1  0  0  0
 52131  1  0  0  0
 53 54  1  0  0  0
 54 55  2  0  0  0
 54132  1  0  0  0
 55 57  1  0  0  0
 55133  1  0  0  0
 56 69  2  0  0  0
 57 58  2  0  0  0
 57134  1  0  0  0
 58135  1  0  0  0
 59 60  1  0  0  0
 59 61  1  0  0  0
 59 62  1  0  0  0
 60136  1  0  0  0
 60137  1  0  0  0
 60138  1  0  0  0
 61139  1  0  0  0
 61140  1  0  0  0
 61141  1  0  0  0
 62142  1  0  0  0
 62143  1  0  0  0
 62144  1  0  0  0
 63 65  1  0  0  0
 63145  1  0  0  0
 63146  1  0  0  0
 63147  1  0  0  0
 64148  1  0  0  0
 65149  1  0  0  0
 68 84  1  0  0  0
 71 73  2  0  0  0
 71 76  1  0  0  0
 71150  1  0  0  0
 72 74  1  0  0  0
 72 76  2  0  0  0
 72151  1  0  0  0
 73 75  1  0  0  0
 73 83  1  0  0  0
 74 75  2  0  0  0
 74 85  1  0  0  0
 75 82  1  0  0  0
 76 87  1  0  0  0
 77 78  1  0  0  0
 77 86  1  0  0  0
 77 88  2  0  0  0
 78 81  1  0  0  0
 78152  1  0  0  0
 78153  1  0  0  0
 79 80  1  0  0  0
 79 81  1  0  0  0
 79154  1  0  0  0
 79155  1  0  0  0
 80 86  1  0  0  0
 80156  1  0  0  0
 80157  1  0  0  0
 81 84  1  0  0  0
 81158  1  0  0  0
 82159  1  0  0  0
 82160  1  0  0  0
 82161  1  0  0  0
 83 86  1  0  0  0
 83162  1  0  0  0
 83163  1  0  0  0
 84164  1  0  0  0
 84165  1  0  0  0
 85 89  1  0  0  0
 85 90  1  0  0  0
 85166  1  0  0  0
 87167  1  0  0  0
M  ISO  4   1 100  68 101  84 101  87 100
M  END
> <chiral flag>
0

> <version>
0

> <s_m_source_file>
/data/baiqing/PycharmProjects/Reinvent-master-3.2/result/LINK_invent/BTK/process_docking_weight1_custom_product_contain_oxygen_bond_distance_aromatic_linkinvent_7_9_3/rearranged_h_0055.sdf

> <i_m_source_file_index>
75

> <r_mmod_Potential_Energy-OPLS-2005>
-13.6750431060791

> <r_mmod_Stretch_Energy-OPLS-2005>
43.1533126831055

> <r_mmod_Bend_Energy-OPLS-2005>
112.223190307617

> <r_mmod_Torsional_Energy-OPLS-2005>
252.248107910156

> <r_mmod_Improper_Torsional_Energy-OPLS-2005>
4.93158197402954

> <r_mmod_Van_der_Waal_Energy-OPLS-2005>
181.116409301758

> <r_mmod_Electrostatic_Energy-OPLS-2005>
-388.675659179688

> <r_mmod_Solvation_Energy-OPLS-2005>
-231.070831298828

> <b_mmod_Minimization_Converged-OPLS-2005>
0

> <r_mmod_RMS_Derivative-OPLS-2005>
3.26880598068237

$$$$
75
                    3D
 Structure written by MMmdl.
161170  0  0  1  0            999 V2000
  -30.7014  -14.4600   20.5468 C   0  0  0  0  0  0
  -30.4184  -12.2904   19.4235 C   0  0  0  0  0  0
  -29.4941  -12.5016   18.2069 C   0  0  0  0  0  0
  -28.0140  -12.3702   18.6160 C   0  0  0  0  0  0
  -27.6617  -13.2078   19.8748 C   0  0  2  0  0  0
  -28.7030  -12.9862   20.9965 C   0  0  0  0  0  0
  -25.2595  -13.8174   20.5682 C   0  0  0  0  0  0
  -24.1843  -13.0454   20.9176 C   0  0  0  0  0  0
  -24.6391  -11.6915   20.8739 C   0  0  0  0  0  0
  -23.9058  -10.4304   21.0404 C   0  0  0  0  0  0
  -24.3612   -9.4220   21.9183 C   0  0  0  0  0  0
  -23.6288   -8.2252   22.0745 C   0  0  0  0  0  0
  -22.4272   -8.0286   21.3536 C   0  0  0  0  0  0
  -21.9907   -9.0262   20.4641 C   0  0  0  0  0  0
  -22.7231  -10.2148   20.3052 C   0  0  0  0  0  0
  -21.6849   -6.0732   22.5278 C   0  0  0  0  0  0
  -21.4015   -6.5638   23.8212 C   0  0  0  0  0  0
  -21.3662   -5.6794   24.9173 C   0  0  0  0  0  0
  -21.6038   -4.3053   24.7225 C   0  0  0  0  0  0
  -21.8823   -3.8144   23.4347 C   0  0  0  0  0  0
  -21.9193   -4.6959   22.3401 C   0  0  0  0  0  0
  -22.7873  -13.5259   21.1839 C   0  0  0  0  0  0
  -22.1661   -4.2146   21.0977 F   0  0  0  0  0  0
  -21.5625   -3.4536   25.7737 F   0  0  0  0  0  0
  -30.0368  -13.2780   20.4453 N   0  0  0  0  0  0
  -26.3025  -12.9336   20.3365 N   0  0  0  0  0  0
  -25.9319  -11.6498   20.5763 N   0  0  0  0  0  0
  -22.0502  -12.8261   22.0393 N   0  0  0  0  0  0
  -25.4338  -15.1884   20.4106 N   0  0  0  0  0  0
  -31.8385  -14.6239   20.0992 O   0  0  0  0  0  0
  -21.6636   -6.8878   21.4237 O   0  0  0  0  0  0
  -22.3571  -14.5570   20.6680 O   0  0  0  0  0  0
  -24.6140  -31.8679   23.2106 C   0  0  0  0  0  0
  -25.9037  -32.4822   23.8401 C   0  0  1  0  0  0
  -27.2413  -27.4474   20.0806 C   0  0  0  0  0  0
  -25.5898  -33.8619   24.2333 N   0  0  0  0  0  0
  -23.4020  -30.4910   21.5506 C   0  0  2  0  0  0
  -24.8481  -28.9581   20.1138 C   0  0  0  0  0  0
  -22.7415  -29.4651   22.4995 C   0  0  0  0  0  0
  -18.0273  -28.1371   22.8494 C   0  0  0  0  0  0
  -24.1484  -36.7322   23.2637 C   0  0  0  0  0  0
  -25.9299  -30.8359   21.3617 C   0  0  0  0  0  0
  -26.0074  -29.4717   20.7073 C   0  0  0  0  0  0
  -27.2048  -28.7214   20.6914 C   0  0  0  0  0  0
  -26.0559  -26.9371   19.5009 C   0  0  0  0  0  0
  -24.8656  -27.6884   19.5109 C   0  0  0  0  0  0
  -23.6096  -29.8237   20.1646 C   0  0  0  0  0  0
  -25.4104  -36.3112   24.0337 C   0  0  1  0  0  0
  -20.5863  -28.3657   23.1319 C   0  0  2  0  0  0
  -20.6761  -26.9394   22.5414 C   0  0  0  0  0  0
  -19.5738  -26.6379   21.5209 C   0  0  0  0  0  0
  -18.1920  -26.7918   22.1627 C   0  0  0  0  0  0
  -19.1523  -28.8832   23.2903 C   0  0  0  0  0  0
  -18.9452  -30.1440   23.8912 C   0  0  0  0  0  0
  -17.6453  -30.6578   24.0564 C   0  0  0  0  0  0
  -25.9032  -34.9473   23.5132 C   0  0  0  0  0  0
  -16.5344  -29.9083   23.6320 C   0  0  0  0  0  0
  -16.7264  -28.6497   23.0347 C   0  0  0  0  0  0
  -26.4465  -31.6603   25.0727 C   0  0  0  0  0  0
  -25.3739  -31.3708   26.1485 C   0  0  0  0  0  0
  -27.0292  -30.3048   24.6091 C   0  0  0  0  0  0
  -27.6049  -32.4318   25.7485 C   0  0  0  0  0  0
  -27.5578  -37.1813   24.8465 C   0  0  0  0  0  0
  -21.4144  -29.3028   22.3734 N   0  0  0  0  0  0
  -26.4294  -37.3793   23.9403 N   0  0  0  0  0  0
  -24.6669  -31.0787   22.1000 N   0  0  0  0  0  0
  -23.4192  -28.8194   23.3034 O   0  0  0  0  0  0
  -28.4121  -26.7177   20.1162 O   0  0  0  0  0  0
  -26.5590  -34.8925   22.4692 O   0  0  0  0  0  0
  -23.5334  -32.1425   23.7505 O   0  0  0  0  0  0
  -27.0451  -18.5220   22.3570 C   0  0  0  0  0  0
  -26.9646  -19.9314   22.1066 C   0  0  0  0  0  0
  -28.0439  -17.5917   21.9232 C   0  0  0  0  0  0
  -30.8602  -18.8630   19.9228 C   0  0  0  0  0  0
  -27.8536  -20.7821   21.3665 C   0  0  0  0  0  0
  -31.1855  -17.4738   19.9986 C   0  0  0  0  0  0
  -29.6595  -19.1912   20.5909 C   0  0  0  0  0  0
  -29.1807  -17.8691   21.1600 C   0  0  0  0  0  0
  -29.0801  -20.4808   20.6696 C   0  0  0  0  0  0
  -30.1205  -16.8843   20.7610 C   0  0  0  0  0  0
  -29.2265  -24.5468   19.4152 C   0  0  0  0  0  0
  -28.6362  -25.7410   19.1763 C   0  0  0  0  0  0
  -29.7134  -24.1235   20.7295 C   0  0  0  0  0  0
  -30.8881  -22.4056   22.0065 C   0  0  0  0  0  0
  -29.7206  -21.6862   19.9571 C   0  0  0  0  0  0
  -29.9781  -15.4813   21.0506 N   0  0  0  0  0  0
  -30.0768  -22.8128   20.8509 N   0  0  0  0  0  0
  -29.8766  -24.9090   21.6705 O   0  0  0  0  0  0
  -31.4639  -12.3773   19.1241 H   0  0  0  0  0  0
  -30.3073  -11.2800   19.8207 H   0  0  0  0  0  0
  -29.7299  -11.7797   17.4236 H   0  0  0  0  0  0
  -29.6693  -13.4889   17.7767 H   0  0  0  0  0  0
  -27.8185  -11.3136   18.8056 H   0  0  0  0  0  0
  -27.3683  -12.6527   17.7837 H   0  0  0  0  0  0
  -27.7057  -14.2567   19.5784 H   0  0  0  0  0  0
  -28.6720  -11.9521   21.3436 H   0  0  0  0  0  0
  -28.4704  -13.5933   21.8723 H   0  0  0  0  0  0
  -25.2756   -9.5694   22.4762 H   0  0  0  0  0  0
  -23.9989   -7.4650   22.7477 H   0  0  0  0  0  0
  -21.0828   -8.8788   19.8961 H   0  0  0  0  0  0
  -22.3680  -10.9689   19.6165 H   0  0  0  0  0  0
  -21.2008   -7.6149   23.9716 H   0  0  0  0  0  0
  -21.1477   -6.0520   25.9078 H   0  0  0  0  0  0
  -22.0596   -2.7604   23.2845 H   0  0  0  0  0  0
  -22.4095  -11.9916   22.4790 H   0  0  0  0  0  0
  -21.1123  -13.1298   22.2592 H   0  0  0  0  0  0
  -24.6689  -15.8453   20.5187 H   0  0  0  0  0  0
  -26.2848  -15.6268   20.0819 H   0  0  0  0  0  0
  -26.7116  -32.5533   23.1176 H   0  0  0  0  0  0
  -25.0054  -33.9785   25.0481 H   0  0  0  0  0  0
  -22.6903  -31.3074   21.4118 H   0  0  0  0  0  0
  -23.3731  -35.9671   23.3317 H   0  0  0  0  0  0
  -24.3576  -36.8916   22.2050 H   0  0  0  0  0  0
  -23.7255  -37.6540   23.6639 H   0  0  0  0  0  0
  -26.0402  -31.6027   20.5939 H   0  0  0  0  0  0
  -26.8193  -30.8894   21.9775 H   0  0  0  0  0  0
  -28.1010  -29.1124   21.1519 H   0  0  0  0  0  0
  -26.0380  -25.9554   19.0493 H   0  0  0  0  0  0
  -23.9708  -27.2812   19.0597 H   0  0  0  0  0  0
  -23.7185  -30.5987   19.4050 H   0  0  0  0  0  0
  -22.7341  -29.2428   19.8688 H   0  0  0  0  0  0
  -25.1279  -36.1984   25.0830 H   0  0  0  0  0  0
  -20.9954  -28.3216   24.1440 H   0  0  0  0  0  0
  -20.5654  -26.2269   23.3603 H   0  0  0  0  0  0
  -21.6634  -26.7431   22.1212 H   0  0  0  0  0  0
  -19.6898  -25.6294   21.1228 H   0  0  0  0  0  0
  -19.6675  -27.3199   20.6747 H   0  0  0  0  0  0
  -17.4191  -26.6675   21.4027 H   0  0  0  0  0  0
  -18.0319  -26.0053   22.9018 H   0  0  0  0  0  0
  -19.7928  -30.7249   24.2295 H   0  0  0  0  0  0
  -17.5007  -31.6258   24.5165 H   0  0  0  0  0  0
  -15.5344  -30.2991   23.7622 H   0  0  0  0  0  0
  -15.8668  -28.0816   22.7054 H   0  0  0  0  0  0
  -24.5908  -30.7059   25.7827 H   0  0  0  0  0  0
  -24.8939  -32.2866   26.4947 H   0  0  0  0  0  0
  -25.8100  -30.8870   27.0236 H   0  0  0  0  0  0
  -26.2832  -29.6819   24.1144 H   0  0  0  0  0  0
  -27.4071  -29.7270   25.4537 H   0  0  0  0  0  0
  -27.8661  -30.4376   23.9232 H   0  0  0  0  0  0
  -27.2677  -33.3608   26.2098 H   0  0  0  0  0  0
  -28.3841  -32.6898   25.0300 H   0  0  0  0  0  0
  -28.0741  -31.8423   26.5375 H   0  0  0  0  0  0
  -28.2609  -38.0097   24.7490 H   0  0  0  0  0  0
  -28.1061  -36.2627   24.6313 H   0  0  0  0  0  0
  -27.2297  -37.1494   25.8869 H   0  0  0  0  0  0
  -20.9308  -29.8770   21.6970 H   0  0  0  0  0  0
  -26.0184  -38.2874   24.1390 H   0  0  0  0  0  0
  -26.2377  -18.1045   22.9496 H   0  0  0  0  0  0
  -26.1010  -20.4289   22.5362 H   0  0  0  0  0  0
  -27.8903  -16.5667   22.2323 H   0  0  0  0  0  0
  -31.5092  -19.5443   19.3871 H   0  0  0  0  0  0
  -27.5370  -21.8187   21.3251 H   0  0  0  0  0  0
  -32.0471  -16.9909   19.5499 H   0  0  0  0  0  0
  -29.3521  -23.9045   18.5594 H   0  0  0  0  0  0
  -28.2962  -26.0333   18.1919 H   0  0  0  0  0  0
  -31.7025  -23.1090   22.1898 H   0  0  0  0  0  0
  -31.3516  -21.4291   21.8605 H   0  0  0  0  0  0
  -30.2726  -22.3538   22.9051 H   0  0  0  0  0  0
  -28.9852  -21.9691   19.2072 H   0  0  0  0  0  0
  -30.6104  -21.4261   19.3904 H   0  0  0  0  0  0
  -29.1099  -15.1961   21.4777 H   0  0  0  0  0  0
  1 25  1  0  0  0
  1 30  2  0  0  0
  1 86  1  0  0  0
  2  3  1  0  0  0
  2 25  1  0  0  0
  2 89  1  0  0  0
  2 90  1  0  0  0
  3  4  1  0  0  0
  3 91  1  0  0  0
  3 92  1  0  0  0
  4  5  1  0  0  0
  4 93  1  0  0  0
  4 94  1  0  0  0
  5  6  1  0  0  0
  5 26  1  0  0  0
  5 95  1  0  0  0
  6 25  1  0  0  0
  6 96  1  0  0  0
  6 97  1  0  0  0
  7  8  2  0  0  0
  7 26  1  0  0  0
  7 29  1  0  0  0
  8  9  1  0  0  0
  8 22  1  0  0  0
  9 10  1  0  0  0
  9 27  2  0  0  0
 10 11  2  0  0  0
 10 15  1  0  0  0
 11 12  1  0  0  0
 11 98  1  0  0  0
 12 13  2  0  0  0
 12 99  1  0  0  0
 13 14  1  0  0  0
 13 31  1  0  0  0
 14 15  2  0  0  0
 14100  1  0  0  0
 15101  1  0  0  0
 16 17  2  0  0  0
 16 21  1  0  0  0
 16 31  1  0  0  0
 17 18  1  0  0  0
 17102  1  0  0  0
 18 19  2  0  0  0
 18103  1  0  0  0
 19 20  1  0  0  0
 19 24  1  0  0  0
 20 21  2  0  0  0
 20104  1  0  0  0
 21 23  1  0  0  0
 22 28  1  0  0  0
 22 32  2  0  0  0
 26 27  1  0  0  0
 28105  1  0  0  0
 28106  1  0  0  0
 29107  1  0  0  0
 29108  1  0  0  0
 33 34  1  0  0  0
 33 66  1  0  0  0
 33 70  2  0  0  0
 34 36  1  0  0  0
 34 59  1  0  0  0
 34109  1  0  0  0
 35 44  2  0  0  0
 35 45  1  0  0  0
 35 68  1  0  0  0
 36 56  1  0  0  0
 36110  1  0  0  0
 37 39  1  0  0  0
 37 47  1  0  0  0
 37 66  1  0  0  0
 37111  1  0  0  0
 38 43  2  0  0  0
 38 46  1  0  0  0
 38 47  1  0  0  0
 39 64  1  0  0  0
 39 67  2  0  0  0
 40 52  1  0  0  0
 40 53  2  0  0  0
 40 58  1  0  0  0
 41112  1  0  0  0
 41113  1  0  0  0
 41114  1  0  0  0
 41 48  1  0  0  0
 42 43  1  0  0  0
 42 66  1  0  0  0
 42115  1  0  0  0
 42116  1  0  0  0
 43 44  1  0  0  0
 44117  1  0  0  0
 45 46  2  0  0  0
 45118  1  0  0  0
 46119  1  0  0  0
 47120  1  0  0  0
 47121  1  0  0  0
 48 56  1  0  0  0
 48 65  1  0  0  0
 48122  1  0  0  0
 49 50  1  0  0  0
 49 53  1  0  0  0
 49 64  1  0  0  0
 49123  1  0  0  0
 50 51  1  0  0  0
 50124  1  0  0  0
 50125  1  0  0  0
 51 52  1  0  0  0
 51126  1  0  0  0
 51127  1  0  0  0
 52128  1  0  0  0
 52129  1  0  0  0
 53 54  1  0  0  0
 54 55  2  0  0  0
 54130  1  0  0  0
 55 57  1  0  0  0
 55131  1  0  0  0
 56 69  2  0  0  0
 57 58  2  0  0  0
 57132  1  0  0  0
 58133  1  0  0  0
 59 60  1  0  0  0
 59 61  1  0  0  0
 59 62  1  0  0  0
 60134  1  0  0  0
 60135  1  0  0  0
 60136  1  0  0  0
 61137  1  0  0  0
 61138  1  0  0  0
 61139  1  0  0  0
 62140  1  0  0  0
 62141  1  0  0  0
 62142  1  0  0  0
 63 65  1  0  0  0
 63143  1  0  0  0
 63144  1  0  0  0
 63145  1  0  0  0
 64146  1  0  0  0
 65147  1  0  0  0
 68 82  1  0  0  0
 71 72  2  0  0  0
 71 73  1  0  0  0
 71148  1  0  0  0
 72 75  1  0  0  0
 72149  1  0  0  0
 73 78  2  0  0  0
 73150  1  0  0  0
 74 76  1  0  0  0
 74 77  2  0  0  0
 74151  1  0  0  0
 75 79  2  0  0  0
 75152  1  0  0  0
 76 80  2  0  0  0
 76153  1  0  0  0
 77 78  1  0  0  0
 77 79  1  0  0  0
 78 80  1  0  0  0
 79 85  1  0  0  0
 80 86  1  0  0  0
 81 82  2  0  0  0
 81 83  1  0  0  0
 81154  1  0  0  0
 82155  1  0  0  0
 83 87  1  0  0  0
 83 88  2  0  0  0
 84 87  1  0  0  0
 84156  1  0  0  0
 84157  1  0  0  0
 84158  1  0  0  0
 85 87  1  0  0  0
 85159  1  0  0  0
 85160  1  0  0  0
 86161  1  0  0  0
M  ISO  4   1 100  68 101  82 101  86 100
M  END
> <chiral flag>
0

> <version>
0

> <s_m_source_file>
/data/baiqing/PycharmProjects/Reinvent-master-3.2/result/LINK_invent/BTK/process_docking_weight1_custom_product_contain_oxygen_bond_distance_aromatic_linkinvent_7_9_3/rearranged_h_0055.sdf

> <i_m_source_file_index>
76

> <r_mmod_Potential_Energy-OPLS-2005>
62.0087127685547

> <r_mmod_Stretch_Energy-OPLS-2005>
40.8357200622559

> <r_mmod_Bend_Energy-OPLS-2005>
201.459335327148

> <r_mmod_Torsional_Energy-OPLS-2005>
227.94367980957

> <r_mmod_Improper_Torsional_Energy-OPLS-2005>
4.67268371582031

> <r_mmod_Van_der_Waal_Energy-OPLS-2005>
156.852081298828

> <r_mmod_Electrostatic_Energy-OPLS-2005>
-343.313446044922

> <r_mmod_Solvation_Energy-OPLS-2005>
-238.992965698242

> <b_mmod_Minimization_Converged-OPLS-2005>
0

> <r_mmod_RMS_Derivative-OPLS-2005>
1.37661075592041

$$$$
76
                    3D
 Structure written by MMmdl.
175184  0  0  1  0            999 V2000
  -30.7294  -14.3999   20.6550 C   0  0  0  0  0  0
  -30.4311  -12.3133   19.3626 C   0  0  0  0  0  0
  -29.4725  -12.5401   18.1752 C   0  0  0  0  0  0
  -28.0022  -12.3818   18.6115 C   0  0  0  0  0  0
  -27.6718  -13.1920   19.8920 C   0  0  2  0  0  0
  -28.7219  -12.9069   20.9908 C   0  0  0  0  0  0
  -25.2652  -13.8110   20.5693 C   0  0  0  0  0  0
  -24.1879  -13.0421   20.9172 C   0  0  0  0  0  0
  -24.6394  -11.6875   20.8753 C   0  0  0  0  0  0
  -23.9041  -10.4293   21.0374 C   0  0  0  0  0  0
  -24.3603   -9.4204   21.9147 C   0  0  0  0  0  0
  -23.6280   -8.2233   22.0719 C   0  0  0  0  0  0
  -22.4260   -8.0277   21.3507 C   0  0  0  0  0  0
  -21.9894   -9.0261   20.4606 C   0  0  0  0  0  0
  -22.7227  -10.2137   20.3011 C   0  0  0  0  0  0
  -21.6865   -6.0736   22.5265 C   0  0  0  0  0  0
  -21.4028   -6.5633   23.8206 C   0  0  0  0  0  0
  -21.3639   -5.6774   24.9162 C   0  0  0  0  0  0
  -21.6025   -4.3042   24.7202 C   0  0  0  0  0  0
  -21.8824   -3.8146   23.4331 C   0  0  0  0  0  0
  -21.9191   -4.6962   22.3389 C   0  0  0  0  0  0
  -22.7898  -13.5231   21.1823 C   0  0  0  0  0  0
  -22.1688   -4.2151   21.0974 F   0  0  0  0  0  0
  -21.5577   -3.4524   25.7716 F   0  0  0  0  0  0
  -30.0579  -13.2338   20.4482 N   0  0  0  0  0  0
  -26.3114  -12.9270   20.3497 N   0  0  0  0  0  0
  -25.9337  -11.6420   20.5850 N   0  0  0  0  0  0
  -22.0531  -12.8226   22.0367 N   0  0  0  0  0  0
  -25.4362  -15.1817   20.4078 N   0  0  0  0  0  0
  -31.7476  -14.7190   20.0357 O   0  0  0  0  0  0
  -21.6617   -6.8881   21.4230 O   0  0  0  0  0  0
  -22.3620  -14.5551   20.6673 O   0  0  0  0  0  0
  -24.6117  -31.8779   23.2227 C   0  0  0  0  0  0
  -25.9029  -32.4908   23.8509 C   0  0  1  0  0  0
  -27.2097  -27.4370   20.0618 C   0  0  0  0  0  0
  -25.5931  -33.8699   24.2459 N   0  0  0  0  0  0
  -23.4012  -30.5095   21.5646 C   0  0  2  0  0  0
  -24.8409  -28.9975   20.1234 C   0  0  0  0  0  0
  -22.7426  -29.4685   22.4999 C   0  0  0  0  0  0
  -18.0264  -28.1394   22.8500 C   0  0  0  0  0  0
  -24.1493  -36.7267   23.2635 C   0  0  0  0  0  0
  -25.9351  -30.8431   21.3817 C   0  0  0  0  0  0
  -26.0090  -29.4787   20.7234 C   0  0  0  0  0  0
  -27.1966  -28.7037   20.7009 C   0  0  0  0  0  0
  -25.9953  -26.9790   19.4847 C   0  0  0  0  0  0
  -24.8267  -27.7452   19.5078 C   0  0  0  0  0  0
  -23.6134  -29.8723   20.1720 C   0  0  0  0  0  0
  -25.4124  -36.3136   24.0347 C   0  0  1  0  0  0
  -20.5850  -28.3654   23.1333 C   0  0  2  0  0  0
  -20.6764  -26.9389   22.5415 C   0  0  0  0  0  0
  -19.5750  -26.6389   21.5218 C   0  0  0  0  0  0
  -18.1932  -26.7942   22.1632 C   0  0  0  0  0  0
  -19.1505  -28.8843   23.2928 C   0  0  0  0  0  0
  -18.9431  -30.1441   23.8963 C   0  0  0  0  0  0
  -17.6433  -30.6602   24.0555 C   0  0  0  0  0  0
  -25.9025  -34.9499   23.5169 C   0  0  0  0  0  0
  -16.5325  -29.9111   23.6309 C   0  0  0  0  0  0
  -16.7253  -28.6508   23.0379 C   0  0  0  0  0  0
  -26.4480  -31.6642   25.0774 C   0  0  0  0  0  0
  -25.3757  -31.3731   26.1528 C   0  0  0  0  0  0
  -27.0279  -30.3112   24.6022 C   0  0  0  0  0  0
  -27.6070  -32.4316   25.7579 C   0  0  0  0  0  0
  -27.5594  -37.1802   24.8482 C   0  0  0  0  0  0
  -21.4145  -29.3048   22.3765 N   0  0  0  0  0  0
  -26.4323  -37.3797   23.9402 N   0  0  0  0  0  0
  -24.6683  -31.0867   22.1155 N   0  0  0  0  0  0
  -23.4213  -28.8121   23.2944 O   0  0  0  0  0  0
  -28.3842  -26.6901   19.9950 O   0  0  0  0  0  0
  -26.5538  -34.8909   22.4699 O   0  0  0  0  0  0
  -23.5293  -32.1539   23.7580 O   0  0  0  0  0  0
  -30.6281  -19.2202   22.7565 C   0  0  0  0  0  0
  -30.2766  -18.2258   23.6901 C   0  0  0  0  0  0
  -30.7477  -17.5309   20.9917 C   0  0  0  0  0  0
  -30.8512  -18.8843   21.4037 C   0  0  0  0  0  0
  -30.4099  -16.5274   21.9398 C   0  0  0  0  0  0
  -30.1582  -16.8881   23.2797 C   0  0  0  0  0  0
  -28.8082  -23.7808   16.9158 C   0  0  0  0  0  0
  -31.1935  -19.9585   20.4638 C   0  0  0  0  0  0
  -29.3320  -22.2259   18.5853 C   0  0  0  0  0  0
  -28.6165  -25.2451   16.4764 C   0  0  0  0  0  0
  -28.6113  -26.2859   17.6076 C   0  0  0  0  0  0
  -29.5349  -24.5834   19.1483 C   0  0  0  0  0  0
  -28.4347  -25.6494   18.9967 C   0  0  1  0  0  0
  -29.6326  -19.7918   16.4448 C   0  0  0  0  0  0
  -31.2734  -21.6743   15.8966 C   0  0  0  0  0  0
  -30.5537  -21.2805   18.3800 C   0  0  2  0  0  0
  -30.7898  -20.6700   16.9622 C   0  0  0  0  0  0
  -29.3572  -23.5011   18.1358 N   0  0  0  0  0  0
  -30.2088  -15.1561   21.6284 N   0  0  0  0  0  0
  -30.4775  -20.1570   19.3483 N   0  0  0  0  0  0
  -32.2168  -20.7652   20.7361 N   0  3  0  0  0  0
  -28.3975  -22.9224   16.1281 O   0  0  0  0  0  0
  -28.4007  -21.8280   19.2985 O   0  0  0  0  0  0
  -29.7947  -15.9359   24.1735 F   0  0  0  0  0  0
  -31.4614  -12.4505   19.0322 H   0  0  0  0  0  0
  -30.3700  -11.2829   19.7130 H   0  0  0  0  0  0
  -29.6958  -11.8548   17.3600 H   0  0  0  0  0  0
  -29.6281  -13.5409   17.7654 H   0  0  0  0  0  0
  -27.3354  -12.6773   17.7999 H   0  0  0  0  0  0
  -27.8051  -11.3237   18.7851 H   0  0  0  0  0  0
  -27.7383  -14.2481   19.6411 H   0  0  0  0  0  0
  -28.6987  -11.8503   21.2609 H   0  0  0  0  0  0
  -28.4728  -13.4427   21.9046 H   0  0  0  0  0  0
  -25.2715   -9.5704   22.4766 H   0  0  0  0  0  0
  -23.9954   -7.4615   22.7446 H   0  0  0  0  0  0
  -21.0810   -8.8815   19.8934 H   0  0  0  0  0  0
  -22.3665  -10.9697   19.6152 H   0  0  0  0  0  0
  -21.2088   -7.6149   23.9726 H   0  0  0  0  0  0
  -21.1431   -6.0498   25.9057 H   0  0  0  0  0  0
  -22.0628   -2.7607   23.2836 H   0  0  0  0  0  0
  -22.4146  -11.9890   22.4768 H   0  0  0  0  0  0
  -21.1164  -13.1272   22.2579 H   0  0  0  0  0  0
  -24.6658  -15.8331   20.5129 H   0  0  0  0  0  0
  -26.2900  -15.6260   20.0950 H   0  0  0  0  0  0
  -26.7082  -32.5671   23.1257 H   0  0  0  0  0  0
  -25.0291  -33.9939   25.0747 H   0  0  0  0  0  0
  -22.6900  -31.3286   21.4418 H   0  0  0  0  0  0
  -23.3788  -35.9567   23.3332 H   0  0  0  0  0  0
  -24.3591  -36.8825   22.2041 H   0  0  0  0  0  0
  -23.7195  -37.6446   23.6640 H   0  0  0  0  0  0
  -26.0489  -31.6168   20.6194 H   0  0  0  0  0  0
  -26.8209  -30.8935   22.0024 H   0  0  0  0  0  0
  -28.1000  -29.0833   21.1562 H   0  0  0  0  0  0
  -25.8718  -26.0364   18.9818 H   0  0  0  0  0  0
  -23.9269  -27.3716   19.0408 H   0  0  0  0  0  0
  -23.7436  -30.6661   19.4353 H   0  0  0  0  0  0
  -22.7378  -29.3090   19.8495 H   0  0  0  0  0  0
  -25.1293  -36.2035   25.0838 H   0  0  0  0  0  0
  -20.9937  -28.3175   24.1455 H   0  0  0  0  0  0
  -20.5703  -26.2224   23.3578 H   0  0  0  0  0  0
  -21.6641  -26.7480   22.1188 H   0  0  0  0  0  0
  -19.6908  -25.6298   21.1283 H   0  0  0  0  0  0
  -19.6721  -27.3170   20.6736 H   0  0  0  0  0  0
  -17.4194  -26.6667   21.4048 H   0  0  0  0  0  0
  -18.0335  -26.0106   22.9054 H   0  0  0  0  0  0
  -19.7895  -30.7239   24.2394 H   0  0  0  0  0  0
  -17.4981  -31.6299   24.5128 H   0  0  0  0  0  0
  -15.5329  -30.3048   23.7591 H   0  0  0  0  0  0
  -15.8648  -28.0833   22.7125 H   0  0  0  0  0  0
  -24.5939  -30.7046   25.7902 H   0  0  0  0  0  0
  -24.8927  -32.2880   26.4976 H   0  0  0  0  0  0
  -25.8129  -30.8939   27.0299 H   0  0  0  0  0  0
  -26.2773  -29.6957   24.1044 H   0  0  0  0  0  0
  -27.4090  -29.7223   25.4374 H   0  0  0  0  0  0
  -27.8614  -30.4493   23.9125 H   0  0  0  0  0  0
  -27.2693  -33.3589   26.2233 H   0  0  0  0  0  0
  -28.3918  -32.6918   25.0459 H   0  0  0  0  0  0
  -28.0723  -31.8385   26.5462 H   0  0  0  0  0  0
  -28.2608  -38.0094   24.7530 H   0  0  0  0  0  0
  -28.1087  -36.2621   24.6352 H   0  0  0  0  0  0
  -27.2302  -37.1486   25.8877 H   0  0  0  0  0  0
  -20.9252  -29.8821   21.7063 H   0  0  0  0  0  0
  -26.0217  -38.2866   24.1423 H   0  0  0  0  0  0
  -30.6971  -20.2511   23.0792 H   0  0  0  0  0  0
  -30.0868  -18.4879   24.7204 H   0  0  0  0  0  0
  -30.9155  -17.2747   19.9549 H   0  0  0  0  0  0
  -27.6632  -25.3018   15.9432 H   0  0  0  0  0  0
  -29.3826  -25.5019   15.7418 H   0  0  0  0  0  0
  -29.5515  -26.8402   17.5836 H   0  0  0  0  0  0
  -27.8266  -27.0194   17.4157 H   0  0  0  0  0  0
  -29.4992  -24.1840   20.1657 H   0  0  0  0  0  0
  -30.5243  -25.0288   19.0367 H   0  0  0  0  0  0
  -27.5400  -25.0354   19.0461 H   0  0  0  0  0  0
  -29.8630  -19.3752   15.4642 H   0  0  0  0  0  0
  -28.7043  -20.3530   16.3495 H   0  0  0  0  0  0
  -29.4411  -18.9465   17.1048 H   0  0  0  0  0  0
  -32.0613  -21.2336   15.2845 H   0  0  0  0  0  0
  -31.6912  -22.5810   16.3376 H   0  0  0  0  0  0
  -30.4829  -21.9717   15.2110 H   0  0  0  0  0  0
  -31.4295  -21.8895   18.6097 H   0  0  0  0  0  0
  -31.6298  -19.9830   17.0864 H   0  0  0  0  0  0
  -29.5470  -14.6820   22.2238 H   0  0  0  0  0  0
  -29.6211  -19.6222   19.2970 H   0  0  0  0  0  0
  -32.7707  -20.5849   21.5587 H   0  0  0  0  0  0
  -32.5489  -21.4405   20.0677 H   0  0  0  0  0  0
  1 25  1  0  0  0
  1 30  2  0  0  0
  1 89  1  0  0  0
  2  3  1  0  0  0
  2 25  1  0  0  0
  2 95  1  0  0  0
  2 96  1  0  0  0
  3  4  1  0  0  0
  3 97  1  0  0  0
  3 98  1  0  0  0
  4  5  1  0  0  0
  4 99  1  0  0  0
  4100  1  0  0  0
  5  6  1  0  0  0
  5 26  1  0  0  0
  5101  1  0  0  0
  6 25  1  0  0  0
  6102  1  0  0  0
  6103  1  0  0  0
  7  8  2  0  0  0
  7 26  1  0  0  0
  7 29  1  0  0  0
  8  9  1  0  0  0
  8 22  1  0  0  0
  9 10  1  0  0  0
  9 27  2  0  0  0
 10 11  2  0  0  0
 10 15  1  0  0  0
 11 12  1  0  0  0
 11104  1  0  0  0
 12 13  2  0  0  0
 12105  1  0  0  0
 13 14  1  0  0  0
 13 31  1  0  0  0
 14 15  2  0  0  0
 14106  1  0  0  0
 15107  1  0  0  0
 16 17  2  0  0  0
 16 21  1  0  0  0
 16 31  1  0  0  0
 17 18  1  0  0  0
 17108  1  0  0  0
 18 19  2  0  0  0
 18109  1  0  0  0
 19 20  1  0  0  0
 19 24  1  0  0  0
 20 21  2  0  0  0
 20110  1  0  0  0
 21 23  1  0  0  0
 22 28  1  0  0  0
 22 32  2  0  0  0
 26 27  1  0  0  0
 28111  1  0  0  0
 28112  1  0  0  0
 29113  1  0  0  0
 29114  1  0  0  0
 33 34  1  0  0  0
 33 66  1  0  0  0
 33 70  2  0  0  0
 34 36  1  0  0  0
 34 59  1  0  0  0
 34115  1  0  0  0
 35 44  2  0  0  0
 35 45  1  0  0  0
 35 68  1  0  0  0
 36 56  1  0  0  0
 36116  1  0  0  0
 37 39  1  0  0  0
 37 47  1  0  0  0
 37 66  1  0  0  0
 37117  1  0  0  0
 38 43  2  0  0  0
 38 46  1  0  0  0
 38 47  1  0  0  0
 39 64  1  0  0  0
 39 67  2  0  0  0
 40 52  1  0  0  0
 40 53  2  0  0  0
 40 58  1  0  0  0
 41118  1  0  0  0
 41119  1  0  0  0
 41120  1  0  0  0
 41 48  1  0  0  0
 42 43  1  0  0  0
 42 66  1  0  0  0
 42121  1  0  0  0
 42122  1  0  0  0
 43 44  1  0  0  0
 44123  1  0  0  0
 45 46  2  0  0  0
 45124  1  0  0  0
 46125  1  0  0  0
 47126  1  0  0  0
 47127  1  0  0  0
 48 56  1  0  0  0
 48 65  1  0  0  0
 48128  1  0  0  0
 49 50  1  0  0  0
 49 53  1  0  0  0
 49 64  1  0  0  0
 49129  1  0  0  0
 50 51  1  0  0  0
 50130  1  0  0  0
 50131  1  0  0  0
 51 52  1  0  0  0
 51132  1  0  0  0
 51133  1  0  0  0
 52134  1  0  0  0
 52135  1  0  0  0
 53 54  1  0  0  0
 54 55  2  0  0  0
 54136  1  0  0  0
 55 57  1  0  0  0
 55137  1  0  0  0
 56 69  2  0  0  0
 57 58  2  0  0  0
 57138  1  0  0  0
 58139  1  0  0  0
 59 60  1  0  0  0
 59 61  1  0  0  0
 59 62  1  0  0  0
 60140  1  0  0  0
 60141  1  0  0  0
 60142  1  0  0  0
 61143  1  0  0  0
 61144  1  0  0  0
 61145  1  0  0  0
 62146  1  0  0  0
 62147  1  0  0  0
 62148  1  0  0  0
 63 65  1  0  0  0
 63149  1  0  0  0
 63150  1  0  0  0
 63151  1  0  0  0
 64152  1  0  0  0
 65153  1  0  0  0
 68 83  1  0  0  0
 71 72  2  0  0  0
 71 74  1  0  0  0
 71154  1  0  0  0
 72 76  1  0  0  0
 72155  1  0  0  0
 73 74  2  0  0  0
 73 75  1  0  0  0
 73156  1  0  0  0
 74 78  1  0  0  0
 75 76  2  0  0  0
 75 89  1  0  0  0
 76 94  1  0  0  0
 77 80  1  0  0  0
 77 88  1  0  0  0
 77 92  2  0  0  0
 78 90  1  0  0  0
 78 91  2  0  0  0
 79 86  1  0  0  0
 79 88  1  0  0  0
 79 93  2  0  0  0
 80 81  1  0  0  0
 80157  1  0  0  0
 80158  1  0  0  0
 81 83  1  0  0  0
 81159  1  0  0  0
 81160  1  0  0  0
 82 83  1  0  0  0
 82 88  1  0  0  0
 82161  1  0  0  0
 82162  1  0  0  0
 83163  1  0  0  0
 84164  1  0  0  0
 84165  1  0  0  0
 84166  1  0  0  0
 84 87  1  0  0  0
 85 87  1  0  0  0
 85167  1  0  0  0
 85168  1  0  0  0
 85169  1  0  0  0
 86 87  1  0  0  0
 86 90  1  0  0  0
 86170  1  0  0  0
 87171  1  0  0  0
 89172  1  0  0  0
 90173  1  0  0  0
 91174  1  0  0  0
 91175  1  0  0  0
M  CHG  1  91   1
M  ISO  4   1 100  68 101  83 101  89 100
M  END
> <chiral flag>
0

> <version>
0

> <s_m_source_file>
/data/baiqing/PycharmProjects/Reinvent-master-3.2/result/LINK_invent/BTK/process_docking_weight1_custom_product_contain_oxygen_bond_distance_aromatic_linkinvent_7_9_3/rearranged_h_0055.sdf

> <i_m_source_file_index>
77

> <r_mmod_Potential_Energy-OPLS-2005>
-317.779357910156

> <r_mmod_Stretch_Energy-OPLS-2005>
46.8691520690918

> <r_mmod_Bend_Energy-OPLS-2005>
135.268768310547

> <r_mmod_Torsional_Energy-OPLS-2005>
325.705841064453

> <r_mmod_Improper_Torsional_Energy-OPLS-2005>
6.44636869430542

> <r_mmod_Van_der_Waal_Energy-OPLS-2005>
195.794525146484

> <r_mmod_Electrostatic_Energy-OPLS-2005>
-604.957397460938

> <r_mmod_Solvation_Energy-OPLS-2005>
-434.386749267578

> <b_mmod_Minimization_Converged-OPLS-2005>
0

> <r_mmod_RMS_Derivative-OPLS-2005>
5.22081613540649

$$$$
77
                    3D
 Structure written by MMmdl.
160168  0  0  1  0            999 V2000
  -30.6604  -14.5418   20.5414 C   0  0  0  0  0  0
  -30.4291  -12.3422   19.4303 C   0  0  0  0  0  0
  -29.4957  -12.4984   18.2100 C   0  0  0  0  0  0
  -28.0180  -12.3486   18.6243 C   0  0  0  0  0  0
  -27.6540  -13.2064   19.8653 C   0  0  2  0  0  0
  -28.6977  -13.0252   20.9902 C   0  0  0  0  0  0
  -25.2568  -13.8158   20.5675 C   0  0  0  0  0  0
  -24.1828  -13.0438   20.9195 C   0  0  0  0  0  0
  -24.6381  -11.6904   20.8752 C   0  0  0  0  0  0
  -23.9049  -10.4290   21.0417 C   0  0  0  0  0  0
  -24.3607   -9.4205   21.9193 C   0  0  0  0  0  0
  -23.6286   -8.2238   22.0758 C   0  0  0  0  0  0
  -22.4273   -8.0276   21.3544 C   0  0  0  0  0  0
  -21.9903   -9.0250   20.4648 C   0  0  0  0  0  0
  -22.7225  -10.2132   20.3061 C   0  0  0  0  0  0
  -21.6851   -6.0736   22.5279 C   0  0  0  0  0  0
  -21.4010   -6.5642   23.8211 C   0  0  0  0  0  0
  -21.3660   -5.6797   24.9174 C   0  0  0  0  0  0
  -21.6041   -4.3059   24.7226 C   0  0  0  0  0  0
  -21.8822   -3.8149   23.4349 C   0  0  0  0  0  0
  -21.9191   -4.6964   22.3403 C   0  0  0  0  0  0
  -22.7852  -13.5238   21.1858 C   0  0  0  0  0  0
  -22.1662   -4.2149   21.0981 F   0  0  0  0  0  0
  -21.5629   -3.4543   25.7740 F   0  0  0  0  0  0
  -30.0183  -13.3447   20.4267 N   0  0  0  0  0  0
  -26.2984  -12.9316   20.3321 N   0  0  0  0  0  0
  -25.9301  -11.6485   20.5766 N   0  0  0  0  0  0
  -22.0487  -12.8228   22.0408 N   0  0  0  0  0  0
  -25.4309  -15.1870   20.4056 N   0  0  0  0  0  0
  -31.8252  -14.7028   20.1641 O   0  0  0  0  0  0
  -21.6639   -6.8874   21.4239 O   0  0  0  0  0  0
  -22.3542  -14.5548   20.6710 O   0  0  0  0  0  0
  -24.6186  -31.8654   23.2075 C   0  0  0  0  0  0
  -25.9065  -32.4806   23.8377 C   0  0  1  0  0  0
  -27.2288  -27.3895   20.1176 C   0  0  0  0  0  0
  -25.5918  -33.8603   24.2318 N   0  0  0  0  0  0
  -23.4097  -30.4866   21.5483 C   0  0  2  0  0  0
  -24.8571  -28.9421   20.1211 C   0  0  0  0  0  0
  -22.7434  -29.4646   22.4980 C   0  0  0  0  0  0
  -18.0277  -28.1379   22.8478 C   0  0  0  0  0  0
  -24.1492  -36.7304   23.2638 C   0  0  0  0  0  0
  -25.9415  -30.8161   21.3681 C   0  0  0  0  0  0
  -26.0183  -29.4429   20.7244 C   0  0  0  0  0  0
  -27.2098  -28.6731   20.7224 C   0  0  0  0  0  0
  -26.0554  -26.9148   19.5002 C   0  0  0  0  0  0
  -24.8712  -27.6767   19.5074 C   0  0  0  0  0  0
  -23.6222  -29.8164   20.1646 C   0  0  0  0  0  0
  -25.4115  -36.3102   24.0331 C   0  0  1  0  0  0
  -20.5873  -28.3676   23.1307 C   0  0  2  0  0  0
  -20.6778  -26.9410   22.5415 C   0  0  0  0  0  0
  -19.5757  -26.6384   21.5216 C   0  0  0  0  0  0
  -18.1927  -26.7922   22.1617 C   0  0  0  0  0  0
  -19.1528  -28.8841   23.2887 C   0  0  0  0  0  0
  -18.9455  -30.1447   23.8902 C   0  0  0  0  0  0
  -17.6459  -30.6584   24.0567 C   0  0  0  0  0  0
  -25.9042  -34.9468   23.5124 C   0  0  0  0  0  0
  -16.5347  -29.9083   23.6327 C   0  0  0  0  0  0
  -16.7263  -28.6502   23.0343 C   0  0  0  0  0  0
  -26.4481  -31.6594   25.0716 C   0  0  0  0  0  0
  -25.3733  -31.3706   26.1457 C   0  0  0  0  0  0
  -27.0314  -30.3032   24.6109 C   0  0  0  0  0  0
  -27.6064  -32.4305   25.7475 C   0  0  0  0  0  0
  -27.5583  -37.1807   24.8465 C   0  0  0  0  0  0
  -21.4158  -29.3038   22.3715 N   0  0  0  0  0  0
  -26.4302  -37.3787   23.9405 N   0  0  0  0  0  0
  -24.6746  -31.0721   22.0990 N   0  0  0  0  0  0
  -23.4185  -28.8206   23.3050 O   0  0  0  0  0  0
  -28.3705  -26.6125   20.0526 O   0  0  0  0  0  0
  -26.5606  -34.8926   22.4686 O   0  0  0  0  0  0
  -23.5372  -32.1425   23.7440 O   0  0  0  0  0  0
  -31.6555  -18.7150   21.9540 C   0  0  0  0  0  0
  -31.3557  -17.3554   21.7655 C   0  0  0  0  0  0
  -29.3661  -18.0106   20.5348 C   0  0  0  0  0  0
  -30.8352  -19.7370   21.4234 C   0  0  0  0  0  0
  -29.6464  -19.4114   20.7054 C   0  0  0  0  0  0
  -30.2091  -16.9788   21.0416 C   0  0  0  0  0  0
  -27.3881  -20.0461   19.5424 C   0  0  0  0  0  0
  -28.6053  -23.0627   20.2308 C   0  0  0  0  0  0
  -31.3104  -21.1681   21.6171 C   0  0  0  0  0  0
  -27.8583  -24.2146   20.9626 C   0  0  0  0  0  0
  -28.5539  -25.6184   21.0904 C   0  0  0  0  0  0
  -28.7623  -20.5223   20.0189 C   0  0  1  0  0  0
  -26.7552  -20.5719   18.5789 N   0  0  0  0  0  0
  -29.8648  -15.5900   20.8797 N   0  0  0  0  0  0
  -28.5274  -21.8049   20.7423 N   0  0  0  0  0  0
  -29.1875  -23.2957   19.1708 O   0  0  0  0  0  0
  -31.4712  -12.4600   19.1260 H   0  0  0  0  0  0
  -30.3508  -11.3387   19.8513 H   0  0  0  0  0  0
  -29.7453  -11.7590   17.4477 H   0  0  0  0  0  0
  -29.6490  -13.4761   17.7499 H   0  0  0  0  0  0
  -27.8401  -11.2946   18.8392 H   0  0  0  0  0  0
  -27.3646  -12.6014   17.7890 H   0  0  0  0  0  0
  -27.6838  -14.2464   19.5411 H   0  0  0  0  0  0
  -28.6904  -11.9978   21.3578 H   0  0  0  0  0  0
  -28.4574  -13.6490   21.8526 H   0  0  0  0  0  0
  -25.2750   -9.5688   22.4767 H   0  0  0  0  0  0
  -24.0003   -7.4630   22.7473 H   0  0  0  0  0  0
  -21.0839   -8.8763   19.8947 H   0  0  0  0  0  0
  -22.3682  -10.9675   19.6172 H   0  0  0  0  0  0
  -21.2004   -7.6150   23.9713 H   0  0  0  0  0  0
  -21.1478   -6.0529   25.9076 H   0  0  0  0  0  0
  -22.0600   -2.7611   23.2849 H   0  0  0  0  0  0
  -22.4099  -11.9878   22.4778 H   0  0  0  0  0  0
  -21.1105  -13.1255   22.2619 H   0  0  0  0  0  0
  -24.6628  -15.8422   20.5039 H   0  0  0  0  0  0
  -26.2721  -15.6167   20.0441 H   0  0  0  0  0  0
  -26.7136  -32.5507   23.1138 H   0  0  0  0  0  0
  -25.0066  -33.9753   25.0463 H   0  0  0  0  0  0
  -22.7000  -31.3051   21.4057 H   0  0  0  0  0  0
  -23.3752  -35.9639   23.3305 H   0  0  0  0  0  0
  -24.3587  -36.8913   22.2055 H   0  0  0  0  0  0
  -23.7250  -37.6509   23.6653 H   0  0  0  0  0  0
  -26.0578  -31.5766   20.5945 H   0  0  0  0  0  0
  -26.8283  -30.8739   21.9870 H   0  0  0  0  0  0
  -28.1094  -29.0567   21.1841 H   0  0  0  0  0  0
  -26.0612  -25.9531   19.0069 H   0  0  0  0  0  0
  -23.9809  -27.2860   19.0335 H   0  0  0  0  0  0
  -23.7357  -30.5911   19.4045 H   0  0  0  0  0  0
  -22.7455  -29.2382   19.8664 H   0  0  0  0  0  0
  -25.1294  -36.1968   25.0823 H   0  0  0  0  0  0
  -20.9945  -28.3251   24.1439 H   0  0  0  0  0  0
  -20.5717  -26.2275   23.3602 H   0  0  0  0  0  0
  -21.6643  -26.7472   22.1198 H   0  0  0  0  0  0
  -19.6935  -25.6304   21.1232 H   0  0  0  0  0  0
  -19.6713  -27.3211   20.6759 H   0  0  0  0  0  0
  -17.4210  -26.6666   21.4011 H   0  0  0  0  0  0
  -18.0323  -26.0067   22.9017 H   0  0  0  0  0  0
  -19.7937  -30.7246   24.2287 H   0  0  0  0  0  0
  -17.5019  -31.6274   24.5157 H   0  0  0  0  0  0
  -15.5351  -30.2991   23.7655 H   0  0  0  0  0  0
  -15.8657  -28.0831   22.7050 H   0  0  0  0  0  0
  -24.5910  -30.7053   25.7784 H   0  0  0  0  0  0
  -24.8917  -32.2860   26.4900 H   0  0  0  0  0  0
  -25.8061  -30.8875   27.0222 H   0  0  0  0  0  0
  -26.2859  -29.6784   24.1171 H   0  0  0  0  0  0
  -27.4089  -29.7278   25.4571 H   0  0  0  0  0  0
  -27.8693  -30.4341   23.9257 H   0  0  0  0  0  0
  -27.2702  -33.3615   26.2047 H   0  0  0  0  0  0
  -28.3868  -32.6836   25.0291 H   0  0  0  0  0  0
  -28.0726  -31.8422   26.5389 H   0  0  0  0  0  0
  -28.2603  -38.0100   24.7504 H   0  0  0  0  0  0
  -28.1069  -36.2625   24.6294 H   0  0  0  0  0  0
  -27.2291  -37.1461   25.8866 H   0  0  0  0  0  0
  -20.9335  -29.8717   21.6890 H   0  0  0  0  0  0
  -26.0188  -38.2864   24.1398 H   0  0  0  0  0  0
  -32.5509  -18.9702   22.5043 H   0  0  0  0  0  0
  -32.0130  -16.6074   22.1874 H   0  0  0  0  0  0
  -28.5039  -17.6896   19.9694 H   0  0  0  0  0  0
  -26.9526  -19.2235   20.1156 H   0  0  0  0  0  0
  -32.3288  -21.2026   22.0062 H   0  0  0  0  0  0
  -30.6751  -21.6958   22.3288 H   0  0  0  0  0  0
  -31.3132  -21.7099   20.6711 H   0  0  0  0  0  0
  -27.6686  -23.8617   21.9769 H   0  0  0  0  0  0
  -26.8715  -24.3258   20.5161 H   0  0  0  0  0  0
  -29.6279  -25.4640   21.1957 H   0  0  0  0  0  0
  -28.2457  -26.0651   22.0374 H   0  0  0  0  0  0
  -29.3310  -20.7561   19.1173 H   0  0  0  0  0  0
  -27.2853  -21.3352   18.1700 H   0  0  0  0  0  0
  -28.8882  -15.3596   20.9767 H   0  0  0  0  0  0
  -28.0468  -21.7064   21.6254 H   0  0  0  0  0  0
  1 25  1  0  0  0
  1 30  2  0  0  0
  1 84  1  0  0  0
  2  3  1  0  0  0
  2 25  1  0  0  0
  2 87  1  0  0  0
  2 88  1  0  0  0
  3  4  1  0  0  0
  3 89  1  0  0  0
  3 90  1  0  0  0
  4  5  1  0  0  0
  4 91  1  0  0  0
  4 92  1  0  0  0
  5  6  1  0  0  0
  5 26  1  0  0  0
  5 93  1  0  0  0
  6 25  1  0  0  0
  6 94  1  0  0  0
  6 95  1  0  0  0
  7  8  2  0  0  0
  7 26  1  0  0  0
  7 29  1  0  0  0
  8  9  1  0  0  0
  8 22  1  0  0  0
  9 10  1  0  0  0
  9 27  2  0  0  0
 10 11  2  0  0  0
 10 15  1  0  0  0
 11 12  1  0  0  0
 11 96  1  0  0  0
 12 13  2  0  0  0
 12 97  1  0  0  0
 13 14  1  0  0  0
 13 31  1  0  0  0
 14 15  2  0  0  0
 14 98  1  0  0  0
 15 99  1  0  0  0
 16 17  2  0  0  0
 16 21  1  0  0  0
 16 31  1  0  0  0
 17 18  1  0  0  0
 17100  1  0  0  0
 18 19  2  0  0  0
 18101  1  0  0  0
 19 20  1  0  0  0
 19 24  1  0  0  0
 20 21  2  0  0  0
 20102  1  0  0  0
 21 23  1  0  0  0
 22 28  1  0  0  0
 22 32  2  0  0  0
 26 27  1  0  0  0
 28103  1  0  0  0
 28104  1  0  0  0
 29105  1  0  0  0
 29106  1  0  0  0
 33 34  1  0  0  0
 33 66  1  0  0  0
 33 70  2  0  0  0
 34 36  1  0  0  0
 34 59  1  0  0  0
 34107  1  0  0  0
 35 44  2  0  0  0
 35 45  1  0  0  0
 35 68  1  0  0  0
 36 56  1  0  0  0
 36108  1  0  0  0
 37 39  1  0  0  0
 37 47  1  0  0  0
 37 66  1  0  0  0
 37109  1  0  0  0
 38 43  2  0  0  0
 38 46  1  0  0  0
 38 47  1  0  0  0
 39 64  1  0  0  0
 39 67  2  0  0  0
 40 52  1  0  0  0
 40 53  2  0  0  0
 40 58  1  0  0  0
 41110  1  0  0  0
 41111  1  0  0  0
 41112  1  0  0  0
 41 48  1  0  0  0
 42 43  1  0  0  0
 42 66  1  0  0  0
 42113  1  0  0  0
 42114  1  0  0  0
 43 44  1  0  0  0
 44115  1  0  0  0
 45 46  2  0  0  0
 45116  1  0  0  0
 46117  1  0  0  0
 47118  1  0  0  0
 47119  1  0  0  0
 48 56  1  0  0  0
 48 65  1  0  0  0
 48120  1  0  0  0
 49 50  1  0  0  0
 49 53  1  0  0  0
 49 64  1  0  0  0
 49121  1  0  0  0
 50 51  1  0  0  0
 50122  1  0  0  0
 50123  1  0  0  0
 51 52  1  0  0  0
 51124  1  0  0  0
 51125  1  0  0  0
 52126  1  0  0  0
 52127  1  0  0  0
 53 54  1  0  0  0
 54 55  2  0  0  0
 54128  1  0  0  0
 55 57  1  0  0  0
 55129  1  0  0  0
 56 69  2  0  0  0
 57 58  2  0  0  0
 57130  1  0  0  0
 58131  1  0  0  0
 59 60  1  0  0  0
 59 61  1  0  0  0
 59 62  1  0  0  0
 60132  1  0  0  0
 60133  1  0  0  0
 60134  1  0  0  0
 61135  1  0  0  0
 61136  1  0  0  0
 61137  1  0  0  0
 62138  1  0  0  0
 62139  1  0  0  0
 62140  1  0  0  0
 63 65  1  0  0  0
 63141  1  0  0  0
 63142  1  0  0  0
 63143  1  0  0  0
 64144  1  0  0  0
 65145  1  0  0  0
 68 81  1  0  0  0
 71 72  2  0  0  0
 71 74  1  0  0  0
 71146  1  0  0  0
 72 76  1  0  0  0
 72147  1  0  0  0
 73 75  1  0  0  0
 73 76  2  0  0  0
 73148  1  0  0  0
 74 75  2  0  0  0
 74 79  1  0  0  0
 75 82  1  0  0  0
 76 84  1  0  0  0
 77 82  1  0  0  0
 77 83  2  0  0  0
 77149  1  0  0  0
 78 80  1  0  0  0
 78 85  1  0  0  0
 78 86  2  0  0  0
 79150  1  0  0  0
 79151  1  0  0  0
 79152  1  0  0  0
 80 81  1  0  0  0
 80153  1  0  0  0
 80154  1  0  0  0
 81155  1  0  0  0
 81156  1  0  0  0
 82 85  1  0  0  0
 82157  1  0  0  0
 83158  1  0  0  0
 84159  1  0  0  0
 85160  1  0  0  0
M  ISO  4   1 100  68 101  81 101  84 100
M  END
> <chiral flag>
0

> <version>
0

> <s_m_source_file>
/data/baiqing/PycharmProjects/Reinvent-master-3.2/result/LINK_invent/BTK/process_docking_weight1_custom_product_contain_oxygen_bond_distance_aromatic_linkinvent_7_9_3/rearranged_h_0055.sdf

> <i_m_source_file_index>
78

> <r_mmod_Potential_Energy-OPLS-2005>
-92.9580154418945

> <r_mmod_Stretch_Energy-OPLS-2005>
56.1743469238281

> <r_mmod_Bend_Energy-OPLS-2005>
121.263557434082

> <r_mmod_Torsional_Energy-OPLS-2005>
242.728103637695

> <r_mmod_Improper_Torsional_Energy-OPLS-2005>
6.93657732009888

> <r_mmod_Van_der_Waal_Energy-OPLS-2005>
150.48811340332

> <r_mmod_Electrostatic_Energy-OPLS-2005>
-441.343139648438

> <r_mmod_Solvation_Energy-OPLS-2005>
-251.67138671875

> <b_mmod_Minimization_Converged-OPLS-2005>
0

> <r_mmod_RMS_Derivative-OPLS-2005>
1.26441264152527

$$$$
78
                    3D
 Structure written by MMmdl.
163172  0  0  1  0            999 V2000
  -30.6986  -14.6614   20.4868 C   0  0  0  0  0  0
  -30.4123  -12.4095   19.4695 C   0  0  0  0  0  0
  -29.5029  -12.5050   18.2293 C   0  0  0  0  0  0
  -28.0289  -12.3291   18.6422 C   0  0  0  0  0  0
  -27.6388  -13.2357   19.8409 C   0  0  2  0  0  0
  -28.6833  -13.1765   20.9796 C   0  0  0  0  0  0
  -25.2489  -13.8219   20.5675 C   0  0  0  0  0  0
  -24.1775  -13.0451   20.9202 C   0  0  0  0  0  0
  -24.6383  -11.6938   20.8734 C   0  0  0  0  0  0
  -23.9052  -10.4314   21.0384 C   0  0  0  0  0  0
  -24.3606   -9.4217   21.9148 C   0  0  0  0  0  0
  -23.6296   -8.2246   22.0729 C   0  0  0  0  0  0
  -22.4276   -8.0273   21.3535 C   0  0  0  0  0  0
  -21.9907   -9.0251   20.4635 C   0  0  0  0  0  0
  -22.7230  -10.2139   20.3035 C   0  0  0  0  0  0
  -21.6854   -6.0721   22.5276 C   0  0  0  0  0  0
  -21.4014   -6.5615   23.8213 C   0  0  0  0  0  0
  -21.3667   -5.6766   24.9170 C   0  0  0  0  0  0
  -21.6050   -4.3034   24.7217 C   0  0  0  0  0  0
  -21.8814   -3.8128   23.4343 C   0  0  0  0  0  0
  -21.9184   -4.6943   22.3401 C   0  0  0  0  0  0
  -22.7784  -13.5224   21.1850 C   0  0  0  0  0  0
  -22.1653   -4.2126   21.0978 F   0  0  0  0  0  0
  -21.5642   -3.4524   25.7737 F   0  0  0  0  0  0
  -29.9950  -13.4852   20.3955 N   0  0  0  0  0  0
  -26.2915  -12.9441   20.3239 N   0  0  0  0  0  0
  -25.9302  -11.6574   20.5697 N   0  0  0  0  0  0
  -22.0416  -12.8259   22.0430 N   0  0  0  0  0  0
  -25.4176  -15.1954   20.4083 N   0  0  0  0  0  0
  -31.8851  -14.6867   20.1508 O   0  0  0  0  0  0
  -21.6643   -6.8872   21.4246 O   0  0  0  0  0  0
  -22.3462  -14.5512   20.6653 O   0  0  0  0  0  0
  -24.6258  -31.8607   23.2006 C   0  0  0  0  0  0
  -25.9100  -32.4796   23.8368 C   0  0  1  0  0  0
  -27.2291  -27.3069   20.1180 C   0  0  0  0  0  0
  -25.5891  -33.8594   24.2275 N   0  0  0  0  0  0
  -23.4208  -30.4854   21.5437 C   0  0  2  0  0  0
  -24.8677  -28.9378   20.1110 C   0  0  0  0  0  0
  -22.7490  -29.4645   22.4916 C   0  0  0  0  0  0
  -18.0297  -28.1393   22.8471 C   0  0  0  0  0  0
  -24.1484  -36.7315   23.2646 C   0  0  0  0  0  0
  -25.9642  -30.7834   21.3797 C   0  0  0  0  0  0
  -26.0354  -29.4124   20.7192 C   0  0  0  0  0  0
  -27.2126  -28.6080   20.7142 C   0  0  0  0  0  0
  -26.0298  -26.8847   19.4926 C   0  0  0  0  0  0
  -24.8689  -27.6804   19.4907 C   0  0  0  0  0  0
  -23.6387  -29.8229   20.1581 C   0  0  0  0  0  0
  -25.4113  -36.3108   24.0330 C   0  0  1  0  0  0
  -20.5890  -28.3701   23.1269 C   0  0  2  0  0  0
  -20.6780  -26.9423   22.5411 C   0  0  0  0  0  0
  -19.5768  -26.6389   21.5201 C   0  0  0  0  0  0
  -18.1945  -26.7939   22.1612 C   0  0  0  0  0  0
  -19.1543  -28.8867   23.2866 C   0  0  0  0  0  0
  -18.9472  -30.1454   23.8900 C   0  0  0  0  0  0
  -17.6470  -30.6595   24.0563 C   0  0  0  0  0  0
  -25.9040  -34.9466   23.5122 C   0  0  0  0  0  0
  -16.5363  -29.9097   23.6316 C   0  0  0  0  0  0
  -16.7286  -28.6514   23.0343 C   0  0  0  0  0  0
  -26.4451  -31.6619   25.0768 C   0  0  0  0  0  0
  -25.3666  -31.3767   26.1494 C   0  0  0  0  0  0
  -27.0302  -30.3039   24.6259 C   0  0  0  0  0  0
  -27.6040  -32.4340   25.7514 C   0  0  0  0  0  0
  -27.5584  -37.1822   24.8452 C   0  0  0  0  0  0
  -21.4206  -29.3051   22.3657 N   0  0  0  0  0  0
  -26.4299  -37.3797   23.9399 N   0  0  0  0  0  0
  -24.6894  -31.0599   22.0977 N   0  0  0  0  0  0
  -23.4214  -28.8199   23.3006 O   0  0  0  0  0  0
  -28.3743  -26.4945   20.2103 O   0  0  0  0  0  0
  -26.5642  -34.8936   22.4694 O   0  0  0  0  0  0
  -23.5412  -32.1438   23.7296 O   0  0  0  0  0  0
  -29.0491  -19.2079   20.8881 C   0  0  0  0  0  0
  -31.3825  -19.5447   20.4678 C   0  0  0  0  0  0
  -28.8343  -20.6332   20.7840 C   0  0  0  0  0  0
  -31.1686  -20.9439   20.3763 C   0  0  0  0  0  0
  -30.3470  -18.6238   20.7600 C   0  0  0  0  0  0
  -29.9014  -21.5622   20.5646 C   0  0  0  0  0  0
  -30.9561  -23.7574   20.9097 C   0  0  0  0  0  0
  -31.3377  -23.9340   22.1857 C   0  0  0  0  0  0
  -31.7262  -24.3532   19.7474 C   0  0  0  0  0  0
  -31.0229  -25.5676   19.1338 C   0  0  0  0  0  0
  -29.6307  -25.2440   18.5673 C   0  0  0  0  0  0
  -28.5665  -23.8214   20.5470 C   0  0  0  0  0  0
  -28.5039  -25.1387   19.6151 C   0  0  1  0  0  0
  -30.7989  -17.1371   21.0879 C   0  0  0  0  0  0
  -29.8334  -23.0162   20.5606 N   0  0  0  0  0  0
  -30.0608  -15.8466   20.7891 N   0  0  0  0  0  0
  -31.4599  -12.4838   19.1740 H   0  0  0  0  0  0
  -30.3049  -11.4327   19.9475 H   0  0  0  0  0  0
  -29.7891  -11.7499   17.4967 H   0  0  0  0  0  0
  -29.6372  -13.4730   17.7446 H   0  0  0  0  0  0
  -27.8885  -11.2826   18.9106 H   0  0  0  0  0  0
  -27.3681  -12.5090   17.7925 H   0  0  0  0  0  0
  -27.6323  -14.2552   19.4490 H   0  0  0  0  0  0
  -28.6967  -12.1879   21.4439 H   0  0  0  0  0  0
  -28.4296  -13.8850   21.7690 H   0  0  0  0  0  0
  -25.2742   -9.5705   22.4712 H   0  0  0  0  0  0
  -23.9998   -7.4645   22.7456 H   0  0  0  0  0  0
  -21.0822   -8.8776   19.8962 H   0  0  0  0  0  0
  -22.3672  -10.9660   19.6140 H   0  0  0  0  0  0
  -21.2018   -7.6124   23.9721 H   0  0  0  0  0  0
  -21.1495   -6.0488   25.9078 H   0  0  0  0  0  0
  -22.0594   -2.7581   23.2843 H   0  0  0  0  0  0
  -22.4009  -11.9958   22.4909 H   0  0  0  0  0  0
  -21.1020  -13.1290   22.2570 H   0  0  0  0  0  0
  -24.6478  -15.8481   20.5113 H   0  0  0  0  0  0
  -26.2704  -15.6344   20.0839 H   0  0  0  0  0  0
  -26.7178  -32.5448   23.1127 H   0  0  0  0  0  0
  -24.9962  -33.9716   25.0369 H   0  0  0  0  0  0
  -22.7172  -31.3088   21.4015 H   0  0  0  0  0  0
  -23.3760  -35.9637   23.3308 H   0  0  0  0  0  0
  -24.3580  -36.8948   22.2066 H   0  0  0  0  0  0
  -23.7223  -37.6509   23.6668 H   0  0  0  0  0  0
  -26.1032  -31.5455   20.6113 H   0  0  0  0  0  0
  -26.8404  -30.8255   22.0144 H   0  0  0  0  0  0
  -28.1076  -28.9686   21.2020 H   0  0  0  0  0  0
  -25.9263  -25.9264   19.0147 H   0  0  0  0  0  0
  -23.9717  -27.3049   19.0180 H   0  0  0  0  0  0
  -23.7732  -30.6039   19.4087 H   0  0  0  0  0  0
  -22.7563  -29.2640   19.8424 H   0  0  0  0  0  0
  -25.1288  -36.1985   25.0826 H   0  0  0  0  0  0
  -20.9971  -28.3297   24.1390 H   0  0  0  0  0  0
  -20.5656  -26.2316   23.3617 H   0  0  0  0  0  0
  -21.6657  -26.7451   22.1222 H   0  0  0  0  0  0
  -19.6919  -25.6293   21.1239 H   0  0  0  0  0  0
  -19.6709  -27.3190   20.6719 H   0  0  0  0  0  0
  -17.4213  -26.6694   21.4013 H   0  0  0  0  0  0
  -18.0353  -26.0076   22.8998 H   0  0  0  0  0  0
  -19.7949  -30.7244   24.2304 H   0  0  0  0  0  0
  -17.5038  -31.6274   24.5174 H   0  0  0  0  0  0
  -15.5364  -30.3006   23.7622 H   0  0  0  0  0  0
  -15.8696  -28.0824   22.7056 H   0  0  0  0  0  0
  -24.5804  -30.7162   25.7800 H   0  0  0  0  0  0
  -24.8886  -32.2933   26.4964 H   0  0  0  0  0  0
  -25.7956  -30.8895   27.0259 H   0  0  0  0  0  0
  -26.2897  -29.6816   24.1215 H   0  0  0  0  0  0
  -27.3908  -29.7278   25.4791 H   0  0  0  0  0  0
  -27.8803  -30.4335   23.9563 H   0  0  0  0  0  0
  -27.2683  -33.3618   26.2158 H   0  0  0  0  0  0
  -28.3798  -32.6945   25.0298 H   0  0  0  0  0  0
  -28.0783  -31.8437   26.5369 H   0  0  0  0  0  0
  -28.2604  -38.0116   24.7499 H   0  0  0  0  0  0
  -28.1078  -36.2652   24.6264 H   0  0  0  0  0  0
  -27.2304  -37.1464   25.8855 H   0  0  0  0  0  0
  -20.9391  -29.8788   21.6868 H   0  0  0  0  0  0
  -26.0198  -38.2875   24.1402 H   0  0  0  0  0  0
  -28.2065  -18.5719   21.1208 H   0  0  0  0  0  0
  -32.3981  -19.1904   20.3581 H   0  0  0  0  0  0
  -27.8325  -21.0139   20.9357 H   0  0  0  0  0  0
  -32.0422  -21.5511   20.1852 H   0  0  0  0  0  0
  -32.2158  -24.5175   22.4284 H   0  0  0  0  0  0
  -30.7800  -23.5097   23.0089 H   0  0  0  0  0  0
  -31.8496  -23.5915   18.9752 H   0  0  0  0  0  0
  -32.7363  -24.6203   20.0662 H   0  0  0  0  0  0
  -31.6477  -25.9432   18.3224 H   0  0  0  0  0  0
  -30.9614  -26.3796   19.8614 H   0  0  0  0  0  0
  -29.6754  -24.3261   17.9796 H   0  0  0  0  0  0
  -29.3636  -26.0319   17.8624 H   0  0  0  0  0  0
  -27.7479  -23.1658   20.2553 H   0  0  0  0  0  0
  -28.3365  -24.1156   21.5725 H   0  0  0  0  0  0
  -27.6408  -24.9395   18.9933 H   0  0  0  0  0  0
  -30.9987  -17.1230   22.1621 H   0  0  0  0  0  0
  -31.7919  -17.0563   20.6353 H   0  0  0  0  0  0
  -29.0661  -15.8194   20.9592 H   0  0  0  0  0  0
  1 25  1  0  0  0
  1 30  2  0  0  0
  1 86  1  0  0  0
  2  3  1  0  0  0
  2 25  1  0  0  0
  2 87  1  0  0  0
  2 88  1  0  0  0
  3  4  1  0  0  0
  3 89  1  0  0  0
  3 90  1  0  0  0
  4  5  1  0  0  0
  4 91  1  0  0  0
  4 92  1  0  0  0
  5  6  1  0  0  0
  5 26  1  0  0  0
  5 93  1  0  0  0
  6 25  1  0  0  0
  6 94  1  0  0  0
  6 95  1  0  0  0
  7  8  2  0  0  0
  7 26  1  0  0  0
  7 29  1  0  0  0
  8  9  1  0  0  0
  8 22  1  0  0  0
  9 10  1  0  0  0
  9 27  2  0  0  0
 10 11  2  0  0  0
 10 15  1  0  0  0
 11 12  1  0  0  0
 11 96  1  0  0  0
 12 13  2  0  0  0
 12 97  1  0  0  0
 13 14  1  0  0  0
 13 31  1  0  0  0
 14 15  2  0  0  0
 14 98  1  0  0  0
 15 99  1  0  0  0
 16 17  2  0  0  0
 16 21  1  0  0  0
 16 31  1  0  0  0
 17 18  1  0  0  0
 17100  1  0  0  0
 18 19  2  0  0  0
 18101  1  0  0  0
 19 20  1  0  0  0
 19 24  1  0  0  0
 20 21  2  0  0  0
 20102  1  0  0  0
 21 23  1  0  0  0
 22 28  1  0  0  0
 22 32  2  0  0  0
 26 27  1  0  0  0
 28103  1  0  0  0
 28104  1  0  0  0
 29105  1  0  0  0
 29106  1  0  0  0
 33 34  1  0  0  0
 33 66  1  0  0  0
 33 70  2  0  0  0
 34 36  1  0  0  0
 34 59  1  0  0  0
 34107  1  0  0  0
 35 44  2  0  0  0
 35 45  1  0  0  0
 35 68  1  0  0  0
 36 56  1  0  0  0
 36108  1  0  0  0
 37 39  1  0  0  0
 37 47  1  0  0  0
 37 66  1  0  0  0
 37109  1  0  0  0
 38 43  2  0  0  0
 38 46  1  0  0  0
 38 47  1  0  0  0
 39 64  1  0  0  0
 39 67  2  0  0  0
 40 52  1  0  0  0
 40 53  2  0  0  0
 40 58  1  0  0  0
 41110  1  0  0  0
 41111  1  0  0  0
 41112  1  0  0  0
 41 48  1  0  0  0
 42 43  1  0  0  0
 42 66  1  0  0  0
 42113  1  0  0  0
 42114  1  0  0  0
 43 44  1  0  0  0
 44115  1  0  0  0
 45 46  2  0  0  0
 45116  1  0  0  0
 46117  1  0  0  0
 47118  1  0  0  0
 47119  1  0  0  0
 48 56  1  0  0  0
 48 65  1  0  0  0
 48120  1  0  0  0
 49 50  1  0  0  0
 49 53  1  0  0  0
 49 64  1  0  0  0
 49121  1  0  0  0
 50 51  1  0  0  0
 50122  1  0  0  0
 50123  1  0  0  0
 51 52  1  0  0  0
 51124  1  0  0  0
 51125  1  0  0  0
 52126  1  0  0  0
 52127  1  0  0  0
 53 54  1  0  0  0
 54 55  2  0  0  0
 54128  1  0  0  0
 55 57  1  0  0  0
 55129  1  0  0  0
 56 69  2  0  0  0
 57 58  2  0  0  0
 57130  1  0  0  0
 58131  1  0  0  0
 59 60  1  0  0  0
 59 61  1  0  0  0
 59 62  1  0  0  0
 60132  1  0  0  0
 60133  1  0  0  0
 60134  1  0  0  0
 61135  1  0  0  0
 61136  1  0  0  0
 61137  1  0  0  0
 62138  1  0  0  0
 62139  1  0  0  0
 62140  1  0  0  0
 63 65  1  0  0  0
 63141  1  0  0  0
 63142  1  0  0  0
 63143  1  0  0  0
 64144  1  0  0  0
 65145  1  0  0  0
 68 83  1  0  0  0
 71 73  2  0  0  0
 71 75  1  0  0  0
 71146  1  0  0  0
 72 74  1  0  0  0
 72 75  2  0  0  0
 72147  1  0  0  0
 73 76  1  0  0  0
 73148  1  0  0  0
 74 76  2  0  0  0
 74149  1  0  0  0
 75 84  1  0  0  0
 76 85  1  0  0  0
 77 78  2  0  0  0
 77 79  1  0  0  0
 77 85  1  0  0  0
 78150  1  0  0  0
 78151  1  0  0  0
 79 80  1  0  0  0
 79152  1  0  0  0
 79153  1  0  0  0
 80 81  1  0  0  0
 80154  1  0  0  0
 80155  1  0  0  0
 81 83  1  0  0  0
 81156  1  0  0  0
 81157  1  0  0  0
 82 83  1  0  0  0
 82 85  1  0  0  0
 82158  1  0  0  0
 82159  1  0  0  0
 83160  1  0  0  0
 84 86  1  0  0  0
 84161  1  0  0  0
 84162  1  0  0  0
 86163  1  0  0  0
M  ISO  4   1 100  68 101  83 101  86 100
M  END
> <chiral flag>
0

> <version>
0

> <s_m_source_file>
/data/baiqing/PycharmProjects/Reinvent-master-3.2/result/LINK_invent/BTK/process_docking_weight1_custom_product_contain_oxygen_bond_distance_aromatic_linkinvent_7_9_3/rearranged_h_0055.sdf

> <i_m_source_file_index>
79

> <r_mmod_Potential_Energy-OPLS-2005>
143.805450439453

> <r_mmod_Stretch_Energy-OPLS-2005>
96.2669296264648

> <r_mmod_Bend_Energy-OPLS-2005>
208.014282226562

> <r_mmod_Torsional_Energy-OPLS-2005>
261.802673339844

> <r_mmod_Improper_Torsional_Energy-OPLS-2005>
5.09495782852173

> <r_mmod_Van_der_Waal_Energy-OPLS-2005>
156.391204833984

> <r_mmod_Electrostatic_Energy-OPLS-2005>
-435.364562988281

> <r_mmod_Solvation_Energy-OPLS-2005>
-207.72868347168

> <b_mmod_Minimization_Converged-OPLS-2005>
0

> <r_mmod_RMS_Derivative-OPLS-2005>
3.69680905342102

$$$$
79
                    3D
 Structure written by MMmdl.
161169  0  0  1  0            999 V2000
  -30.6328  -14.6025   20.5126 C   0  0  0  0  0  0
  -30.4441  -12.3606   19.4460 C   0  0  0  0  0  0
  -29.5064  -12.4403   18.2198 C   0  0  0  0  0  0
  -28.0201  -12.3359   18.6268 C   0  0  0  0  0  0
  -27.6566  -13.1961   19.8676 C   0  0  2  0  0  0
  -28.7068  -13.0038   20.9834 C   0  0  0  0  0  0
  -25.2603  -13.8124   20.5709 C   0  0  0  0  0  0
  -24.1829  -13.0417   20.9157 C   0  0  0  0  0  0
  -24.6371  -11.6881   20.8733 C   0  0  0  0  0  0
  -23.9039  -10.4277   21.0406 C   0  0  0  0  0  0
  -24.3597   -9.4196   21.9185 C   0  0  0  0  0  0
  -23.6277   -8.2231   22.0754 C   0  0  0  0  0  0
  -22.4261   -8.0271   21.3542 C   0  0  0  0  0  0
  -21.9893   -9.0243   20.4644 C   0  0  0  0  0  0
  -22.7216  -10.2124   20.3055 C   0  0  0  0  0  0
  -21.6847   -6.0730   22.5279 C   0  0  0  0  0  0
  -21.4012   -6.5636   23.8212 C   0  0  0  0  0  0
  -21.3658   -5.6792   24.9176 C   0  0  0  0  0  0
  -21.6043   -4.3055   24.7228 C   0  0  0  0  0  0
  -21.8820   -3.8145   23.4350 C   0  0  0  0  0  0
  -21.9190   -4.6960   22.3404 C   0  0  0  0  0  0
  -22.7859  -13.5233   21.1825 C   0  0  0  0  0  0
  -22.1656   -4.2144   21.0981 F   0  0  0  0  0  0
  -21.5630   -3.4539   25.7739 F   0  0  0  0  0  0
  -30.0129  -13.3798   20.4237 N   0  0  0  0  0  0
  -26.3013  -12.9261   20.3378 N   0  0  0  0  0  0
  -25.9295  -11.6434   20.5781 N   0  0  0  0  0  0
  -22.0503  -12.8234   22.0392 N   0  0  0  0  0  0
  -25.4391  -15.1836   20.4205 N   0  0  0  0  0  0
  -31.7977  -14.7248   20.1174 O   0  0  0  0  0  0
  -21.6629   -6.8868   21.4238 O   0  0  0  0  0  0
  -22.3545  -14.5538   20.6675 O   0  0  0  0  0  0
  -24.6191  -31.8636   23.2066 C   0  0  0  0  0  0
  -25.9069  -32.4798   23.8372 C   0  0  1  0  0  0
  -27.2394  -27.3888   20.0935 C   0  0  0  0  0  0
  -25.5908  -33.8598   24.2303 N   0  0  0  0  0  0
  -23.4090  -30.4867   21.5476 C   0  0  2  0  0  0
  -24.8553  -28.9469   20.1123 C   0  0  0  0  0  0
  -22.7431  -29.4638   22.4969 C   0  0  0  0  0  0
  -18.0277  -28.1380   22.8495 C   0  0  0  0  0  0
  -24.1488  -36.7304   23.2639 C   0  0  0  0  0  0
  -25.9424  -30.8149   21.3663 C   0  0  0  0  0  0
  -26.0175  -29.4465   20.7103 C   0  0  0  0  0  0
  -27.2065  -28.6743   20.6982 C   0  0  0  0  0  0
  -26.0464  -26.9083   19.5037 C   0  0  0  0  0  0
  -24.8671  -27.6789   19.5078 C   0  0  0  0  0  0
  -23.6191  -29.8182   20.1627 C   0  0  0  0  0  0
  -25.4112  -36.3096   24.0333 C   0  0  1  0  0  0
  -20.5870  -28.3671   23.1311 C   0  0  2  0  0  0
  -20.6765  -26.9402   22.5418 C   0  0  0  0  0  0
  -19.5745  -26.6385   21.5214 C   0  0  0  0  0  0
  -18.1923  -26.7929   22.1623 C   0  0  0  0  0  0
  -19.1528  -28.8843   23.2899 C   0  0  0  0  0  0
  -18.9452  -30.1450   23.8909 C   0  0  0  0  0  0
  -17.6452  -30.6586   24.0566 C   0  0  0  0  0  0
  -25.9042  -34.9463   23.5116 C   0  0  0  0  0  0
  -16.5344  -29.9086   23.6327 C   0  0  0  0  0  0
  -16.7266  -28.6502   23.0351 C   0  0  0  0  0  0
  -26.4483  -31.6594   25.0719 C   0  0  0  0  0  0
  -25.3737  -31.3706   26.1457 C   0  0  0  0  0  0
  -27.0325  -30.3032   24.6126 C   0  0  0  0  0  0
  -27.6047  -32.4324   25.7487 C   0  0  0  0  0  0
  -27.5583  -37.1806   24.8466 C   0  0  0  0  0  0
  -21.4153  -29.3032   22.3711 N   0  0  0  0  0  0
  -26.4297  -37.3783   23.9408 N   0  0  0  0  0  0
  -24.6752  -31.0703   22.0981 N   0  0  0  0  0  0
  -23.4183  -28.8181   23.3028 O   0  0  0  0  0  0
  -28.4180  -26.6508   20.1460 O   0  0  0  0  0  0
  -26.5603  -34.8919   22.4678 O   0  0  0  0  0  0
  -23.5374  -32.1406   23.7438 O   0  0  0  0  0  0
  -29.7067  -19.7343   18.7290 C   0  0  0  0  0  0
  -29.8130  -18.5215   18.0318 C   0  0  0  0  0  0
  -29.8146  -18.4967   20.8195 C   0  0  0  0  0  0
  -29.6788  -19.7425   20.1326 C   0  0  0  0  0  0
  -29.8850  -17.2840   18.7091 C   0  0  0  0  0  0
  -29.9209  -17.2400   20.1372 C   0  0  0  0  0  0
  -27.9053  -23.0682   20.2549 C   0  0  0  0  0  0
  -29.8465  -16.0458   17.8378 C   0  0  0  0  0  0
  -27.0161  -20.8594   20.7875 C   0  0  0  0  0  0
  -29.4702  -21.0982   20.8542 C   0  0  0  0  0  0
  -29.0216  -24.1354   20.1134 C   0  0  0  0  0  0
  -28.6385  -25.4578   19.3450 C   0  0  0  0  0  0
  -29.8932  -15.9249   20.9962 C   0  0  1  0  0  0
  -28.1618  -21.7619   20.5941 N   0  0  0  0  0  0
  -26.7450  -23.4457   20.0569 O   0  0  0  0  0  0
  -28.6016  -15.7244   21.2519 F   0  0  0  0  0  0
  -31.4803  -12.4913   19.1308 H   0  0  0  0  0  0
  -30.3995  -11.3673   19.8955 H   0  0  0  0  0  0
  -29.7486  -11.6374   17.5226 H   0  0  0  0  0  0
  -29.6853  -13.3585   17.6681 H   0  0  0  0  0  0
  -27.8196  -11.2858   18.8424 H   0  0  0  0  0  0
  -27.3787  -12.5969   17.7841 H   0  0  0  0  0  0
  -27.6805  -14.2342   19.5440 H   0  0  0  0  0  0
  -28.7234  -11.9599   21.2996 H   0  0  0  0  0  0
  -28.4621  -13.5540   21.8905 H   0  0  0  0  0  0
  -25.2738   -9.5676   22.4764 H   0  0  0  0  0  0
  -23.9986   -7.4624   22.7475 H   0  0  0  0  0  0
  -21.0827   -8.8759   19.8950 H   0  0  0  0  0  0
  -22.3670  -10.9666   19.6169 H   0  0  0  0  0  0
  -21.2004   -7.6144   23.9714 H   0  0  0  0  0  0
  -21.1479   -6.0523   25.9078 H   0  0  0  0  0  0
  -22.0601   -2.7609   23.2853 H   0  0  0  0  0  0
  -22.4118  -11.9895   22.4776 H   0  0  0  0  0  0
  -21.1129  -13.1276   22.2610 H   0  0  0  0  0  0
  -24.6961  -15.8543   20.5804 H   0  0  0  0  0  0
  -26.3413  -15.6159   20.2588 H   0  0  0  0  0  0
  -26.7137  -32.5492   23.1128 H   0  0  0  0  0  0
  -25.0069  -33.9753   25.0455 H   0  0  0  0  0  0
  -22.7001  -31.3051   21.4065 H   0  0  0  0  0  0
  -23.3748  -35.9638   23.3306 H   0  0  0  0  0  0
  -24.3577  -36.8916   22.2052 H   0  0  0  0  0  0
  -23.7244  -37.6510   23.6654 H   0  0  0  0  0  0
  -26.0632  -31.5816   20.5996 H   0  0  0  0  0  0
  -26.8269  -30.8643   21.9900 H   0  0  0  0  0  0
  -28.1029  -29.0586   21.1649 H   0  0  0  0  0  0
  -25.9836  -25.9265   19.0613 H   0  0  0  0  0  0
  -23.9689  -27.2819   19.0552 H   0  0  0  0  0  0
  -23.7296  -30.5926   19.4028 H   0  0  0  0  0  0
  -22.7420  -29.2400   19.8666 H   0  0  0  0  0  0
  -25.1292  -36.1954   25.0827 H   0  0  0  0  0  0
  -20.9964  -28.3237   24.1431 H   0  0  0  0  0  0
  -20.5667  -26.2275   23.3606 H   0  0  0  0  0  0
  -21.6636  -26.7439   22.1212 H   0  0  0  0  0  0
  -19.6904  -25.6298   21.1238 H   0  0  0  0  0  0
  -19.6689  -27.3199   20.6748 H   0  0  0  0  0  0
  -17.4195  -26.6689   21.4020 H   0  0  0  0  0  0
  -18.0315  -26.0065   22.9011 H   0  0  0  0  0  0
  -19.7927  -30.7263   24.2285 H   0  0  0  0  0  0
  -17.5007  -31.6269   24.5163 H   0  0  0  0  0  0
  -15.5344  -30.2989   23.7646 H   0  0  0  0  0  0
  -15.8668  -28.0824   22.7058 H   0  0  0  0  0  0
  -24.5921  -30.7042   25.7791 H   0  0  0  0  0  0
  -24.8916  -32.2862   26.4891 H   0  0  0  0  0  0
  -25.8083  -30.8887   27.0223 H   0  0  0  0  0  0
  -26.2881  -29.6785   24.1173 H   0  0  0  0  0  0
  -27.4075  -29.7278   25.4601 H   0  0  0  0  0  0
  -27.8724  -30.4343   23.9298 H   0  0  0  0  0  0
  -27.2654  -33.3611   26.2088 H   0  0  0  0  0  0
  -28.3844  -32.6909   25.0310 H   0  0  0  0  0  0
  -28.0732  -31.8438   26.5385 H   0  0  0  0  0  0
  -28.2603  -38.0101   24.7510 H   0  0  0  0  0  0
  -28.1076  -36.2631   24.6297 H   0  0  0  0  0  0
  -27.2297  -37.1465   25.8867 H   0  0  0  0  0  0
  -20.9315  -29.8753   21.6932 H   0  0  0  0  0  0
  -26.0182  -38.2861   24.1404 H   0  0  0  0  0  0
  -29.6149  -20.6605   18.1777 H   0  0  0  0  0  0
  -29.7938  -18.5487   16.9507 H   0  0  0  0  0  0
  -29.7814  -18.4974   21.9003 H   0  0  0  0  0  0
  -29.6287  -16.2904   16.7977 H   0  0  0  0  0  0
  -29.0495  -15.3892   18.1759 H   0  0  0  0  0  0
  -30.8006  -15.5205   17.8471 H   0  0  0  0  0  0
  -26.2198  -21.3334   21.3642 H   0  0  0  0  0  0
  -27.2840  -19.9522   21.3296 H   0  0  0  0  0  0
  -26.6046  -20.5623   19.8220 H   0  0  0  0  0  0
  -30.3011  -21.7497   20.5858 H   0  0  0  0  0  0
  -29.5604  -20.9446   21.9303 H   0  0  0  0  0  0
  -29.8319  -23.6672   19.5558 H   0  0  0  0  0  0
  -29.4250  -24.3721   21.0975 H   0  0  0  0  0  0
  -27.8774  -25.2707   18.5911 H   0  0  0  0  0  0
  -29.5071  -25.7159   18.7386 H   0  0  0  0  0  0
  -30.3332  -16.1566   21.9659 H   0  0  0  0  0  0
  1 25  1  0  0  0
  1 30  2  0  0  0
  1 83  1  0  0  0
  2  3  1  0  0  0
  2 25  1  0  0  0
  2 87  1  0  0  0
  2 88  1  0  0  0
  3  4  1  0  0  0
  3 89  1  0  0  0
  3 90  1  0  0  0
  4  5  1  0  0  0
  4 91  1  0  0  0
  4 92  1  0  0  0
  5  6  1  0  0  0
  5 26  1  0  0  0
  5 93  1  0  0  0
  6 25  1  0  0  0
  6 94  1  0  0  0
  6 95  1  0  0  0
  7  8  2  0  0  0
  7 26  1  0  0  0
  7 29  1  0  0  0
  8  9  1  0  0  0
  8 22  1  0  0  0
  9 10  1  0  0  0
  9 27  2  0  0  0
 10 11  2  0  0  0
 10 15  1  0  0  0
 11 12  1  0  0  0
 11 96  1  0  0  0
 12 13  2  0  0  0
 12 97  1  0  0  0
 13 14  1  0  0  0
 13 31  1  0  0  0
 14 15  2  0  0  0
 14 98  1  0  0  0
 15 99  1  0  0  0
 16 17  2  0  0  0
 16 21  1  0  0  0
 16 31  1  0  0  0
 17 18  1  0  0  0
 17100  1  0  0  0
 18 19  2  0  0  0
 18101  1  0  0  0
 19 20  1  0  0  0
 19 24  1  0  0  0
 20 21  2  0  0  0
 20102  1  0  0  0
 21 23  1  0  0  0
 22 28  1  0  0  0
 22 32  2  0  0  0
 26 27  1  0  0  0
 28103  1  0  0  0
 28104  1  0  0  0
 29105  1  0  0  0
 29106  1  0  0  0
 33 34  1  0  0  0
 33 66  1  0  0  0
 33 70  2  0  0  0
 34 36  1  0  0  0
 34 59  1  0  0  0
 34107  1  0  0  0
 35 44  2  0  0  0
 35 45  1  0  0  0
 35 68  1  0  0  0
 36 56  1  0  0  0
 36108  1  0  0  0
 37 39  1  0  0  0
 37 47  1  0  0  0
 37 66  1  0  0  0
 37109  1  0  0  0
 38 43  2  0  0  0
 38 46  1  0  0  0
 38 47  1  0  0  0
 39 64  1  0  0  0
 39 67  2  0  0  0
 40 52  1  0  0  0
 40 53  2  0  0  0
 40 58  1  0  0  0
 41110  1  0  0  0
 41111  1  0  0  0
 41112  1  0  0  0
 41 48  1  0  0  0
 42 43  1  0  0  0
 42 66  1  0  0  0
 42113  1  0  0  0
 42114  1  0  0  0
 43 44  1  0  0  0
 44115  1  0  0  0
 45 46  2  0  0  0
 45116  1  0  0  0
 46117  1  0  0  0
 47118  1  0  0  0
 47119  1  0  0  0
 48 56  1  0  0  0
 48 65  1  0  0  0
 48120  1  0  0  0
 49 50  1  0  0  0
 49 53  1  0  0  0
 49 64  1  0  0  0
 49121  1  0  0  0
 50 51  1  0  0  0
 50122  1  0  0  0
 50123  1  0  0  0
 51 52  1  0  0  0
 51124  1  0  0  0
 51125  1  0  0  0
 52126  1  0  0  0
 52127  1  0  0  0
 53 54  1  0  0  0
 54 55  2  0  0  0
 54128  1  0  0  0
 55 57  1  0  0  0
 55129  1  0  0  0
 56 69  2  0  0  0
 57 58  2  0  0  0
 57130  1  0  0  0
 58131  1  0  0  0
 59 60  1  0  0  0
 59 61  1  0  0  0
 59 62  1  0  0  0
 60132  1  0  0  0
 60133  1  0  0  0
 60134  1  0  0  0
 61135  1  0  0  0
 61136  1  0  0  0
 61137  1  0  0  0
 62138  1  0  0  0
 62139  1  0  0  0
 62140  1  0  0  0
 63 65  1  0  0  0
 63141  1  0  0  0
 63142  1  0  0  0
 63143  1  0  0  0
 64144  1  0  0  0
 65145  1  0  0  0
 68 82  1  0  0  0
 71 72  2  0  0  0
 71 74  1  0  0  0
 71146  1  0  0  0
 72 75  1  0  0  0
 72147  1  0  0  0
 73 74  2  0  0  0
 73 76  1  0  0  0
 73148  1  0  0  0
 74 80  1  0  0  0
 75 76  2  0  0  0
 75 78  1  0  0  0
 76 83  1  0  0  0
 77 81  1  0  0  0
 77 84  1  0  0  0
 77 85  2  0  0  0
 78149  1  0  0  0
 78150  1  0  0  0
 78151  1  0  0  0
 79 84  1  0  0  0
 79152  1  0  0  0
 79153  1  0  0  0
 79154  1  0  0  0
 80 84  1  0  0  0
 80155  1  0  0  0
 80156  1  0  0  0
 81 82  1  0  0  0
 81157  1  0  0  0
 81158  1  0  0  0
 82159  1  0  0  0
 82160  1  0  0  0
 83 86  1  0  0  0
 83161  1  0  0  0
M  ISO  4   1 100  68 101  82 101  83 100
M  END
> <chiral flag>
0

> <version>
0

> <s_m_source_file>
/data/baiqing/PycharmProjects/Reinvent-master-3.2/result/LINK_invent/BTK/process_docking_weight1_custom_product_contain_oxygen_bond_distance_aromatic_linkinvent_7_9_3/rearranged_h_0055.sdf

> <i_m_source_file_index>
80

> <r_mmod_Potential_Energy-OPLS-2005>
100.537010192871

> <r_mmod_Stretch_Energy-OPLS-2005>
65.769172668457

> <r_mmod_Bend_Energy-OPLS-2005>
152.951553344727

> <r_mmod_Torsional_Energy-OPLS-2005>
187.965789794922

> <r_mmod_Improper_Torsional_Energy-OPLS-2005>
3.36087417602539

> <r_mmod_Van_der_Waal_Energy-OPLS-2005>
161.029724121094

> <r_mmod_Electrostatic_Energy-OPLS-2005>
-288.443237304688

> <r_mmod_Solvation_Energy-OPLS-2005>
-211.605972290039

> <b_mmod_Minimization_Converged-OPLS-2005>
0

> <r_mmod_RMS_Derivative-OPLS-2005>
0.487498879432678

$$$$
80
                    3D
 Structure written by MMmdl.
154162  0  0  1  0            999 V2000
  -30.7031  -14.4668   20.5247 C   0  0  0  0  0  0
  -30.4175  -12.2872   19.4329 C   0  0  0  0  0  0
  -29.4959  -12.4895   18.2116 C   0  0  0  0  0  0
  -28.0158  -12.3581   18.6212 C   0  0  0  0  0  0
  -27.6609  -13.2070   19.8717 C   0  0  2  0  0  0
  -28.7020  -13.0040   20.9973 C   0  0  0  0  0  0
  -25.2587  -13.8166   20.5681 C   0  0  0  0  0  0
  -24.1836  -13.0444   20.9172 C   0  0  0  0  0  0
  -24.6387  -11.6910   20.8731 C   0  0  0  0  0  0
  -23.9054  -10.4297   21.0398 C   0  0  0  0  0  0
  -24.3610   -9.4214   21.9177 C   0  0  0  0  0  0
  -23.6289   -8.2248   22.0751 C   0  0  0  0  0  0
  -22.4269   -8.0284   21.3544 C   0  0  0  0  0  0
  -21.9900   -9.0257   20.4645 C   0  0  0  0  0  0
  -22.7226  -10.2137   20.3049 C   0  0  0  0  0  0
  -21.6853   -6.0738   22.5277 C   0  0  0  0  0  0
  -21.4019   -6.5640   23.8212 C   0  0  0  0  0  0
  -21.3658   -5.6791   24.9173 C   0  0  0  0  0  0
  -21.6041   -4.3054   24.7224 C   0  0  0  0  0  0
  -21.8820   -3.8148   23.4345 C   0  0  0  0  0  0
  -21.9194   -4.6966   22.3401 C   0  0  0  0  0  0
  -22.7859  -13.5246   21.1836 C   0  0  0  0  0  0
  -22.1661   -4.2152   21.0980 F   0  0  0  0  0  0
  -21.5624   -3.4536   25.7736 F   0  0  0  0  0  0
  -30.0358  -13.2853   20.4436 N   0  0  0  0  0  0
  -26.3019  -12.9335   20.3351 N   0  0  0  0  0  0
  -25.9311  -11.6495   20.5761 N   0  0  0  0  0  0
  -22.0499  -12.8249   22.0396 N   0  0  0  0  0  0
  -25.4314  -15.1885   20.4099 N   0  0  0  0  0  0
  -31.8616  -14.6038   20.1216 O   0  0  0  0  0  0
  -21.6636   -6.8880   21.4238 O   0  0  0  0  0  0
  -22.3548  -14.5553   20.6688 O   0  0  0  0  0  0
  -24.6141  -31.8694   23.2122 C   0  0  0  0  0  0
  -25.9040  -32.4832   23.8407 C   0  0  1  0  0  0
  -27.2325  -27.4370   20.0896 C   0  0  0  0  0  0
  -25.5903  -33.8630   24.2340 N   0  0  0  0  0  0
  -23.4008  -30.4950   21.5524 C   0  0  2  0  0  0
  -24.8450  -28.9645   20.1144 C   0  0  0  0  0  0
  -22.7406  -29.4669   22.4990 C   0  0  0  0  0  0
  -18.0271  -28.1379   22.8490 C   0  0  0  0  0  0
  -24.1488  -36.7315   23.2638 C   0  0  0  0  0  0
  -25.9302  -30.8347   21.3658 C   0  0  0  0  0  0
  -26.0053  -29.4700   20.7124 C   0  0  0  0  0  0
  -27.1986  -28.7122   20.7002 C   0  0  0  0  0  0
  -26.0495  -26.9515   19.4796 C   0  0  0  0  0  0
  -24.8621  -27.7036   19.4974 C   0  0  0  0  0  0
  -23.6086  -29.8316   20.1657 C   0  0  0  0  0  0
  -25.4111  -36.3117   24.0339 C   0  0  1  0  0  0
  -20.5863  -28.3665   23.1323 C   0  0  2  0  0  0
  -20.6765  -26.9404   22.5419 C   0  0  0  0  0  0
  -19.5743  -26.6388   21.5215 C   0  0  0  0  0  0
  -18.1920  -26.7926   22.1624 C   0  0  0  0  0  0
  -19.1521  -28.8836   23.2904 C   0  0  0  0  0  0
  -18.9452  -30.1441   23.8917 C   0  0  0  0  0  0
  -17.6455  -30.6586   24.0568 C   0  0  0  0  0  0
  -25.9034  -34.9481   23.5132 C   0  0  0  0  0  0
  -16.5345  -29.9091   23.6325 C   0  0  0  0  0  0
  -16.7260  -28.6508   23.0345 C   0  0  0  0  0  0
  -26.4473  -31.6605   25.0728 C   0  0  0  0  0  0
  -25.3744  -31.3704   26.1478 C   0  0  0  0  0  0
  -27.0302  -30.3052   24.6090 C   0  0  0  0  0  0
  -27.6056  -32.4320   25.7486 C   0  0  0  0  0  0
  -27.5582  -37.1814   24.8467 C   0  0  0  0  0  0
  -21.4133  -29.3034   22.3726 N   0  0  0  0  0  0
  -26.4298  -37.3800   23.9406 N   0  0  0  0  0  0
  -24.6666  -31.0804   22.1020 N   0  0  0  0  0  0
  -23.4182  -28.8208   23.3026 O   0  0  0  0  0  0
  -28.4124  -26.7151   20.1198 O   0  0  0  0  0  0
  -26.5593  -34.8928   22.4692 O   0  0  0  0  0  0
  -23.5334  -32.1444   23.7521 O   0  0  0  0  0  0
  -29.5843  -19.2734   20.7167 C   0  0  0  0  0  0
  -30.7550  -18.5060   18.7343 C   0  0  0  0  0  0
  -29.5271  -17.9389   21.1906 C   0  0  0  0  0  0
  -30.6996  -17.1815   19.2040 C   0  0  0  0  0  0
  -30.2014  -19.5663   19.4779 C   0  0  0  0  0  0
  -30.0915  -16.8751   20.4460 C   0  0  0  0  0  0
  -29.9263  -23.3693   19.1777 C   0  0  0  0  0  0
  -30.2640  -20.9621   18.8537 C   0  0  0  0  0  0
  -29.6407  -24.5677   20.0954 C   0  0  0  0  0  0
  -28.3881  -25.3579   19.6554 C   0  0  0  0  0  0
  -29.9697  -15.5277   20.9209 N   0  0  0  0  0  0
  -29.9538  -22.1250   19.6909 N   0  0  0  0  0  0
  -30.1454  -23.5772   17.9819 O   0  0  0  0  0  0
  -31.4642  -12.3677   19.1347 H   0  0  0  0  0  0
  -30.3018  -11.2811   19.8396 H   0  0  0  0  0  0
  -29.7337  -11.7602   17.4358 H   0  0  0  0  0  0
  -29.6706  -13.4726   17.7711 H   0  0  0  0  0  0
  -27.8237  -11.3039   18.8248 H   0  0  0  0  0  0
  -27.3677  -12.6271   17.7860 H   0  0  0  0  0  0
  -27.7016  -14.2516   19.5628 H   0  0  0  0  0  0
  -28.6686  -11.9775   21.3650 H   0  0  0  0  0  0
  -28.4738  -13.6322   21.8592 H   0  0  0  0  0  0
  -25.2758   -9.5693   22.4748 H   0  0  0  0  0  0
  -24.0001   -7.4640   22.7471 H   0  0  0  0  0  0
  -21.0830   -8.8779   19.8953 H   0  0  0  0  0  0
  -22.3685  -10.9677   19.6159 H   0  0  0  0  0  0
  -21.2016   -7.6148   23.9719 H   0  0  0  0  0  0
  -21.1473   -6.0518   25.9076 H   0  0  0  0  0  0
  -22.0599   -2.7609   23.2842 H   0  0  0  0  0  0
  -22.4113  -11.9920   22.4804 H   0  0  0  0  0  0
  -21.1116  -13.1279   22.2588 H   0  0  0  0  0  0
  -24.6668  -15.8457   20.5205 H   0  0  0  0  0  0
  -26.2870  -15.6276   20.0926 H   0  0  0  0  0  0
  -26.7109  -32.5546   23.1169 H   0  0  0  0  0  0
  -25.0068  -33.9799   25.0493 H   0  0  0  0  0  0
  -22.6886  -31.3117   21.4165 H   0  0  0  0  0  0
  -23.3747  -35.9652   23.3319 H   0  0  0  0  0  0
  -24.3576  -36.8909   22.2047 H   0  0  0  0  0  0
  -23.7248  -37.6528   23.6637 H   0  0  0  0  0  0
  -26.0436  -31.6013   20.5981 H   0  0  0  0  0  0
  -26.8184  -30.8865   21.9838 H   0  0  0  0  0  0
  -28.0934  -29.1002   21.1667 H   0  0  0  0  0  0
  -26.0143  -25.9950   18.9799 H   0  0  0  0  0  0
  -23.9699  -27.3101   19.0298 H   0  0  0  0  0  0
  -23.7186  -30.6086   19.4085 H   0  0  0  0  0  0
  -22.7318  -29.2536   19.8681 H   0  0  0  0  0  0
  -25.1289  -36.1986   25.0833 H   0  0  0  0  0  0
  -20.9953  -28.3231   24.1444 H   0  0  0  0  0  0
  -20.5676  -26.2271   23.3601 H   0  0  0  0  0  0
  -21.6636  -26.7453   22.1209 H   0  0  0  0  0  0
  -19.6908  -25.6304   21.1232 H   0  0  0  0  0  0
  -19.6690  -27.3209   20.6754 H   0  0  0  0  0  0
  -17.4193  -26.6673   21.4023 H   0  0  0  0  0  0
  -18.0323  -26.0068   22.9020 H   0  0  0  0  0  0
  -19.7927  -30.7249   24.2300 H   0  0  0  0  0  0
  -17.5012  -31.6272   24.5162 H   0  0  0  0  0  0
  -15.5347  -30.3004   23.7639 H   0  0  0  0  0  0
  -15.8657  -28.0837   22.7050 H   0  0  0  0  0  0
  -24.5924  -30.7043   25.7815 H   0  0  0  0  0  0
  -24.8926  -32.2856   26.4929 H   0  0  0  0  0  0
  -25.8104  -30.8874   27.0231 H   0  0  0  0  0  0
  -26.2839  -29.6817   24.1152 H   0  0  0  0  0  0
  -27.4089  -29.7283   25.4537 H   0  0  0  0  0  0
  -27.8667  -30.4377   23.9227 H   0  0  0  0  0  0
  -27.2684  -33.3613   26.2088 H   0  0  0  0  0  0
  -28.3851  -32.6889   25.0302 H   0  0  0  0  0  0
  -28.0738  -31.8427   26.5379 H   0  0  0  0  0  0
  -28.2616  -38.0096   24.7505 H   0  0  0  0  0  0
  -28.1062  -36.2629   24.6307 H   0  0  0  0  0  0
  -27.2293  -37.1484   25.8868 H   0  0  0  0  0  0
  -20.9285  -29.8756   21.6953 H   0  0  0  0  0  0
  -26.0189  -38.2880   24.1403 H   0  0  0  0  0  0
  -29.1343  -20.0607   21.3043 H   0  0  0  0  0  0
  -31.2169  -18.7034   17.7764 H   0  0  0  0  0  0
  -29.0390  -17.7401   22.1347 H   0  0  0  0  0  0
  -31.1175  -16.4096   18.5743 H   0  0  0  0  0  0
  -29.5858  -20.9574   17.9980 H   0  0  0  0  0  0
  -31.2668  -21.1002   18.4438 H   0  0  0  0  0  0
  -30.5131  -25.2204   20.0440 H   0  0  0  0  0  0
  -29.5509  -24.2549   21.1357 H   0  0  0  0  0  0
  -27.5223  -24.8268   20.0534 H   0  0  0  0  0  0
  -28.2942  -25.3730   18.5681 H   0  0  0  0  0  0
  -29.1231  -15.3087   21.4238 H   0  0  0  0  0  0
  -29.7908  -21.9845   20.6781 H   0  0  0  0  0  0
  1 25  1  0  0  0
  1 30  2  0  0  0
  1 81  1  0  0  0
  2  3  1  0  0  0
  2 25  1  0  0  0
  2 84  1  0  0  0
  2 85  1  0  0  0
  3  4  1  0  0  0
  3 86  1  0  0  0
  3 87  1  0  0  0
  4  5  1  0  0  0
  4 88  1  0  0  0
  4 89  1  0  0  0
  5  6  1  0  0  0
  5 26  1  0  0  0
  5 90  1  0  0  0
  6 25  1  0  0  0
  6 91  1  0  0  0
  6 92  1  0  0  0
  7  8  2  0  0  0
  7 26  1  0  0  0
  7 29  1  0  0  0
  8  9  1  0  0  0
  8 22  1  0  0  0
  9 10  1  0  0  0
  9 27  2  0  0  0
 10 11  2  0  0  0
 10 15  1  0  0  0
 11 12  1  0  0  0
 11 93  1  0  0  0
 12 13  2  0  0  0
 12 94  1  0  0  0
 13 14  1  0  0  0
 13 31  1  0  0  0
 14 15  2  0  0  0
 14 95  1  0  0  0
 15 96  1  0  0  0
 16 17  2  0  0  0
 16 21  1  0  0  0
 16 31  1  0  0  0
 17 18  1  0  0  0
 17 97  1  0  0  0
 18 19  2  0  0  0
 18 98  1  0  0  0
 19 20  1  0  0  0
 19 24  1  0  0  0
 20 21  2  0  0  0
 20 99  1  0  0  0
 21 23  1  0  0  0
 22 28  1  0  0  0
 22 32  2  0  0  0
 26 27  1  0  0  0
 28100  1  0  0  0
 28101  1  0  0  0
 29102  1  0  0  0
 29103  1  0  0  0
 33 34  1  0  0  0
 33 66  1  0  0  0
 33 70  2  0  0  0
 34 36  1  0  0  0
 34 59  1  0  0  0
 34104  1  0  0  0
 35 44  2  0  0  0
 35 45  1  0  0  0
 35 68  1  0  0  0
 36 56  1  0  0  0
 36105  1  0  0  0
 37 39  1  0  0  0
 37 47  1  0  0  0
 37 66  1  0  0  0
 37106  1  0  0  0
 38 43  2  0  0  0
 38 46  1  0  0  0
 38 47  1  0  0  0
 39 64  1  0  0  0
 39 67  2  0  0  0
 40 52  1  0  0  0
 40 53  2  0  0  0
 40 58  1  0  0  0
 41107  1  0  0  0
 41108  1  0  0  0
 41109  1  0  0  0
 41 48  1  0  0  0
 42 43  1  0  0  0
 42 66  1  0  0  0
 42110  1  0  0  0
 42111  1  0  0  0
 43 44  1  0  0  0
 44112  1  0  0  0
 45 46  2  0  0  0
 45113  1  0  0  0
 46114  1  0  0  0
 47115  1  0  0  0
 47116  1  0  0  0
 48 56  1  0  0  0
 48 65  1  0  0  0
 48117  1  0  0  0
 49 50  1  0  0  0
 49 53  1  0  0  0
 49 64  1  0  0  0
 49118  1  0  0  0
 50 51  1  0  0  0
 50119  1  0  0  0
 50120  1  0  0  0
 51 52  1  0  0  0
 51121  1  0  0  0
 51122  1  0  0  0
 52123  1  0  0  0
 52124  1  0  0  0
 53 54  1  0  0  0
 54 55  2  0  0  0
 54125  1  0  0  0
 55 57  1  0  0  0
 55126  1  0  0  0
 56 69  2  0  0  0
 57 58  2  0  0  0
 57127  1  0  0  0
 58128  1  0  0  0
 59 60  1  0  0  0
 59 61  1  0  0  0
 59 62  1  0  0  0
 60129  1  0  0  0
 60130  1  0  0  0
 60131  1  0  0  0
 61132  1  0  0  0
 61133  1  0  0  0
 61134  1  0  0  0
 62135  1  0  0  0
 62136  1  0  0  0
 62137  1  0  0  0
 63 65  1  0  0  0
 63138  1  0  0  0
 63139  1  0  0  0
 63140  1  0  0  0
 64141  1  0  0  0
 65142  1  0  0  0
 68 80  1  0  0  0
 71 73  2  0  0  0
 71 75  1  0  0  0
 71143  1  0  0  0
 72 74  1  0  0  0
 72 75  2  0  0  0
 72144  1  0  0  0
 73 76  1  0  0  0
 73145  1  0  0  0
 74 76  2  0  0  0
 74146  1  0  0  0
 75 78  1  0  0  0
 76 81  1  0  0  0
 77 79  1  0  0  0
 77 82  1  0  0  0
 77 83  2  0  0  0
 78 82  1  0  0  0
 78147  1  0  0  0
 78148  1  0  0  0
 79 80  1  0  0  0
 79149  1  0  0  0
 79150  1  0  0  0
 80151  1  0  0  0
 80152  1  0  0  0
 81153  1  0  0  0
 82154  1  0  0  0
M  ISO  4   1 100  68 101  80 101  81 100
M  END
> <chiral flag>
0

> <version>
0

> <s_m_source_file>
/data/baiqing/PycharmProjects/Reinvent-master-3.2/result/LINK_invent/BTK/process_docking_weight1_custom_product_contain_oxygen_bond_distance_aromatic_linkinvent_7_9_3/rearranged_h_0055.sdf

> <i_m_source_file_index>
81

> <r_mmod_Potential_Energy-OPLS-2005>
-136.95133972168

> <r_mmod_Stretch_Energy-OPLS-2005>
36.3676567077637

> <r_mmod_Bend_Energy-OPLS-2005>
98.5114364624023

> <r_mmod_Torsional_Energy-OPLS-2005>
217.594100952148

> <r_mmod_Improper_Torsional_Energy-OPLS-2005>
4.52767610549927

> <r_mmod_Van_der_Waal_Energy-OPLS-2005>
164.533584594727

> <r_mmod_Electrostatic_Energy-OPLS-2005>
-436.875091552734

> <r_mmod_Solvation_Energy-OPLS-2005>
-236.604675292969

> <b_mmod_Minimization_Converged-OPLS-2005>
0

> <r_mmod_RMS_Derivative-OPLS-2005>
0.736432313919067

$$$$
81
                    3D
 Structure written by MMmdl.
164173  0  0  1  0            999 V2000
  -30.6412  -14.5528   20.5370 C   0  0  0  0  0  0
  -30.4421  -12.3444   19.4355 C   0  0  0  0  0  0
  -29.5082  -12.5054   18.2154 C   0  0  0  0  0  0
  -28.0279  -12.3551   18.6236 C   0  0  0  0  0  0
  -27.6621  -13.2033   19.8710 C   0  0  2  0  0  0
  -28.7052  -12.9977   20.9936 C   0  0  0  0  0  0
  -25.2600  -13.8144   20.5657 C   0  0  0  0  0  0
  -24.1850  -13.0436   20.9182 C   0  0  0  0  0  0
  -24.6395  -11.6896   20.8733 C   0  0  0  0  0  0
  -23.9049  -10.4291   21.0399 C   0  0  0  0  0  0
  -24.3605   -9.4208   21.9173 C   0  0  0  0  0  0
  -23.6280   -8.2242   22.0749 C   0  0  0  0  0  0
  -22.4259   -8.0282   21.3541 C   0  0  0  0  0  0
  -21.9891   -9.0259   20.4653 C   0  0  0  0  0  0
  -22.7222  -10.2139   20.3057 C   0  0  0  0  0  0
  -21.6854   -6.0727   22.5271 C   0  0  0  0  0  0
  -21.4024   -6.5627   23.8205 C   0  0  0  0  0  0
  -21.3655   -5.6782   24.9167 C   0  0  0  0  0  0
  -21.6036   -4.3046   24.7212 C   0  0  0  0  0  0
  -21.8823   -3.8138   23.4338 C   0  0  0  0  0  0
  -21.9195   -4.6958   22.3396 C   0  0  0  0  0  0
  -22.7873  -13.5249   21.1833 C   0  0  0  0  0  0
  -22.1662   -4.2141   21.0972 F   0  0  0  0  0  0
  -21.5620   -3.4529   25.7730 F   0  0  0  0  0  0
  -30.0311  -13.3348   20.4444 N   0  0  0  0  0  0
  -26.3028  -12.9299   20.3332 N   0  0  0  0  0  0
  -25.9317  -11.6466   20.5744 N   0  0  0  0  0  0
  -22.0498  -12.8271   22.0399 N   0  0  0  0  0  0
  -25.4329  -15.1852   20.4005 N   0  0  0  0  0  0
  -31.7818  -14.7540   20.1079 O   0  0  0  0  0  0
  -21.6633   -6.8874   21.4238 O   0  0  0  0  0  0
  -22.3568  -14.5546   20.6660 O   0  0  0  0  0  0
  -24.6200  -31.8640   23.2073 C   0  0  0  0  0  0
  -25.9071  -32.4802   23.8381 C   0  0  1  0  0  0
  -27.2273  -27.3762   20.1062 C   0  0  0  0  0  0
  -25.5912  -33.8600   24.2315 N   0  0  0  0  0  0
  -23.4103  -30.4883   21.5503 C   0  0  2  0  0  0
  -24.8547  -28.9509   20.1149 C   0  0  0  0  0  0
  -22.7441  -29.4639   22.4981 C   0  0  0  0  0  0
  -18.0282  -28.1382   22.8491 C   0  0  0  0  0  0
  -24.1485  -36.7297   23.2635 C   0  0  0  0  0  0
  -25.9458  -30.8142   21.3679 C   0  0  0  0  0  0
  -26.0208  -29.4462   20.7101 C   0  0  0  0  0  0
  -27.2105  -28.6702   20.6955 C   0  0  0  0  0  0
  -26.0345  -26.9140   19.5007 C   0  0  0  0  0  0
  -24.8599  -27.6871   19.5047 C   0  0  0  0  0  0
  -23.6196  -29.8228   20.1651 C   0  0  0  0  0  0
  -25.4102  -36.3093   24.0340 C   0  0  1  0  0  0
  -20.5875  -28.3668   23.1314 C   0  0  2  0  0  0
  -20.6768  -26.9396   22.5434 C   0  0  0  0  0  0
  -19.5752  -26.6385   21.5216 C   0  0  0  0  0  0
  -18.1920  -26.7936   22.1606 C   0  0  0  0  0  0
  -19.1533  -28.8843   23.2902 C   0  0  0  0  0  0
  -18.9456  -30.1450   23.8912 C   0  0  0  0  0  0
  -17.6454  -30.6582   24.0570 C   0  0  0  0  0  0
  -25.9038  -34.9461   23.5123 C   0  0  0  0  0  0
  -16.5346  -29.9079   23.6333 C   0  0  0  0  0  0
  -16.7270  -28.6500   23.0349 C   0  0  0  0  0  0
  -26.4473  -31.6598   25.0730 C   0  0  0  0  0  0
  -25.3731  -31.3747   26.1486 C   0  0  0  0  0  0
  -27.0289  -30.3023   24.6144 C   0  0  0  0  0  0
  -27.6065  -32.4314   25.7464 C   0  0  0  0  0  0
  -27.5587  -37.1787   24.8448 C   0  0  0  0  0  0
  -21.4163  -29.3024   22.3710 N   0  0  0  0  0  0
  -26.4284  -37.3783   23.9419 N   0  0  0  0  0  0
  -24.6775  -31.0706   22.0996 N   0  0  0  0  0  0
  -23.4195  -28.8177   23.3036 O   0  0  0  0  0  0
  -28.3784  -26.5927   20.1377 O   0  0  0  0  0  0
  -26.5600  -34.8919   22.4687 O   0  0  0  0  0  0
  -23.5383  -32.1406   23.7444 O   0  0  0  0  0  0
  -30.9680  -17.7592   20.5006 C   0  0  0  0  0  0
  -28.5956  -17.6392   20.9136 C   0  0  0  0  0  0
  -30.8693  -19.1719   20.3482 C   0  0  0  0  0  0
  -28.4696  -19.0403   20.7326 C   0  0  0  0  0  0
  -29.6121  -19.8460   20.4551 C   0  0  0  0  0  0
  -29.8322  -16.9673   20.7937 C   0  0  0  0  0  0
  -29.7442  -21.9279   19.1346 C   0  0  0  0  0  0
  -30.0119  -23.4576   19.0935 C   0  0  0  0  0  0
  -29.6003  -23.4990   21.5867 C   0  0  0  0  0  0
  -28.9689  -22.0942   21.4375 C   0  0  0  0  0  0
  -29.5481  -24.3378   20.2904 C   0  0  2  0  0  0
  -32.1556  -19.9438   20.0895 C   0  0  0  0  0  0
  -27.0721  -19.6324   20.8237 C   0  0  0  0  0  0
  -28.2232  -25.1445   20.0531 C   0  0  0  0  0  0
  -29.5112  -21.2976   20.3186 N   0  0  0  0  0  0
  -29.8408  -15.5401   21.0135 N   0  0  0  0  0  0
  -29.8116  -21.3134   18.0646 O   0  0  0  0  0  0
  -31.4848  -12.4675   19.1353 H   0  0  0  0  0  0
  -30.3686  -11.3372   19.8479 H   0  0  0  0  0  0
  -29.7629  -11.7721   17.4490 H   0  0  0  0  0  0
  -29.6650  -13.4855   17.7616 H   0  0  0  0  0  0
  -27.8477  -11.2990   18.8305 H   0  0  0  0  0  0
  -27.3792  -12.6153   17.7866 H   0  0  0  0  0  0
  -27.7007  -14.2478   19.5601 H   0  0  0  0  0  0
  -28.6997  -11.9592   21.3266 H   0  0  0  0  0  0
  -28.4549  -13.5853   21.8786 H   0  0  0  0  0  0
  -25.2753   -9.5676   22.4746 H   0  0  0  0  0  0
  -23.9988   -7.4631   22.7460 H   0  0  0  0  0  0
  -21.0818   -8.8778   19.8967 H   0  0  0  0  0  0
  -22.3668  -10.9676   19.6168 H   0  0  0  0  0  0
  -21.2031   -7.6139   23.9709 H   0  0  0  0  0  0
  -21.1465   -6.0509   25.9067 H   0  0  0  0  0  0
  -22.0608   -2.7604   23.2836 H   0  0  0  0  0  0
  -22.4089  -11.9943   22.4828 H   0  0  0  0  0  0
  -21.1118  -13.1327   22.2577 H   0  0  0  0  0  0
  -24.6588  -15.8348   20.4835 H   0  0  0  0  0  0
  -26.2609  -15.6069   20.0021 H   0  0  0  0  0  0
  -26.7135  -32.5486   23.1135 H   0  0  0  0  0  0
  -25.0092  -33.9758   25.0481 H   0  0  0  0  0  0
  -22.7015  -31.3073   21.4114 H   0  0  0  0  0  0
  -23.3754  -35.9622   23.3281 H   0  0  0  0  0  0
  -24.3588  -36.8924   22.2053 H   0  0  0  0  0  0
  -23.7228  -37.6493   23.6660 H   0  0  0  0  0  0
  -26.0694  -31.5816   20.6028 H   0  0  0  0  0  0
  -26.8293  -30.8630   21.9924 H   0  0  0  0  0  0
  -28.1089  -29.0493   21.1611 H   0  0  0  0  0  0
  -25.9807  -25.9496   19.0199 H   0  0  0  0  0  0
  -23.9625  -27.2998   19.0421 H   0  0  0  0  0  0
  -23.7299  -30.5975   19.4055 H   0  0  0  0  0  0
  -22.7417  -29.2451   19.8704 H   0  0  0  0  0  0
  -25.1274  -36.1951   25.0831 H   0  0  0  0  0  0
  -20.9974  -28.3242   24.1433 H   0  0  0  0  0  0
  -20.5649  -26.2275   23.3627 H   0  0  0  0  0  0
  -21.6643  -26.7423   22.1243 H   0  0  0  0  0  0
  -19.6908  -25.6296   21.1241 H   0  0  0  0  0  0
  -19.6706  -27.3203   20.6752 H   0  0  0  0  0  0
  -17.4212  -26.6731   21.3981 H   0  0  0  0  0  0
  -18.0276  -26.0064   22.8977 H   0  0  0  0  0  0
  -19.7927  -30.7269   24.2284 H   0  0  0  0  0  0
  -17.5002  -31.6262   24.5169 H   0  0  0  0  0  0
  -15.5344  -30.2977   23.7650 H   0  0  0  0  0  0
  -15.8673  -28.0818   22.7057 H   0  0  0  0  0  0
  -24.5933  -30.7036   25.7867 H   0  0  0  0  0  0
  -24.8881  -32.2913   26.4852 H   0  0  0  0  0  0
  -25.8089  -30.9015   27.0293 H   0  0  0  0  0  0
  -26.2839  -29.6799   24.1175 H   0  0  0  0  0  0
  -27.4004  -29.7255   25.4622 H   0  0  0  0  0  0
  -27.8699  -30.4317   23.9330 H   0  0  0  0  0  0
  -27.2705  -33.3606   26.2074 H   0  0  0  0  0  0
  -28.3830  -32.6885   25.0249 H   0  0  0  0  0  0
  -28.0778  -31.8421   26.5338 H   0  0  0  0  0  0
  -28.2595  -38.0095   24.7522 H   0  0  0  0  0  0
  -28.1093  -36.2634   24.6220 H   0  0  0  0  0  0
  -27.2333  -37.1389   25.8859 H   0  0  0  0  0  0
  -20.9329  -29.8743   21.6925 H   0  0  0  0  0  0
  -26.0171  -38.2853   24.1450 H   0  0  0  0  0  0
  -31.9372  -17.2890   20.4138 H   0  0  0  0  0  0
  -27.7077  -17.0662   21.1419 H   0  0  0  0  0  0
  -29.6378  -23.8614   18.1533 H   0  0  0  0  0  0
  -31.0964  -23.5481   19.0237 H   0  0  0  0  0  0
  -30.6443  -23.3693   21.8777 H   0  0  0  0  0  0
  -29.1326  -24.0407   22.4101 H   0  0  0  0  0  0
  -27.8962  -22.2186   21.2907 H   0  0  0  0  0  0
  -29.0903  -21.5392   22.3682 H   0  0  0  0  0  0
  -30.3139  -25.1059   20.4083 H   0  0  0  0  0  0
  -33.0302  -19.3688   20.3942 H   0  0  0  0  0  0
  -32.1781  -20.8810   20.6455 H   0  0  0  0  0  0
  -32.2570  -20.1690   19.0277 H   0  0  0  0  0  0
  -26.3133  -18.8826   20.5960 H   0  0  0  0  0  0
  -26.9345  -20.4458   20.1120 H   0  0  0  0  0  0
  -26.8798  -20.0054   21.8299 H   0  0  0  0  0  0
  -27.4683  -24.8211   20.7720 H   0  0  0  0  0  0
  -27.8355  -24.8857   19.0683 H   0  0  0  0  0  0
  -28.9735  -15.1732   21.3747 H   0  0  0  0  0  0
  1 25  1  0  0  0
  1 30  2  0  0  0
  1 86  1  0  0  0
  2  3  1  0  0  0
  2 25  1  0  0  0
  2 88  1  0  0  0
  2 89  1  0  0  0
  3  4  1  0  0  0
  3 90  1  0  0  0
  3 91  1  0  0  0
  4  5  1  0  0  0
  4 92  1  0  0  0
  4 93  1  0  0  0
  5  6  1  0  0  0
  5 26  1  0  0  0
  5 94  1  0  0  0
  6 25  1  0  0  0
  6 95  1  0  0  0
  6 96  1  0  0  0
  7  8  2  0  0  0
  7 26  1  0  0  0
  7 29  1  0  0  0
  8  9  1  0  0  0
  8 22  1  0  0  0
  9 10  1  0  0  0
  9 27  2  0  0  0
 10 11  2  0  0  0
 10 15  1  0  0  0
 11 12  1  0  0  0
 11 97  1  0  0  0
 12 13  2  0  0  0
 12 98  1  0  0  0
 13 14  1  0  0  0
 13 31  1  0  0  0
 14 15  2  0  0  0
 14 99  1  0  0  0
 15100  1  0  0  0
 16 17  2  0  0  0
 16 21  1  0  0  0
 16 31  1  0  0  0
 17 18  1  0  0  0
 17101  1  0  0  0
 18 19  2  0  0  0
 18102  1  0  0  0
 19 20  1  0  0  0
 19 24  1  0  0  0
 20 21  2  0  0  0
 20103  1  0  0  0
 21 23  1  0  0  0
 22 28  1  0  0  0
 22 32  2  0  0  0
 26 27  1  0  0  0
 28104  1  0  0  0
 28105  1  0  0  0
 29106  1  0  0  0
 29107  1  0  0  0
 33 34  1  0  0  0
 33 66  1  0  0  0
 33 70  2  0  0  0
 34 36  1  0  0  0
 34 59  1  0  0  0
 34108  1  0  0  0
 35 44  2  0  0  0
 35 45  1  0  0  0
 35 68  1  0  0  0
 36 56  1  0  0  0
 36109  1  0  0  0
 37 39  1  0  0  0
 37 47  1  0  0  0
 37 66  1  0  0  0
 37110  1  0  0  0
 38 43  2  0  0  0
 38 46  1  0  0  0
 38 47  1  0  0  0
 39 64  1  0  0  0
 39 67  2  0  0  0
 40 52  1  0  0  0
 40 53  2  0  0  0
 40 58  1  0  0  0
 41111  1  0  0  0
 41112  1  0  0  0
 41113  1  0  0  0
 41 48  1  0  0  0
 42 43  1  0  0  0
 42 66  1  0  0  0
 42114  1  0  0  0
 42115  1  0  0  0
 43 44  1  0  0  0
 44116  1  0  0  0
 45 46  2  0  0  0
 45117  1  0  0  0
 46118  1  0  0  0
 47119  1  0  0  0
 47120  1  0  0  0
 48 56  1  0  0  0
 48 65  1  0  0  0
 48121  1  0  0  0
 49 50  1  0  0  0
 49 53  1  0  0  0
 49 64  1  0  0  0
 49122  1  0  0  0
 50 51  1  0  0  0
 50123  1  0  0  0
 50124  1  0  0  0
 51 52  1  0  0  0
 51125  1  0  0  0
 51126  1  0  0  0
 52127  1  0  0  0
 52128  1  0  0  0
 53 54  1  0  0  0
 54 55  2  0  0  0
 54129  1  0  0  0
 55 57  1  0  0  0
 55130  1  0  0  0
 56 69  2  0  0  0
 57 58  2  0  0  0
 57131  1  0  0  0
 58132  1  0  0  0
 59 60  1  0  0  0
 59 61  1  0  0  0
 59 62  1  0  0  0
 60133  1  0  0  0
 60134  1  0  0  0
 60135  1  0  0  0
 61136  1  0  0  0
 61137  1  0  0  0
 61138  1  0  0  0
 62139  1  0  0  0
 62140  1  0  0  0
 62141  1  0  0  0
 63 65  1  0  0  0
 63142  1  0  0  0
 63143  1  0  0  0
 63144  1  0  0  0
 64145  1  0  0  0
 65146  1  0  0  0
 68 84  1  0  0  0
 71 73  2  0  0  0
 71 76  1  0  0  0
 71147  1  0  0  0
 72 74  1  0  0  0
 72 76  2  0  0  0
 72148  1  0  0  0
 73 75  1  0  0  0
 73 82  1  0  0  0
 74 75  2  0  0  0
 74 83  1  0  0  0
 75 85  1  0  0  0
 76 86  1  0  0  0
 77 78  1  0  0  0
 77 85  1  0  0  0
 77 87  2  0  0  0
 78 81  1  0  0  0
 78149  1  0  0  0
 78150  1  0  0  0
 79 80  1  0  0  0
 79 81  1  0  0  0
 79151  1  0  0  0
 79152  1  0  0  0
 80 85  1  0  0  0
 80153  1  0  0  0
 80154  1  0  0  0
 81 84  1  0  0  0
 81155  1  0  0  0
 82156  1  0  0  0
 82157  1  0  0  0
 82158  1  0  0  0
 83159  1  0  0  0
 83160  1  0  0  0
 83161  1  0  0  0
 84162  1  0  0  0
 84163  1  0  0  0
 86164  1  0  0  0
M  ISO  4   1 100  68 101  84 101  86 100
M  END
> <chiral flag>
0

> <version>
0

> <s_m_source_file>
/data/baiqing/PycharmProjects/Reinvent-master-3.2/result/LINK_invent/BTK/process_docking_weight1_custom_product_contain_oxygen_bond_distance_aromatic_linkinvent_7_9_3/rearranged_h_0055.sdf

> <i_m_source_file_index>
82

> <r_mmod_Potential_Energy-OPLS-2005>
94.1681518554688

> <r_mmod_Stretch_Energy-OPLS-2005>
57.9586219787598

> <r_mmod_Bend_Energy-OPLS-2005>
124.244842529297

> <r_mmod_Torsional_Energy-OPLS-2005>
305.432891845703

> <r_mmod_Improper_Torsional_Energy-OPLS-2005>
4.93428516387939

> <r_mmod_Van_der_Waal_Energy-OPLS-2005>
159.537994384766

> <r_mmod_Electrostatic_Energy-OPLS-2005>
-362.568450927734

> <r_mmod_Solvation_Energy-OPLS-2005>
-220.775833129883

> <b_mmod_Minimization_Converged-OPLS-2005>
0

> <r_mmod_RMS_Derivative-OPLS-2005>
1.31633460521698

$$$$
82
                    3D
 Structure written by MMmdl.
154162  0  0  1  0            999 V2000
  -30.7017  -14.5028   20.5567 C   0  0  0  0  0  0
  -30.4191  -12.3215   19.4348 C   0  0  0  0  0  0
  -29.4971  -12.5147   18.2137 C   0  0  0  0  0  0
  -28.0176  -12.3709   18.6222 C   0  0  0  0  0  0
  -27.6569  -13.2151   19.8737 C   0  0  2  0  0  0
  -28.7003  -13.0210   20.9994 C   0  0  0  0  0  0
  -25.2484  -13.8094   20.5641 C   0  0  0  0  0  0
  -24.1787  -13.0367   20.9201 C   0  0  0  0  0  0
  -24.6387  -11.6859   20.8749 C   0  0  0  0  0  0
  -23.9058  -10.4258   21.0405 C   0  0  0  0  0  0
  -24.3613   -9.4181   21.9186 C   0  0  0  0  0  0
  -23.6291   -8.2217   22.0750 C   0  0  0  0  0  0
  -22.4272   -8.0263   21.3538 C   0  0  0  0  0  0
  -21.9903   -9.0234   20.4644 C   0  0  0  0  0  0
  -22.7229  -10.2116   20.3053 C   0  0  0  0  0  0
  -21.6852   -6.0728   22.5281 C   0  0  0  0  0  0
  -21.4013   -6.5636   23.8213 C   0  0  0  0  0  0
  -21.3660   -5.6787   24.9179 C   0  0  0  0  0  0
  -21.6047   -4.3049   24.7226 C   0  0  0  0  0  0
  -21.8820   -3.8140   23.4344 C   0  0  0  0  0  0
  -21.9194   -4.6957   22.3402 C   0  0  0  0  0  0
  -22.7814  -13.5178   21.1868 C   0  0  0  0  0  0
  -22.1665   -4.2146   21.0979 F   0  0  0  0  0  0
  -21.5631   -3.4529   25.7733 F   0  0  0  0  0  0
  -30.0320  -13.3205   20.4454 N   0  0  0  0  0  0
  -26.2984  -12.9332   20.3352 N   0  0  0  0  0  0
  -25.9322  -11.6487   20.5777 N   0  0  0  0  0  0
  -22.0456  -12.8184   22.0434 N   0  0  0  0  0  0
  -25.3991  -15.1786   20.3928 N   0  0  0  0  0  0
  -31.8386  -14.6603   20.1055 O   0  0  0  0  0  0
  -21.6632   -6.8866   21.4241 O   0  0  0  0  0  0
  -22.3499  -14.5489   20.6719 O   0  0  0  0  0  0
  -24.6161  -31.8655   23.2089 C   0  0  0  0  0  0
  -25.9047  -32.4806   23.8394 C   0  0  1  0  0  0
  -27.2465  -27.4201   20.0926 C   0  0  0  0  0  0
  -25.5905  -33.8605   24.2319 N   0  0  0  0  0  0
  -23.4063  -30.4896   21.5464 C   0  0  2  0  0  0
  -24.8554  -28.9520   20.1112 C   0  0  0  0  0  0
  -22.7419  -29.4652   22.4947 C   0  0  0  0  0  0
  -18.0277  -28.1389   22.8475 C   0  0  0  0  0  0
  -24.1489  -36.7313   23.2640 C   0  0  0  0  0  0
  -25.9375  -30.8248   21.3680 C   0  0  0  0  0  0
  -26.0143  -29.4597   20.7095 C   0  0  0  0  0  0
  -27.2076  -28.7004   20.6978 C   0  0  0  0  0  0
  -26.0634  -26.9262   19.4941 C   0  0  0  0  0  0
  -24.8752  -27.6849   19.5020 C   0  0  0  0  0  0
  -23.6188  -29.8229   20.1603 C   0  0  0  0  0  0
  -25.4111  -36.3100   24.0335 C   0  0  1  0  0  0
  -20.5867  -28.3680   23.1300 C   0  0  2  0  0  0
  -20.6765  -26.9407   22.5426 C   0  0  0  0  0  0
  -19.5758  -26.6385   21.5209 C   0  0  0  0  0  0
  -18.1926  -26.7939   22.1600 C   0  0  0  0  0  0
  -19.1524  -28.8849   23.2888 C   0  0  0  0  0  0
  -18.9455  -30.1452   23.8903 C   0  0  0  0  0  0
  -17.6456  -30.6588   24.0570 C   0  0  0  0  0  0
  -25.9037  -34.9466   23.5122 C   0  0  0  0  0  0
  -16.5349  -29.9092   23.6329 C   0  0  0  0  0  0
  -16.7265  -28.6515   23.0335 C   0  0  0  0  0  0
  -26.4481  -31.6596   25.0731 C   0  0  0  0  0  0
  -25.3760  -31.3720   26.1495 C   0  0  0  0  0  0
  -27.0303  -30.3023   24.6144 C   0  0  0  0  0  0
  -27.6066  -32.4321   25.7475 C   0  0  0  0  0  0
  -27.5585  -37.1810   24.8460 C   0  0  0  0  0  0
  -21.4141  -29.3035   22.3686 N   0  0  0  0  0  0
  -26.4300  -37.3784   23.9402 N   0  0  0  0  0  0
  -24.6706  -31.0754   22.0988 N   0  0  0  0  0  0
  -23.4177  -28.8199   23.3003 O   0  0  0  0  0  0
  -28.4230  -26.6903   20.1528 O   0  0  0  0  0  0
  -26.5594  -34.8917   22.4680 O   0  0  0  0  0  0
  -23.5348  -32.1412   23.7473 O   0  0  0  0  0  0
  -31.5190  -17.5149   20.8370 C   0  0  0  0  0  0
  -31.6734  -18.8790   20.5140 C   0  0  0  0  0  0
  -30.2238  -16.9467   20.8364 C   0  0  0  0  0  0
  -30.5413  -19.6578   20.2026 C   0  0  0  0  0  0
  -29.1424  -17.8349   20.6024 C   0  0  0  0  0  0
  -29.0987  -24.3786   20.1606 C   0  0  0  0  0  0
  -28.5469  -25.4556   19.5471 C   0  0  0  0  0  0
  -29.3060  -23.1172   19.4462 C   0  0  0  0  0  0
  -27.7096  -17.3560   20.6307 C   0  0  0  0  0  0
  -30.7042  -21.0567   19.5890 C   0  0  0  0  0  0
  -29.2940  -19.1441   20.2824 N   0  0  0  0  0  0
  -29.9867  -15.5390   21.0539 N   0  0  0  0  0  0
  -29.9345  -22.1713   20.1731 N   0  0  0  0  0  0
  -29.0213  -22.9419   18.2591 O   0  0  0  0  0  0
  -31.4658  -12.4090   19.1385 H   0  0  0  0  0  0
  -30.3068  -11.3143   19.8395 H   0  0  0  0  0  0
  -29.7444  -11.7903   17.4366 H   0  0  0  0  0  0
  -29.6650  -13.5017   17.7782 H   0  0  0  0  0  0
  -27.8301  -11.3150   18.8218 H   0  0  0  0  0  0
  -27.3686  -12.6419   17.7888 H   0  0  0  0  0  0
  -27.6913  -14.2604   19.5659 H   0  0  0  0  0  0
  -28.6785  -11.9922   21.3634 H   0  0  0  0  0  0
  -28.4598  -13.6409   21.8645 H   0  0  0  0  0  0
  -25.2758   -9.5671   22.4755 H   0  0  0  0  0  0
  -24.0013   -7.4606   22.7460 H   0  0  0  0  0  0
  -21.0833   -8.8746   19.8949 H   0  0  0  0  0  0
  -22.3678  -10.9656   19.6161 H   0  0  0  0  0  0
  -21.2002   -7.6142   23.9720 H   0  0  0  0  0  0
  -21.1487   -6.0512   25.9084 H   0  0  0  0  0  0
  -22.0599   -2.7600   23.2837 H   0  0  0  0  0  0
  -22.4077  -11.9857   22.4831 H   0  0  0  0  0  0
  -21.1076  -13.1214   22.2658 H   0  0  0  0  0  0
  -24.6013  -15.8014   20.4598 H   0  0  0  0  0  0
  -26.2054  -15.6070   19.9614 H   0  0  0  0  0  0
  -26.7116  -32.5509   23.1152 H   0  0  0  0  0  0
  -25.0079  -33.9768   25.0482 H   0  0  0  0  0  0
  -22.6967  -31.3074   21.4053 H   0  0  0  0  0  0
  -23.3738  -35.9665   23.3333 H   0  0  0  0  0  0
  -24.3578  -36.8897   22.2051 H   0  0  0  0  0  0
  -23.7269  -37.6535   23.6641 H   0  0  0  0  0  0
  -26.0634  -31.5959   20.6065 H   0  0  0  0  0  0
  -26.8193  -30.8681   21.9956 H   0  0  0  0  0  0
  -28.1017  -29.0867   21.1669 H   0  0  0  0  0  0
  -26.0398  -25.9508   19.0305 H   0  0  0  0  0  0
  -23.9825  -27.2839   19.0415 H   0  0  0  0  0  0
  -23.7375  -30.6007   19.4049 H   0  0  0  0  0  0
  -22.7416  -29.2494   19.8560 H   0  0  0  0  0  0
  -25.1295  -36.1965   25.0831 H   0  0  0  0  0  0
  -20.9968  -28.3268   24.1417 H   0  0  0  0  0  0
  -20.5649  -26.2295   23.3621 H   0  0  0  0  0  0
  -21.6643  -26.7438   22.1240 H   0  0  0  0  0  0
  -19.6925  -25.6293   21.1243 H   0  0  0  0  0  0
  -19.6719  -27.3189   20.6736 H   0  0  0  0  0  0
  -17.4212  -26.6697   21.3984 H   0  0  0  0  0  0
  -18.0312  -26.0076   22.8987 H   0  0  0  0  0  0
  -19.7933  -30.7261   24.2276 H   0  0  0  0  0  0
  -17.5017  -31.6264   24.5182 H   0  0  0  0  0  0
  -15.5350  -30.2996   23.7658 H   0  0  0  0  0  0
  -15.8665  -28.0847   22.7030 H   0  0  0  0  0  0
  -24.5941  -30.7041   25.7864 H   0  0  0  0  0  0
  -24.8941  -32.2877   26.4931 H   0  0  0  0  0  0
  -25.8137  -30.8925   27.0260 H   0  0  0  0  0  0
  -26.2843  -29.6776   24.1216 H   0  0  0  0  0  0
  -27.4056  -29.7279   25.4626 H   0  0  0  0  0  0
  -27.8699  -30.4307   23.9306 H   0  0  0  0  0  0
  -27.2687  -33.3599   26.2105 H   0  0  0  0  0  0
  -28.3839  -32.6918   25.0276 H   0  0  0  0  0  0
  -28.0786  -31.8421   26.5342 H   0  0  0  0  0  0
  -28.2624  -38.0082   24.7466 H   0  0  0  0  0  0
  -28.1051  -36.2611   24.6325 H   0  0  0  0  0  0
  -27.2306  -37.1524   25.8864 H   0  0  0  0  0  0
  -20.9301  -29.8744   21.6897 H   0  0  0  0  0  0
  -26.0185  -38.2868   24.1383 H   0  0  0  0  0  0
  -32.3963  -16.9228   21.0508 H   0  0  0  0  0  0
  -32.6666  -19.3022   20.4534 H   0  0  0  0  0  0
  -29.4139  -24.4701   21.1899 H   0  0  0  0  0  0
  -28.1961  -25.4542   18.5230 H   0  0  0  0  0  0
  -27.5422  -16.6848   21.4730 H   0  0  0  0  0  0
  -27.4887  -16.8294   19.7031 H   0  0  0  0  0  0
  -27.0095  -18.1872   20.7276 H   0  0  0  0  0  0
  -30.4927  -20.9519   18.5241 H   0  0  0  0  0  0
  -31.7568  -21.3365   19.6404 H   0  0  0  0  0  0
  -29.0581  -15.2830   21.3518 H   0  0  0  0  0  0
  -30.0900  -22.3465   21.1554 H   0  0  0  0  0  0
  1 25  1  0  0  0
  1 30  2  0  0  0
  1 82  1  0  0  0
  2  3  1  0  0  0
  2 25  1  0  0  0
  2 85  1  0  0  0
  2 86  1  0  0  0
  3  4  1  0  0  0
  3 87  1  0  0  0
  3 88  1  0  0  0
  4  5  1  0  0  0
  4 89  1  0  0  0
  4 90  1  0  0  0
  5  6  1  0  0  0
  5 26  1  0  0  0
  5 91  1  0  0  0
  6 25  1  0  0  0
  6 92  1  0  0  0
  6 93  1  0  0  0
  7  8  2  0  0  0
  7 26  1  0  0  0
  7 29  1  0  0  0
  8  9  1  0  0  0
  8 22  1  0  0  0
  9 10  1  0  0  0
  9 27  2  0  0  0
 10 11  2  0  0  0
 10 15  1  0  0  0
 11 12  1  0  0  0
 11 94  1  0  0  0
 12 13  2  0  0  0
 12 95  1  0  0  0
 13 14  1  0  0  0
 13 31  1  0  0  0
 14 15  2  0  0  0
 14 96  1  0  0  0
 15 97  1  0  0  0
 16 17  2  0  0  0
 16 21  1  0  0  0
 16 31  1  0  0  0
 17 18  1  0  0  0
 17 98  1  0  0  0
 18 19  2  0  0  0
 18 99  1  0  0  0
 19 20  1  0  0  0
 19 24  1  0  0  0
 20 21  2  0  0  0
 20100  1  0  0  0
 21 23  1  0  0  0
 22 28  1  0  0  0
 22 32  2  0  0  0
 26 27  1  0  0  0
 28101  1  0  0  0
 28102  1  0  0  0
 29103  1  0  0  0
 29104  1  0  0  0
 33 34  1  0  0  0
 33 66  1  0  0  0
 33 70  2  0  0  0
 34 36  1  0  0  0
 34 59  1  0  0  0
 34105  1  0  0  0
 35 44  2  0  0  0
 35 45  1  0  0  0
 35 68  1  0  0  0
 36 56  1  0  0  0
 36106  1  0  0  0
 37 39  1  0  0  0
 37 47  1  0  0  0
 37 66  1  0  0  0
 37107  1  0  0  0
 38 43  2  0  0  0
 38 46  1  0  0  0
 38 47  1  0  0  0
 39 64  1  0  0  0
 39 67  2  0  0  0
 40 52  1  0  0  0
 40 53  2  0  0  0
 40 58  1  0  0  0
 41108  1  0  0  0
 41109  1  0  0  0
 41110  1  0  0  0
 41 48  1  0  0  0
 42 43  1  0  0  0
 42 66  1  0  0  0
 42111  1  0  0  0
 42112  1  0  0  0
 43 44  1  0  0  0
 44113  1  0  0  0
 45 46  2  0  0  0
 45114  1  0  0  0
 46115  1  0  0  0
 47116  1  0  0  0
 47117  1  0  0  0
 48 56  1  0  0  0
 48 65  1  0  0  0
 48118  1  0  0  0
 49 50  1  0  0  0
 49 53  1  0  0  0
 49 64  1  0  0  0
 49119  1  0  0  0
 50 51  1  0  0  0
 50120  1  0  0  0
 50121  1  0  0  0
 51 52  1  0  0  0
 51122  1  0  0  0
 51123  1  0  0  0
 52124  1  0  0  0
 52125  1  0  0  0
 53 54  1  0  0  0
 54 55  2  0  0  0
 54126  1  0  0  0
 55 57  1  0  0  0
 55127  1  0  0  0
 56 69  2  0  0  0
 57 58  2  0  0  0
 57128  1  0  0  0
 58129  1  0  0  0
 59 60  1  0  0  0
 59 61  1  0  0  0
 59 62  1  0  0  0
 60130  1  0  0  0
 60131  1  0  0  0
 60132  1  0  0  0
 61133  1  0  0  0
 61134  1  0  0  0
 61135  1  0  0  0
 62136  1  0  0  0
 62137  1  0  0  0
 62138  1  0  0  0
 63 65  1  0  0  0
 63139  1  0  0  0
 63140  1  0  0  0
 63141  1  0  0  0
 64142  1  0  0  0
 65143  1  0  0  0
 68 77  1  0  0  0
 71 72  2  0  0  0
 71 73  1  0  0  0
 71144  1  0  0  0
 72 74  1  0  0  0
 72145  1  0  0  0
 73 75  2  0  0  0
 73 82  1  0  0  0
 74 80  1  0  0  0
 74 81  2  0  0  0
 75 79  1  0  0  0
 75 81  1  0  0  0
 76 77  2  0  0  0
 76 78  1  0  0  0
 76146  1  0  0  0
 77147  1  0  0  0
 78 83  1  0  0  0
 78 84  2  0  0  0
 79148  1  0  0  0
 79149  1  0  0  0
 79150  1  0  0  0
 80 83  1  0  0  0
 80151  1  0  0  0
 80152  1  0  0  0
 82153  1  0  0  0
 83154  1  0  0  0
M  ISO  4   1 100  68 101  77 101  82 100
M  END
> <chiral flag>
0

> <version>
0

> <s_m_source_file>
/data/baiqing/PycharmProjects/Reinvent-master-3.2/result/LINK_invent/BTK/process_docking_weight1_custom_product_contain_oxygen_bond_distance_aromatic_linkinvent_7_9_3/rearranged_h_0055.sdf

> <i_m_source_file_index>
83

> <r_mmod_Potential_Energy-OPLS-2005>
-374.416351318359

> <r_mmod_Stretch_Energy-OPLS-2005>
41.0210571289062

> <r_mmod_Bend_Energy-OPLS-2005>
102.379905700684

> <r_mmod_Torsional_Energy-OPLS-2005>
224.97216796875

> <r_mmod_Improper_Torsional_Energy-OPLS-2005>
7.28938388824463

> <r_mmod_Van_der_Waal_Energy-OPLS-2005>
159.595718383789

> <r_mmod_Electrostatic_Energy-OPLS-2005>
-680.479125976562

> <r_mmod_Solvation_Energy-OPLS-2005>
-246.31884765625

> <b_mmod_Minimization_Converged-OPLS-2005>
0

> <r_mmod_RMS_Derivative-OPLS-2005>
1.2673077583313

$$$$
83
                    3D
 Structure written by MMmdl.
151159  0  0  1  0            999 V2000
  -30.6142  -14.7466   20.4393 C   0  0  0  0  0  0
  -30.4352  -12.4496   19.4953 C   0  0  0  0  0  0
  -29.5239  -12.5121   18.2494 C   0  0  0  0  0  0
  -28.0479  -12.3329   18.6562 C   0  0  0  0  0  0
  -27.6457  -13.2358   19.8540 C   0  0  2  0  0  0
  -28.6844  -13.1781   20.9963 C   0  0  0  0  0  0
  -25.2531  -13.8202   20.5683 C   0  0  0  0  0  0
  -24.1818  -13.0453   20.9195 C   0  0  0  0  0  0
  -24.6404  -11.6930   20.8742 C   0  0  0  0  0  0
  -23.9082  -10.4306   21.0413 C   0  0  0  0  0  0
  -24.3630   -9.4217   21.9187 C   0  0  0  0  0  0
  -23.6295   -8.2252   22.0760 C   0  0  0  0  0  0
  -22.4269   -8.0290   21.3558 C   0  0  0  0  0  0
  -21.9914   -9.0266   20.4660 C   0  0  0  0  0  0
  -22.7257  -10.2136   20.3067 C   0  0  0  0  0  0
  -21.6848   -6.0741   22.5277 C   0  0  0  0  0  0
  -21.4024   -6.5644   23.8212 C   0  0  0  0  0  0
  -21.3665   -5.6796   24.9172 C   0  0  0  0  0  0
  -21.6034   -4.3055   24.7222 C   0  0  0  0  0  0
  -21.8820   -3.8152   23.4342 C   0  0  0  0  0  0
  -21.9196   -4.6973   22.3402 C   0  0  0  0  0  0
  -22.7835  -13.5238   21.1837 C   0  0  0  0  0  0
  -22.1661   -4.2164   21.0981 F   0  0  0  0  0  0
  -21.5629   -3.4537   25.7738 F   0  0  0  0  0  0
  -29.9920  -13.5177   20.4222 N   0  0  0  0  0  0
  -26.2961  -12.9416   20.3281 N   0  0  0  0  0  0
  -25.9336  -11.6554   20.5733 N   0  0  0  0  0  0
  -22.0470  -12.8244   22.0398 N   0  0  0  0  0  0
  -25.4240  -15.1922   20.4124 N   0  0  0  0  0  0
  -31.8026  -14.8263   20.1162 O   0  0  0  0  0  0
  -21.6640   -6.8881   21.4239 O   0  0  0  0  0  0
  -22.3519  -14.5541   20.6676 O   0  0  0  0  0  0
  -24.6302  -31.8584   23.2023 C   0  0  0  0  0  0
  -25.9129  -32.4780   23.8383 C   0  0  1  0  0  0
  -27.2176  -27.2783   20.1214 C   0  0  0  0  0  0
  -25.5937  -33.8585   24.2298 N   0  0  0  0  0  0
  -23.4268  -30.4832   21.5450 C   0  0  2  0  0  0
  -24.8737  -28.9375   20.1090 C   0  0  0  0  0  0
  -22.7495  -29.4627   22.4915 C   0  0  0  0  0  0
  -18.0296  -28.1378   22.8486 C   0  0  0  0  0  0
  -24.1485  -36.7294   23.2638 C   0  0  0  0  0  0
  -25.9729  -30.7751   21.3819 C   0  0  0  0  0  0
  -26.0448  -29.4009   20.7213 C   0  0  0  0  0  0
  -27.2187  -28.5827   20.7210 C   0  0  0  0  0  0
  -26.0268  -26.8930   19.4623 C   0  0  0  0  0  0
  -24.8684  -27.6903   19.4706 C   0  0  0  0  0  0
  -23.6435  -29.8207   20.1597 C   0  0  0  0  0  0
  -25.4106  -36.3087   24.0331 C   0  0  1  0  0  0
  -20.5897  -28.3705   23.1243 C   0  0  2  0  0  0
  -20.6783  -26.9416   22.5390 C   0  0  0  0  0  0
  -19.5748  -26.6376   21.5198 C   0  0  0  0  0  0
  -18.1935  -26.7922   22.1622 C   0  0  0  0  0  0
  -19.1550  -28.8855   23.2866 C   0  0  0  0  0  0
  -18.9469  -30.1454   23.8889 C   0  0  0  0  0  0
  -17.6467  -30.6580   24.0559 C   0  0  0  0  0  0
  -25.9049  -34.9458   23.5104 C   0  0  0  0  0  0
  -16.5360  -29.9077   23.6328 C   0  0  0  0  0  0
  -16.7282  -28.6491   23.0355 C   0  0  0  0  0  0
  -26.4493  -31.6608   25.0780 C   0  0  0  0  0  0
  -25.3704  -31.3776   26.1497 C   0  0  0  0  0  0
  -27.0347  -30.3026   24.6280 C   0  0  0  0  0  0
  -27.6060  -32.4344   25.7546 C   0  0  0  0  0  0
  -27.5574  -37.1800   24.8454 C   0  0  0  0  0  0
  -21.4206  -29.3060   22.3647 N   0  0  0  0  0  0
  -26.4287  -37.3780   23.9402 N   0  0  0  0  0  0
  -24.6961  -31.0553   22.1005 N   0  0  0  0  0  0
  -23.4199  -28.8151   23.3004 O   0  0  0  0  0  0
  -28.3055  -26.3775   20.2026 O   0  0  0  0  0  0
  -26.5609  -34.8923   22.4673 O   0  0  0  0  0  0
  -23.5440  -32.1424   23.7301 O   0  0  0  0  0  0
  -30.5906  -17.3086   18.7405 C   0  0  0  0  0  0
  -30.7586  -18.5290   18.0659 C   0  0  0  0  0  0
  -29.5585  -18.5211   20.5767 C   0  0  0  0  0  0
  -30.0117  -17.2439   20.0271 C   0  0  0  0  0  0
  -29.7124  -19.8060   19.8941 C   0  0  0  0  0  0
  -30.3582  -19.7572   18.6233 C   0  0  0  0  0  0
  -28.7804  -22.2432   19.9271 C   0  0  0  0  0  0
  -28.9837  -23.7247   20.4978 C   0  0  0  0  0  0
  -28.0617  -24.9202   19.9240 C   0  0  0  0  0  0
  -29.3898  -21.1322   20.4911 N   0  0  0  0  0  0
  -29.8582  -15.8973   20.6483 N   0  0  0  0  0  0
  -28.0279  -22.1039   18.9595 O   0  0  0  0  0  0
  -30.7860  -21.1731   17.7208 Cl  0  0  0  0  0  0
  -31.4820  -12.5597   19.2056 H   0  0  0  0  0  0
  -30.3635  -11.4749   19.9809 H   0  0  0  0  0  0
  -29.8135  -11.7440   17.5313 H   0  0  0  0  0  0
  -29.6562  -13.4696   17.7422 H   0  0  0  0  0  0
  -27.9084  -11.2845   18.9238 H   0  0  0  0  0  0
  -27.3947  -12.5210   17.8038 H   0  0  0  0  0  0
  -27.6412  -14.2566   19.4692 H   0  0  0  0  0  0
  -28.7123  -12.1872   21.4522 H   0  0  0  0  0  0
  -28.4170  -13.8710   21.7959 H   0  0  0  0  0  0
  -25.2781   -9.5685   22.4756 H   0  0  0  0  0  0
  -24.0017   -7.4638   22.7465 H   0  0  0  0  0  0
  -21.0855   -8.8785   19.8957 H   0  0  0  0  0  0
  -22.3730  -10.9668   19.6170 H   0  0  0  0  0  0
  -21.2024   -7.6151   23.9721 H   0  0  0  0  0  0
  -21.1481   -6.0524   25.9075 H   0  0  0  0  0  0
  -22.0597   -2.7615   23.2834 H   0  0  0  0  0  0
  -22.4079  -11.9933   22.4841 H   0  0  0  0  0  0
  -21.1083  -13.1273   22.2570 H   0  0  0  0  0  0
  -24.6574  -15.8473   20.5180 H   0  0  0  0  0  0
  -26.2740  -15.6290   20.0790 H   0  0  0  0  0  0
  -26.7213  -32.5423   23.1144 H   0  0  0  0  0  0
  -25.0096  -33.9746   25.0446 H   0  0  0  0  0  0
  -22.7245  -31.3071   21.3997 H   0  0  0  0  0  0
  -23.3753  -35.9615   23.3285 H   0  0  0  0  0  0
  -24.3580  -36.8937   22.2056 H   0  0  0  0  0  0
  -23.7239  -37.6494   23.6671 H   0  0  0  0  0  0
  -26.1084  -31.5370   20.6134 H   0  0  0  0  0  0
  -26.8527  -30.8239   22.0123 H   0  0  0  0  0  0
  -28.1116  -28.9284   21.2227 H   0  0  0  0  0  0
  -25.9540  -25.9498   18.9424 H   0  0  0  0  0  0
  -23.9727  -27.3312   18.9834 H   0  0  0  0  0  0
  -23.7642  -30.5996   19.4055 H   0  0  0  0  0  0
  -22.7640  -29.2512   19.8549 H   0  0  0  0  0  0
  -25.1280  -36.1950   25.0825 H   0  0  0  0  0  0
  -21.0001  -28.3279   24.1352 H   0  0  0  0  0  0
  -20.5661  -26.2316   23.3603 H   0  0  0  0  0  0
  -21.6657  -26.7416   22.1194 H   0  0  0  0  0  0
  -19.6909  -25.6275   21.1255 H   0  0  0  0  0  0
  -19.6683  -27.3166   20.6708 H   0  0  0  0  0  0
  -17.4201  -26.6666   21.4033 H   0  0  0  0  0  0
  -18.0339  -26.0061   22.9013 H   0  0  0  0  0  0
  -19.7943  -30.7279   24.2256 H   0  0  0  0  0  0
  -17.5015  -31.6259   24.5160 H   0  0  0  0  0  0
  -15.5356  -30.2971   23.7647 H   0  0  0  0  0  0
  -15.8687  -28.0802   22.7069 H   0  0  0  0  0  0
  -24.5848  -30.7168   25.7816 H   0  0  0  0  0  0
  -24.8930  -32.2956   26.4935 H   0  0  0  0  0  0
  -25.7996  -30.8936   27.0278 H   0  0  0  0  0  0
  -26.2954  -29.6779   24.1263 H   0  0  0  0  0  0
  -27.3976  -29.7293   25.4820 H   0  0  0  0  0  0
  -27.8849  -30.4304   23.9577 H   0  0  0  0  0  0
  -27.2688  -33.3641   26.2136 H   0  0  0  0  0  0
  -28.3866  -32.6912   25.0374 H   0  0  0  0  0  0
  -28.0738  -31.8473   26.5458 H   0  0  0  0  0  0
  -28.2583  -38.0103   24.7513 H   0  0  0  0  0  0
  -28.1089  -36.2643   24.6262 H   0  0  0  0  0  0
  -27.2299  -37.1426   25.8860 H   0  0  0  0  0  0
  -20.9378  -29.8822   21.6895 H   0  0  0  0  0  0
  -26.0170  -38.2860   24.1396 H   0  0  0  0  0  0
  -30.9251  -16.4131   18.2380 H   0  0  0  0  0  0
  -31.2419  -18.5270   17.0996 H   0  0  0  0  0  0
  -29.0949  -18.5179   21.5535 H   0  0  0  0  0  0
  -30.0266  -23.9806   20.3116 H   0  0  0  0  0  0
  -28.8736  -23.6881   21.5824 H   0  0  0  0  0  0
  -27.0687  -24.6732   20.2970 H   0  0  0  0  0  0
  -28.0153  -24.8235   18.8383 H   0  0  0  0  0  0
  -29.7952  -21.2935   21.4044 H   0  0  0  0  0  0
  -28.9907  -15.7475   21.1427 H   0  0  0  0  0  0
  1 25  1  0  0  0
  1 30  2  0  0  0
  1 81  1  0  0  0
  2  3  1  0  0  0
  2 25  1  0  0  0
  2 84  1  0  0  0
  2 85  1  0  0  0
  3  4  1  0  0  0
  3 86  1  0  0  0
  3 87  1  0  0  0
  4  5  1  0  0  0
  4 88  1  0  0  0
  4 89  1  0  0  0
  5  6  1  0  0  0
  5 26  1  0  0  0
  5 90  1  0  0  0
  6 25  1  0  0  0
  6 91  1  0  0  0
  6 92  1  0  0  0
  7  8  2  0  0  0
  7 26  1  0  0  0
  7 29  1  0  0  0
  8  9  1  0  0  0
  8 22  1  0  0  0
  9 10  1  0  0  0
  9 27  2  0  0  0
 10 11  2  0  0  0
 10 15  1  0  0  0
 11 12  1  0  0  0
 11 93  1  0  0  0
 12 13  2  0  0  0
 12 94  1  0  0  0
 13 14  1  0  0  0
 13 31  1  0  0  0
 14 15  2  0  0  0
 14 95  1  0  0  0
 15 96  1  0  0  0
 16 17  2  0  0  0
 16 21  1  0  0  0
 16 31  1  0  0  0
 17 18  1  0  0  0
 17 97  1  0  0  0
 18 19  2  0  0  0
 18 98  1  0  0  0
 19 20  1  0  0  0
 19 24  1  0  0  0
 20 21  2  0  0  0
 20 99  1  0  0  0
 21 23  1  0  0  0
 22 28  1  0  0  0
 22 32  2  0  0  0
 26 27  1  0  0  0
 28100  1  0  0  0
 28101  1  0  0  0
 29102  1  0  0  0
 29103  1  0  0  0
 33 34  1  0  0  0
 33 66  1  0  0  0
 33 70  2  0  0  0
 34 36  1  0  0  0
 34 59  1  0  0  0
 34104  1  0  0  0
 35 44  2  0  0  0
 35 45  1  0  0  0
 35 68  1  0  0  0
 36 56  1  0  0  0
 36105  1  0  0  0
 37 39  1  0  0  0
 37 47  1  0  0  0
 37 66  1  0  0  0
 37106  1  0  0  0
 38 43  2  0  0  0
 38 46  1  0  0  0
 38 47  1  0  0  0
 39 64  1  0  0  0
 39 67  2  0  0  0
 40 52  1  0  0  0
 40 53  2  0  0  0
 40 58  1  0  0  0
 41107  1  0  0  0
 41108  1  0  0  0
 41109  1  0  0  0
 41 48  1  0  0  0
 42 43  1  0  0  0
 42 66  1  0  0  0
 42110  1  0  0  0
 42111  1  0  0  0
 43 44  1  0  0  0
 44112  1  0  0  0
 45 46  2  0  0  0
 45113  1  0  0  0
 46114  1  0  0  0
 47115  1  0  0  0
 47116  1  0  0  0
 48 56  1  0  0  0
 48 65  1  0  0  0
 48117  1  0  0  0
 49 50  1  0  0  0
 49 53  1  0  0  0
 49 64  1  0  0  0
 49118  1  0  0  0
 50 51  1  0  0  0
 50119  1  0  0  0
 50120  1  0  0  0
 51 52  1  0  0  0
 51121  1  0  0  0
 51122  1  0  0  0
 52123  1  0  0  0
 52124  1  0  0  0
 53 54  1  0  0  0
 54 55  2  0  0  0
 54125  1  0  0  0
 55 57  1  0  0  0
 55126  1  0  0  0
 56 69  2  0  0  0
 57 58  2  0  0  0
 57127  1  0  0  0
 58128  1  0  0  0
 59 60  1  0  0  0
 59 61  1  0  0  0
 59 62  1  0  0  0
 60129  1  0  0  0
 60130  1  0  0  0
 60131  1  0  0  0
 61132  1  0  0  0
 61133  1  0  0  0
 61134  1  0  0  0
 62135  1  0  0  0
 62136  1  0  0  0
 62137  1  0  0  0
 63 65  1  0  0  0
 63138  1  0  0  0
 63139  1  0  0  0
 63140  1  0  0  0
 64141  1  0  0  0
 65142  1  0  0  0
 68 79  1  0  0  0
 71 72  2  0  0  0
 71 74  1  0  0  0
 71143  1  0  0  0
 72 76  1  0  0  0
 72144  1  0  0  0
 73 74  2  0  0  0
 73 75  1  0  0  0
 73145  1  0  0  0
 74 81  1  0  0  0
 75 76  2  0  0  0
 75 80  1  0  0  0
 76 83  1  0  0  0
 77 78  1  0  0  0
 77 80  1  0  0  0
 77 82  2  0  0  0
 78 79  1  0  0  0
 78146  1  0  0  0
 78147  1  0  0  0
 79148  1  0  0  0
 79149  1  0  0  0
 80150  1  0  0  0
 81151  1  0  0  0
M  ISO  4   1 100  68 101  79 101  81 100
M  END
> <chiral flag>
0

> <version>
0

> <s_m_source_file>
/data/baiqing/PycharmProjects/Reinvent-master-3.2/result/LINK_invent/BTK/process_docking_weight1_custom_product_contain_oxygen_bond_distance_aromatic_linkinvent_7_9_3/rearranged_h_0055.sdf

> <i_m_source_file_index>
84

> <r_mmod_Potential_Energy-OPLS-2005>
128.989547729492

> <r_mmod_Stretch_Energy-OPLS-2005>
122.891319274902

> <r_mmod_Bend_Energy-OPLS-2005>
153.87907409668

> <r_mmod_Torsional_Energy-OPLS-2005>
261.041412353516

> <r_mmod_Improper_Torsional_Energy-OPLS-2005>
5.47519254684448

> <r_mmod_Van_der_Waal_Energy-OPLS-2005>
150.664184570312

> <r_mmod_Electrostatic_Energy-OPLS-2005>
-410.699188232422

> <r_mmod_Solvation_Energy-OPLS-2005>
-238.580490112305

> <b_mmod_Minimization_Converged-OPLS-2005>
0

> <r_mmod_RMS_Derivative-OPLS-2005>
2.17778921127319

$$$$
84
                    3D
 Structure written by MMmdl.
161169  0  0  1  0            999 V2000
  -30.6902  -14.4294   20.5758 C   0  0  0  0  0  0
  -30.4276  -12.2823   19.4094 C   0  0  0  0  0  0
  -29.4915  -12.4964   18.1993 C   0  0  0  0  0  0
  -28.0090  -12.3805   18.6115 C   0  0  0  0  0  0
  -27.6684  -13.2012   19.8837 C   0  0  2  0  0  0
  -28.7079  -12.9346   20.9953 C   0  0  0  0  0  0
  -25.2627  -13.8174   20.5704 C   0  0  0  0  0  0
  -24.1854  -13.0455   20.9172 C   0  0  0  0  0  0
  -24.6402  -11.6919   20.8730 C   0  0  0  0  0  0
  -23.9071  -10.4312   21.0399 C   0  0  0  0  0  0
  -24.3630   -9.4223   21.9168 C   0  0  0  0  0  0
  -23.6315   -8.2252   22.0746 C   0  0  0  0  0  0
  -22.4294   -8.0287   21.3541 C   0  0  0  0  0  0
  -21.9919   -9.0264   20.4648 C   0  0  0  0  0  0
  -22.7244  -10.2144   20.3058 C   0  0  0  0  0  0
  -21.6867   -6.0735   22.5274 C   0  0  0  0  0  0
  -21.4004   -6.5641   23.8204 C   0  0  0  0  0  0
  -21.3661   -5.6801   24.9174 C   0  0  0  0  0  0
  -21.6056   -4.3062   24.7230 C   0  0  0  0  0  0
  -21.8825   -3.8145   23.4353 C   0  0  0  0  0  0
  -21.9197   -4.6960   22.3400 C   0  0  0  0  0  0
  -22.7868  -13.5227   21.1839 C   0  0  0  0  0  0
  -22.1669   -4.2144   21.0987 F   0  0  0  0  0  0
  -21.5655   -3.4548   25.7744 F   0  0  0  0  0  0
  -30.0460  -13.2396   20.4549 N   0  0  0  0  0  0
  -26.3064  -12.9325   20.3416 N   0  0  0  0  0  0
  -25.9327  -11.6488   20.5785 N   0  0  0  0  0  0
  -22.0543  -12.8192   22.0410 N   0  0  0  0  0  0
  -25.4368  -15.1884   20.4144 N   0  0  0  0  0  0
  -31.7911  -14.6673   20.0681 O   0  0  0  0  0  0
  -21.6663   -6.8876   21.4240 O   0  0  0  0  0  0
  -22.3535  -14.5527   20.6706 O   0  0  0  0  0  0
  -24.6098  -31.8717   23.2151 C   0  0  0  0  0  0
  -25.9029  -32.4818   23.8412 C   0  0  1  0  0  0
  -27.2375  -27.4724   20.0646 C   0  0  0  0  0  0
  -25.5921  -33.8616   24.2345 N   0  0  0  0  0  0
  -23.3929  -30.4941   21.5583 C   0  0  2  0  0  0
  -24.8362  -28.9669   20.1179 C   0  0  0  0  0  0
  -22.7362  -29.4637   22.5040 C   0  0  0  0  0  0
  -18.0273  -28.1349   22.8583 C   0  0  0  0  0  0
  -24.1507  -36.7323   23.2635 C   0  0  0  0  0  0
  -25.9211  -30.8426   21.3674 C   0  0  0  0  0  0
  -25.9960  -29.4816   20.7099 C   0  0  0  0  0  0
  -27.1949  -28.7390   20.6854 C   0  0  0  0  0  0
  -26.0558  -26.9662   19.4714 C   0  0  0  0  0  0
  -24.8582  -27.7044   19.5037 C   0  0  0  0  0  0
  -23.5990  -29.8330   20.1704 C   0  0  0  0  0  0
  -25.4128  -36.3107   24.0333 C   0  0  1  0  0  0
  -20.5861  -28.3559   23.1379 C   0  0  2  0  0  0
  -20.6716  -26.9266   22.5527 C   0  0  0  0  0  0
  -19.5651  -26.6276   21.5334 C   0  0  0  0  0  0
  -18.1870  -26.7814   22.1845 C   0  0  0  0  0  0
  -19.1542  -28.8765   23.2977 C   0  0  0  0  0  0
  -18.9521  -30.1357   23.9053 C   0  0  0  0  0  0
  -17.6554  -30.6532   24.0741 C   0  0  0  0  0  0
  -25.9047  -34.9470   23.5125 C   0  0  0  0  0  0
  -16.5417  -29.9113   23.6464 C   0  0  0  0  0  0
  -16.7286  -28.6535   23.0431 C   0  0  0  0  0  0
  -26.4468  -31.6578   25.0722 C   0  0  0  0  0  0
  -25.3726  -31.3694   26.1463 C   0  0  0  0  0  0
  -27.0306  -30.3016   24.6103 C   0  0  0  0  0  0
  -27.6052  -32.4291   25.7474 C   0  0  0  0  0  0
  -27.5591  -37.1825   24.8464 C   0  0  0  0  0  0
  -21.4107  -29.2911   22.3737 N   0  0  0  0  0  0
  -26.4313  -37.3788   23.9390 N   0  0  0  0  0  0
  -24.6590  -31.0838   22.1045 N   0  0  0  0  0  0
  -23.4161  -28.8230   23.3105 O   0  0  0  0  0  0
  -28.4444  -26.8023   20.0552 O   0  0  0  0  0  0
  -26.5588  -34.8917   22.4678 O   0  0  0  0  0  0
  -23.5301  -32.1471   23.7574 O   0  0  0  0  0  0
  -29.6093  -18.4840   19.1372 C   0  0  0  0  0  0
  -28.5053  -19.0722   19.7818 C   0  0  0  0  0  0
  -30.1439  -17.2660   19.6051 C   0  0  0  0  0  0
  -28.4670  -17.2262   21.3724 C   0  0  0  0  0  0
  -27.9384  -18.4507   20.9170 C   0  0  0  0  0  0
  -29.5629  -16.6200   20.7246 C   0  0  0  0  0  0
  -26.8297  -21.5248   21.5857 C   0  0  0  0  0  0
  -27.8903  -24.5390   20.7469 C   0  0  0  0  0  0
  -25.1364  -20.2433   20.2784 C   0  0  0  0  0  0
  -26.7878  -19.0675   21.7051 C   0  0  0  0  0  0
  -26.1223  -22.8556   21.2657 C   0  0  0  0  0  0
  -28.4958  -25.4312   19.6527 C   0  0  0  0  0  0
  -29.9896  -15.3626   21.2344 N   0  0  0  0  0  0
  -26.9016  -23.7164   20.3775 N   0  0  0  0  0  0
  -26.2691  -20.3484   21.2051 N   0  0  0  0  0  0
  -27.8867  -21.5670   22.2224 O   0  0  0  0  0  0
  -28.2862  -24.6317   21.9118 O   0  0  0  0  0  0
  -31.4715  -12.3968   19.1091 H   0  0  0  0  0  0
  -30.3373  -11.2660   19.7921 H   0  0  0  0  0  0
  -29.7146  -11.7654   17.4208 H   0  0  0  0  0  0
  -29.6743  -13.4752   17.7534 H   0  0  0  0  0  0
  -27.7947  -11.3257   18.7824 H   0  0  0  0  0  0
  -27.3641  -12.6888   17.7882 H   0  0  0  0  0  0
  -27.7249  -14.2557   19.6129 H   0  0  0  0  0  0
  -28.6704  -11.8869   21.2971 H   0  0  0  0  0  0
  -28.4638  -13.4986   21.8965 H   0  0  0  0  0  0
  -25.2790   -9.5697   22.4717 H   0  0  0  0  0  0
  -24.0046   -7.4639   22.7433 H   0  0  0  0  0  0
  -21.0863   -8.8775   19.8943 H   0  0  0  0  0  0
  -22.3705  -10.9681   19.6156 H   0  0  0  0  0  0
  -21.1978   -7.6146   23.9695 H   0  0  0  0  0  0
  -21.1478   -6.0539   25.9071 H   0  0  0  0  0  0
  -22.0599   -2.7608   23.2866 H   0  0  0  0  0  0
  -22.4205  -11.9856   22.4786 H   0  0  0  0  0  0
  -21.1139  -13.1136   22.2623 H   0  0  0  0  0  0
  -24.6714  -15.8449   20.5132 H   0  0  0  0  0  0
  -26.2991  -15.6248   20.1133 H   0  0  0  0  0  0
  -26.7089  -32.5529   23.1166 H   0  0  0  0  0  0
  -25.0095  -33.9799   25.0502 H   0  0  0  0  0  0
  -22.6775  -31.3096   21.4284 H   0  0  0  0  0  0
  -23.3748  -35.9673   23.3302 H   0  0  0  0  0  0
  -24.3598  -36.8925   22.2044 H   0  0  0  0  0  0
  -23.7288  -37.6548   23.6636 H   0  0  0  0  0  0
  -26.0425  -31.6162   20.6085 H   0  0  0  0  0  0
  -26.8049  -30.8830   21.9903 H   0  0  0  0  0  0
  -28.0899  -29.1393   21.1394 H   0  0  0  0  0  0
  -26.0290  -26.0151   18.9642 H   0  0  0  0  0  0
  -23.9673  -27.3036   19.0407 H   0  0  0  0  0  0
  -23.7120  -30.6141   19.4186 H   0  0  0  0  0  0
  -22.7199  -29.2602   19.8676 H   0  0  0  0  0  0
  -25.1306  -36.1975   25.0823 H   0  0  0  0  0  0
  -20.9964  -28.3125   24.1492 H   0  0  0  0  0  0
  -20.5554  -26.2190   23.3757 H   0  0  0  0  0  0
  -21.6625  -26.7222   22.1438 H   0  0  0  0  0  0
  -19.6466  -27.3131   20.6882 H   0  0  0  0  0  0
  -19.6770  -25.6217   21.1306 H   0  0  0  0  0  0
  -17.4038  -26.6473   21.4356 H   0  0  0  0  0  0
  -18.0406  -26.0026   22.9353 H   0  0  0  0  0  0
  -19.7992  -30.7107   24.2543 H   0  0  0  0  0  0
  -17.5174  -31.6173   24.5458 H   0  0  0  0  0  0
  -15.5458  -30.3077   23.7875 H   0  0  0  0  0  0
  -15.8660  -28.0894   22.7173 H   0  0  0  0  0  0
  -24.5891  -30.7057   25.7793 H   0  0  0  0  0  0
  -24.8929  -32.2856   26.4911 H   0  0  0  0  0  0
  -25.8055  -30.8851   27.0221 H   0  0  0  0  0  0
  -26.2870  -29.6784   24.1120 H   0  0  0  0  0  0
  -27.4041  -29.7240   25.4573 H   0  0  0  0  0  0
  -27.8711  -30.4335   23.9281 H   0  0  0  0  0  0
  -27.2672  -33.3575   26.2089 H   0  0  0  0  0  0
  -28.3825  -32.6872   25.0270 H   0  0  0  0  0  0
  -28.0752  -31.8393   26.5353 H   0  0  0  0  0  0
  -28.2622  -38.0113   24.7490 H   0  0  0  0  0  0
  -28.1079  -36.2641   24.6311 H   0  0  0  0  0  0
  -27.2300  -37.1496   25.8868 H   0  0  0  0  0  0
  -20.9243  -29.8499   21.6870 H   0  0  0  0  0  0
  -26.0200  -38.2875   24.1345 H   0  0  0  0  0  0
  -30.0506  -18.9750   18.2810 H   0  0  0  0  0  0
  -28.1156  -20.0061   19.4028 H   0  0  0  0  0  0
  -30.9896  -16.8433   19.0823 H   0  0  0  0  0  0
  -28.0172  -16.7511   22.2341 H   0  0  0  0  0  0
  -24.9495  -19.2117   19.9710 H   0  0  0  0  0  0
  -25.3292  -20.8112   19.3677 H   0  0  0  0  0  0
  -24.2188  -20.6185   20.7328 H   0  0  0  0  0  0
  -27.1399  -19.1985   22.7304 H   0  0  0  0  0  0
  -25.9800  -18.3388   21.7832 H   0  0  0  0  0  0
  -25.9516  -23.3712   22.2123 H   0  0  0  0  0  0
  -25.1300  -22.7196   20.8421 H   0  0  0  0  0  0
  -28.0364  -25.2724   18.6756 H   0  0  0  0  0  0
  -29.5449  -25.1548   19.5375 H   0  0  0  0  0  0
  -29.3282  -14.9524   21.8745 H   0  0  0  0  0  0
  -26.6427  -23.7032   19.4008 H   0  0  0  0  0  0
  1 25  1  0  0  0
  1 30  2  0  0  0
  1 83  1  0  0  0
  2  3  1  0  0  0
  2 25  1  0  0  0
  2 88  1  0  0  0
  2 89  1  0  0  0
  3  4  1  0  0  0
  3 90  1  0  0  0
  3 91  1  0  0  0
  4  5  1  0  0  0
  4 92  1  0  0  0
  4 93  1  0  0  0
  5  6  1  0  0  0
  5 26  1  0  0  0
  5 94  1  0  0  0
  6 25  1  0  0  0
  6 95  1  0  0  0
  6 96  1  0  0  0
  7  8  2  0  0  0
  7 26  1  0  0  0
  7 29  1  0  0  0
  8  9  1  0  0  0
  8 22  1  0  0  0
  9 10  1  0  0  0
  9 27  2  0  0  0
 10 11  2  0  0  0
 10 15  1  0  0  0
 11 12  1  0  0  0
 11 97  1  0  0  0
 12 13  2  0  0  0
 12 98  1  0  0  0
 13 14  1  0  0  0
 13 31  1  0  0  0
 14 15  2  0  0  0
 14 99  1  0  0  0
 15100  1  0  0  0
 16 17  2  0  0  0
 16 21  1  0  0  0
 16 31  1  0  0  0
 17 18  1  0  0  0
 17101  1  0  0  0
 18 19  2  0  0  0
 18102  1  0  0  0
 19 20  1  0  0  0
 19 24  1  0  0  0
 20 21  2  0  0  0
 20103  1  0  0  0
 21 23  1  0  0  0
 22 28  1  0  0  0
 22 32  2  0  0  0
 26 27  1  0  0  0
 28104  1  0  0  0
 28105  1  0  0  0
 29106  1  0  0  0
 29107  1  0  0  0
 33 34  1  0  0  0
 33 66  1  0  0  0
 33 70  2  0  0  0
 34 36  1  0  0  0
 34 59  1  0  0  0
 34108  1  0  0  0
 35 44  2  0  0  0
 35 45  1  0  0  0
 35 68  1  0  0  0
 36 56  1  0  0  0
 36109  1  0  0  0
 37 39  1  0  0  0
 37 47  1  0  0  0
 37 66  1  0  0  0
 37110  1  0  0  0
 38 43  2  0  0  0
 38 46  1  0  0  0
 38 47  1  0  0  0
 39 64  1  0  0  0
 39 67  2  0  0  0
 40 52  1  0  0  0
 40 53  2  0  0  0
 40 58  1  0  0  0
 41111  1  0  0  0
 41112  1  0  0  0
 41113  1  0  0  0
 41 48  1  0  0  0
 42 43  1  0  0  0
 42 66  1  0  0  0
 42114  1  0  0  0
 42115  1  0  0  0
 43 44  1  0  0  0
 44116  1  0  0  0
 45 46  2  0  0  0
 45117  1  0  0  0
 46118  1  0  0  0
 47119  1  0  0  0
 47120  1  0  0  0
 48 56  1  0  0  0
 48 65  1  0  0  0
 48121  1  0  0  0
 49 50  1  0  0  0
 49 53  1  0  0  0
 49 64  1  0  0  0
 49122  1  0  0  0
 50 51  1  0  0  0
 50123  1  0  0  0
 50124  1  0  0  0
 51 52  1  0  0  0
 51125  1  0  0  0
 51126  1  0  0  0
 52127  1  0  0  0
 52128  1  0  0  0
 53 54  1  0  0  0
 54 55  2  0  0  0
 54129  1  0  0  0
 55 57  1  0  0  0
 55130  1  0  0  0
 56 69  2  0  0  0
 57 58  2  0  0  0
 57131  1  0  0  0
 58132  1  0  0  0
 59 60  1  0  0  0
 59 61  1  0  0  0
 59 62  1  0  0  0
 60133  1  0  0  0
 60134  1  0  0  0
 60135  1  0  0  0
 61136  1  0  0  0
 61137  1  0  0  0
 61138  1  0  0  0
 62139  1  0  0  0
 62140  1  0  0  0
 62141  1  0  0  0
 63 65  1  0  0  0
 63142  1  0  0  0
 63143  1  0  0  0
 63144  1  0  0  0
 64145  1  0  0  0
 65146  1  0  0  0
 68 82  1  0  0  0
 71 72  2  0  0  0
 71 73  1  0  0  0
 71147  1  0  0  0
 72 75  1  0  0  0
 72148  1  0  0  0
 73 76  2  0  0  0
 73149  1  0  0  0
 74 75  2  0  0  0
 74 76  1  0  0  0
 74150  1  0  0  0
 75 80  1  0  0  0
 76 83  1  0  0  0
 77 81  1  0  0  0
 77 85  1  0  0  0
 77 86  2  0  0  0
 78 82  1  0  0  0
 78 84  1  0  0  0
 78 87  2  0  0  0
 79 85  1  0  0  0
 79151  1  0  0  0
 79152  1  0  0  0
 79153  1  0  0  0
 80 85  1  0  0  0
 80154  1  0  0  0
 80155  1  0  0  0
 81 84  1  0  0  0
 81156  1  0  0  0
 81157  1  0  0  0
 82158  1  0  0  0
 82159  1  0  0  0
 83160  1  0  0  0
 84161  1  0  0  0
M  ISO  4   1 100  68 101  82 101  83 100
M  END
> <chiral flag>
0

> <version>
0

> <s_m_source_file>
/data/baiqing/PycharmProjects/Reinvent-master-3.2/result/LINK_invent/BTK/process_docking_weight1_custom_product_contain_oxygen_bond_distance_aromatic_linkinvent_7_9_3/rearranged_h_0055.sdf

> <i_m_source_file_index>
85

> <r_mmod_Potential_Energy-OPLS-2005>
-143.162536621094

> <r_mmod_Stretch_Energy-OPLS-2005>
35.2667007446289

> <r_mmod_Bend_Energy-OPLS-2005>
105.684867858887

> <r_mmod_Torsional_Energy-OPLS-2005>
221.869323730469

> <r_mmod_Improper_Torsional_Energy-OPLS-2005>
5.57541656494141

> <r_mmod_Van_der_Waal_Energy-OPLS-2005>
164.573623657227

> <r_mmod_Electrostatic_Energy-OPLS-2005>
-402.148345947266

> <r_mmod_Solvation_Energy-OPLS-2005>
-284.133575439453

> <b_mmod_Minimization_Converged-OPLS-2005>
0

> <r_mmod_RMS_Derivative-OPLS-2005>
3.11347770690918

$$$$
85
                    3D
 Structure written by MMmdl.
161170  0  0  1  0            999 V2000
  -30.7073  -14.4192   20.6075 C   0  0  0  0  0  0
  -30.4226  -12.2871   19.4159 C   0  0  0  0  0  0
  -29.4916  -12.5264   18.2086 C   0  0  0  0  0  0
  -28.0133  -12.3830   18.6191 C   0  0  0  0  0  0
  -27.6673  -13.2040   19.8884 C   0  0  2  0  0  0
  -28.7044  -12.9477   21.0059 C   0  0  0  0  0  0
  -25.2597  -13.8167   20.5687 C   0  0  0  0  0  0
  -24.1839  -13.0446   20.9163 C   0  0  0  0  0  0
  -24.6396  -11.6915   20.8745 C   0  0  0  0  0  0
  -23.9070  -10.4297   21.0421 C   0  0  0  0  0  0
  -24.3620   -9.4199   21.9189 C   0  0  0  0  0  0
  -23.6292   -8.2233   22.0751 C   0  0  0  0  0  0
  -22.4268   -8.0283   21.3547 C   0  0  0  0  0  0
  -21.9917   -9.0259   20.4643 C   0  0  0  0  0  0
  -22.7250  -10.2140   20.3062 C   0  0  0  0  0  0
  -21.6843   -6.0737   22.5281 C   0  0  0  0  0  0
  -21.4011   -6.5641   23.8216 C   0  0  0  0  0  0
  -21.3660   -5.6792   24.9177 C   0  0  0  0  0  0
  -21.6045   -4.3054   24.7223 C   0  0  0  0  0  0
  -21.8817   -3.8149   23.4342 C   0  0  0  0  0  0
  -21.9186   -4.6967   22.3398 C   0  0  0  0  0  0
  -22.7859  -13.5241   21.1830 C   0  0  0  0  0  0
  -22.1656   -4.2156   21.0975 F   0  0  0  0  0  0
  -21.5629   -3.4531   25.7732 F   0  0  0  0  0  0
  -30.0497  -13.2386   20.4733 N   0  0  0  0  0  0
  -26.3049  -12.9338   20.3431 N   0  0  0  0  0  0
  -25.9324  -11.6497   20.5800 N   0  0  0  0  0  0
  -22.0506  -12.8236   22.0400 N   0  0  0  0  0  0
  -25.4337  -15.1879   20.4108 N   0  0  0  0  0  0
  -31.7768  -14.6743   20.0444 O   0  0  0  0  0  0
  -21.6630   -6.8879   21.4243 O   0  0  0  0  0  0
  -22.3534  -14.5542   20.6679 O   0  0  0  0  0  0
  -24.6114  -31.8706   23.2132 C   0  0  0  0  0  0
  -25.9022  -32.4837   23.8417 C   0  0  1  0  0  0
  -27.2291  -27.4611   20.0873 C   0  0  0  0  0  0
  -25.5895  -33.8633   24.2356 N   0  0  0  0  0  0
  -23.3981  -30.4941   21.5539 C   0  0  2  0  0  0
  -24.8449  -28.9651   20.1163 C   0  0  0  0  0  0
  -22.7399  -29.4654   22.5011 C   0  0  0  0  0  0
  -18.0294  -28.1368   22.8494 C   0  0  0  0  0  0
  -24.1487  -36.7321   23.2639 C   0  0  0  0  0  0
  -25.9258  -30.8434   21.3635 C   0  0  0  0  0  0
  -26.0040  -29.4800   20.7108 C   0  0  0  0  0  0
  -27.2021  -28.7337   20.6956 C   0  0  0  0  0  0
  -26.0599  -26.9579   19.4814 C   0  0  0  0  0  0
  -24.8656  -27.7017   19.5000 C   0  0  0  0  0  0
  -23.6063  -29.8297   20.1669 C   0  0  0  0  0  0
  -25.4104  -36.3120   24.0345 C   0  0  1  0  0  0
  -20.5868  -28.3667   23.1388 C   0  0  2  0  0  0
  -20.6788  -26.9391   22.5530 C   0  0  0  0  0  0
  -19.5836  -26.6388   21.5255 C   0  0  0  0  0  0
  -18.1962  -26.7946   22.1556 C   0  0  0  0  0  0
  -19.1526  -28.8829   23.2945 C   0  0  0  0  0  0
  -18.9438  -30.1433   23.8961 C   0  0  0  0  0  0
  -17.6433  -30.6576   24.0566 C   0  0  0  0  0  0
  -25.9030  -34.9485   23.5146 C   0  0  0  0  0  0
  -16.5340  -29.9068   23.6308 C   0  0  0  0  0  0
  -16.7279  -28.6478   23.0349 C   0  0  0  0  0  0
  -26.4469  -31.6606   25.0734 C   0  0  0  0  0  0
  -25.3747  -31.3704   26.1491 C   0  0  0  0  0  0
  -27.0301  -30.3056   24.6093 C   0  0  0  0  0  0
  -27.6061  -32.4310   25.7479 C   0  0  0  0  0  0
  -27.5583  -37.1813   24.8467 C   0  0  0  0  0  0
  -21.4128  -29.3009   22.3755 N   0  0  0  0  0  0
  -26.4300  -37.3795   23.9404 N   0  0  0  0  0  0
  -24.6636  -31.0817   22.1031 N   0  0  0  0  0  0
  -23.4185  -28.8214   23.3055 O   0  0  0  0  0  0
  -28.3819  -26.7155   20.0825 O   0  0  0  0  0  0
  -26.5585  -34.8926   22.4703 O   0  0  0  0  0  0
  -23.5313  -32.1460   23.7543 O   0  0  0  0  0  0
  -28.7723  -18.0291   19.0539 C   0  0  0  0  0  0
  -28.5198  -18.7348   21.3662 C   0  0  0  0  0  0
  -29.4079  -16.8468   19.4796 C   0  0  0  0  0  0
  -29.1409  -17.5444   21.7962 C   0  0  0  0  0  0
  -28.3078  -18.9752   19.9911 C   0  0  0  0  0  0
  -29.5795  -16.5836   20.8611 C   0  0  0  0  0  0
  -28.8622  -22.2285   19.3133 C   0  0  0  0  0  0
  -29.1644  -23.6706   19.7548 C   0  0  0  0  0  0
  -27.6384  -23.3547   21.6973 C   0  0  0  0  0  0
  -27.1228  -22.0353   21.1003 C   0  0  0  0  0  0
  -28.0344  -24.3171   20.5741 C   0  0  1  0  0  0
  -27.5074  -20.1813   19.5033 C   0  0  0  0  0  0
  -28.4195  -25.7157   21.1044 C   0  0  0  0  0  0
  -27.9430  -21.4986   19.9970 N   0  0  0  0  0  0
  -30.0736  -15.3411   21.3477 N   0  0  0  0  0  0
  -29.4727  -21.7838   18.3373 O   0  0  0  0  0  0
  -31.4659  -12.3918   19.1128 H   0  0  0  0  0  0
  -30.3222  -11.2655   19.7841 H   0  0  0  0  0  0
  -29.7254  -11.8300   17.4028 H   0  0  0  0  0  0
  -29.6621  -13.5269   17.8078 H   0  0  0  0  0  0
  -27.8161  -11.3258   18.7990 H   0  0  0  0  0  0
  -27.3632  -12.6775   17.7942 H   0  0  0  0  0  0
  -27.7228  -14.2575   19.6144 H   0  0  0  0  0  0
  -28.6653  -11.9073   21.3300 H   0  0  0  0  0  0
  -28.4543  -13.5295   21.8938 H   0  0  0  0  0  0
  -25.2772   -9.5647   22.4760 H   0  0  0  0  0  0
  -23.9988   -7.4615   22.7465 H   0  0  0  0  0  0
  -21.0846   -8.8788   19.8949 H   0  0  0  0  0  0
  -22.3721  -10.9679   19.6161 H   0  0  0  0  0  0
  -21.2008   -7.6149   23.9724 H   0  0  0  0  0  0
  -21.1486   -6.0520   25.9081 H   0  0  0  0  0  0
  -22.0597   -2.7611   23.2839 H   0  0  0  0  0  0
  -22.4134  -11.9902   22.4785 H   0  0  0  0  0  0
  -21.1128  -13.1273   22.2621 H   0  0  0  0  0  0
  -24.6733  -15.8495   20.5184 H   0  0  0  0  0  0
  -26.3034  -15.6266   20.1342 H   0  0  0  0  0  0
  -26.7097  -32.5551   23.1183 H   0  0  0  0  0  0
  -25.0060  -33.9809   25.0511 H   0  0  0  0  0  0
  -22.6844  -31.3098   21.4170 H   0  0  0  0  0  0
  -23.3745  -35.9657   23.3323 H   0  0  0  0  0  0
  -24.3593  -36.8908   22.2052 H   0  0  0  0  0  0
  -23.7248  -37.6537   23.6636 H   0  0  0  0  0  0
  -26.0369  -31.6132   20.5980 H   0  0  0  0  0  0
  -26.8144  -30.8953   21.9813 H   0  0  0  0  0  0
  -28.1008  -29.1270   21.1508 H   0  0  0  0  0  0
  -26.0644  -25.9993   18.9846 H   0  0  0  0  0  0
  -23.9748  -27.3023   19.0345 H   0  0  0  0  0  0
  -23.7132  -30.6083   19.4103 H   0  0  0  0  0  0
  -22.7308  -29.2504   19.8693 H   0  0  0  0  0  0
  -25.1276  -36.1997   25.0840 H   0  0  0  0  0  0
  -20.9955  -28.3275   24.1511 H   0  0  0  0  0  0
  -20.5635  -26.2287   23.3731 H   0  0  0  0  0  0
  -21.6682  -26.7430   22.1381 H   0  0  0  0  0  0
  -19.7031  -25.6312   21.1258 H   0  0  0  0  0  0
  -19.6860  -27.3214   20.6811 H   0  0  0  0  0  0
  -17.4323  -26.6822   21.3846 H   0  0  0  0  0  0
  -18.0228  -26.0028   22.8854 H   0  0  0  0  0  0
  -19.7897  -30.7239   24.2382 H   0  0  0  0  0  0
  -17.4969  -31.6263   24.5143 H   0  0  0  0  0  0
  -15.5328  -30.2961   23.7595 H   0  0  0  0  0  0
  -15.8691  -28.0782   22.7056 H   0  0  0  0  0  0
  -24.5911  -30.7063   25.7832 H   0  0  0  0  0  0
  -24.8948  -32.2859   26.4960 H   0  0  0  0  0  0
  -25.8108  -30.8859   27.0235 H   0  0  0  0  0  0
  -26.2853  -29.6815   24.1146 H   0  0  0  0  0  0
  -27.4097  -29.7286   25.4535 H   0  0  0  0  0  0
  -27.8668  -30.4397   23.9232 H   0  0  0  0  0  0
  -27.2707  -33.3593   26.2111 H   0  0  0  0  0  0
  -28.3836  -32.6895   25.0280 H   0  0  0  0  0  0
  -28.0772  -31.8401   26.5344 H   0  0  0  0  0  0
  -28.2610  -38.0100   24.7491 H   0  0  0  0  0  0
  -28.1069  -36.2632   24.6310 H   0  0  0  0  0  0
  -27.2309  -37.1482   25.8874 H   0  0  0  0  0  0
  -20.9276  -29.8693   21.6957 H   0  0  0  0  0  0
  -26.0199  -38.2880   24.1388 H   0  0  0  0  0  0
  -28.6114  -18.1877   17.9962 H   0  0  0  0  0  0
  -28.1700  -19.4358   22.1082 H   0  0  0  0  0  0
  -29.7107  -16.1317   18.7275 H   0  0  0  0  0  0
  -29.2553  -17.3634   22.8558 H   0  0  0  0  0  0
  -29.3685  -24.2764   18.8712 H   0  0  0  0  0  0
  -30.0839  -23.6498   20.3403 H   0  0  0  0  0  0
  -28.4937  -23.1632   22.3472 H   0  0  0  0  0  0
  -26.8645  -23.7935   22.3297 H   0  0  0  0  0  0
  -26.1140  -22.1947   20.7155 H   0  0  0  0  0  0
  -27.0266  -21.2981   21.8963 H   0  0  0  0  0  0
  -27.1630  -24.4185   19.9312 H   0  0  0  0  0  0
  -26.4667  -20.0147   19.7839 H   0  0  0  0  0  0
  -27.4893  -20.1825   18.4115 H   0  0  0  0  0  0
  -29.4257  -25.6876   21.5224 H   0  0  0  0  0  0
  -27.7682  -25.9942   21.9367 H   0  0  0  0  0  0
  -29.5270  -14.9533   22.1019 H   0  0  0  0  0  0
  1 25  1  0  0  0
  1 30  2  0  0  0
  1 85  1  0  0  0
  2  3  1  0  0  0
  2 25  1  0  0  0
  2 87  1  0  0  0
  2 88  1  0  0  0
  3  4  1  0  0  0
  3 89  1  0  0  0
  3 90  1  0  0  0
  4  5  1  0  0  0
  4 91  1  0  0  0
  4 92  1  0  0  0
  5  6  1  0  0  0
  5 26  1  0  0  0
  5 93  1  0  0  0
  6 25  1  0  0  0
  6 94  1  0  0  0
  6 95  1  0  0  0
  7  8  2  0  0  0
  7 26  1  0  0  0
  7 29  1  0  0  0
  8  9  1  0  0  0
  8 22  1  0  0  0
  9 10  1  0  0  0
  9 27  2  0  0  0
 10 11  2  0  0  0
 10 15  1  0  0  0
 11 12  1  0  0  0
 11 96  1  0  0  0
 12 13  2  0  0  0
 12 97  1  0  0  0
 13 14  1  0  0  0
 13 31  1  0  0  0
 14 15  2  0  0  0
 14 98  1  0  0  0
 15 99  1  0  0  0
 16 17  2  0  0  0
 16 21  1  0  0  0
 16 31  1  0  0  0
 17 18  1  0  0  0
 17100  1  0  0  0
 18 19  2  0  0  0
 18101  1  0  0  0
 19 20  1  0  0  0
 19 24  1  0  0  0
 20 21  2  0  0  0
 20102  1  0  0  0
 21 23  1  0  0  0
 22 28  1  0  0  0
 22 32  2  0  0  0
 26 27  1  0  0  0
 28103  1  0  0  0
 28104  1  0  0  0
 29105  1  0  0  0
 29106  1  0  0  0
 33 34  1  0  0  0
 33 66  1  0  0  0
 33 70  2  0  0  0
 34 36  1  0  0  0
 34 59  1  0  0  0
 34107  1  0  0  0
 35 44  2  0  0  0
 35 45  1  0  0  0
 35 68  1  0  0  0
 36 56  1  0  0  0
 36108  1  0  0  0
 37 39  1  0  0  0
 37 47  1  0  0  0
 37 66  1  0  0  0
 37109  1  0  0  0
 38 43  2  0  0  0
 38 46  1  0  0  0
 38 47  1  0  0  0
 39 64  1  0  0  0
 39 67  2  0  0  0
 40 52  1  0  0  0
 40 53  2  0  0  0
 40 58  1  0  0  0
 41110  1  0  0  0
 41111  1  0  0  0
 41112  1  0  0  0
 41 48  1  0  0  0
 42 43  1  0  0  0
 42 66  1  0  0  0
 42113  1  0  0  0
 42114  1  0  0  0
 43 44  1  0  0  0
 44115  1  0  0  0
 45 46  2  0  0  0
 45116  1  0  0  0
 46117  1  0  0  0
 47118  1  0  0  0
 47119  1  0  0  0
 48 56  1  0  0  0
 48 65  1  0  0  0
 48120  1  0  0  0
 49 50  1  0  0  0
 49 53  1  0  0  0
 49 64  1  0  0  0
 49121  1  0  0  0
 50 51  1  0  0  0
 50122  1  0  0  0
 50123  1  0  0  0
 51 52  1  0  0  0
 51124  1  0  0  0
 51125  1  0  0  0
 52126  1  0  0  0
 52127  1  0  0  0
 53 54  1  0  0  0
 54 55  2  0  0  0
 54128  1  0  0  0
 55 57  1  0  0  0
 55129  1  0  0  0
 56 69  2  0  0  0
 57 58  2  0  0  0
 57130  1  0  0  0
 58131  1  0  0  0
 59 60  1  0  0  0
 59 61  1  0  0  0
 59 62  1  0  0  0
 60132  1  0  0  0
 60133  1  0  0  0
 60134  1  0  0  0
 61135  1  0  0  0
 61136  1  0  0  0
 61137  1  0  0  0
 62138  1  0  0  0
 62139  1  0  0  0
 62140  1  0  0  0
 63 65  1  0  0  0
 63141  1  0  0  0
 63142  1  0  0  0
 63143  1  0  0  0
 64144  1  0  0  0
 65145  1  0  0  0
 68 83  1  0  0  0
 71 73  2  0  0  0
 71 75  1  0  0  0
 71146  1  0  0  0
 72 74  1  0  0  0
 72 75  2  0  0  0
 72147  1  0  0  0
 73 76  1  0  0  0
 73148  1  0  0  0
 74 76  2  0  0  0
 74149  1  0  0  0
 75 82  1  0  0  0
 76 85  1  0  0  0
 77 78  1  0  0  0
 77 84  1  0  0  0
 77 86  2  0  0  0
 78 81  1  0  0  0
 78150  1  0  0  0
 78151  1  0  0  0
 79 80  1  0  0  0
 79 81  1  0  0  0
 79152  1  0  0  0
 79153  1  0  0  0
 80 84  1  0  0  0
 80154  1  0  0  0
 80155  1  0  0  0
 81 83  1  0  0  0
 81156  1  0  0  0
 82 84  1  0  0  0
 82157  1  0  0  0
 82158  1  0  0  0
 83159  1  0  0  0
 83160  1  0  0  0
 85161  1  0  0  0
M  ISO  4   1 100  68 101  83 101  85 100
M  END
> <chiral flag>
0

> <version>
0

> <s_m_source_file>
/data/baiqing/PycharmProjects/Reinvent-master-3.2/result/LINK_invent/BTK/process_docking_weight1_custom_product_contain_oxygen_bond_distance_aromatic_linkinvent_7_9_3/rearranged_h_0055.sdf

> <i_m_source_file_index>
86

> <r_mmod_Potential_Energy-OPLS-2005>
-26.7090110778809

> <r_mmod_Stretch_Energy-OPLS-2005>
35.6343803405762

> <r_mmod_Bend_Energy-OPLS-2005>
93.5298156738281

> <r_mmod_Torsional_Energy-OPLS-2005>
286.692596435547

> <r_mmod_Improper_Torsional_Energy-OPLS-2005>
5.68026113510132

> <r_mmod_Van_der_Waal_Energy-OPLS-2005>
159.918426513672

> <r_mmod_Electrostatic_Energy-OPLS-2005>
-385.861877441406

> <r_mmod_Solvation_Energy-OPLS-2005>
-230.739364624023

> <b_mmod_Minimization_Converged-OPLS-2005>
0

> <r_mmod_RMS_Derivative-OPLS-2005>
1.86958718299866

$$$$
86
                    3D
 Structure written by MMmdl.
164172  0  0  1  0            999 V2000
  -30.8237  -14.4419   20.5640 C   0  0  0  0  0  0
  -30.3919  -12.2738   19.4725 C   0  0  0  0  0  0
  -29.5101  -12.5011   18.2320 C   0  0  0  0  0  0
  -28.0251  -12.3976   18.6222 C   0  0  0  0  0  0
  -27.6671  -13.2412   19.8784 C   0  0  2  0  0  0
  -28.7112  -13.0939   21.0178 C   0  0  0  0  0  0
  -25.2536  -13.8251   20.5664 C   0  0  0  0  0  0
  -24.1837  -13.0497   20.9161 C   0  0  0  0  0  0
  -24.6442  -11.6964   20.8685 C   0  0  0  0  0  0
  -23.9100  -10.4343   21.0352 C   0  0  0  0  0  0
  -24.3635   -9.4254   21.9139 C   0  0  0  0  0  0
  -23.6306   -8.2297   22.0740 C   0  0  0  0  0  0
  -22.4285   -8.0330   21.3543 C   0  0  0  0  0  0
  -21.9911   -9.0298   20.4638 C   0  0  0  0  0  0
  -22.7254  -10.2174   20.3016 C   0  0  0  0  0  0
  -21.6892   -6.0740   22.5270 C   0  0  0  0  0  0
  -21.4050   -6.5626   23.8206 C   0  0  0  0  0  0
  -21.3663   -5.6768   24.9158 C   0  0  0  0  0  0
  -21.6049   -4.3036   24.7203 C   0  0  0  0  0  0
  -21.8820   -3.8140   23.4322 C   0  0  0  0  0  0
  -21.9201   -4.6965   22.3385 C   0  0  0  0  0  0
  -22.7840  -13.5265   21.1812 C   0  0  0  0  0  0
  -22.1661   -4.2136   21.0971 F   0  0  0  0  0  0
  -21.5611   -3.4521   25.7723 F   0  0  0  0  0  0
  -30.0544  -13.3200   20.4603 N   0  0  0  0  0  0
  -26.3068  -12.9511   20.3403 N   0  0  0  0  0  0
  -25.9400  -11.6633   20.5778 N   0  0  0  0  0  0
  -22.0469  -12.8270   22.0368 N   0  0  0  0  0  0
  -25.4105  -15.1992   20.4020 N   0  0  0  0  0  0
  -31.9007  -14.5217   19.9767 O   0  0  0  0  0  0
  -21.6673   -6.8904   21.4246 O   0  0  0  0  0  0
  -22.3486  -14.5557   20.6659 O   0  0  0  0  0  0
  -24.6129  -31.8724   23.2112 C   0  0  0  0  0  0
  -25.9024  -32.4849   23.8440 C   0  0  1  0  0  0
  -27.2272  -27.4872   20.0838 C   0  0  0  0  0  0
  -25.5894  -33.8649   24.2394 N   0  0  0  0  0  0
  -23.3958  -30.4933   21.5542 C   0  0  2  0  0  0
  -24.8326  -28.9630   20.1206 C   0  0  0  0  0  0
  -22.7384  -29.4655   22.5037 C   0  0  0  0  0  0
  -18.0251  -28.1378   22.8457 C   0  0  0  0  0  0
  -24.1496  -36.7279   23.2636 C   0  0  0  0  0  0
  -25.9138  -30.8566   21.3484 C   0  0  0  0  0  0
  -25.9876  -29.4881   20.7134 C   0  0  0  0  0  0
  -27.1873  -28.7515   20.7024 C   0  0  0  0  0  0
  -26.0535  -26.9544   19.5107 C   0  0  0  0  0  0
  -24.8550  -27.6913   19.5243 C   0  0  0  0  0  0
  -23.5926  -29.8198   20.1705 C   0  0  0  0  0  0
  -25.4098  -36.3105   24.0363 C   0  0  1  0  0  0
  -20.5852  -28.3633   23.1345 C   0  0  2  0  0  0
  -20.6764  -26.9401   22.5412 C   0  0  0  0  0  0
  -19.5742  -26.6408   21.5193 C   0  0  0  0  0  0
  -18.1916  -26.7927   22.1600 C   0  0  0  0  0  0
  -19.1506  -28.8816   23.2892 C   0  0  0  0  0  0
  -18.9419  -30.1418   23.8918 C   0  0  0  0  0  0
  -17.6430  -30.6570   24.0546 C   0  0  0  0  0  0
  -25.9008  -34.9479   23.5158 C   0  0  0  0  0  0
  -16.5314  -29.9059   23.6354 C   0  0  0  0  0  0
  -16.7249  -28.6492   23.0345 C   0  0  0  0  0  0
  -26.4503  -31.6568   25.0699 C   0  0  0  0  0  0
  -25.3821  -31.3586   26.1466 C   0  0  0  0  0  0
  -27.0357  -30.3066   24.5938 C   0  0  0  0  0  0
  -27.6121  -32.4255   25.7424 C   0  0  0  0  0  0
  -27.5574  -37.1779   24.8476 C   0  0  0  0  0  0
  -21.4133  -29.3001   22.3770 N   0  0  0  0  0  0
  -26.4285  -37.3773   23.9421 N   0  0  0  0  0  0
  -24.6601  -31.0883   22.0970 N   0  0  0  0  0  0
  -23.4147  -28.8240   23.3140 O   0  0  0  0  0  0
  -28.4242  -26.8207   20.0040 O   0  0  0  0  0  0
  -26.5532  -34.8936   22.4709 O   0  0  0  0  0  0
  -23.5339  -32.1422   23.7545 O   0  0  0  0  0  0
  -30.6778  -19.2676   21.3026 C   0  0  0  0  0  0
  -32.9188  -18.3365   21.1845 C   0  0  0  0  0  0
  -30.1302  -17.9643   21.3563 C   0  0  0  0  0  0
  -32.3702  -17.0362   21.2673 C   0  0  0  0  0  0
  -32.0707  -19.4643   21.1765 C   0  0  0  0  0  0
  -30.9612  -16.8213   21.2969 C   0  0  0  0  0  0
  -31.2666  -22.5262   17.9204 C   0  0  0  0  0  0
  -31.7024  -22.3931   19.1921 C   0  0  0  0  0  0
  -30.3263  -23.5305   17.4469 C   0  0  0  0  0  0
  -33.9566  -21.3516   18.9429 C   0  0  0  0  0  0
  -32.6313  -20.8795   20.9927 C   0  0  0  0  0  0
  -28.6823  -25.2213   18.1890 C   0  0  0  0  0  0
  -28.8857  -26.6642   18.6635 C   0  0  0  0  0  0
  -30.3608  -15.5067   21.2582 N   0  0  0  0  0  0
  -29.8650  -24.3847   18.3714 N   0  0  0  0  0  0
  -32.6127  -21.2641   19.5564 N   0  3  1  0  0  0
  -29.9252  -23.5642   16.2829 O   0  0  0  0  0  0
  -31.4504  -12.2638   19.2037 H   0  0  0  0  0  0
  -30.1934  -11.2844   19.8908 H   0  0  0  0  0  0
  -29.7439  -11.7696   17.4553 H   0  0  0  0  0  0
  -29.7256  -13.4837   17.8080 H   0  0  0  0  0  0
  -27.8099  -11.3438   18.8030 H   0  0  0  0  0  0
  -27.3952  -12.6994   17.7851 H   0  0  0  0  0  0
  -27.6927  -14.2835   19.5550 H   0  0  0  0  0  0
  -28.6659  -12.0961   21.4582 H   0  0  0  0  0  0
  -28.4976  -13.7946   21.8263 H   0  0  0  0  0  0
  -25.2774   -9.5763   22.4695 H   0  0  0  0  0  0
  -24.0020   -7.4704   22.7461 H   0  0  0  0  0  0
  -21.0819   -8.8824   19.8948 H   0  0  0  0  0  0
  -22.3686  -10.9697   19.6116 H   0  0  0  0  0  0
  -21.2072   -7.6134   23.9718 H   0  0  0  0  0  0
  -21.1466   -6.0486   25.9057 H   0  0  0  0  0  0
  -22.0582   -2.7595   23.2831 H   0  0  0  0  0  0
  -22.4081  -11.9992   22.4855 H   0  0  0  0  0  0
  -21.1061  -13.1279   22.2486 H   0  0  0  0  0  0
  -24.6349  -15.8454   20.5060 H   0  0  0  0  0  0
  -26.2565  -15.6485   20.0769 H   0  0  0  0  0  0
  -26.7119  -32.5610   23.1252 H   0  0  0  0  0  0
  -25.0220  -33.9841   25.0657 H   0  0  0  0  0  0
  -22.6859  -31.3131   21.4218 H   0  0  0  0  0  0
  -23.3765  -35.9596   23.3283 H   0  0  0  0  0  0
  -24.3635  -36.8863   22.2052 H   0  0  0  0  0  0
  -23.7248  -37.6492   23.6643 H   0  0  0  0  0  0
  -26.0052  -31.6119   20.5656 H   0  0  0  0  0  0
  -26.8084  -30.9236   21.9547 H   0  0  0  0  0  0
  -28.0872  -29.1637   21.1347 H   0  0  0  0  0  0
  -26.0500  -25.9792   19.0466 H   0  0  0  0  0  0
  -23.9602  -27.2789   19.0750 H   0  0  0  0  0  0
  -23.6772  -30.5810   19.3929 H   0  0  0  0  0  0
  -22.7279  -29.2117   19.9007 H   0  0  0  0  0  0
  -25.1287  -36.1967   25.0853 H   0  0  0  0  0  0
  -20.9882  -28.3142   24.1495 H   0  0  0  0  0  0
  -20.5674  -26.2228   23.3560 H   0  0  0  0  0  0
  -21.6631  -26.7501   22.1216 H   0  0  0  0  0  0
  -19.6871  -25.6331   21.1196 H   0  0  0  0  0  0
  -19.6665  -27.3232   20.6724 H   0  0  0  0  0  0
  -17.4212  -26.6653   21.3983 H   0  0  0  0  0  0
  -18.0283  -26.0078   22.9005 H   0  0  0  0  0  0
  -19.7899  -30.7203   24.2318 H   0  0  0  0  0  0
  -17.4999  -31.6275   24.5097 H   0  0  0  0  0  0
  -15.5323  -30.2948   23.7704 H   0  0  0  0  0  0
  -15.8645  -28.0815   22.7067 H   0  0  0  0  0  0
  -24.6048  -30.6868   25.7798 H   0  0  0  0  0  0
  -24.8964  -32.2697   26.4987 H   0  0  0  0  0  0
  -25.8245  -30.8754   27.0183 H   0  0  0  0  0  0
  -26.2836  -29.6725   24.1212 H   0  0  0  0  0  0
  -27.4475  -29.7390   25.4293 H   0  0  0  0  0  0
  -27.8511  -30.4493   23.8829 H   0  0  0  0  0  0
  -27.2829  -33.3600   26.1991 H   0  0  0  0  0  0
  -28.3928  -32.6688   25.0194 H   0  0  0  0  0  0
  -28.0766  -31.8346   26.5331 H   0  0  0  0  0  0
  -28.2603  -38.0059   24.7539 H   0  0  0  0  0  0
  -28.1073  -36.2615   24.6303 H   0  0  0  0  0  0
  -27.2316  -37.1396   25.8880 H   0  0  0  0  0  0
  -20.9272  -29.8685   21.6962 H   0  0  0  0  0  0
  -26.0180  -38.2864   24.1383 H   0  0  0  0  0  0
  -30.0204  -20.1267   21.3207 H   0  0  0  0  0  0
  -33.9948  -18.4532   21.0992 H   0  0  0  0  0  0
  -29.0547  -17.8612   21.4096 H   0  0  0  0  0  0
  -33.0600  -16.2061   21.2596 H   0  0  0  0  0  0
  -31.6153  -21.8223   17.1774 H   0  0  0  0  0  0
  -31.4327  -23.0438   20.0133 H   0  0  0  0  0  0
  -33.8777  -21.4642   17.8596 H   0  0  0  0  0  0
  -34.5320  -20.4434   19.1280 H   0  0  0  0  0  0
  -34.5115  -22.2031   19.3320 H   0  0  0  0  0  0
  -33.6421  -20.9370   21.3982 H   0  0  0  0  0  0
  -32.0407  -21.5795   21.5854 H   0  0  0  0  0  0
  -28.3597  -25.2523   17.1469 H   0  0  0  0  0  0
  -27.8686  -24.7497   18.7363 H   0  0  0  0  0  0
  -29.9309  -26.9625   18.6053 H   0  0  0  0  0  0
  -28.3567  -27.3350   17.9815 H   0  0  0  0  0  0
  -29.4270  -15.4186   21.6317 H   0  0  0  0  0  0
  -30.2646  -24.3721   19.2980 H   0  0  0  0  0  0
  -32.2296  -20.4344   19.1324 H   0  0  0  0  0  0
  1 25  1  0  0  0
  1 30  2  0  0  0
  1 84  1  0  0  0
  2  3  1  0  0  0
  2 25  1  0  0  0
  2 88  1  0  0  0
  2 89  1  0  0  0
  3  4  1  0  0  0
  3 90  1  0  0  0
  3 91  1  0  0  0
  4  5  1  0  0  0
  4 92  1  0  0  0
  4 93  1  0  0  0
  5  6  1  0  0  0
  5 26  1  0  0  0
  5 94  1  0  0  0
  6 25  1  0  0  0
  6 95  1  0  0  0
  6 96  1  0  0  0
  7  8  2  0  0  0
  7 26  1  0  0  0
  7 29  1  0  0  0
  8  9  1  0  0  0
  8 22  1  0  0  0
  9 10  1  0  0  0
  9 27  2  0  0  0
 10 11  2  0  0  0
 10 15  1  0  0  0
 11 12  1  0  0  0
 11 97  1  0  0  0
 12 13  2  0  0  0
 12 98  1  0  0  0
 13 14  1  0  0  0
 13 31  1  0  0  0
 14 15  2  0  0  0
 14 99  1  0  0  0
 15100  1  0  0  0
 16 17  2  0  0  0
 16 21  1  0  0  0
 16 31  1  0  0  0
 17 18  1  0  0  0
 17101  1  0  0  0
 18 19  2  0  0  0
 18102  1  0  0  0
 19 20  1  0  0  0
 19 24  1  0  0  0
 20 21  2  0  0  0
 20103  1  0  0  0
 21 23  1  0  0  0
 22 28  1  0  0  0
 22 32  2  0  0  0
 26 27  1  0  0  0
 28104  1  0  0  0
 28105  1  0  0  0
 29106  1  0  0  0
 29107  1  0  0  0
 33 34  1  0  0  0
 33 66  1  0  0  0
 33 70  2  0  0  0
 34 36  1  0  0  0
 34 59  1  0  0  0
 34108  1  0  0  0
 35 44  2  0  0  0
 35 45  1  0  0  0
 35 68  1  0  0  0
 36 56  1  0  0  0
 36109  1  0  0  0
 37 39  1  0  0  0
 37 47  1  0  0  0
 37 66  1  0  0  0
 37110  1  0  0  0
 38 43  2  0  0  0
 38 46  1  0  0  0
 38 47  1  0  0  0
 39 64  1  0  0  0
 39 67  2  0  0  0
 40 52  1  0  0  0
 40 53  2  0  0  0
 40 58  1  0  0  0
 41111  1  0  0  0
 41112  1  0  0  0
 41113  1  0  0  0
 41 48  1  0  0  0
 42 43  1  0  0  0
 42 66  1  0  0  0
 42114  1  0  0  0
 42115  1  0  0  0
 43 44  1  0  0  0
 44116  1  0  0  0
 45 46  2  0  0  0
 45117  1  0  0  0
 46118  1  0  0  0
 47119  1  0  0  0
 47120  1  0  0  0
 48 56  1  0  0  0
 48 65  1  0  0  0
 48121  1  0  0  0
 49 50  1  0  0  0
 49 53  1  0  0  0
 49 64  1  0  0  0
 49122  1  0  0  0
 50 51  1  0  0  0
 50123  1  0  0  0
 50124  1  0  0  0
 51 52  1  0  0  0
 51125  1  0  0  0
 51126  1  0  0  0
 52127  1  0  0  0
 52128  1  0  0  0
 53 54  1  0  0  0
 54 55  2  0  0  0
 54129  1  0  0  0
 55 57  1  0  0  0
 55130  1  0  0  0
 56 69  2  0  0  0
 57 58  2  0  0  0
 57131  1  0  0  0
 58132  1  0  0  0
 59 60  1  0  0  0
 59 61  1  0  0  0
 59 62  1  0  0  0
 60133  1  0  0  0
 60134  1  0  0  0
 60135  1  0  0  0
 61136  1  0  0  0
 61137  1  0  0  0
 61138  1  0  0  0
 62139  1  0  0  0
 62140  1  0  0  0
 62141  1  0  0  0
 63 65  1  0  0  0
 63142  1  0  0  0
 63143  1  0  0  0
 63144  1  0  0  0
 64145  1  0  0  0
 65146  1  0  0  0
 68 83  1  0  0  0
 71 73  2  0  0  0
 71 75  1  0  0  0
 71147  1  0  0  0
 72 74  1  0  0  0
 72 75  2  0  0  0
 72148  1  0  0  0
 73 76  1  0  0  0
 73149  1  0  0  0
 74 76  2  0  0  0
 74150  1  0  0  0
 75 81  1  0  0  0
 76 84  1  0  0  0
 77 78  2  0  0  0
 77 79  1  0  0  0
 77151  1  0  0  0
 78 86  1  0  0  0
 78152  1  0  0  0
 79 85  1  0  0  0
 79 87  2  0  0  0
 80153  1  0  0  0
 80154  1  0  0  0
 80155  1  0  0  0
 80 86  1  0  0  0
 81 86  1  0  0  0
 81156  1  0  0  0
 81157  1  0  0  0
 82 83  1  0  0  0
 82 85  1  0  0  0
 82158  1  0  0  0
 82159  1  0  0  0
 83160  1  0  0  0
 83161  1  0  0  0
 84162  1  0  0  0
 85163  1  0  0  0
 86164  1  0  0  0
M  CHG  1  86   1
M  ISO  4   1 100  68 101  83 101  84 100
M  END
> <chiral flag>
0

> <version>
0

> <s_m_source_file>
/data/baiqing/PycharmProjects/Reinvent-master-3.2/result/LINK_invent/BTK/process_docking_weight1_custom_product_contain_oxygen_bond_distance_aromatic_linkinvent_7_9_3/rearranged_h_0055.sdf

> <i_m_source_file_index>
87

> <r_mmod_Potential_Energy-OPLS-2005>
-255.669448852539

> <r_mmod_Stretch_Energy-OPLS-2005>
38.885871887207

> <r_mmod_Bend_Energy-OPLS-2005>
111.150932312012

> <r_mmod_Torsional_Energy-OPLS-2005>
249.207763671875

> <r_mmod_Improper_Torsional_Energy-OPLS-2005>
3.2142379283905

> <r_mmod_Van_der_Waal_Energy-OPLS-2005>
168.33821105957

> <r_mmod_Electrostatic_Energy-OPLS-2005>
-354.679321289062

> <r_mmod_Solvation_Energy-OPLS-2005>
-489.398742675781

> <b_mmod_Minimization_Converged-OPLS-2005>
0

> <r_mmod_RMS_Derivative-OPLS-2005>
6.02679824829102

$$$$
87
                    3D
 Structure written by MMmdl.
155163  0  0  1  0            999 V2000
  -30.7192  -14.4205   20.6326 C   0  0  0  0  0  0
  -30.4177  -12.2916   19.4154 C   0  0  0  0  0  0
  -29.4874  -12.5105   18.2052 C   0  0  0  0  0  0
  -28.0086  -12.3727   18.6155 C   0  0  0  0  0  0
  -27.6627  -13.2011   19.8799 C   0  0  2  0  0  0
  -28.7000  -12.9493   20.9989 C   0  0  0  0  0  0
  -25.2580  -13.8160   20.5663 C   0  0  0  0  0  0
  -24.1827  -13.0439   20.9165 C   0  0  0  0  0  0
  -24.6367  -11.6904   20.8713 C   0  0  0  0  0  0
  -23.9029  -10.4300   21.0393 C   0  0  0  0  0  0
  -24.3585   -9.4216   21.9171 C   0  0  0  0  0  0
  -23.6276   -8.2249   22.0753 C   0  0  0  0  0  0
  -22.4267   -8.0276   21.3533 C   0  0  0  0  0  0
  -21.9886   -9.0238   20.4631 C   0  0  0  0  0  0
  -22.7202  -10.2126   20.3042 C   0  0  0  0  0  0
  -21.6839   -6.0723   22.5266 C   0  0  0  0  0  0
  -21.4013   -6.5623   23.8196 C   0  0  0  0  0  0
  -21.3663   -5.6788   24.9168 C   0  0  0  0  0  0
  -21.6054   -4.3046   24.7234 C   0  0  0  0  0  0
  -21.8820   -3.8139   23.4348 C   0  0  0  0  0  0
  -21.9188   -4.6952   22.3394 C   0  0  0  0  0  0
  -22.7848  -13.5235   21.1838 C   0  0  0  0  0  0
  -22.1654   -4.2142   21.0974 F   0  0  0  0  0  0
  -21.5635   -3.4536   25.7746 F   0  0  0  0  0  0
  -30.0389  -13.2543   20.4620 N   0  0  0  0  0  0
  -26.3009  -12.9315   20.3363 N   0  0  0  0  0  0
  -25.9292  -11.6476   20.5750 N   0  0  0  0  0  0
  -22.0506  -12.8223   22.0405 N   0  0  0  0  0  0
  -25.4310  -15.1883   20.4073 N   0  0  0  0  0  0
  -31.7957  -14.6437   20.0708 O   0  0  0  0  0  0
  -21.6631   -6.8869   21.4229 O   0  0  0  0  0  0
  -22.3527  -14.5533   20.6688 O   0  0  0  0  0  0
  -24.6132  -31.8700   23.2070 C   0  0  0  0  0  0
  -25.9035  -32.4838   23.8370 C   0  0  1  0  0  0
  -27.2433  -27.4547   20.0812 C   0  0  0  0  0  0
  -25.5887  -33.8627   24.2334 N   0  0  0  0  0  0
  -23.3970  -30.4919   21.5503 C   0  0  2  0  0  0
  -24.8425  -28.9549   20.1191 C   0  0  0  0  0  0
  -22.7398  -29.4661   22.5015 C   0  0  0  0  0  0
  -18.0275  -28.1366   22.8496 C   0  0  0  0  0  0
  -24.1474  -36.7309   23.2641 C   0  0  0  0  0  0
  -25.9226  -30.8433   21.3525 C   0  0  0  0  0  0
  -26.0000  -29.4741   20.7092 C   0  0  0  0  0  0
  -27.1977  -28.7291   20.6894 C   0  0  0  0  0  0
  -26.0580  -26.9341   19.5104 C   0  0  0  0  0  0
  -24.8655  -27.6838   19.5204 C   0  0  0  0  0  0
  -23.6005  -29.8159   20.1676 C   0  0  0  0  0  0
  -25.4097  -36.3123   24.0348 C   0  0  1  0  0  0
  -20.5857  -28.3654   23.1329 C   0  0  2  0  0  0
  -20.6740  -26.9385   22.5435 C   0  0  0  0  0  0
  -19.5730  -26.6367   21.5224 C   0  0  0  0  0  0
  -18.1912  -26.7912   22.1637 C   0  0  0  0  0  0
  -19.1521  -28.8828   23.2901 C   0  0  0  0  0  0
  -18.9461  -30.1443   23.8902 C   0  0  0  0  0  0
  -17.6462  -30.6584   24.0549 C   0  0  0  0  0  0
  -25.9038  -34.9484   23.5151 C   0  0  0  0  0  0
  -16.5354  -29.9090   23.6305 C   0  0  0  0  0  0
  -16.7267  -28.6504   23.0335 C   0  0  0  0  0  0
  -26.4441  -31.6607   25.0689 C   0  0  0  0  0  0
  -25.3683  -31.3710   26.1413 C   0  0  0  0  0  0
  -27.0282  -30.3069   24.6033 C   0  0  0  0  0  0
  -27.6009  -32.4309   25.7470 C   0  0  0  0  0  0
  -27.5581  -37.1802   24.8470 C   0  0  0  0  0  0
  -21.4133  -29.3023   22.3746 N   0  0  0  0  0  0
  -26.4287  -37.3810   23.9433 N   0  0  0  0  0  0
  -24.6629  -31.0814   22.0959 N   0  0  0  0  0  0
  -23.4187  -28.8201   23.3040 O   0  0  0  0  0  0
  -28.4630  -26.8109   20.0715 O   0  0  0  0  0  0
  -26.5602  -34.8934   22.4708 O   0  0  0  0  0  0
  -23.5335  -32.1443   23.7488 O   0  0  0  0  0  0
  -31.7912  -18.7008   21.4628 C   0  0  0  0  0  0
  -30.6820  -19.5361   21.6906 C   0  0  0  0  0  0
  -31.6218  -17.3054   21.3824 C   0  0  0  0  0  0
  -29.2311  -17.5792   21.7636 C   0  0  0  0  0  0
  -29.3950  -18.9812   21.8554 C   0  0  0  0  0  0
  -30.3347  -16.7302   21.5067 C   0  0  0  0  0  0
  -28.2363  -23.2290   20.5201 C   0  0  0  0  0  0
  -28.7915  -24.4569   20.5476 C   0  0  0  0  0  0
  -28.4967  -22.2889   21.5973 C   0  0  0  0  0  0
  -28.1991  -19.8764   22.1754 C   0  0  0  0  0  0
  -28.6410  -25.5231   19.4812 C   0  0  0  0  0  0
  -30.1028  -15.3249   21.4191 N   0  0  0  0  0  0
  -28.0741  -21.0509   21.3078 N   0  0  0  0  0  0
  -29.0579  -22.5648   22.6605 O   0  0  0  0  0  0
  -31.4618  -12.3861   19.1125 H   0  0  0  0  0  0
  -30.3142  -11.2738   19.7954 H   0  0  0  0  0  0
  -29.7184  -11.7945   17.4159 H   0  0  0  0  0  0
  -29.6621  -13.5007   17.7805 H   0  0  0  0  0  0
  -27.8091  -11.3162   18.8007 H   0  0  0  0  0  0
  -27.3610  -12.6614   17.7870 H   0  0  0  0  0  0
  -27.7183  -14.2520   19.5956 H   0  0  0  0  0  0
  -28.6717  -11.9024   21.3074 H   0  0  0  0  0  0
  -28.4512  -13.5174   21.8950 H   0  0  0  0  0  0
  -25.2729   -9.5698   22.4741 H   0  0  0  0  0  0
  -23.9975   -7.4652   22.7489 H   0  0  0  0  0  0
  -21.0816   -8.8751   19.8945 H   0  0  0  0  0  0
  -22.3647  -10.9658   19.6150 H   0  0  0  0  0  0
  -21.2006   -7.6132   23.9692 H   0  0  0  0  0  0
  -21.1484   -6.0523   25.9067 H   0  0  0  0  0  0
  -22.0601   -2.7602   23.2852 H   0  0  0  0  0  0
  -22.4127  -11.9860   22.4742 H   0  0  0  0  0  0
  -21.1134  -13.1257   22.2660 H   0  0  0  0  0  0
  -24.6661  -15.8469   20.5087 H   0  0  0  0  0  0
  -26.2874  -15.6232   20.0859 H   0  0  0  0  0  0
  -26.7103  -32.5571   23.1146 H   0  0  0  0  0  0
  -24.9988  -33.9787   25.0434 H   0  0  0  0  0  0
  -22.6835  -31.3070   21.4078 H   0  0  0  0  0  0
  -23.3749  -35.9617   23.3299 H   0  0  0  0  0  0
  -24.3558  -36.8955   22.2056 H   0  0  0  0  0  0
  -23.7208  -37.6503   23.6651 H   0  0  0  0  0  0
  -26.0188  -31.6038   20.5756 H   0  0  0  0  0  0
  -26.8189  -30.9104   21.9593 H   0  0  0  0  0  0
  -28.0969  -29.1327   21.1331 H   0  0  0  0  0  0
  -26.0179  -25.9564   19.0549 H   0  0  0  0  0  0
  -23.9726  -27.2697   19.0743 H   0  0  0  0  0  0
  -23.6959  -30.5840   19.3992 H   0  0  0  0  0  0
  -22.7284  -29.2249   19.8807 H   0  0  0  0  0  0
  -25.1260  -36.1991   25.0836 H   0  0  0  0  0  0
  -20.9954  -28.3222   24.1442 H   0  0  0  0  0  0
  -20.5684  -26.2246   23.3621 H   0  0  0  0  0  0
  -21.6609  -26.7451   22.1214 H   0  0  0  0  0  0
  -19.6886  -25.6290   21.1239 H   0  0  0  0  0  0
  -19.6663  -27.3177   20.6743 H   0  0  0  0  0  0
  -17.4185  -26.6698   21.4032 H   0  0  0  0  0  0
  -18.0295  -26.0046   22.9026 H   0  0  0  0  0  0
  -19.7931  -30.7252   24.2290 H   0  0  0  0  0  0
  -17.5024  -31.6256   24.5158 H   0  0  0  0  0  0
  -15.5367  -30.2999   23.7628 H   0  0  0  0  0  0
  -15.8660  -28.0852   22.7024 H   0  0  0  0  0  0
  -24.5838  -30.7103   25.7716 H   0  0  0  0  0  0
  -24.8867  -32.2866   26.4829 H   0  0  0  0  0  0
  -25.7982  -30.8862   27.0192 H   0  0  0  0  0  0
  -26.2833  -29.6857   24.1046 H   0  0  0  0  0  0
  -27.4060  -29.7262   25.4463 H   0  0  0  0  0  0
  -27.8637  -30.4423   23.9163 H   0  0  0  0  0  0
  -27.2636  -33.3618   26.2027 H   0  0  0  0  0  0
  -28.3814  -32.6885   25.0305 H   0  0  0  0  0  0
  -28.0647  -31.8439   26.5412 H   0  0  0  0  0  0
  -28.2579  -38.0124   24.7571 H   0  0  0  0  0  0
  -28.1114  -36.2662   24.6219 H   0  0  0  0  0  0
  -27.2299  -37.1385   25.8876 H   0  0  0  0  0  0
  -20.9300  -29.8775   21.6994 H   0  0  0  0  0  0
  -26.0188  -38.2894   24.1435 H   0  0  0  0  0  0
  -32.7762  -19.1327   21.3588 H   0  0  0  0  0  0
  -30.8297  -20.6039   21.7610 H   0  0  0  0  0  0
  -32.4977  -16.6926   21.2284 H   0  0  0  0  0  0
  -28.2435  -17.1574   21.8843 H   0  0  0  0  0  0
  -27.6043  -22.9476   19.6877 H   0  0  0  0  0  0
  -29.4260  -24.7371   21.3783 H   0  0  0  0  0  0
  -28.2733  -20.1816   23.2209 H   0  0  0  0  0  0
  -27.2734  -19.3035   22.1100 H   0  0  0  0  0  0
  -27.9159  -25.2473   18.7197 H   0  0  0  0  0  0
  -29.5950  -25.5662   18.9561 H   0  0  0  0  0  0
  -29.2405  -14.9931   21.8218 H   0  0  0  0  0  0
  -27.6021  -20.9141   20.4259 H   0  0  0  0  0  0
  1 25  1  0  0  0
  1 30  2  0  0  0
  1 82  1  0  0  0
  2  3  1  0  0  0
  2 25  1  0  0  0
  2 85  1  0  0  0
  2 86  1  0  0  0
  3  4  1  0  0  0
  3 87  1  0  0  0
  3 88  1  0  0  0
  4  5  1  0  0  0
  4 89  1  0  0  0
  4 90  1  0  0  0
  5  6  1  0  0  0
  5 26  1  0  0  0
  5 91  1  0  0  0
  6 25  1  0  0  0
  6 92  1  0  0  0
  6 93  1  0  0  0
  7  8  2  0  0  0
  7 26  1  0  0  0
  7 29  1  0  0  0
  8  9  1  0  0  0
  8 22  1  0  0  0
  9 10  1  0  0  0
  9 27  2  0  0  0
 10 11  2  0  0  0
 10 15  1  0  0  0
 11 12  1  0  0  0
 11 94  1  0  0  0
 12 13  2  0  0  0
 12 95  1  0  0  0
 13 14  1  0  0  0
 13 31  1  0  0  0
 14 15  2  0  0  0
 14 96  1  0  0  0
 15 97  1  0  0  0
 16 17  2  0  0  0
 16 21  1  0  0  0
 16 31  1  0  0  0
 17 18  1  0  0  0
 17 98  1  0  0  0
 18 19  2  0  0  0
 18 99  1  0  0  0
 19 20  1  0  0  0
 19 24  1  0  0  0
 20 21  2  0  0  0
 20100  1  0  0  0
 21 23  1  0  0  0
 22 28  1  0  0  0
 22 32  2  0  0  0
 26 27  1  0  0  0
 28101  1  0  0  0
 28102  1  0  0  0
 29103  1  0  0  0
 29104  1  0  0  0
 33 34  1  0  0  0
 33 66  1  0  0  0
 33 70  2  0  0  0
 34 36  1  0  0  0
 34 59  1  0  0  0
 34105  1  0  0  0
 35 44  2  0  0  0
 35 45  1  0  0  0
 35 68  1  0  0  0
 36 56  1  0  0  0
 36106  1  0  0  0
 37 39  1  0  0  0
 37 47  1  0  0  0
 37 66  1  0  0  0
 37107  1  0  0  0
 38 43  2  0  0  0
 38 46  1  0  0  0
 38 47  1  0  0  0
 39 64  1  0  0  0
 39 67  2  0  0  0
 40 52  1  0  0  0
 40 53  2  0  0  0
 40 58  1  0  0  0
 41108  1  0  0  0
 41109  1  0  0  0
 41110  1  0  0  0
 41 48  1  0  0  0
 42 43  1  0  0  0
 42 66  1  0  0  0
 42111  1  0  0  0
 42112  1  0  0  0
 43 44  1  0  0  0
 44113  1  0  0  0
 45 46  2  0  0  0
 45114  1  0  0  0
 46115  1  0  0  0
 47116  1  0  0  0
 47117  1  0  0  0
 48 56  1  0  0  0
 48 65  1  0  0  0
 48118  1  0  0  0
 49 50  1  0  0  0
 49 53  1  0  0  0
 49 64  1  0  0  0
 49119  1  0  0  0
 50 51  1  0  0  0
 50120  1  0  0  0
 50121  1  0  0  0
 51 52  1  0  0  0
 51122  1  0  0  0
 51123  1  0  0  0
 52124  1  0  0  0
 52125  1  0  0  0
 53 54  1  0  0  0
 54 55  2  0  0  0
 54126  1  0  0  0
 55 57  1  0  0  0
 55127  1  0  0  0
 56 69  2  0  0  0
 57 58  2  0  0  0
 57128  1  0  0  0
 58129  1  0  0  0
 59 60  1  0  0  0
 59 61  1  0  0  0
 59 62  1  0  0  0
 60130  1  0  0  0
 60131  1  0  0  0
 60132  1  0  0  0
 61133  1  0  0  0
 61134  1  0  0  0
 61135  1  0  0  0
 62136  1  0  0  0
 62137  1  0  0  0
 62138  1  0  0  0
 63 65  1  0  0  0
 63139  1  0  0  0
 63140  1  0  0  0
 63141  1  0  0  0
 64142  1  0  0  0
 65143  1  0  0  0
 68 81  1  0  0  0
 71 72  2  0  0  0
 71 73  1  0  0  0
 71144  1  0  0  0
 72 75  1  0  0  0
 72145  1  0  0  0
 73 76  2  0  0  0
 73146  1  0  0  0
 74 75  2  0  0  0
 74 76  1  0  0  0
 74147  1  0  0  0
 75 80  1  0  0  0
 76 82  1  0  0  0
 77 78  2  0  0  0
 77 79  1  0  0  0
 77148  1  0  0  0
 78 81  1  0  0  0
 78149  1  0  0  0
 79 83  1  0  0  0
 79 84  2  0  0  0
 80 83  1  0  0  0
 80150  1  0  0  0
 80151  1  0  0  0
 81152  1  0  0  0
 81153  1  0  0  0
 82154  1  0  0  0
 83155  1  0  0  0
M  ISO  4   1 100  68 101  81 101  82 100
M  END
> <chiral flag>
0

> <version>
0

> <s_m_source_file>
/data/baiqing/PycharmProjects/Reinvent-master-3.2/result/LINK_invent/BTK/process_docking_weight1_custom_product_contain_oxygen_bond_distance_aromatic_linkinvent_7_9_3/rearranged_h_0055.sdf

> <i_m_source_file_index>
88

> <r_mmod_Potential_Energy-OPLS-2005>
-198.623962402344

> <r_mmod_Stretch_Energy-OPLS-2005>
34.0698394775391

> <r_mmod_Bend_Energy-OPLS-2005>
105.001525878906

> <r_mmod_Torsional_Energy-OPLS-2005>
195.473526000977

> <r_mmod_Improper_Torsional_Energy-OPLS-2005>
2.85309195518494

> <r_mmod_Van_der_Waal_Energy-OPLS-2005>
161.974914550781

> <r_mmod_Electrostatic_Energy-OPLS-2005>
-466.150909423828

> <r_mmod_Solvation_Energy-OPLS-2005>
-241.060882568359

> <b_mmod_Minimization_Converged-OPLS-2005>
0

> <r_mmod_RMS_Derivative-OPLS-2005>
2.72616934776306

$$$$
88
                    3D
 Structure written by MMmdl.
167176  0  0  1  0            999 V2000
  -30.7864  -14.3362   20.7622 C   0  0  0  0  0  0
  -30.4330  -12.3133   19.3774 C   0  0  0  0  0  0
  -29.4828  -12.5506   18.1870 C   0  0  0  0  0  0
  -28.0115  -12.3846   18.6093 C   0  0  0  0  0  0
  -27.6706  -13.1974   19.8830 C   0  0  2  0  0  0
  -28.7128  -12.9141   20.9904 C   0  0  0  0  0  0
  -25.2550  -13.8093   20.5531 C   0  0  0  0  0  0
  -24.1826  -13.0388   20.9148 C   0  0  0  0  0  0
  -24.6396  -11.6867   20.8717 C   0  0  0  0  0  0
  -23.9074  -10.4258   21.0396 C   0  0  0  0  0  0
  -24.3614   -9.4187   21.9193 C   0  0  0  0  0  0
  -23.6264   -8.2243   22.0774 C   0  0  0  0  0  0
  -22.4247   -8.0296   21.3563 C   0  0  0  0  0  0
  -21.9880   -9.0271   20.4665 C   0  0  0  0  0  0
  -22.7235  -10.2130   20.3060 C   0  0  0  0  0  0
  -21.6869   -6.0714   22.5282 C   0  0  0  0  0  0
  -21.4019   -6.5629   23.8210 C   0  0  0  0  0  0
  -21.3640   -5.6790   24.9168 C   0  0  0  0  0  0
  -21.6039   -4.3054   24.7230 C   0  0  0  0  0  0
  -21.8826   -3.8133   23.4359 C   0  0  0  0  0  0
  -21.9194   -4.6938   22.3406 C   0  0  0  0  0  0
  -22.7848  -13.5203   21.1827 C   0  0  0  0  0  0
  -22.1664   -4.2098   21.0985 F   0  0  0  0  0  0
  -21.5630   -3.4551   25.7746 F   0  0  0  0  0  0
  -30.0635  -13.2197   20.4745 N   0  0  0  0  0  0
  -26.3053  -12.9291   20.3368 N   0  0  0  0  0  0
  -25.9338  -11.6465   20.5809 N   0  0  0  0  0  0
  -22.0497  -12.8189   22.0388 N   0  0  0  0  0  0
  -25.4108  -15.1778   20.3645 N   0  0  0  0  0  0
  -31.7414  -14.7214   20.0805 O   0  0  0  0  0  0
  -21.6684   -6.8847   21.4225 O   0  0  0  0  0  0
  -22.3508  -14.5508   20.6678 O   0  0  0  0  0  0
  -24.6328  -31.8781   23.2155 C   0  0  0  0  0  0
  -25.9162  -32.4912   23.8507 C   0  0  1  0  0  0
  -27.2304  -27.4256   20.0872 C   0  0  0  0  0  0
  -25.5974  -33.8702   24.2434 N   0  0  0  0  0  0
  -23.4389  -30.4991   21.5735 C   0  0  2  0  0  0
  -24.8552  -28.9669   20.1254 C   0  0  0  0  0  0
  -22.7770  -29.4826   22.5268 C   0  0  0  0  0  0
  -17.9917  -28.1171   22.8695 C   0  0  0  0  0  0
  -24.1461  -36.7331   23.2635 C   0  0  0  0  0  0
  -25.9573  -30.8338   21.3709 C   0  0  0  0  0  0
  -26.0219  -29.4671   20.7161 C   0  0  0  0  0  0
  -27.2109  -28.7044   20.6914 C   0  0  0  0  0  0
  -26.0409  -26.9508   19.4814 C   0  0  0  0  0  0
  -24.8599  -27.7074   19.5045 C   0  0  0  0  0  0
  -23.6255  -29.8368   20.1844 C   0  0  0  0  0  0
  -25.4091  -36.3176   24.0357 C   0  0  1  0  0  0
  -20.4752  -28.4536   22.7783 C   0  0  2  0  0  0
  -20.6855  -26.9558   22.5260 C   0  0  0  0  0  0
  -19.5490  -26.4519   21.6115 C   0  0  0  0  0  0
  -18.1510  -26.7481   22.2029 C   0  0  0  0  0  0
  -19.1115  -28.8923   23.2494 C   0  0  0  0  0  0
  -18.9335  -30.1437   23.8740 C   0  0  0  0  0  0
  -17.6360  -30.6457   24.0757 C   0  0  0  0  0  0
  -25.9043  -34.9528   23.5193 C   0  0  0  0  0  0
  -16.5178  -29.8907   23.6749 C   0  0  0  0  0  0
  -16.6961  -28.6243   23.0888 C   0  0  0  0  0  0
  -26.4497  -31.6631   25.0812 C   0  0  0  0  0  0
  -25.3720  -31.3731   26.1518 C   0  0  0  0  0  0
  -27.0303  -30.3070   24.6158 C   0  0  0  0  0  0
  -27.6061  -32.4339   25.7594 C   0  0  0  0  0  0
  -27.5586  -37.1830   24.8486 C   0  0  0  0  0  0
  -21.4549  -29.4428   22.4018 N   0  0  0  0  0  0
  -26.4295  -37.3847   23.9422 N   0  0  0  0  0  0
  -24.6985  -31.0842   22.1113 N   0  0  0  0  0  0
  -23.4246  -28.7620   23.2867 O   0  0  0  0  0  0
  -28.4040  -26.6933   20.0985 O   0  0  0  0  0  0
  -26.5574  -34.8974   22.4732 O   0  0  0  0  0  0
  -23.5468  -32.1571   23.7442 O   0  0  0  0  0  0
  -28.2236  -18.6966   21.4426 C   0  0  0  0  0  0
  -30.9220  -18.6592   22.0958 C   0  0  0  0  0  0
  -28.7993  -17.5078   21.9290 C   0  0  0  0  0  0
  -30.3218  -19.8828   21.7063 C   0  0  0  0  0  0
  -28.9655  -19.8868   21.2737 C   0  0  0  0  0  0
  -30.1975  -17.4487   22.1549 C   0  0  0  0  0  0
  -29.4288  -23.0355   19.8013 C   0  0  0  0  0  0
  -29.6214  -24.5610   19.8421 C   0  0  0  0  0  0
  -27.8372  -24.7717   21.5274 C   0  0  0  0  0  0
  -27.6428  -23.2392   21.5313 C   0  0  0  0  0  0
  -28.2937  -25.2582   20.1440 C   0  0  1  0  0  0
  -27.8766  -16.3382   22.2064 C   0  0  0  0  0  0
  -31.1833  -21.1284   21.8042 C   0  0  0  0  0  0
  -28.1980  -21.0303   20.5741 C   0  0  0  0  0  0
  -30.9578  -16.1606   22.5150 C   0  0  0  0  0  0
  -28.5835  -22.4553   20.6961 N   0  0  0  0  0  0
  -30.4451  -14.9213   21.9202 N   0  0  0  0  0  0
  -30.0440  -22.3906   18.9472 O   0  0  0  0  0  0
  -31.4700  -12.4472   19.0605 H   0  0  0  0  0  0
  -30.3686  -11.2795   19.7194 H   0  0  0  0  0  0
  -29.7226  -11.8642   17.3737 H   0  0  0  0  0  0
  -29.6300  -13.5569   17.7938 H   0  0  0  0  0  0
  -27.8242  -11.3237   18.7838 H   0  0  0  0  0  0
  -27.3510  -12.6811   17.7933 H   0  0  0  0  0  0
  -27.7284  -14.2513   19.6089 H   0  0  0  0  0  0
  -28.6842  -11.8590   21.2634 H   0  0  0  0  0  0
  -28.4506  -13.4467   21.9040 H   0  0  0  0  0  0
  -25.2768   -9.5669   22.4756 H   0  0  0  0  0  0
  -23.9990   -7.4621   22.7478 H   0  0  0  0  0  0
  -21.0822   -8.8789   19.8943 H   0  0  0  0  0  0
  -22.3715  -10.9656   19.6162 H   0  0  0  0  0  0
  -21.2036   -7.6138   23.9707 H   0  0  0  0  0  0
  -21.1455   -6.0511   25.9068 H   0  0  0  0  0  0
  -22.0624   -2.7585   23.2877 H   0  0  0  0  0  0
  -22.4158  -11.9873   22.4769 H   0  0  0  0  0  0
  -21.1117  -13.1193   22.2668 H   0  0  0  0  0  0
  -24.6273  -15.8154   20.4561 H   0  0  0  0  0  0
  -26.2404  -15.6161   19.9868 H   0  0  0  0  0  0
  -26.7283  -32.5613   23.1317 H   0  0  0  0  0  0
  -25.0141  -33.9882   25.0598 H   0  0  0  0  0  0
  -22.7337  -31.3206   21.4305 H   0  0  0  0  0  0
  -23.3759  -35.9634   23.3333 H   0  0  0  0  0  0
  -24.3557  -36.8909   22.2048 H   0  0  0  0  0  0
  -23.7178  -37.6533   23.6616 H   0  0  0  0  0  0
  -26.0679  -31.5931   20.5960 H   0  0  0  0  0  0
  -26.8514  -30.8926   21.9814 H   0  0  0  0  0  0
  -28.1155  -29.0802   21.1493 H   0  0  0  0  0  0
  -25.9816  -26.0049   18.9661 H   0  0  0  0  0  0
  -23.9649  -27.3238   19.0348 H   0  0  0  0  0  0
  -23.7420  -30.6131   19.4274 H   0  0  0  0  0  0
  -22.7436  -29.2633   19.8918 H   0  0  0  0  0  0
  -25.1241  -36.2082   25.0851 H   0  0  0  0  0  0
  -20.1558  -28.6779   21.7568 H   0  0  0  0  0  0
  -20.6689  -26.4140   23.4706 H   0  0  0  0  0  0
  -21.6566  -26.7630   22.0645 H   0  0  0  0  0  0
  -19.6533  -25.3805   21.4392 H   0  0  0  0  0  0
  -19.6325  -26.9099   20.6236 H   0  0  0  0  0  0
  -17.3909  -26.6287   21.4286 H   0  0  0  0  0  0
  -17.9258  -26.0013   22.9658 H   0  0  0  0  0  0
  -19.7909  -30.7455   24.1441 H   0  0  0  0  0  0
  -17.4985  -31.6158   24.5295 H   0  0  0  0  0  0
  -15.5205  -30.2755   23.8279 H   0  0  0  0  0  0
  -15.8313  -28.0447   22.7950 H   0  0  0  0  0  0
  -24.5882  -30.7114   25.7818 H   0  0  0  0  0  0
  -24.8923  -32.2883   26.4992 H   0  0  0  0  0  0
  -25.8024  -30.8861   27.0276 H   0  0  0  0  0  0
  -26.2845  -29.6862   24.1177 H   0  0  0  0  0  0
  -27.4046  -29.7267   25.4605 H   0  0  0  0  0  0
  -27.8698  -30.4401   23.9332 H   0  0  0  0  0  0
  -27.2667  -33.3632   26.2182 H   0  0  0  0  0  0
  -28.3841  -32.6920   25.0401 H   0  0  0  0  0  0
  -28.0747  -31.8470   26.5495 H   0  0  0  0  0  0
  -28.2622  -38.0107   24.7527 H   0  0  0  0  0  0
  -28.1055  -36.2647   24.6311 H   0  0  0  0  0  0
  -27.2309  -37.1497   25.8891 H   0  0  0  0  0  0
  -21.0763  -30.1634   21.8037 H   0  0  0  0  0  0
  -26.0208  -38.2936   24.1430 H   0  0  0  0  0  0
  -27.1720  -18.6853   21.1860 H   0  0  0  0  0  0
  -31.9680  -18.6463   22.3707 H   0  0  0  0  0  0
  -30.0141  -24.8955   18.8822 H   0  0  0  0  0  0
  -30.3734  -24.8093   20.5941 H   0  0  0  0  0  0
  -28.5760  -25.0566   22.2787 H   0  0  0  0  0  0
  -26.9051  -25.2594   21.8225 H   0  0  0  0  0  0
  -26.6380  -23.0546   21.1473 H   0  0  0  0  0  0
  -27.6500  -22.8538   22.5530 H   0  0  0  0  0  0
  -27.6114  -24.8965   19.3795 H   0  0  0  0  0  0
  -26.8373  -16.6531   22.3087 H   0  0  0  0  0  0
  -28.1502  -15.8315   23.1308 H   0  0  0  0  0  0
  -27.9331  -15.6340   21.3816 H   0  0  0  0  0  0
  -32.0729  -20.9331   22.4038 H   0  0  0  0  0  0
  -30.6515  -21.9402   22.3017 H   0  0  0  0  0  0
  -31.5284  -21.4602   20.8279 H   0  0  0  0  0  0
  -27.1600  -20.9332   20.8909 H   0  0  0  0  0  0
  -28.1565  -20.7648   19.5160 H   0  0  0  0  0  0
  -30.9230  -16.0540   23.5995 H   0  0  0  0  0  0
  -32.0124  -16.2719   22.2573 H   0  0  0  0  0  0
  -29.7371  -14.4422   22.4525 H   0  0  0  0  0  0
  1 25  1  0  0  0
  1 30  2  0  0  0
  1 87  1  0  0  0
  2  3  1  0  0  0
  2 25  1  0  0  0
  2 89  1  0  0  0
  2 90  1  0  0  0
  3  4  1  0  0  0
  3 91  1  0  0  0
  3 92  1  0  0  0
  4  5  1  0  0  0
  4 93  1  0  0  0
  4 94  1  0  0  0
  5  6  1  0  0  0
  5 26  1  0  0  0
  5 95  1  0  0  0
  6 25  1  0  0  0
  6 96  1  0  0  0
  6 97  1  0  0  0
  7  8  2  0  0  0
  7 26  1  0  0  0
  7 29  1  0  0  0
  8  9  1  0  0  0
  8 22  1  0  0  0
  9 10  1  0  0  0
  9 27  2  0  0  0
 10 11  2  0  0  0
 10 15  1  0  0  0
 11 12  1  0  0  0
 11 98  1  0  0  0
 12 13  2  0  0  0
 12 99  1  0  0  0
 13 14  1  0  0  0
 13 31  1  0  0  0
 14 15  2  0  0  0
 14100  1  0  0  0
 15101  1  0  0  0
 16 17  2  0  0  0
 16 21  1  0  0  0
 16 31  1  0  0  0
 17 18  1  0  0  0
 17102  1  0  0  0
 18 19  2  0  0  0
 18103  1  0  0  0
 19 20  1  0  0  0
 19 24  1  0  0  0
 20 21  2  0  0  0
 20104  1  0  0  0
 21 23  1  0  0  0
 22 28  1  0  0  0
 22 32  2  0  0  0
 26 27  1  0  0  0
 28105  1  0  0  0
 28106  1  0  0  0
 29107  1  0  0  0
 29108  1  0  0  0
 33 34  1  0  0  0
 33 66  1  0  0  0
 33 70  2  0  0  0
 34 36  1  0  0  0
 34 59  1  0  0  0
 34109  1  0  0  0
 35 44  2  0  0  0
 35 45  1  0  0  0
 35 68  1  0  0  0
 36 56  1  0  0  0
 36110  1  0  0  0
 37 39  1  0  0  0
 37 47  1  0  0  0
 37 66  1  0  0  0
 37111  1  0  0  0
 38 43  2  0  0  0
 38 46  1  0  0  0
 38 47  1  0  0  0
 39 64  1  0  0  0
 39 67  2  0  0  0
 40 52  1  0  0  0
 40 53  2  0  0  0
 40 58  1  0  0  0
 41112  1  0  0  0
 41113  1  0  0  0
 41114  1  0  0  0
 41 48  1  0  0  0
 42 43  1  0  0  0
 42 66  1  0  0  0
 42115  1  0  0  0
 42116  1  0  0  0
 43 44  1  0  0  0
 44117  1  0  0  0
 45 46  2  0  0  0
 45118  1  0  0  0
 46119  1  0  0  0
 47120  1  0  0  0
 47121  1  0  0  0
 48 56  1  0  0  0
 48 65  1  0  0  0
 48122  1  0  0  0
 49 50  1  0  0  0
 49 53  1  0  0  0
 49 64  1  0  0  0
 49123  1  0  0  0
 50 51  1  0  0  0
 50124  1  0  0  0
 50125  1  0  0  0
 51 52  1  0  0  0
 51126  1  0  0  0
 51127  1  0  0  0
 52128  1  0  0  0
 52129  1  0  0  0
 53 54  1  0  0  0
 54 55  2  0  0  0
 54130  1  0  0  0
 55 57  1  0  0  0
 55131  1  0  0  0
 56 69  2  0  0  0
 57 58  2  0  0  0
 57132  1  0  0  0
 58133  1  0  0  0
 59 60  1  0  0  0
 59 61  1  0  0  0
 59 62  1  0  0  0
 60134  1  0  0  0
 60135  1  0  0  0
 60136  1  0  0  0
 61137  1  0  0  0
 61138  1  0  0  0
 61139  1  0  0  0
 62140  1  0  0  0
 62141  1  0  0  0
 62142  1  0  0  0
 63 65  1  0  0  0
 63143  1  0  0  0
 63144  1  0  0  0
 63145  1  0  0  0
 64146  1  0  0  0
 65147  1  0  0  0
 68 81  1  0  0  0
 71 73  2  0  0  0
 71 75  1  0  0  0
 71148  1  0  0  0
 72 74  1  0  0  0
 72 76  2  0  0  0
 72149  1  0  0  0
 73 76  1  0  0  0
 73 82  1  0  0  0
 74 75  2  0  0  0
 74 83  1  0  0  0
 75 84  1  0  0  0
 76 85  1  0  0  0
 77 78  1  0  0  0
 77 86  1  0  0  0
 77 88  2  0  0  0
 78 81  1  0  0  0
 78150  1  0  0  0
 78151  1  0  0  0
 79 80  1  0  0  0
 79 81  1  0  0  0
 79152  1  0  0  0
 79153  1  0  0  0
 80 86  1  0  0  0
 80154  1  0  0  0
 80155  1  0  0  0
 81156  1  0  0  0
 82157  1  0  0  0
 82158  1  0  0  0
 82159  1  0  0  0
 83160  1  0  0  0
 83161  1  0  0  0
 83162  1  0  0  0
 84 86  1  0  0  0
 84163  1  0  0  0
 84164  1  0  0  0
 85 87  1  0  0  0
 85165  1  0  0  0
 85166  1  0  0  0
 87167  1  0  0  0
M  ISO  4   1 100  68 101  81 101  87 100
M  END
> <chiral flag>
0

> <version>
0

> <s_m_source_file>
/data/baiqing/PycharmProjects/Reinvent-master-3.2/result/LINK_invent/BTK/process_docking_weight1_custom_product_contain_oxygen_bond_distance_aromatic_linkinvent_7_9_3/rearranged_h_0055.sdf

> <i_m_source_file_index>
89

> <r_mmod_Potential_Energy-OPLS-2005>
59.6159019470215

> <r_mmod_Stretch_Energy-OPLS-2005>
39.9570732116699

> <r_mmod_Bend_Energy-OPLS-2005>
232.597259521484

> <r_mmod_Torsional_Energy-OPLS-2005>
229.161651611328

> <r_mmod_Improper_Torsional_Energy-OPLS-2005>
5.39778089523315

> <r_mmod_Van_der_Waal_Energy-OPLS-2005>
181.651184082031

> <r_mmod_Electrostatic_Energy-OPLS-2005>
-426.468811035156

> <r_mmod_Solvation_Energy-OPLS-2005>
-234.49137878418

> <b_mmod_Minimization_Converged-OPLS-2005>
0

> <r_mmod_RMS_Derivative-OPLS-2005>
4.25198459625244

$$$$
89
                    3D
 Structure written by MMmdl.
158166  0  0  1  0            999 V2000
  -30.7001  -14.5163   20.5639 C   0  0  0  0  0  0
  -30.4210  -12.3318   19.4356 C   0  0  0  0  0  0
  -29.4934  -12.5014   18.2143 C   0  0  0  0  0  0
  -28.0180  -12.3516   18.6307 C   0  0  0  0  0  0
  -27.6575  -13.2104   19.8715 C   0  0  2  0  0  0
  -28.7002  -13.0309   20.9992 C   0  0  0  0  0  0
  -25.2570  -13.8156   20.5700 C   0  0  0  0  0  0
  -24.1833  -13.0434   20.9206 C   0  0  0  0  0  0
  -24.6394  -11.6906   20.8756 C   0  0  0  0  0  0
  -23.9067  -10.4297   21.0417 C   0  0  0  0  0  0
  -24.3625   -9.4204   21.9187 C   0  0  0  0  0  0
  -23.6300   -8.2239   22.0752 C   0  0  0  0  0  0
  -22.4279   -8.0281   21.3544 C   0  0  0  0  0  0
  -21.9911   -9.0263   20.4650 C   0  0  0  0  0  0
  -22.7242  -10.2144   20.3064 C   0  0  0  0  0  0
  -21.6848   -6.0740   22.5287 C   0  0  0  0  0  0
  -21.4009   -6.5642   23.8218 C   0  0  0  0  0  0
  -21.3656   -5.6794   24.9176 C   0  0  0  0  0  0
  -21.6043   -4.3061   24.7226 C   0  0  0  0  0  0
  -21.8819   -3.8152   23.4345 C   0  0  0  0  0  0
  -21.9194   -4.6970   22.3406 C   0  0  0  0  0  0
  -22.7860  -13.5241   21.1866 C   0  0  0  0  0  0
  -22.1662   -4.2165   21.0985 F   0  0  0  0  0  0
  -21.5629   -3.4546   25.7733 F   0  0  0  0  0  0
  -30.0259  -13.3368   20.4393 N   0  0  0  0  0  0
  -26.3006  -12.9344   20.3362 N   0  0  0  0  0  0
  -25.9322  -11.6506   20.5788 N   0  0  0  0  0  0
  -22.0498  -12.8232   22.0418 N   0  0  0  0  0  0
  -25.4268  -15.1866   20.4105 N   0  0  0  0  0  0
  -31.8367  -14.6582   20.1046 O   0  0  0  0  0  0
  -21.6638   -6.8881   21.4248 O   0  0  0  0  0  0
  -22.3555  -14.5550   20.6716 O   0  0  0  0  0  0
  -24.6182  -31.8630   23.2070 C   0  0  0  0  0  0
  -25.9057  -32.4794   23.8368 C   0  0  1  0  0  0
  -27.2313  -27.4035   20.1152 C   0  0  0  0  0  0
  -25.5903  -33.8590   24.2308 N   0  0  0  0  0  0
  -23.4076  -30.4869   21.5474 C   0  0  2  0  0  0
  -24.8575  -28.9491   20.1134 C   0  0  0  0  0  0
  -22.7430  -29.4638   22.4974 C   0  0  0  0  0  0
  -18.0272  -28.1390   22.8470 C   0  0  0  0  0  0
  -24.1490  -36.7290   23.2650 C   0  0  0  0  0  0
  -25.9385  -30.8242   21.3616 C   0  0  0  0  0  0
  -26.0190  -29.4559   20.7110 C   0  0  0  0  0  0
  -27.2126  -28.6909   20.7063 C   0  0  0  0  0  0
  -26.0568  -26.9200   19.5026 C   0  0  0  0  0  0
  -24.8724  -27.6820   19.5032 C   0  0  0  0  0  0
  -23.6191  -29.8182   20.1625 C   0  0  0  0  0  0
  -25.4117  -36.3088   24.0342 C   0  0  1  0  0  0
  -20.5864  -28.3678   23.1321 C   0  0  2  0  0  0
  -20.6758  -26.9404   22.5446 C   0  0  0  0  0  0
  -19.5760  -26.6387   21.5213 C   0  0  0  0  0  0
  -18.1921  -26.7946   22.1582 C   0  0  0  0  0  0
  -19.1523  -28.8848   23.2887 C   0  0  0  0  0  0
  -18.9447  -30.1445   23.8920 C   0  0  0  0  0  0
  -17.6456  -30.6586   24.0575 C   0  0  0  0  0  0
  -25.9046  -34.9456   23.5122 C   0  0  0  0  0  0
  -16.5345  -29.9090   23.6337 C   0  0  0  0  0  0
  -16.7265  -28.6509   23.0351 C   0  0  0  0  0  0
  -26.4511  -31.6574   25.0688 C   0  0  0  0  0  0
  -25.3793  -31.3657   26.1448 C   0  0  0  0  0  0
  -27.0317  -30.3014   24.6049 C   0  0  0  0  0  0
  -27.6138  -32.4277   25.7391 C   0  0  0  0  0  0
  -27.5587  -37.1780   24.8468 C   0  0  0  0  0  0
  -21.4156  -29.3022   22.3706 N   0  0  0  0  0  0
  -26.4299  -37.3779   23.9428 N   0  0  0  0  0  0
  -24.6730  -31.0730   22.0976 N   0  0  0  0  0  0
  -23.4181  -28.8192   23.3039 O   0  0  0  0  0  0
  -28.3614  -26.6062   20.1410 O   0  0  0  0  0  0
  -26.5602  -34.8905   22.4682 O   0  0  0  0  0  0
  -23.5361  -32.1390   23.7461 O   0  0  0  0  0  0
  -32.1035  -18.6518   21.5582 C   0  0  0  0  0  0
  -31.1392  -19.6714   21.5059 C   0  0  0  0  0  0
  -31.7223  -17.3077   21.4196 C   0  0  0  0  0  0
  -29.7725  -19.3793   21.3132 C   0  0  0  0  0  0
  -29.3947  -18.0018   21.1196 C   0  0  0  0  0  0
  -30.3729  -16.9528   21.1822 C   0  0  0  0  0  0
  -28.8204  -20.5503   21.4109 C   0  0  0  0  0  0
  -28.1070  -22.7408   20.8071 C   0  0  0  0  0  0
  -27.9458  -17.6292   20.8250 C   0  0  0  0  0  0
  -27.7666  -20.3430   22.5026 C   0  0  0  0  0  0
  -28.6151  -24.0499   20.1355 C   0  0  0  0  0  0
  -28.2115  -25.3662   20.8840 C   0  0  0  0  0  0
  -28.9860  -21.6430   20.7233 N   0  0  0  0  0  0
  -29.9930  -15.5608   21.0699 N   0  0  0  0  0  0
  -26.9859  -22.7644   21.3190 O   0  0  0  0  0  0
  -31.4653  -12.4281   19.1315 H   0  0  0  0  0  0
  -30.3278  -11.3286   19.8538 H   0  0  0  0  0  0
  -29.7406  -11.7648   17.4493 H   0  0  0  0  0  0
  -29.6499  -13.4801   17.7586 H   0  0  0  0  0  0
  -27.8448  -11.2971   18.8482 H   0  0  0  0  0  0
  -27.3621  -12.5993   17.7960 H   0  0  0  0  0  0
  -27.6897  -14.2511   19.5492 H   0  0  0  0  0  0
  -28.6882  -12.0052   21.3697 H   0  0  0  0  0  0
  -28.4582  -13.6574   21.8593 H   0  0  0  0  0  0
  -25.2771   -9.5677   22.4764 H   0  0  0  0  0  0
  -24.0015   -7.4622   22.7463 H   0  0  0  0  0  0
  -21.0842   -8.8786   19.8957 H   0  0  0  0  0  0
  -22.3700  -10.9692   19.6185 H   0  0  0  0  0  0
  -21.1993   -7.6148   23.9725 H   0  0  0  0  0  0
  -21.1478   -6.0522   25.9079 H   0  0  0  0  0  0
  -22.0600   -2.7621   23.2843 H   0  0  0  0  0  0
  -22.4115  -11.9887   22.4795 H   0  0  0  0  0  0
  -21.1118  -13.1267   22.2636 H   0  0  0  0  0  0
  -24.6572  -15.8375   20.5154 H   0  0  0  0  0  0
  -26.2633  -15.6193   20.0439 H   0  0  0  0  0  0
  -26.7115  -32.5532   23.1117 H   0  0  0  0  0  0
  -25.0064  -33.9734   25.0458 H   0  0  0  0  0  0
  -22.6987  -31.3054   21.4051 H   0  0  0  0  0  0
  -23.3747  -35.9619   23.3310 H   0  0  0  0  0  0
  -24.3574  -36.8933   22.2062 H   0  0  0  0  0  0
  -23.7242  -37.6493   23.6668 H   0  0  0  0  0  0
  -26.0483  -31.5885   20.5905 H   0  0  0  0  0  0
  -26.8260  -30.8822   21.9788 H   0  0  0  0  0  0
  -28.1074  -29.0687   21.1822 H   0  0  0  0  0  0
  -26.0586  -25.9449   19.0357 H   0  0  0  0  0  0
  -23.9795  -27.2870   19.0377 H   0  0  0  0  0  0
  -23.7272  -30.5929   19.4021 H   0  0  0  0  0  0
  -22.7443  -29.2369   19.8660 H   0  0  0  0  0  0
  -25.1294  -36.1951   25.0835 H   0  0  0  0  0  0
  -20.9951  -28.3273   24.1442 H   0  0  0  0  0  0
  -20.5642  -26.2293   23.3645 H   0  0  0  0  0  0
  -21.6638  -26.7430   22.1267 H   0  0  0  0  0  0
  -19.6942  -25.6305   21.1232 H   0  0  0  0  0  0
  -19.6746  -27.3214   20.6766 H   0  0  0  0  0  0
  -17.4225  -26.6740   21.3945 H   0  0  0  0  0  0
  -18.0264  -26.0059   22.8938 H   0  0  0  0  0  0
  -19.7930  -30.7238   24.2318 H   0  0  0  0  0  0
  -17.5012  -31.6272   24.5172 H   0  0  0  0  0  0
  -15.5346  -30.3001   23.7661 H   0  0  0  0  0  0
  -15.8656  -28.0842   22.7071 H   0  0  0  0  0  0
  -24.6106  -30.6817   25.7844 H   0  0  0  0  0  0
  -24.8785  -32.2755   26.4764 H   0  0  0  0  0  0
  -25.8193  -30.9015   27.0284 H   0  0  0  0  0  0
  -26.2807  -29.6721   24.1256 H   0  0  0  0  0  0
  -27.4277  -29.7322   25.4474 H   0  0  0  0  0  0
  -27.8567  -30.4326   23.9041 H   0  0  0  0  0  0
  -27.2829  -33.3602   26.1964 H   0  0  0  0  0  0
  -28.3891  -32.6799   25.0141 H   0  0  0  0  0  0
  -28.0834  -31.8382   26.5273 H   0  0  0  0  0  0
  -28.2651  -38.0029   24.7471 H   0  0  0  0  0  0
  -28.1033  -36.2576   24.6325 H   0  0  0  0  0  0
  -27.2299  -37.1492   25.8868 H   0  0  0  0  0  0
  -20.9342  -29.8702   21.6879 H   0  0  0  0  0  0
  -26.0192  -38.2864   24.1424 H   0  0  0  0  0  0
  -33.1412  -18.9012   21.7314 H   0  0  0  0  0  0
  -31.4554  -20.6961   21.6511 H   0  0  0  0  0  0
  -32.4934  -16.5573   21.5077 H   0  0  0  0  0  0
  -27.3869  -18.4540   20.3829 H   0  0  0  0  0  0
  -27.4356  -17.3178   21.7369 H   0  0  0  0  0  0
  -27.8921  -16.8128   20.1056 H   0  0  0  0  0  0
  -27.9877  -19.4605   23.1043 H   0  0  0  0  0  0
  -26.7755  -20.2167   22.0684 H   0  0  0  0  0  0
  -27.7508  -21.1879   23.1921 H   0  0  0  0  0  0
  -28.1921  -24.0733   19.1307 H   0  0  0  0  0  0
  -29.6976  -24.0092   20.0161 H   0  0  0  0  0  0
  -28.8403  -25.4570   21.7705 H   0  0  0  0  0  0
  -27.1974  -25.2761   21.2756 H   0  0  0  0  0  0
  -29.0417  -15.3374   21.3182 H   0  0  0  0  0  0
  1 25  1  0  0  0
  1 30  2  0  0  0
  1 84  1  0  0  0
  2  3  1  0  0  0
  2 25  1  0  0  0
  2 86  1  0  0  0
  2 87  1  0  0  0
  3  4  1  0  0  0
  3 88  1  0  0  0
  3 89  1  0  0  0
  4  5  1  0  0  0
  4 90  1  0  0  0
  4 91  1  0  0  0
  5  6  1  0  0  0
  5 26  1  0  0  0
  5 92  1  0  0  0
  6 25  1  0  0  0
  6 93  1  0  0  0
  6 94  1  0  0  0
  7  8  2  0  0  0
  7 26  1  0  0  0
  7 29  1  0  0  0
  8  9  1  0  0  0
  8 22  1  0  0  0
  9 10  1  0  0  0
  9 27  2  0  0  0
 10 11  2  0  0  0
 10 15  1  0  0  0
 11 12  1  0  0  0
 11 95  1  0  0  0
 12 13  2  0  0  0
 12 96  1  0  0  0
 13 14  1  0  0  0
 13 31  1  0  0  0
 14 15  2  0  0  0
 14 97  1  0  0  0
 15 98  1  0  0  0
 16 17  2  0  0  0
 16 21  1  0  0  0
 16 31  1  0  0  0
 17 18  1  0  0  0
 17 99  1  0  0  0
 18 19  2  0  0  0
 18100  1  0  0  0
 19 20  1  0  0  0
 19 24  1  0  0  0
 20 21  2  0  0  0
 20101  1  0  0  0
 21 23  1  0  0  0
 22 28  1  0  0  0
 22 32  2  0  0  0
 26 27  1  0  0  0
 28102  1  0  0  0
 28103  1  0  0  0
 29104  1  0  0  0
 29105  1  0  0  0
 33 34  1  0  0  0
 33 66  1  0  0  0
 33 70  2  0  0  0
 34 36  1  0  0  0
 34 59  1  0  0  0
 34106  1  0  0  0
 35 44  2  0  0  0
 35 45  1  0  0  0
 35 68  1  0  0  0
 36 56  1  0  0  0
 36107  1  0  0  0
 37 39  1  0  0  0
 37 47  1  0  0  0
 37 66  1  0  0  0
 37108  1  0  0  0
 38 43  2  0  0  0
 38 46  1  0  0  0
 38 47  1  0  0  0
 39 64  1  0  0  0
 39 67  2  0  0  0
 40 52  1  0  0  0
 40 53  2  0  0  0
 40 58  1  0  0  0
 41109  1  0  0  0
 41110  1  0  0  0
 41111  1  0  0  0
 41 48  1  0  0  0
 42 43  1  0  0  0
 42 66  1  0  0  0
 42112  1  0  0  0
 42113  1  0  0  0
 43 44  1  0  0  0
 44114  1  0  0  0
 45 46  2  0  0  0
 45115  1  0  0  0
 46116  1  0  0  0
 47117  1  0  0  0
 47118  1  0  0  0
 48 56  1  0  0  0
 48 65  1  0  0  0
 48119  1  0  0  0
 49 50  1  0  0  0
 49 53  1  0  0  0
 49 64  1  0  0  0
 49120  1  0  0  0
 50 51  1  0  0  0
 50121  1  0  0  0
 50122  1  0  0  0
 51 52  1  0  0  0
 51123  1  0  0  0
 51124  1  0  0  0
 52125  1  0  0  0
 52126  1  0  0  0
 53 54  1  0  0  0
 54 55  2  0  0  0
 54127  1  0  0  0
 55 57  1  0  0  0
 55128  1  0  0  0
 56 69  2  0  0  0
 57 58  2  0  0  0
 57129  1  0  0  0
 58130  1  0  0  0
 59 60  1  0  0  0
 59 61  1  0  0  0
 59 62  1  0  0  0
 60131  1  0  0  0
 60132  1  0  0  0
 60133  1  0  0  0
 61134  1  0  0  0
 61135  1  0  0  0
 61136  1  0  0  0
 62137  1  0  0  0
 62138  1  0  0  0
 62139  1  0  0  0
 63 65  1  0  0  0
 63140  1  0  0  0
 63141  1  0  0  0
 63142  1  0  0  0
 64143  1  0  0  0
 65144  1  0  0  0
 68 82  1  0  0  0
 71 72  2  0  0  0
 71 73  1  0  0  0
 71145  1  0  0  0
 72 74  1  0  0  0
 72146  1  0  0  0
 73 76  2  0  0  0
 73147  1  0  0  0
 74 75  2  0  0  0
 74 77  1  0  0  0
 75 76  1  0  0  0
 75 79  1  0  0  0
 76 84  1  0  0  0
 77 80  1  0  0  0
 77 83  2  0  0  0
 78 81  1  0  0  0
 78 83  1  0  0  0
 78 85  2  0  0  0
 79148  1  0  0  0
 79149  1  0  0  0
 79150  1  0  0  0
 80151  1  0  0  0
 80152  1  0  0  0
 80153  1  0  0  0
 81 82  1  0  0  0
 81154  1  0  0  0
 81155  1  0  0  0
 82156  1  0  0  0
 82157  1  0  0  0
 84158  1  0  0  0
M  ISO  4   1 100  68 101  82 101  84 100
M  END
> <chiral flag>
0

> <version>
0

> <s_m_source_file>
/data/baiqing/PycharmProjects/Reinvent-master-3.2/result/LINK_invent/BTK/process_docking_weight1_custom_product_contain_oxygen_bond_distance_aromatic_linkinvent_7_9_3/rearranged_h_0055.sdf

> <i_m_source_file_index>
90

> <r_mmod_Potential_Energy-OPLS-2005>
6.53176736831665

> <r_mmod_Stretch_Energy-OPLS-2005>
57.2335891723633

> <r_mmod_Bend_Energy-OPLS-2005>
117.102989196777

> <r_mmod_Torsional_Energy-OPLS-2005>
250.712692260742

> <r_mmod_Improper_Torsional_Energy-OPLS-2005>
5.10409832000732

> <r_mmod_Van_der_Waal_Energy-OPLS-2005>
170.571655273438

> <r_mmod_Electrostatic_Energy-OPLS-2005>
-406.963714599609

> <r_mmod_Solvation_Energy-OPLS-2005>
-207.089752197266

> <b_mmod_Minimization_Converged-OPLS-2005>
0

> <r_mmod_RMS_Derivative-OPLS-2005>
2.02879285812378

$$$$
90
                    3D
 Structure written by MMmdl.
155163  0  0  1  0            999 V2000
  -30.7192  -14.4205   20.6326 C   0  0  0  0  0  0
  -30.4177  -12.2916   19.4154 C   0  0  0  0  0  0
  -29.4874  -12.5105   18.2052 C   0  0  0  0  0  0
  -28.0086  -12.3727   18.6155 C   0  0  0  0  0  0
  -27.6627  -13.2011   19.8799 C   0  0  2  0  0  0
  -28.7000  -12.9493   20.9989 C   0  0  0  0  0  0
  -25.2580  -13.8160   20.5663 C   0  0  0  0  0  0
  -24.1827  -13.0439   20.9165 C   0  0  0  0  0  0
  -24.6367  -11.6904   20.8713 C   0  0  0  0  0  0
  -23.9029  -10.4300   21.0393 C   0  0  0  0  0  0
  -24.3585   -9.4216   21.9171 C   0  0  0  0  0  0
  -23.6276   -8.2249   22.0753 C   0  0  0  0  0  0
  -22.4267   -8.0276   21.3533 C   0  0  0  0  0  0
  -21.9886   -9.0238   20.4631 C   0  0  0  0  0  0
  -22.7202  -10.2126   20.3042 C   0  0  0  0  0  0
  -21.6839   -6.0723   22.5266 C   0  0  0  0  0  0
  -21.4013   -6.5623   23.8196 C   0  0  0  0  0  0
  -21.3663   -5.6788   24.9168 C   0  0  0  0  0  0
  -21.6054   -4.3046   24.7234 C   0  0  0  0  0  0
  -21.8820   -3.8139   23.4348 C   0  0  0  0  0  0
  -21.9188   -4.6952   22.3394 C   0  0  0  0  0  0
  -22.7848  -13.5235   21.1838 C   0  0  0  0  0  0
  -22.1654   -4.2142   21.0974 F   0  0  0  0  0  0
  -21.5635   -3.4536   25.7746 F   0  0  0  0  0  0
  -30.0389  -13.2543   20.4620 N   0  0  0  0  0  0
  -26.3009  -12.9315   20.3363 N   0  0  0  0  0  0
  -25.9292  -11.6476   20.5750 N   0  0  0  0  0  0
  -22.0506  -12.8223   22.0405 N   0  0  0  0  0  0
  -25.4310  -15.1883   20.4073 N   0  0  0  0  0  0
  -31.7957  -14.6437   20.0708 O   0  0  0  0  0  0
  -21.6631   -6.8869   21.4229 O   0  0  0  0  0  0
  -22.3527  -14.5533   20.6688 O   0  0  0  0  0  0
  -24.6132  -31.8700   23.2070 C   0  0  0  0  0  0
  -25.9035  -32.4838   23.8370 C   0  0  1  0  0  0
  -27.2433  -27.4547   20.0812 C   0  0  0  0  0  0
  -25.5887  -33.8627   24.2334 N   0  0  0  0  0  0
  -23.3970  -30.4919   21.5503 C   0  0  2  0  0  0
  -24.8425  -28.9549   20.1191 C   0  0  0  0  0  0
  -22.7398  -29.4661   22.5015 C   0  0  0  0  0  0
  -18.0275  -28.1366   22.8496 C   0  0  0  0  0  0
  -24.1474  -36.7309   23.2641 C   0  0  0  0  0  0
  -25.9226  -30.8433   21.3525 C   0  0  0  0  0  0
  -26.0000  -29.4741   20.7092 C   0  0  0  0  0  0
  -27.1977  -28.7291   20.6894 C   0  0  0  0  0  0
  -26.0580  -26.9341   19.5104 C   0  0  0  0  0  0
  -24.8655  -27.6838   19.5204 C   0  0  0  0  0  0
  -23.6005  -29.8159   20.1676 C   0  0  0  0  0  0
  -25.4097  -36.3123   24.0348 C   0  0  1  0  0  0
  -20.5857  -28.3654   23.1329 C   0  0  2  0  0  0
  -20.6740  -26.9385   22.5435 C   0  0  0  0  0  0
  -19.5730  -26.6367   21.5224 C   0  0  0  0  0  0
  -18.1912  -26.7912   22.1637 C   0  0  0  0  0  0
  -19.1521  -28.8828   23.2901 C   0  0  0  0  0  0
  -18.9461  -30.1443   23.8902 C   0  0  0  0  0  0
  -17.6462  -30.6584   24.0549 C   0  0  0  0  0  0
  -25.9038  -34.9484   23.5151 C   0  0  0  0  0  0
  -16.5354  -29.9090   23.6305 C   0  0  0  0  0  0
  -16.7267  -28.6504   23.0335 C   0  0  0  0  0  0
  -26.4441  -31.6607   25.0689 C   0  0  0  0  0  0
  -25.3683  -31.3710   26.1413 C   0  0  0  0  0  0
  -27.0282  -30.3069   24.6033 C   0  0  0  0  0  0
  -27.6009  -32.4309   25.7470 C   0  0  0  0  0  0
  -27.5581  -37.1802   24.8470 C   0  0  0  0  0  0
  -21.4133  -29.3023   22.3746 N   0  0  0  0  0  0
  -26.4287  -37.3810   23.9433 N   0  0  0  0  0  0
  -24.6629  -31.0814   22.0959 N   0  0  0  0  0  0
  -23.4187  -28.8201   23.3040 O   0  0  0  0  0  0
  -28.4630  -26.8109   20.0715 O   0  0  0  0  0  0
  -26.5602  -34.8934   22.4708 O   0  0  0  0  0  0
  -23.5335  -32.1443   23.7488 O   0  0  0  0  0  0
  -31.7912  -18.7008   21.4628 C   0  0  0  0  0  0
  -30.6820  -19.5361   21.6906 C   0  0  0  0  0  0
  -31.6218  -17.3054   21.3824 C   0  0  0  0  0  0
  -29.2311  -17.5792   21.7636 C   0  0  0  0  0  0
  -29.3950  -18.9812   21.8554 C   0  0  0  0  0  0
  -30.3347  -16.7302   21.5067 C   0  0  0  0  0  0
  -28.2363  -23.2290   20.5201 C   0  0  0  0  0  0
  -28.7915  -24.4569   20.5476 C   0  0  0  0  0  0
  -28.4967  -22.2889   21.5973 C   0  0  0  0  0  0
  -28.1991  -19.8764   22.1754 C   0  0  0  0  0  0
  -28.6410  -25.5231   19.4812 C   0  0  0  0  0  0
  -30.1028  -15.3249   21.4191 N   0  0  0  0  0  0
  -28.0741  -21.0509   21.3078 N   0  0  0  0  0  0
  -29.0579  -22.5648   22.6605 O   0  0  0  0  0  0
  -31.4618  -12.3861   19.1125 H   0  0  0  0  0  0
  -30.3142  -11.2738   19.7954 H   0  0  0  0  0  0
  -29.7184  -11.7945   17.4159 H   0  0  0  0  0  0
  -29.6621  -13.5007   17.7805 H   0  0  0  0  0  0
  -27.8091  -11.3162   18.8007 H   0  0  0  0  0  0
  -27.3610  -12.6614   17.7870 H   0  0  0  0  0  0
  -27.7183  -14.2520   19.5956 H   0  0  0  0  0  0
  -28.6717  -11.9024   21.3074 H   0  0  0  0  0  0
  -28.4512  -13.5174   21.8950 H   0  0  0  0  0  0
  -25.2729   -9.5698   22.4741 H   0  0  0  0  0  0
  -23.9975   -7.4652   22.7489 H   0  0  0  0  0  0
  -21.0816   -8.8751   19.8945 H   0  0  0  0  0  0
  -22.3647  -10.9658   19.6150 H   0  0  0  0  0  0
  -21.2006   -7.6132   23.9692 H   0  0  0  0  0  0
  -21.1484   -6.0523   25.9067 H   0  0  0  0  0  0
  -22.0601   -2.7602   23.2852 H   0  0  0  0  0  0
  -22.4127  -11.9860   22.4742 H   0  0  0  0  0  0
  -21.1134  -13.1257   22.2660 H   0  0  0  0  0  0
  -24.6661  -15.8469   20.5087 H   0  0  0  0  0  0
  -26.2874  -15.6232   20.0859 H   0  0  0  0  0  0
  -26.7103  -32.5571   23.1146 H   0  0  0  0  0  0
  -24.9988  -33.9787   25.0434 H   0  0  0  0  0  0
  -22.6835  -31.3070   21.4078 H   0  0  0  0  0  0
  -23.3749  -35.9617   23.3299 H   0  0  0  0  0  0
  -24.3558  -36.8955   22.2056 H   0  0  0  0  0  0
  -23.7208  -37.6503   23.6651 H   0  0  0  0  0  0
  -26.0188  -31.6038   20.5756 H   0  0  0  0  0  0
  -26.8189  -30.9104   21.9593 H   0  0  0  0  0  0
  -28.0969  -29.1327   21.1331 H   0  0  0  0  0  0
  -26.0179  -25.9564   19.0549 H   0  0  0  0  0  0
  -23.9726  -27.2697   19.0743 H   0  0  0  0  0  0
  -23.6959  -30.5840   19.3992 H   0  0  0  0  0  0
  -22.7284  -29.2249   19.8807 H   0  0  0  0  0  0
  -25.1260  -36.1991   25.0836 H   0  0  0  0  0  0
  -20.9954  -28.3222   24.1442 H   0  0  0  0  0  0
  -20.5684  -26.2246   23.3621 H   0  0  0  0  0  0
  -21.6609  -26.7451   22.1214 H   0  0  0  0  0  0
  -19.6886  -25.6290   21.1239 H   0  0  0  0  0  0
  -19.6663  -27.3177   20.6743 H   0  0  0  0  0  0
  -17.4185  -26.6698   21.4032 H   0  0  0  0  0  0
  -18.0295  -26.0046   22.9026 H   0  0  0  0  0  0
  -19.7931  -30.7252   24.2290 H   0  0  0  0  0  0
  -17.5024  -31.6256   24.5158 H   0  0  0  0  0  0
  -15.5367  -30.2999   23.7628 H   0  0  0  0  0  0
  -15.8660  -28.0852   22.7024 H   0  0  0  0  0  0
  -24.5838  -30.7103   25.7716 H   0  0  0  0  0  0
  -24.8867  -32.2866   26.4829 H   0  0  0  0  0  0
  -25.7982  -30.8862   27.0192 H   0  0  0  0  0  0
  -26.2833  -29.6857   24.1046 H   0  0  0  0  0  0
  -27.4060  -29.7262   25.4463 H   0  0  0  0  0  0
  -27.8637  -30.4423   23.9163 H   0  0  0  0  0  0
  -27.2636  -33.3618   26.2027 H   0  0  0  0  0  0
  -28.3814  -32.6885   25.0305 H   0  0  0  0  0  0
  -28.0647  -31.8439   26.5412 H   0  0  0  0  0  0
  -28.2579  -38.0124   24.7571 H   0  0  0  0  0  0
  -28.1114  -36.2662   24.6219 H   0  0  0  0  0  0
  -27.2299  -37.1385   25.8876 H   0  0  0  0  0  0
  -20.9300  -29.8775   21.6994 H   0  0  0  0  0  0
  -26.0188  -38.2894   24.1435 H   0  0  0  0  0  0
  -32.7762  -19.1327   21.3588 H   0  0  0  0  0  0
  -30.8297  -20.6039   21.7610 H   0  0  0  0  0  0
  -32.4977  -16.6926   21.2284 H   0  0  0  0  0  0
  -28.2435  -17.1574   21.8843 H   0  0  0  0  0  0
  -27.6043  -22.9476   19.6877 H   0  0  0  0  0  0
  -29.4260  -24.7371   21.3783 H   0  0  0  0  0  0
  -28.2733  -20.1816   23.2209 H   0  0  0  0  0  0
  -27.2734  -19.3035   22.1100 H   0  0  0  0  0  0
  -27.9159  -25.2473   18.7197 H   0  0  0  0  0  0
  -29.5950  -25.5662   18.9561 H   0  0  0  0  0  0
  -29.2405  -14.9931   21.8218 H   0  0  0  0  0  0
  -27.6021  -20.9141   20.4259 H   0  0  0  0  0  0
  1 25  1  0  0  0
  1 30  2  0  0  0
  1 82  1  0  0  0
  2  3  1  0  0  0
  2 25  1  0  0  0
  2 85  1  0  0  0
  2 86  1  0  0  0
  3  4  1  0  0  0
  3 87  1  0  0  0
  3 88  1  0  0  0
  4  5  1  0  0  0
  4 89  1  0  0  0
  4 90  1  0  0  0
  5  6  1  0  0  0
  5 26  1  0  0  0
  5 91  1  0  0  0
  6 25  1  0  0  0
  6 92  1  0  0  0
  6 93  1  0  0  0
  7  8  2  0  0  0
  7 26  1  0  0  0
  7 29  1  0  0  0
  8  9  1  0  0  0
  8 22  1  0  0  0
  9 10  1  0  0  0
  9 27  2  0  0  0
 10 11  2  0  0  0
 10 15  1  0  0  0
 11 12  1  0  0  0
 11 94  1  0  0  0
 12 13  2  0  0  0
 12 95  1  0  0  0
 13 14  1  0  0  0
 13 31  1  0  0  0
 14 15  2  0  0  0
 14 96  1  0  0  0
 15 97  1  0  0  0
 16 17  2  0  0  0
 16 21  1  0  0  0
 16 31  1  0  0  0
 17 18  1  0  0  0
 17 98  1  0  0  0
 18 19  2  0  0  0
 18 99  1  0  0  0
 19 20  1  0  0  0
 19 24  1  0  0  0
 20 21  2  0  0  0
 20100  1  0  0  0
 21 23  1  0  0  0
 22 28  1  0  0  0
 22 32  2  0  0  0
 26 27  1  0  0  0
 28101  1  0  0  0
 28102  1  0  0  0
 29103  1  0  0  0
 29104  1  0  0  0
 33 34  1  0  0  0
 33 66  1  0  0  0
 33 70  2  0  0  0
 34 36  1  0  0  0
 34 59  1  0  0  0
 34105  1  0  0  0
 35 44  2  0  0  0
 35 45  1  0  0  0
 35 68  1  0  0  0
 36 56  1  0  0  0
 36106  1  0  0  0
 37 39  1  0  0  0
 37 47  1  0  0  0
 37 66  1  0  0  0
 37107  1  0  0  0
 38 43  2  0  0  0
 38 46  1  0  0  0
 38 47  1  0  0  0
 39 64  1  0  0  0
 39 67  2  0  0  0
 40 52  1  0  0  0
 40 53  2  0  0  0
 40 58  1  0  0  0
 41108  1  0  0  0
 41109  1  0  0  0
 41110  1  0  0  0
 41 48  1  0  0  0
 42 43  1  0  0  0
 42 66  1  0  0  0
 42111  1  0  0  0
 42112  1  0  0  0
 43 44  1  0  0  0
 44113  1  0  0  0
 45 46  2  0  0  0
 45114  1  0  0  0
 46115  1  0  0  0
 47116  1  0  0  0
 47117  1  0  0  0
 48 56  1  0  0  0
 48 65  1  0  0  0
 48118  1  0  0  0
 49 50  1  0  0  0
 49 53  1  0  0  0
 49 64  1  0  0  0
 49119  1  0  0  0
 50 51  1  0  0  0
 50120  1  0  0  0
 50121  1  0  0  0
 51 52  1  0  0  0
 51122  1  0  0  0
 51123  1  0  0  0
 52124  1  0  0  0
 52125  1  0  0  0
 53 54  1  0  0  0
 54 55  2  0  0  0
 54126  1  0  0  0
 55 57  1  0  0  0
 55127  1  0  0  0
 56 69  2  0  0  0
 57 58  2  0  0  0
 57128  1  0  0  0
 58129  1  0  0  0
 59 60  1  0  0  0
 59 61  1  0  0  0
 59 62  1  0  0  0
 60130  1  0  0  0
 60131  1  0  0  0
 60132  1  0  0  0
 61133  1  0  0  0
 61134  1  0  0  0
 61135  1  0  0  0
 62136  1  0  0  0
 62137  1  0  0  0
 62138  1  0  0  0
 63 65  1  0  0  0
 63139  1  0  0  0
 63140  1  0  0  0
 63141  1  0  0  0
 64142  1  0  0  0
 65143  1  0  0  0
 68 81  1  0  0  0
 71 72  2  0  0  0
 71 73  1  0  0  0
 71144  1  0  0  0
 72 75  1  0  0  0
 72145  1  0  0  0
 73 76  2  0  0  0
 73146  1  0  0  0
 74 75  2  0  0  0
 74 76  1  0  0  0
 74147  1  0  0  0
 75 80  1  0  0  0
 76 82  1  0  0  0
 77 78  2  0  0  0
 77 79  1  0  0  0
 77148  1  0  0  0
 78 81  1  0  0  0
 78149  1  0  0  0
 79 83  1  0  0  0
 79 84  2  0  0  0
 80 83  1  0  0  0
 80150  1  0  0  0
 80151  1  0  0  0
 81152  1  0  0  0
 81153  1  0  0  0
 82154  1  0  0  0
 83155  1  0  0  0
M  ISO  4   1 100  68 101  81 101  82 100
M  END
> <chiral flag>
0

> <version>
0

> <s_m_source_file>
/data/baiqing/PycharmProjects/Reinvent-master-3.2/result/LINK_invent/BTK/process_docking_weight1_custom_product_contain_oxygen_bond_distance_aromatic_linkinvent_7_9_3/rearranged_h_0055.sdf

> <i_m_source_file_index>
91

> <r_mmod_Potential_Energy-OPLS-2005>
-198.623962402344

> <r_mmod_Stretch_Energy-OPLS-2005>
34.0698394775391

> <r_mmod_Bend_Energy-OPLS-2005>
105.001525878906

> <r_mmod_Torsional_Energy-OPLS-2005>
195.473526000977

> <r_mmod_Improper_Torsional_Energy-OPLS-2005>
2.85309195518494

> <r_mmod_Van_der_Waal_Energy-OPLS-2005>
161.974914550781

> <r_mmod_Electrostatic_Energy-OPLS-2005>
-466.150909423828

> <r_mmod_Solvation_Energy-OPLS-2005>
-241.060882568359

> <b_mmod_Minimization_Converged-OPLS-2005>
0

> <r_mmod_RMS_Derivative-OPLS-2005>
2.72616934776306

$$$$
91
                    3D
 Structure written by MMmdl.
166174  0  0  1  0            999 V2000
  -30.7325  -14.3996   20.6208 C   0  0  0  0  0  0
  -30.4201  -12.2958   19.3733 C   0  0  0  0  0  0
  -29.4757  -12.4973   18.1749 C   0  0  0  0  0  0
  -27.9970  -12.3780   18.5978 C   0  0  0  0  0  0
  -27.6598  -13.1997   19.8722 C   0  0  2  0  0  0
  -28.7048  -12.9369   20.9768 C   0  0  0  0  0  0
  -25.2576  -13.8152   20.5654 C   0  0  0  0  0  0
  -24.1803  -13.0427   20.9123 C   0  0  0  0  0  0
  -24.6329  -11.6895   20.8665 C   0  0  0  0  0  0
  -23.8989  -10.4274   21.0369 C   0  0  0  0  0  0
  -24.3552   -9.4214   21.9166 C   0  0  0  0  0  0
  -23.6252   -8.2233   22.0754 C   0  0  0  0  0  0
  -22.4251   -8.0239   21.3534 C   0  0  0  0  0  0
  -21.9855   -9.0205   20.4654 C   0  0  0  0  0  0
  -22.7144  -10.2103   20.3052 C   0  0  0  0  0  0
  -21.6851   -6.0678   22.5251 C   0  0  0  0  0  0
  -21.4018   -6.5596   23.8178 C   0  0  0  0  0  0
  -21.3664   -5.6759   24.9148 C   0  0  0  0  0  0
  -21.6063   -4.3024   24.7208 C   0  0  0  0  0  0
  -21.8826   -3.8096   23.4333 C   0  0  0  0  0  0
  -21.9209   -4.6907   22.3380 C   0  0  0  0  0  0
  -22.7839  -13.5280   21.1778 C   0  0  0  0  0  0
  -22.1667   -4.2086   21.0956 F   0  0  0  0  0  0
  -21.5642   -3.4514   25.7721 F   0  0  0  0  0  0
  -30.0350  -13.2510   20.4208 N   0  0  0  0  0  0
  -26.2996  -12.9308   20.3357 N   0  0  0  0  0  0
  -25.9262  -11.6477   20.5723 N   0  0  0  0  0  0
  -22.0440  -12.8326   22.0367 N   0  0  0  0  0  0
  -25.4305  -15.1866   20.4147 N   0  0  0  0  0  0
  -31.8298  -14.6272   20.1059 O   0  0  0  0  0  0
  -21.6656   -6.8807   21.4213 O   0  0  0  0  0  0
  -22.3520  -14.5572   20.6604 O   0  0  0  0  0  0
  -24.6196  -31.8725   23.2163 C   0  0  0  0  0  0
  -25.9088  -32.4863   23.8451 C   0  0  1  0  0  0
  -27.2248  -27.4448   20.0426 C   0  0  0  0  0  0
  -25.5942  -33.8649   24.2377 N   0  0  0  0  0  0
  -23.4056  -30.5016   21.5613 C   0  0  2  0  0  0
  -24.8431  -28.9804   20.1219 C   0  0  0  0  0  0
  -22.7436  -29.4680   22.5033 C   0  0  0  0  0  0
  -18.0270  -28.1415   22.8527 C   0  0  0  0  0  0
  -24.1449  -36.7244   23.2633 C   0  0  0  0  0  0
  -25.9410  -30.8390   21.3735 C   0  0  0  0  0  0
  -26.0141  -29.4765   20.7095 C   0  0  0  0  0  0
  -27.2088  -28.7136   20.6741 C   0  0  0  0  0  0
  -26.0268  -26.9937   19.4318 C   0  0  0  0  0  0
  -24.8409  -27.7304   19.4947 C   0  0  0  0  0  0
  -23.6142  -29.8505   20.1739 C   0  0  0  0  0  0
  -25.4085  -36.3120   24.0354 C   0  0  1  0  0  0
  -20.5867  -28.3660   23.1349 C   0  0  2  0  0  0
  -20.6766  -26.9407   22.5429 C   0  0  0  0  0  0
  -19.5725  -26.6417   21.5242 C   0  0  0  0  0  0
  -18.1897  -26.7971   22.1656 C   0  0  0  0  0  0
  -19.1529  -28.8859   23.2930 C   0  0  0  0  0  0
  -18.9450  -30.1472   23.8927 C   0  0  0  0  0  0
  -17.6457  -30.6620   24.0583 C   0  0  0  0  0  0
  -25.9042  -34.9497   23.5152 C   0  0  0  0  0  0
  -16.5339  -29.9130   23.6356 C   0  0  0  0  0  0
  -16.7258  -28.6542   23.0387 C   0  0  0  0  0  0
  -26.4495  -31.6627   25.0765 C   0  0  0  0  0  0
  -25.3765  -31.3737   26.1509 C   0  0  0  0  0  0
  -27.0299  -30.3059   24.6146 C   0  0  0  0  0  0
  -27.6062  -32.4348   25.7544 C   0  0  0  0  0  0
  -27.5551  -37.1780   24.8489 C   0  0  0  0  0  0
  -21.4159  -29.3026   22.3757 N   0  0  0  0  0  0
  -26.4255  -37.3825   23.9466 N   0  0  0  0  0  0
  -24.6743  -31.0840   22.1083 N   0  0  0  0  0  0
  -23.4215  -28.8220   23.3068 O   0  0  0  0  0  0
  -28.3791  -26.6720   20.0218 O   0  0  0  0  0  0
  -26.5566  -34.8956   22.4695 O   0  0  0  0  0  0
  -23.5385  -32.1447   23.7583 O   0  0  0  0  0  0
  -33.0606  -18.9463   20.2581 C   0  0  0  0  0  0
  -32.1611  -19.8467   19.6644 C   0  0  0  0  0  0
  -32.5684  -17.8460   20.9786 C   0  0  0  0  0  0
  -30.7717  -19.6113   19.7235 C   0  0  0  0  0  0
  -31.1824  -17.6008   21.0816 C   0  0  0  0  0  0
  -30.2713  -18.4495   20.3905 C   0  0  0  0  0  0
  -29.8566  -20.6400   19.1231 C   0  0  0  0  0  0
  -28.7764  -18.1354   20.3672 C   0  0  0  0  0  0
  -29.7614  -24.4566   21.4178 C   0  0  0  0  0  0
  -27.6398  -22.3402   20.5519 C   0  0  0  0  0  0
  -30.7437  -16.4690   22.0195 C   0  0  0  0  0  0
  -28.1902  -25.3006   19.6107 C   0  0  0  0  0  0
  -29.2938  -24.2776   19.9634 C   0  0  2  0  0  0
  -28.8003  -22.8239   19.6499 C   0  0  1  0  0  0
  -29.8679  -21.8278   19.7511 N   0  0  0  0  0  0
  -30.1298  -15.2927   21.4113 N   0  0  0  0  0  0
  -29.1089  -20.3622   18.1822 O   0  0  0  0  0  0
  -31.4567  -12.4244   19.0513 H   0  0  0  0  0  0
  -30.3453  -11.2751   19.7510 H   0  0  0  0  0  0
  -29.6993  -11.7593   17.4015 H   0  0  0  0  0  0
  -29.6557  -13.4748   17.7242 H   0  0  0  0  0  0
  -27.7790  -11.3215   18.7683 H   0  0  0  0  0  0
  -27.3550  -12.6862   17.7735 H   0  0  0  0  0  0
  -27.7213  -14.2552   19.6084 H   0  0  0  0  0  0
  -28.6710  -11.8883   21.2783 H   0  0  0  0  0  0
  -28.4656  -13.4980   21.8818 H   0  0  0  0  0  0
  -25.2678   -9.5750   22.4750 H   0  0  0  0  0  0
  -23.9966   -7.4659   22.7515 H   0  0  0  0  0  0
  -21.0764   -8.8696   19.8993 H   0  0  0  0  0  0
  -22.3539  -10.9625   19.6176 H   0  0  0  0  0  0
  -21.1992   -7.6095   23.9648 H   0  0  0  0  0  0
  -21.1497   -6.0490   25.9048 H   0  0  0  0  0  0
  -22.0612   -2.7554   23.2843 H   0  0  0  0  0  0
  -22.4055  -12.0030   22.4822 H   0  0  0  0  0  0
  -21.1047  -13.1402   22.2508 H   0  0  0  0  0  0
  -24.6671  -15.8409   20.5470 H   0  0  0  0  0  0
  -26.2951  -15.6372   20.1367 H   0  0  0  0  0  0
  -26.7184  -32.5586   23.1245 H   0  0  0  0  0  0
  -25.0232  -33.9841   25.0622 H   0  0  0  0  0  0
  -22.6904  -31.3169   21.4292 H   0  0  0  0  0  0
  -23.3763  -35.9523   23.3350 H   0  0  0  0  0  0
  -24.3522  -36.8794   22.2028 H   0  0  0  0  0  0
  -23.7146  -37.6444   23.6610 H   0  0  0  0  0  0
  -26.0649  -31.6169   20.6186 H   0  0  0  0  0  0
  -26.8264  -30.8812   21.9967 H   0  0  0  0  0  0
  -28.1156  -29.0978   21.1233 H   0  0  0  0  0  0
  -25.9668  -26.0708   18.8774 H   0  0  0  0  0  0
  -23.9431  -27.3367   19.0362 H   0  0  0  0  0  0
  -23.7415  -30.6351   19.4257 H   0  0  0  0  0  0
  -22.7370  -29.2809   19.8632 H   0  0  0  0  0  0
  -25.1261  -36.1960   25.0842 H   0  0  0  0  0  0
  -20.9944  -28.3197   24.1480 H   0  0  0  0  0  0
  -20.5709  -26.2251   23.3601 H   0  0  0  0  0  0
  -21.6625  -26.7493   22.1176 H   0  0  0  0  0  0
  -19.6874  -25.6343   21.1249 H   0  0  0  0  0  0
  -19.6676  -27.3257   20.6795 H   0  0  0  0  0  0
  -17.4178  -26.6742   21.4046 H   0  0  0  0  0  0
  -18.0254  -26.0115   22.9041 H   0  0  0  0  0  0
  -19.7913  -30.7283   24.2297 H   0  0  0  0  0  0
  -17.5017  -31.6309   24.5175 H   0  0  0  0  0  0
  -15.5344  -30.3053   23.7696 H   0  0  0  0  0  0
  -15.8633  -28.0885   22.7112 H   0  0  0  0  0  0
  -24.5974  -30.7046   25.7857 H   0  0  0  0  0  0
  -24.8922  -32.2882   26.4931 H   0  0  0  0  0  0
  -25.8125  -30.8951   27.0283 H   0  0  0  0  0  0
  -26.2807  -29.6845   24.1215 H   0  0  0  0  0  0
  -27.4049  -29.7297   25.4616 H   0  0  0  0  0  0
  -27.8697  -30.4357   23.9310 H   0  0  0  0  0  0
  -27.2674  -33.3656   26.2121 H   0  0  0  0  0  0
  -28.3887  -32.6892   25.0375 H   0  0  0  0  0  0
  -28.0724  -31.8477   26.5476 H   0  0  0  0  0  0
  -28.2611  -38.0039   24.7552 H   0  0  0  0  0  0
  -28.1002  -36.2583   24.6307 H   0  0  0  0  0  0
  -27.2271  -37.1409   25.8891 H   0  0  0  0  0  0
  -20.9310  -29.8753   21.6984 H   0  0  0  0  0  0
  -26.0127  -38.2888   24.1539 H   0  0  0  0  0  0
  -34.1276  -19.1138   20.1968 H   0  0  0  0  0  0
  -32.5427  -20.7182   19.1494 H   0  0  0  0  0  0
  -33.2714  -17.1924   21.4728 H   0  0  0  0  0  0
  -28.1773  -18.9796   20.7033 H   0  0  0  0  0  0
  -28.4981  -17.2837   20.9840 H   0  0  0  0  0  0
  -28.4822  -17.8945   19.3436 H   0  0  0  0  0  0
  -30.0467  -25.4909   21.6033 H   0  0  0  0  0  0
  -30.6245  -23.8328   21.6507 H   0  0  0  0  0  0
  -28.9667  -24.2179   22.1228 H   0  0  0  0  0  0
  -26.7367  -22.9354   20.4383 H   0  0  0  0  0  0
  -27.9171  -22.3423   21.6055 H   0  0  0  0  0  0
  -27.3527  -21.3155   20.3183 H   0  0  0  0  0  0
  -30.0465  -16.8765   22.7539 H   0  0  0  0  0  0
  -31.6005  -16.1291   22.6059 H   0  0  0  0  0  0
  -27.2834  -24.9364   20.0861 H   0  0  0  0  0  0
  -28.0284  -25.2755   18.5302 H   0  0  0  0  0  0
  -30.1453  -24.4878   19.3157 H   0  0  0  0  0  0
  -28.4372  -22.8195   18.6192 H   0  0  0  0  0  0
  -30.5309  -21.9280   20.5067 H   0  0  0  0  0  0
  -29.2154  -15.0396   21.7497 H   0  0  0  0  0  0
  1 25  1  0  0  0
  1 30  2  0  0  0
  1 86  1  0  0  0
  2  3  1  0  0  0
  2 25  1  0  0  0
  2 88  1  0  0  0
  2 89  1  0  0  0
  3  4  1  0  0  0
  3 90  1  0  0  0
  3 91  1  0  0  0
  4  5  1  0  0  0
  4 92  1  0  0  0
  4 93  1  0  0  0
  5  6  1  0  0  0
  5 26  1  0  0  0
  5 94  1  0  0  0
  6 25  1  0  0  0
  6 95  1  0  0  0
  6 96  1  0  0  0
  7  8  2  0  0  0
  7 26  1  0  0  0
  7 29  1  0  0  0
  8  9  1  0  0  0
  8 22  1  0  0  0
  9 10  1  0  0  0
  9 27  2  0  0  0
 10 11  2  0  0  0
 10 15  1  0  0  0
 11 12  1  0  0  0
 11 97  1  0  0  0
 12 13  2  0  0  0
 12 98  1  0  0  0
 13 14  1  0  0  0
 13 31  1  0  0  0
 14 15  2  0  0  0
 14 99  1  0  0  0
 15100  1  0  0  0
 16 17  2  0  0  0
 16 21  1  0  0  0
 16 31  1  0  0  0
 17 18  1  0  0  0
 17101  1  0  0  0
 18 19  2  0  0  0
 18102  1  0  0  0
 19 20  1  0  0  0
 19 24  1  0  0  0
 20 21  2  0  0  0
 20103  1  0  0  0
 21 23  1  0  0  0
 22 28  1  0  0  0
 22 32  2  0  0  0
 26 27  1  0  0  0
 28104  1  0  0  0
 28105  1  0  0  0
 29106  1  0  0  0
 29107  1  0  0  0
 33 34  1  0  0  0
 33 66  1  0  0  0
 33 70  2  0  0  0
 34 36  1  0  0  0
 34 59  1  0  0  0
 34108  1  0  0  0
 35 44  2  0  0  0
 35 45  1  0  0  0
 35 68  1  0  0  0
 36 56  1  0  0  0
 36109  1  0  0  0
 37 39  1  0  0  0
 37 47  1  0  0  0
 37 66  1  0  0  0
 37110  1  0  0  0
 38 43  2  0  0  0
 38 46  1  0  0  0
 38 47  1  0  0  0
 39 64  1  0  0  0
 39 67  2  0  0  0
 40 52  1  0  0  0
 40 53  2  0  0  0
 40 58  1  0  0  0
 41111  1  0  0  0
 41112  1  0  0  0
 41113  1  0  0  0
 41 48  1  0  0  0
 42 43  1  0  0  0
 42 66  1  0  0  0
 42114  1  0  0  0
 42115  1  0  0  0
 43 44  1  0  0  0
 44116  1  0  0  0
 45 46  2  0  0  0
 45117  1  0  0  0
 46118  1  0  0  0
 47119  1  0  0  0
 47120  1  0  0  0
 48 56  1  0  0  0
 48 65  1  0  0  0
 48121  1  0  0  0
 49 50  1  0  0  0
 49 53  1  0  0  0
 49 64  1  0  0  0
 49122  1  0  0  0
 50 51  1  0  0  0
 50123  1  0  0  0
 50124  1  0  0  0
 51 52  1  0  0  0
 51125  1  0  0  0
 51126  1  0  0  0
 52127  1  0  0  0
 52128  1  0  0  0
 53 54  1  0  0  0
 54 55  2  0  0  0
 54129  1  0  0  0
 55 57  1  0  0  0
 55130  1  0  0  0
 56 69  2  0  0  0
 57 58  2  0  0  0
 57131  1  0  0  0
 58132  1  0  0  0
 59 60  1  0  0  0
 59 61  1  0  0  0
 59 62  1  0  0  0
 60133  1  0  0  0
 60134  1  0  0  0
 60135  1  0  0  0
 61136  1  0  0  0
 61137  1  0  0  0
 61138  1  0  0  0
 62139  1  0  0  0
 62140  1  0  0  0
 62141  1  0  0  0
 63 65  1  0  0  0
 63142  1  0  0  0
 63143  1  0  0  0
 63144  1  0  0  0
 64145  1  0  0  0
 65146  1  0  0  0
 68 82  1  0  0  0
 71 72  2  0  0  0
 71 73  1  0  0  0
 71147  1  0  0  0
 72 74  1  0  0  0
 72148  1  0  0  0
 73 75  2  0  0  0
 73149  1  0  0  0
 74 76  2  0  0  0
 74 77  1  0  0  0
 75 76  1  0  0  0
 75 81  1  0  0  0
 76 78  1  0  0  0
 77 85  1  0  0  0
 77 87  2  0  0  0
 78150  1  0  0  0
 78151  1  0  0  0
 78152  1  0  0  0
 79153  1  0  0  0
 79154  1  0  0  0
 79155  1  0  0  0
 79 83  1  0  0  0
 80156  1  0  0  0
 80157  1  0  0  0
 80158  1  0  0  0
 80 84  1  0  0  0
 81 86  1  0  0  0
 81159  1  0  0  0
 81160  1  0  0  0
 82 83  1  0  0  0
 82161  1  0  0  0
 82162  1  0  0  0
 83 84  1  0  0  0
 83163  1  0  0  0
 84 85  1  0  0  0
 84164  1  0  0  0
 85165  1  0  0  0
 86166  1  0  0  0
M  ISO  4   1 100  68 101  82 101  86 100
M  END
> <chiral flag>
0

> <version>
0

> <s_m_source_file>
/data/baiqing/PycharmProjects/Reinvent-master-3.2/result/LINK_invent/BTK/process_docking_weight1_custom_product_contain_oxygen_bond_distance_aromatic_linkinvent_7_9_3/rearranged_h_0055.sdf

> <i_m_source_file_index>
92

> <r_mmod_Potential_Energy-OPLS-2005>
-88.4346389770508

> <r_mmod_Stretch_Energy-OPLS-2005>
39.9986839294434

> <r_mmod_Bend_Energy-OPLS-2005>
102.573837280273

> <r_mmod_Torsional_Energy-OPLS-2005>
236.44792175293

> <r_mmod_Improper_Torsional_Energy-OPLS-2005>
3.19994783401489

> <r_mmod_Van_der_Waal_Energy-OPLS-2005>
175.879196166992

> <r_mmod_Electrostatic_Energy-OPLS-2005>
-426.844909667969

> <r_mmod_Solvation_Energy-OPLS-2005>
-231.846862792969

> <b_mmod_Minimization_Converged-OPLS-2005>
0

> <r_mmod_RMS_Derivative-OPLS-2005>
4.960205078125

$$$$
92
                    3D
 Structure written by MMmdl.
156164  0  0  1  0            999 V2000
  -30.6626  -14.6174   20.5033 C   0  0  0  0  0  0
  -30.4226  -12.3797   19.4552 C   0  0  0  0  0  0
  -29.5006  -12.4985   18.2234 C   0  0  0  0  0  0
  -28.0243  -12.3423   18.6365 C   0  0  0  0  0  0
  -27.6474  -13.2217   19.8590 C   0  0  2  0  0  0
  -28.6917  -13.0989   20.9915 C   0  0  0  0  0  0
  -25.2507  -13.8162   20.5668 C   0  0  0  0  0  0
  -24.1801  -13.0423   20.9216 C   0  0  0  0  0  0
  -24.6387  -11.6903   20.8760 C   0  0  0  0  0  0
  -23.9062  -10.4284   21.0414 C   0  0  0  0  0  0
  -24.3615   -9.4199   21.9189 C   0  0  0  0  0  0
  -23.6290   -8.2236   22.0756 C   0  0  0  0  0  0
  -22.4273   -8.0275   21.3545 C   0  0  0  0  0  0
  -21.9908   -9.0249   20.4648 C   0  0  0  0  0  0
  -22.7237  -10.2129   20.3060 C   0  0  0  0  0  0
  -21.6850   -6.0732   22.5278 C   0  0  0  0  0  0
  -21.4012   -6.5637   23.8210 C   0  0  0  0  0  0
  -21.3659   -5.6791   24.9173 C   0  0  0  0  0  0
  -21.6044   -4.3054   24.7225 C   0  0  0  0  0  0
  -21.8820   -3.8145   23.4346 C   0  0  0  0  0  0
  -21.9193   -4.6960   22.3402 C   0  0  0  0  0  0
  -22.7824  -13.5214   21.1868 C   0  0  0  0  0  0
  -22.1662   -4.2146   21.0979 F   0  0  0  0  0  0
  -21.5630   -3.4538   25.7738 F   0  0  0  0  0  0
  -30.0067  -13.4184   20.4195 N   0  0  0  0  0  0
  -26.2951  -12.9370   20.3304 N   0  0  0  0  0  0
  -25.9316  -11.6520   20.5772 N   0  0  0  0  0  0
  -22.0467  -12.8209   22.0426 N   0  0  0  0  0  0
  -25.4141  -15.1870   20.3993 N   0  0  0  0  0  0
  -31.8314  -14.7145   20.1217 O   0  0  0  0  0  0
  -21.6637   -6.8874   21.4239 O   0  0  0  0  0  0
  -22.3514  -14.5520   20.6711 O   0  0  0  0  0  0
  -24.6225  -31.8605   23.2021 C   0  0  0  0  0  0
  -25.9085  -32.4781   23.8344 C   0  0  1  0  0  0
  -27.2312  -27.3451   20.1100 C   0  0  0  0  0  0
  -25.5912  -33.8582   24.2277 N   0  0  0  0  0  0
  -23.4142  -30.4824   21.5442 C   0  0  2  0  0  0
  -24.8598  -28.9341   20.1116 C   0  0  0  0  0  0
  -22.7450  -29.4625   22.4950 C   0  0  0  0  0  0
  -18.0280  -28.1382   22.8490 C   0  0  0  0  0  0
  -24.1489  -36.7296   23.2640 C   0  0  0  0  0  0
  -25.9506  -30.7991   21.3669 C   0  0  0  0  0  0
  -26.0238  -29.4265   20.7126 C   0  0  0  0  0  0
  -27.2077  -28.6404   20.7047 C   0  0  0  0  0  0
  -26.0409  -26.8849   19.5035 C   0  0  0  0  0  0
  -24.8681  -27.6675   19.5025 C   0  0  0  0  0  0
  -23.6265  -29.8121   20.1599 C   0  0  0  0  0  0
  -25.4114  -36.3087   24.0330 C   0  0  1  0  0  0
  -20.5876  -28.3676   23.1300 C   0  0  2  0  0  0
  -20.6772  -26.9403   22.5418 C   0  0  0  0  0  0
  -19.5750  -26.6383   21.5217 C   0  0  0  0  0  0
  -18.1927  -26.7927   22.1623 C   0  0  0  0  0  0
  -19.1531  -28.8847   23.2891 C   0  0  0  0  0  0
  -18.9457  -30.1453   23.8900 C   0  0  0  0  0  0
  -17.6457  -30.6586   24.0567 C   0  0  0  0  0  0
  -25.9046  -34.9456   23.5105 C   0  0  0  0  0  0
  -16.5349  -29.9086   23.6329 C   0  0  0  0  0  0
  -16.7268  -28.6504   23.0349 C   0  0  0  0  0  0
  -26.4485  -31.6587   25.0706 C   0  0  0  0  0  0
  -25.3731  -31.3715   26.1443 C   0  0  0  0  0  0
  -27.0328  -30.3021   24.6132 C   0  0  0  0  0  0
  -27.6048  -32.4322   25.7475 C   0  0  0  0  0  0
  -27.5581  -37.1802   24.8465 C   0  0  0  0  0  0
  -21.4168  -29.3032   22.3695 N   0  0  0  0  0  0
  -26.4293  -37.3779   23.9408 N   0  0  0  0  0  0
  -24.6812  -31.0640   22.0953 N   0  0  0  0  0  0
  -23.4191  -28.8174   23.3024 O   0  0  0  0  0  0
  -28.3965  -26.5773   20.1631 O   0  0  0  0  0  0
  -26.5618  -34.8923   22.4673 O   0  0  0  0  0  0
  -23.5399  -32.1392   23.7373 O   0  0  0  0  0  0
  -31.6211  -17.5034   21.1294 C   0  0  0  0  0  0
  -32.0089  -18.8418   21.2829 C   0  0  0  0  0  0
  -29.3145  -18.2297   20.7923 C   0  0  0  0  0  0
  -30.2760  -17.1473   20.8858 C   0  0  0  0  0  0
  -29.7057  -19.6257   20.9550 C   0  0  0  0  0  0
  -31.0754  -19.8901   21.2244 C   0  0  0  0  0  0
  -27.8548  -17.8721   20.5486 C   0  0  0  0  0  0
  -28.3109  -23.9685   20.5184 C   0  0  0  0  0  0
  -28.5164  -25.2320   19.5873 C   0  0  0  0  0  0
  -28.9474  -22.5947   20.0312 C   0  0  0  0  0  0
  -29.9095  -15.7247   20.8146 N   0  0  0  0  0  0
  -27.1830  -20.6649   20.5891 O   0  0  0  0  0  0
  -28.5467  -21.5374   22.4903 O   0  0  0  0  0  0
  -28.5043  -21.0793   21.0904 S   0  0  0  0  0  0
  -31.6873  -21.4716   21.5652 Cl  0  0  0  0  0  0
  -31.4670  -12.4789   19.1542 H   0  0  0  0  0  0
  -30.3372  -11.3902   19.9070 H   0  0  0  0  0  0
  -29.7629  -11.7430   17.4817 H   0  0  0  0  0  0
  -29.6485  -13.4662   17.7413 H   0  0  0  0  0  0
  -27.8604  -11.2905   18.8742 H   0  0  0  0  0  0
  -27.3698  -12.5672   17.7936 H   0  0  0  0  0  0
  -27.6603  -14.2534   19.5077 H   0  0  0  0  0  0
  -28.6976  -12.0883   21.4027 H   0  0  0  0  0  0
  -28.4438  -13.7604   21.8231 H   0  0  0  0  0  0
  -25.2760   -9.5674   22.4764 H   0  0  0  0  0  0
  -23.9998   -7.4625   22.7474 H   0  0  0  0  0  0
  -21.0841   -8.8768   19.8952 H   0  0  0  0  0  0
  -22.3697  -10.9668   19.6169 H   0  0  0  0  0  0
  -21.2003   -7.6145   23.9712 H   0  0  0  0  0  0
  -21.1481   -6.0522   25.9076 H   0  0  0  0  0  0
  -22.0600   -2.7607   23.2846 H   0  0  0  0  0  0
  -22.4084  -11.9873   22.4816 H   0  0  0  0  0  0
  -21.1084  -13.1235   22.2631 H   0  0  0  0  0  0
  -24.6305  -15.8257   20.4799 H   0  0  0  0  0  0
  -26.2273  -15.6108   19.9754 H   0  0  0  0  0  0
  -26.7150  -32.5458   23.1093 H   0  0  0  0  0  0
  -25.0071  -33.9729   25.0430 H   0  0  0  0  0  0
  -22.7068  -31.3016   21.4008 H   0  0  0  0  0  0
  -23.3752  -35.9629   23.3305 H   0  0  0  0  0  0
  -24.3582  -36.8912   22.2054 H   0  0  0  0  0  0
  -23.7242  -37.6498   23.6660 H   0  0  0  0  0  0
  -26.0759  -31.5621   20.5974 H   0  0  0  0  0  0
  -26.8339  -30.8504   21.9919 H   0  0  0  0  0  0
  -28.1045  -29.0169   21.1766 H   0  0  0  0  0  0
  -25.9858  -25.9104   19.0433 H   0  0  0  0  0  0
  -23.9707  -27.2807   19.0394 H   0  0  0  0  0  0
  -23.7429  -30.5863   19.4007 H   0  0  0  0  0  0
  -22.7471  -29.2388   19.8607 H   0  0  0  0  0  0
  -25.1295  -36.1941   25.0822 H   0  0  0  0  0  0
  -20.9969  -28.3248   24.1420 H   0  0  0  0  0  0
  -20.5678  -26.2281   23.3611 H   0  0  0  0  0  0
  -21.6642  -26.7443   22.1206 H   0  0  0  0  0  0
  -19.6912  -25.6296   21.1240 H   0  0  0  0  0  0
  -19.6693  -27.3202   20.6753 H   0  0  0  0  0  0
  -17.4201  -26.6680   21.4021 H   0  0  0  0  0  0
  -18.0322  -26.0067   22.9015 H   0  0  0  0  0  0
  -19.7934  -30.7270   24.2265 H   0  0  0  0  0  0
  -17.5013  -31.6265   24.5171 H   0  0  0  0  0  0
  -15.5349  -30.2991   23.7652 H   0  0  0  0  0  0
  -15.8667  -28.0829   22.7056 H   0  0  0  0  0  0
  -24.5907  -30.7059   25.7779 H   0  0  0  0  0  0
  -24.8921  -32.2878   26.4875 H   0  0  0  0  0  0
  -25.8069  -30.8894   27.0211 H   0  0  0  0  0  0
  -26.2888  -29.6769   24.1180 H   0  0  0  0  0  0
  -27.4074  -29.7273   25.4610 H   0  0  0  0  0  0
  -27.8733  -30.4327   23.9312 H   0  0  0  0  0  0
  -27.2659  -33.3620   26.2056 H   0  0  0  0  0  0
  -28.3856  -32.6882   25.0302 H   0  0  0  0  0  0
  -28.0719  -31.8444   26.5388 H   0  0  0  0  0  0
  -28.2599  -38.0099   24.7512 H   0  0  0  0  0  0
  -28.1075  -36.2629   24.6293 H   0  0  0  0  0  0
  -27.2298  -37.1452   25.8868 H   0  0  0  0  0  0
  -20.9340  -29.8745   21.6902 H   0  0  0  0  0  0
  -26.0176  -38.2855   24.1409 H   0  0  0  0  0  0
  -32.3925  -16.7570   21.2428 H   0  0  0  0  0  0
  -33.0440  -19.0674   21.4942 H   0  0  0  0  0  0
  -27.6889  -16.8058   20.4236 H   0  0  0  0  0  0
  -27.4953  -18.3475   19.6360 H   0  0  0  0  0  0
  -27.2351  -18.1959   21.3851 H   0  0  0  0  0  0
  -27.2421  -23.8302   20.6849 H   0  0  0  0  0  0
  -28.7298  -24.1967   21.4987 H   0  0  0  0  0  0
  -29.5497  -25.1908   19.2421 H   0  0  0  0  0  0
  -27.9368  -25.1299   18.6709 H   0  0  0  0  0  0
  -30.0275  -22.6929   19.9955 H   0  0  0  0  0  0
  -28.6381  -22.3629   19.0134 H   0  0  0  0  0  0
  -28.9374  -15.5172   20.9801 H   0  0  0  0  0  0
  1 25  1  0  0  0
  1 30  2  0  0  0
  1 81  1  0  0  0
  2  3  1  0  0  0
  2 25  1  0  0  0
  2 86  1  0  0  0
  2 87  1  0  0  0
  3  4  1  0  0  0
  3 88  1  0  0  0
  3 89  1  0  0  0
  4  5  1  0  0  0
  4 90  1  0  0  0
  4 91  1  0  0  0
  5  6  1  0  0  0
  5 26  1  0  0  0
  5 92  1  0  0  0
  6 25  1  0  0  0
  6 93  1  0  0  0
  6 94  1  0  0  0
  7  8  2  0  0  0
  7 26  1  0  0  0
  7 29  1  0  0  0
  8  9  1  0  0  0
  8 22  1  0  0  0
  9 10  1  0  0  0
  9 27  2  0  0  0
 10 11  2  0  0  0
 10 15  1  0  0  0
 11 12  1  0  0  0
 11 95  1  0  0  0
 12 13  2  0  0  0
 12 96  1  0  0  0
 13 14  1  0  0  0
 13 31  1  0  0  0
 14 15  2  0  0  0
 14 97  1  0  0  0
 15 98  1  0  0  0
 16 17  2  0  0  0
 16 21  1  0  0  0
 16 31  1  0  0  0
 17 18  1  0  0  0
 17 99  1  0  0  0
 18 19  2  0  0  0
 18100  1  0  0  0
 19 20  1  0  0  0
 19 24  1  0  0  0
 20 21  2  0  0  0
 20101  1  0  0  0
 21 23  1  0  0  0
 22 28  1  0  0  0
 22 32  2  0  0  0
 26 27  1  0  0  0
 28102  1  0  0  0
 28103  1  0  0  0
 29104  1  0  0  0
 29105  1  0  0  0
 33 34  1  0  0  0
 33 66  1  0  0  0
 33 70  2  0  0  0
 34 36  1  0  0  0
 34 59  1  0  0  0
 34106  1  0  0  0
 35 44  2  0  0  0
 35 45  1  0  0  0
 35 68  1  0  0  0
 36 56  1  0  0  0
 36107  1  0  0  0
 37 39  1  0  0  0
 37 47  1  0  0  0
 37 66  1  0  0  0
 37108  1  0  0  0
 38 43  2  0  0  0
 38 46  1  0  0  0
 38 47  1  0  0  0
 39 64  1  0  0  0
 39 67  2  0  0  0
 40 52  1  0  0  0
 40 53  2  0  0  0
 40 58  1  0  0  0
 41109  1  0  0  0
 41110  1  0  0  0
 41111  1  0  0  0
 41 48  1  0  0  0
 42 43  1  0  0  0
 42 66  1  0  0  0
 42112  1  0  0  0
 42113  1  0  0  0
 43 44  1  0  0  0
 44114  1  0  0  0
 45 46  2  0  0  0
 45115  1  0  0  0
 46116  1  0  0  0
 47117  1  0  0  0
 47118  1  0  0  0
 48 56  1  0  0  0
 48 65  1  0  0  0
 48119  1  0  0  0
 49 50  1  0  0  0
 49 53  1  0  0  0
 49 64  1  0  0  0
 49120  1  0  0  0
 50 51  1  0  0  0
 50121  1  0  0  0
 50122  1  0  0  0
 51 52  1  0  0  0
 51123  1  0  0  0
 51124  1  0  0  0
 52125  1  0  0  0
 52126  1  0  0  0
 53 54  1  0  0  0
 54 55  2  0  0  0
 54127  1  0  0  0
 55 57  1  0  0  0
 55128  1  0  0  0
 56 69  2  0  0  0
 57 58  2  0  0  0
 57129  1  0  0  0
 58130  1  0  0  0
 59 60  1  0  0  0
 59 61  1  0  0  0
 59 62  1  0  0  0
 60131  1  0  0  0
 60132  1  0  0  0
 60133  1  0  0  0
 61134  1  0  0  0
 61135  1  0  0  0
 61136  1  0  0  0
 62137  1  0  0  0
 62138  1  0  0  0
 62139  1  0  0  0
 63 65  1  0  0  0
 63140  1  0  0  0
 63141  1  0  0  0
 63142  1  0  0  0
 64143  1  0  0  0
 65144  1  0  0  0
 68 79  1  0  0  0
 71 72  2  0  0  0
 71 74  1  0  0  0
 71145  1  0  0  0
 72 76  1  0  0  0
 72146  1  0  0  0
 73 74  2  0  0  0
 73 75  1  0  0  0
 73 77  1  0  0  0
 74 81  1  0  0  0
 75 76  2  0  0  0
 75 84  1  0  0  0
 76 85  1  0  0  0
 77147  1  0  0  0
 77148  1  0  0  0
 77149  1  0  0  0
 78 79  1  0  0  0
 78 80  1  0  0  0
 78150  1  0  0  0
 78151  1  0  0  0
 79152  1  0  0  0
 79153  1  0  0  0
 80154  1  0  0  0
 80155  1  0  0  0
 80 84  1  0  0  0
 81156  1  0  0  0
 82 84  2  0  0  0
 83 84  2  0  0  0
M  ISO  4   1 100  68 101  79 101  81 100
M  END
> <chiral flag>
0

> <version>
0

> <s_m_source_file>
/data/baiqing/PycharmProjects/Reinvent-master-3.2/result/LINK_invent/BTK/process_docking_weight1_custom_product_contain_oxygen_bond_distance_aromatic_linkinvent_7_9_3/rearranged_h_0055.sdf

> <i_m_source_file_index>
93

> <r_mmod_Potential_Energy-OPLS-2005>
-38.5149574279785

> <r_mmod_Stretch_Energy-OPLS-2005>
85.1423187255859

> <r_mmod_Bend_Energy-OPLS-2005>
152.624267578125

> <r_mmod_Torsional_Energy-OPLS-2005>
213.196731567383

> <r_mmod_Improper_Torsional_Energy-OPLS-2005>
6.41204643249512

> <r_mmod_Van_der_Waal_Energy-OPLS-2005>
147.149276733398

> <r_mmod_Electrostatic_Energy-OPLS-2005>
-433.116333007812

> <r_mmod_Solvation_Energy-OPLS-2005>
-248.547668457031

> <b_mmod_Minimization_Converged-OPLS-2005>
0

> <r_mmod_RMS_Derivative-OPLS-2005>
0.295363813638687

$$$$
93
                    3D
 Structure written by MMmdl.
157165  0  0  1  0            999 V2000
  -30.7116  -14.4111   20.5891 C   0  0  0  0  0  0
  -30.4170  -12.2719   19.4151 C   0  0  0  0  0  0
  -29.4937  -12.5095   18.2022 C   0  0  0  0  0  0
  -28.0102  -12.3856   18.6069 C   0  0  0  0  0  0
  -27.6658  -13.2045   19.8789 C   0  0  2  0  0  0
  -28.7011  -12.9476   20.9974 C   0  0  0  0  0  0
  -25.2619  -13.8152   20.5660 C   0  0  0  0  0  0
  -24.1855  -13.0439   20.9171 C   0  0  0  0  0  0
  -24.6403  -11.6908   20.8721 C   0  0  0  0  0  0
  -23.9074  -10.4293   21.0397 C   0  0  0  0  0  0
  -24.3620   -9.4209   21.9177 C   0  0  0  0  0  0
  -23.6294   -8.2246   22.0751 C   0  0  0  0  0  0
  -22.4284   -8.0279   21.3539 C   0  0  0  0  0  0
  -21.9913   -9.0258   20.4650 C   0  0  0  0  0  0
  -22.7240  -10.2135   20.3054 C   0  0  0  0  0  0
  -21.6855   -6.0737   22.5278 C   0  0  0  0  0  0
  -21.4024   -6.5644   23.8209 C   0  0  0  0  0  0
  -21.3658   -5.6796   24.9176 C   0  0  0  0  0  0
  -21.6037   -4.3059   24.7224 C   0  0  0  0  0  0
  -21.8824   -3.8147   23.4348 C   0  0  0  0  0  0
  -21.9197   -4.6964   22.3405 C   0  0  0  0  0  0
  -22.7882  -13.5256   21.1830 C   0  0  0  0  0  0
  -22.1671   -4.2139   21.0988 F   0  0  0  0  0  0
  -21.5614   -3.4552   25.7746 F   0  0  0  0  0  0
  -30.0429  -13.2369   20.4585 N   0  0  0  0  0  0
  -26.3043  -12.9310   20.3346 N   0  0  0  0  0  0
  -25.9328  -11.6480   20.5744 N   0  0  0  0  0  0
  -22.0518  -12.8249   22.0387 N   0  0  0  0  0  0
  -25.4371  -15.1860   20.4048 N   0  0  0  0  0  0
  -31.8204  -14.6082   20.0830 O   0  0  0  0  0  0
  -21.6642   -6.8879   21.4240 O   0  0  0  0  0  0
  -22.3584  -14.5566   20.6685 O   0  0  0  0  0  0
  -24.6142  -31.8730   23.2120 C   0  0  0  0  0  0
  -25.9049  -32.4846   23.8408 C   0  0  1  0  0  0
  -27.2264  -27.4576   20.0730 C   0  0  0  0  0  0
  -25.5919  -33.8643   24.2353 N   0  0  0  0  0  0
  -23.4004  -30.4988   21.5524 C   0  0  2  0  0  0
  -24.8396  -28.9706   20.1155 C   0  0  0  0  0  0
  -22.7454  -29.4680   22.5006 C   0  0  0  0  0  0
  -18.0301  -28.1396   22.8480 C   0  0  0  0  0  0
  -24.1496  -36.7316   23.2638 C   0  0  0  0  0  0
  -25.9288  -30.8427   21.3623 C   0  0  0  0  0  0
  -26.0000  -29.4776   20.7128 C   0  0  0  0  0  0
  -27.1929  -28.7248   20.6950 C   0  0  0  0  0  0
  -26.0386  -26.9590   19.4834 C   0  0  0  0  0  0
  -24.8511  -27.7072   19.5064 C   0  0  0  0  0  0
  -23.6043  -29.8352   20.1646 C   0  0  0  0  0  0
  -25.4119  -36.3125   24.0344 C   0  0  1  0  0  0
  -20.5903  -28.3642   23.1337 C   0  0  2  0  0  0
  -20.6784  -26.9415   22.5374 C   0  0  0  0  0  0
  -19.5789  -26.6517   21.5129 C   0  0  0  0  0  0
  -18.1931  -26.7997   22.1507 C   0  0  0  0  0  0
  -19.1556  -28.8823   23.2929 C   0  0  0  0  0  0
  -18.9489  -30.1418   23.8960 C   0  0  0  0  0  0
  -17.6491  -30.6574   24.0618 C   0  0  0  0  0  0
  -25.9057  -34.9487   23.5139 C   0  0  0  0  0  0
  -16.5368  -29.9093   23.6362 C   0  0  0  0  0  0
  -16.7296  -28.6532   23.0347 C   0  0  0  0  0  0
  -26.4487  -31.6607   25.0712 C   0  0  0  0  0  0
  -25.3750  -31.3689   26.1446 C   0  0  0  0  0  0
  -27.0319  -30.3071   24.6038 C   0  0  0  0  0  0
  -27.6103  -32.4275   25.7462 C   0  0  0  0  0  0
  -27.5595  -37.1809   24.8469 C   0  0  0  0  0  0
  -21.4180  -29.3050   22.3784 N   0  0  0  0  0  0
  -26.4314  -37.3799   23.9408 N   0  0  0  0  0  0
  -24.6660  -31.0863   22.1000 N   0  0  0  0  0  0
  -23.4254  -28.8188   23.3007 O   0  0  0  0  0  0
  -28.4236  -26.7712   20.0663 O   0  0  0  0  0  0
  -26.5611  -34.8916   22.4693 O   0  0  0  0  0  0
  -23.5335  -32.1485   23.7524 O   0  0  0  0  0  0
  -28.7517  -17.4272   21.0401 C   0  0  0  0  0  0
  -29.7471  -19.4713   20.1590 C   0  0  0  0  0  0
  -31.1042  -17.4657   20.3980 C   0  0  0  0  0  0
  -28.6183  -18.7813   20.6648 C   0  0  0  0  0  0
  -29.9848  -16.7515   20.8907 C   0  0  0  0  0  0
  -30.9816  -18.8159   20.0284 C   0  0  0  0  0  0
  -27.2013  -21.9473   20.6237 C   0  0  0  0  0  0
  -27.2614  -19.4680   20.8042 C   0  0  0  0  0  0
  -27.5617  -23.0971   19.6832 C   0  0  0  0  0  0
  -27.8667  -24.4161   20.4135 C   0  0  0  0  0  0
  -28.4720  -25.4737   19.4759 C   0  0  0  0  0  0
  -30.0340  -15.3719   21.2406 N   0  0  0  0  0  0
  -27.1946  -20.7303   20.0751 N   0  0  0  0  0  0
  -26.9869  -22.1431   21.8222 O   0  0  0  0  0  0
  -32.0517  -19.4882   19.5416 F   0  0  0  0  0  0
  -31.4628  -12.3613   19.1164 H   0  0  0  0  0  0
  -30.3021  -11.2539   19.7909 H   0  0  0  0  0  0
  -29.7256  -11.7998   17.4069 H   0  0  0  0  0  0
  -29.6761  -13.5019   17.7868 H   0  0  0  0  0  0
  -27.7982  -11.3289   18.7752 H   0  0  0  0  0  0
  -27.3697  -12.6973   17.7817 H   0  0  0  0  0  0
  -27.7228  -14.2592   19.6060 H   0  0  0  0  0  0
  -28.6589  -11.9050   21.3156 H   0  0  0  0  0  0
  -28.4587  -13.5246   21.8925 H   0  0  0  0  0  0
  -25.2758   -9.5687   22.4758 H   0  0  0  0  0  0
  -23.9999   -7.4636   22.7467 H   0  0  0  0  0  0
  -21.0842   -8.8787   19.8958 H   0  0  0  0  0  0
  -22.3694  -10.9684   19.6175 H   0  0  0  0  0  0
  -21.2034   -7.6151   23.9723 H   0  0  0  0  0  0
  -21.1468   -6.0523   25.9077 H   0  0  0  0  0  0
  -22.0607   -2.7608   23.2858 H   0  0  0  0  0  0
  -22.4156  -11.9915   22.4748 H   0  0  0  0  0  0
  -21.1133  -13.1261   22.2606 H   0  0  0  0  0  0
  -24.6669  -15.8380   20.5015 H   0  0  0  0  0  0
  -26.2762  -15.6087   20.0276 H   0  0  0  0  0  0
  -26.7130  -32.5547   23.1182 H   0  0  0  0  0  0
  -25.0064  -33.9820   25.0491 H   0  0  0  0  0  0
  -22.6870  -31.3141   21.4139 H   0  0  0  0  0  0
  -23.3750  -35.9658   23.3325 H   0  0  0  0  0  0
  -24.3598  -36.8895   22.2047 H   0  0  0  0  0  0
  -23.7238  -37.6527   23.6634 H   0  0  0  0  0  0
  -26.0369  -31.6067   20.5914 H   0  0  0  0  0  0
  -26.8239  -30.9013   21.9717 H   0  0  0  0  0  0
  -28.0933  -29.1162   21.1499 H   0  0  0  0  0  0
  -25.9920  -25.9973   18.9957 H   0  0  0  0  0  0
  -23.9551  -27.3093   19.0493 H   0  0  0  0  0  0
  -23.7084  -30.6091   19.4031 H   0  0  0  0  0  0
  -22.7297  -29.2519   19.8728 H   0  0  0  0  0  0
  -25.1278  -36.2032   25.0843 H   0  0  0  0  0  0
  -20.9997  -28.3180   24.1463 H   0  0  0  0  0  0
  -20.5649  -26.2209   23.3487 H   0  0  0  0  0  0
  -21.6649  -26.7521   22.1143 H   0  0  0  0  0  0
  -19.6969  -25.6510   21.0961 H   0  0  0  0  0  0
  -19.6761  -27.3493   20.6803 H   0  0  0  0  0  0
  -17.4190  -26.6838   21.3883 H   0  0  0  0  0  0
  -18.0268  -26.0061   22.8799 H   0  0  0  0  0  0
  -19.7983  -30.7198   24.2332 H   0  0  0  0  0  0
  -17.5024  -31.6280   24.5180 H   0  0  0  0  0  0
  -15.5353  -30.2990   23.7652 H   0  0  0  0  0  0
  -15.8699  -28.0871   22.7045 H   0  0  0  0  0  0
  -24.5952  -30.7024   25.7737 H   0  0  0  0  0  0
  -24.8898  -32.2832   26.4882 H   0  0  0  0  0  0
  -25.8084  -30.8847   27.0209 H   0  0  0  0  0  0
  -26.2844  -29.6820   24.1141 H   0  0  0  0  0  0
  -27.4207  -29.7312   25.4450 H   0  0  0  0  0  0
  -27.8630  -30.4438   23.9111 H   0  0  0  0  0  0
  -27.2806  -33.3578   26.2102 H   0  0  0  0  0  0
  -28.3889  -32.6812   25.0252 H   0  0  0  0  0  0
  -28.0810  -31.8331   26.5313 H   0  0  0  0  0  0
  -28.2618  -38.0098   24.7501 H   0  0  0  0  0  0
  -28.1085  -36.2625   24.6321 H   0  0  0  0  0  0
  -27.2310  -37.1477   25.8871 H   0  0  0  0  0  0
  -20.9311  -29.8946   21.7177 H   0  0  0  0  0  0
  -26.0216  -38.2896   24.1359 H   0  0  0  0  0  0
  -27.8868  -16.9018   21.4231 H   0  0  0  0  0  0
  -29.6942  -20.5086   19.8649 H   0  0  0  0  0  0
  -32.0701  -16.9978   20.2851 H   0  0  0  0  0  0
  -27.0488  -19.6049   21.8668 H   0  0  0  0  0  0
  -26.4794  -18.8096   20.4203 H   0  0  0  0  0  0
  -26.7499  -23.2474   18.9696 H   0  0  0  0  0  0
  -28.4359  -22.7955   19.1030 H   0  0  0  0  0  0
  -28.5512  -24.2500   21.2473 H   0  0  0  0  0  0
  -26.9410  -24.7821   20.8571 H   0  0  0  0  0  0
  -28.0061  -25.4677   18.4904 H   0  0  0  0  0  0
  -29.5195  -25.2279   19.2967 H   0  0  0  0  0  0
  -29.2176  -15.0195   21.7163 H   0  0  0  0  0  0
  -27.3348  -20.6753   19.0748 H   0  0  0  0  0  0
  1 25  1  0  0  0
  1 30  2  0  0  0
  1 82  1  0  0  0
  2  3  1  0  0  0
  2 25  1  0  0  0
  2 86  1  0  0  0
  2 87  1  0  0  0
  3  4  1  0  0  0
  3 88  1  0  0  0
  3 89  1  0  0  0
  4  5  1  0  0  0
  4 90  1  0  0  0
  4 91  1  0  0  0
  5  6  1  0  0  0
  5 26  1  0  0  0
  5 92  1  0  0  0
  6 25  1  0  0  0
  6 93  1  0  0  0
  6 94  1  0  0  0
  7  8  2  0  0  0
  7 26  1  0  0  0
  7 29  1  0  0  0
  8  9  1  0  0  0
  8 22  1  0  0  0
  9 10  1  0  0  0
  9 27  2  0  0  0
 10 11  2  0  0  0
 10 15  1  0  0  0
 11 12  1  0  0  0
 11 95  1  0  0  0
 12 13  2  0  0  0
 12 96  1  0  0  0
 13 14  1  0  0  0
 13 31  1  0  0  0
 14 15  2  0  0  0
 14 97  1  0  0  0
 15 98  1  0  0  0
 16 17  2  0  0  0
 16 21  1  0  0  0
 16 31  1  0  0  0
 17 18  1  0  0  0
 17 99  1  0  0  0
 18 19  2  0  0  0
 18100  1  0  0  0
 19 20  1  0  0  0
 19 24  1  0  0  0
 20 21  2  0  0  0
 20101  1  0  0  0
 21 23  1  0  0  0
 22 28  1  0  0  0
 22 32  2  0  0  0
 26 27  1  0  0  0
 28102  1  0  0  0
 28103  1  0  0  0
 29104  1  0  0  0
 29105  1  0  0  0
 33 34  1  0  0  0
 33 66  1  0  0  0
 33 70  2  0  0  0
 34 36  1  0  0  0
 34 59  1  0  0  0
 34106  1  0  0  0
 35 44  2  0  0  0
 35 45  1  0  0  0
 35 68  1  0  0  0
 36 56  1  0  0  0
 36107  1  0  0  0
 37 39  1  0  0  0
 37 47  1  0  0  0
 37 66  1  0  0  0
 37108  1  0  0  0
 38 43  2  0  0  0
 38 46  1  0  0  0
 38 47  1  0  0  0
 39 64  1  0  0  0
 39 67  2  0  0  0
 40 52  1  0  0  0
 40 53  2  0  0  0
 40 58  1  0  0  0
 41109  1  0  0  0
 41110  1  0  0  0
 41111  1  0  0  0
 41 48  1  0  0  0
 42 43  1  0  0  0
 42 66  1  0  0  0
 42112  1  0  0  0
 42113  1  0  0  0
 43 44  1  0  0  0
 44114  1  0  0  0
 45 46  2  0  0  0
 45115  1  0  0  0
 46116  1  0  0  0
 47117  1  0  0  0
 47118  1  0  0  0
 48 56  1  0  0  0
 48 65  1  0  0  0
 48119  1  0  0  0
 49 50  1  0  0  0
 49 53  1  0  0  0
 49 64  1  0  0  0
 49120  1  0  0  0
 50 51  1  0  0  0
 50121  1  0  0  0
 50122  1  0  0  0
 51 52  1  0  0  0
 51123  1  0  0  0
 51124  1  0  0  0
 52125  1  0  0  0
 52126  1  0  0  0
 53 54  1  0  0  0
 54 55  2  0  0  0
 54127  1  0  0  0
 55 57  1  0  0  0
 55128  1  0  0  0
 56 69  2  0  0  0
 57 58  2  0  0  0
 57129  1  0  0  0
 58130  1  0  0  0
 59 60  1  0  0  0
 59 61  1  0  0  0
 59 62  1  0  0  0
 60131  1  0  0  0
 60132  1  0  0  0
 60133  1  0  0  0
 61134  1  0  0  0
 61135  1  0  0  0
 61136  1  0  0  0
 62137  1  0  0  0
 62138  1  0  0  0
 62139  1  0  0  0
 63 65  1  0  0  0
 63140  1  0  0  0
 63141  1  0  0  0
 63142  1  0  0  0
 64143  1  0  0  0
 65144  1  0  0  0
 68 81  1  0  0  0
 71 74  2  0  0  0
 71 75  1  0  0  0
 71145  1  0  0  0
 72 74  1  0  0  0
 72 76  2  0  0  0
 72146  1  0  0  0
 73 75  2  0  0  0
 73 76  1  0  0  0
 73147  1  0  0  0
 74 78  1  0  0  0
 75 82  1  0  0  0
 76 85  1  0  0  0
 77 79  1  0  0  0
 77 83  1  0  0  0
 77 84  2  0  0  0
 78 83  1  0  0  0
 78148  1  0  0  0
 78149  1  0  0  0
 79 80  1  0  0  0
 79150  1  0  0  0
 79151  1  0  0  0
 80 81  1  0  0  0
 80152  1  0  0  0
 80153  1  0  0  0
 81154  1  0  0  0
 81155  1  0  0  0
 82156  1  0  0  0
 83157  1  0  0  0
M  ISO  4   1 100  68 101  81 101  82 100
M  END
> <chiral flag>
0

> <version>
0

> <s_m_source_file>
/data/baiqing/PycharmProjects/Reinvent-master-3.2/result/LINK_invent/BTK/process_docking_weight1_custom_product_contain_oxygen_bond_distance_aromatic_linkinvent_7_9_3/rearranged_h_0055.sdf

> <i_m_source_file_index>
94

> <r_mmod_Potential_Energy-OPLS-2005>
-183.243743896484

> <r_mmod_Stretch_Energy-OPLS-2005>
32.83154296875

> <r_mmod_Bend_Energy-OPLS-2005>
94.1411285400391

> <r_mmod_Torsional_Energy-OPLS-2005>
205.878570556641

> <r_mmod_Improper_Torsional_Energy-OPLS-2005>
5.25641345977783

> <r_mmod_Van_der_Waal_Energy-OPLS-2005>
167.530746459961

> <r_mmod_Electrostatic_Energy-OPLS-2005>
-458.756195068359

> <r_mmod_Solvation_Energy-OPLS-2005>
-239.649063110352

> <b_mmod_Minimization_Converged-OPLS-2005>
0

> <r_mmod_RMS_Derivative-OPLS-2005>
2.87759947776794

$$$$
94
                    3D
 Structure written by MMmdl.
157165  0  0  1  0            999 V2000
  -30.6207  -14.6468   20.5133 C   0  0  0  0  0  0
  -30.4437  -12.4016   19.4522 C   0  0  0  0  0  0
  -29.5124  -12.5248   18.2243 C   0  0  0  0  0  0
  -28.0357  -12.3514   18.6354 C   0  0  0  0  0  0
  -27.6559  -13.2183   19.8655 C   0  0  2  0  0  0
  -28.7000  -13.0661   20.9961 C   0  0  0  0  0  0
  -25.2570  -13.8176   20.5689 C   0  0  0  0  0  0
  -24.1829  -13.0449   20.9181 C   0  0  0  0  0  0
  -24.6388  -11.6913   20.8717 C   0  0  0  0  0  0
  -23.9055  -10.4297   21.0393 C   0  0  0  0  0  0
  -24.3606   -9.4219   21.9176 C   0  0  0  0  0  0
  -23.6276   -8.2256   22.0759 C   0  0  0  0  0  0
  -22.4256   -8.0287   21.3554 C   0  0  0  0  0  0
  -21.9895   -9.0258   20.4654 C   0  0  0  0  0  0
  -22.7226  -10.2135   20.3047 C   0  0  0  0  0  0
  -21.6853   -6.0733   22.5272 C   0  0  0  0  0  0
  -21.4028   -6.5637   23.8209 C   0  0  0  0  0  0
  -21.3661   -5.6787   24.9173 C   0  0  0  0  0  0
  -21.6034   -4.3046   24.7219 C   0  0  0  0  0  0
  -21.8819   -3.8145   23.4339 C   0  0  0  0  0  0
  -21.9198   -4.6965   22.3399 C   0  0  0  0  0  0
  -22.7845  -13.5242   21.1834 C   0  0  0  0  0  0
  -22.1656   -4.2155   21.0978 F   0  0  0  0  0  0
  -21.5631   -3.4529   25.7728 F   0  0  0  0  0  0
  -30.0167  -13.4164   20.4383 N   0  0  0  0  0  0
  -26.2996  -12.9359   20.3312 N   0  0  0  0  0  0
  -25.9318  -11.6507   20.5714 N   0  0  0  0  0  0
  -22.0473  -12.8249   22.0394 N   0  0  0  0  0  0
  -25.4299  -15.1892   20.4131 N   0  0  0  0  0  0
  -31.7730  -14.8176   20.1050 O   0  0  0  0  0  0
  -21.6635   -6.8872   21.4233 O   0  0  0  0  0  0
  -22.3526  -14.5541   20.6673 O   0  0  0  0  0  0
  -24.6265  -31.8584   23.2022 C   0  0  0  0  0  0
  -25.9111  -32.4763   23.8354 C   0  0  1  0  0  0
  -27.2255  -27.3099   20.1112 C   0  0  0  0  0  0
  -25.5921  -33.8564   24.2273 N   0  0  0  0  0  0
  -23.4199  -30.4834   21.5462 C   0  0  2  0  0  0
  -24.8657  -28.9399   20.1108 C   0  0  0  0  0  0
  -22.7463  -29.4622   22.4932 C   0  0  0  0  0  0
  -18.0280  -28.1385   22.8495 C   0  0  0  0  0  0
  -24.1477  -36.7274   23.2645 C   0  0  0  0  0  0
  -25.9629  -30.7840   21.3781 C   0  0  0  0  0  0
  -26.0352  -29.4124   20.7180 C   0  0  0  0  0  0
  -27.2147  -28.6090   20.7111 C   0  0  0  0  0  0
  -26.0269  -26.8951   19.4811 C   0  0  0  0  0  0
  -24.8640  -27.6857   19.4853 C   0  0  0  0  0  0
  -23.6346  -29.8210   20.1611 C   0  0  0  0  0  0
  -25.4101  -36.3061   24.0333 C   0  0  1  0  0  0
  -20.5882  -28.3691   23.1282 C   0  0  2  0  0  0
  -20.6768  -26.9413   22.5412 C   0  0  0  0  0  0
  -19.5748  -26.6397   21.5209 C   0  0  0  0  0  0
  -18.1929  -26.7933   22.1626 C   0  0  0  0  0  0
  -19.1536  -28.8856   23.2890 C   0  0  0  0  0  0
  -18.9459  -30.1455   23.8914 C   0  0  0  0  0  0
  -17.6462  -30.6594   24.0566 C   0  0  0  0  0  0
  -25.9048  -34.9441   23.5100 C   0  0  0  0  0  0
  -16.5351  -29.9100   23.6321 C   0  0  0  0  0  0
  -16.7272  -28.6509   23.0359 C   0  0  0  0  0  0
  -26.4499  -31.6582   25.0731 C   0  0  0  0  0  0
  -25.3727  -31.3730   26.1455 C   0  0  0  0  0  0
  -27.0342  -30.2998   24.6209 C   0  0  0  0  0  0
  -27.6054  -32.4322   25.7503 C   0  0  0  0  0  0
  -27.5565  -37.1782   24.8465 C   0  0  0  0  0  0
  -21.4179  -29.3040   22.3670 N   0  0  0  0  0  0
  -26.4271  -37.3759   23.9418 N   0  0  0  0  0  0
  -24.6889  -31.0585   22.0989 N   0  0  0  0  0  0
  -23.4180  -28.8167   23.3024 O   0  0  0  0  0  0
  -28.3520  -26.4642   20.1732 O   0  0  0  0  0  0
  -26.5627  -34.8907   22.4671 O   0  0  0  0  0  0
  -23.5425  -32.1406   23.7326 O   0  0  0  0  0  0
  -30.8827  -19.3018   20.0839 C   0  0  0  0  0  0
  -30.8884  -17.8736   20.1176 C   0  0  0  0  0  0
  -28.9096  -17.9345   21.4732 C   0  0  0  0  0  0
  -29.9082  -20.0954   20.7568 C   0  0  0  0  0  0
  -28.9006  -19.3689   21.4596 C   0  0  0  0  0  0
  -29.9044  -17.1437   20.8324 C   0  0  0  0  0  0
  -29.2460  -24.0423   20.4940 C   0  0  0  0  0  0
  -28.4896  -24.9621   18.2523 C   0  0  0  0  0  0
  -30.1115  -21.6614   20.8599 C   0  0  0  0  0  0
  -28.2437  -25.0334   19.7709 C   0  0  2  0  0  0
  -27.8190  -20.1122   22.2448 C   0  0  0  0  0  0
  -29.8204  -15.6803   20.9338 N   0  0  0  0  0  0
  -29.1330  -22.6786   20.3374 N   0  0  0  0  0  0
  -30.1497  -24.5185   21.1848 O   0  0  0  0  0  0
  -27.0023  -19.2776   22.8899 F   0  0  0  0  0  0
  -28.3707  -20.9165   23.1532 F   0  0  0  0  0  0
  -27.0806  -20.8454   21.4122 F   0  0  0  0  0  0
  -31.4857  -12.5298   19.1531 H   0  0  0  0  0  0
  -30.3802  -11.4019   19.8837 H   0  0  0  0  0  0
  -29.7819  -11.7874   17.4675 H   0  0  0  0  0  0
  -29.6486  -13.5026   17.7603 H   0  0  0  0  0  0
  -27.8763  -11.2973   18.8638 H   0  0  0  0  0  0
  -27.3799  -12.5846   17.7950 H   0  0  0  0  0  0
  -27.6770  -14.2546   19.5278 H   0  0  0  0  0  0
  -28.7115  -12.0415   21.3694 H   0  0  0  0  0  0
  -28.4411  -13.6854   21.8560 H   0  0  0  0  0  0
  -25.2759   -9.5705   22.4739 H   0  0  0  0  0  0
  -24.0004   -7.4650   22.7475 H   0  0  0  0  0  0
  -21.0832   -8.8761   19.8948 H   0  0  0  0  0  0
  -22.3682  -10.9663   19.6141 H   0  0  0  0  0  0
  -21.2024   -7.6142   23.9711 H   0  0  0  0  0  0
  -21.1478   -6.0519   25.9074 H   0  0  0  0  0  0
  -22.0598   -2.7608   23.2831 H   0  0  0  0  0  0
  -22.4073  -11.9924   22.4814 H   0  0  0  0  0  0
  -21.1085  -13.1282   22.2567 H   0  0  0  0  0  0
  -24.6657  -15.8450   20.5329 H   0  0  0  0  0  0
  -26.2749  -15.6271   20.0688 H   0  0  0  0  0  0
  -26.7170  -32.5432   23.1090 H   0  0  0  0  0  0
  -25.0027  -33.9715   25.0387 H   0  0  0  0  0  0
  -22.7140  -31.3043   21.4038 H   0  0  0  0  0  0
  -23.3740  -35.9604   23.3306 H   0  0  0  0  0  0
  -24.3569  -36.8902   22.2060 H   0  0  0  0  0  0
  -23.7228  -37.6475   23.6672 H   0  0  0  0  0  0
  -26.0963  -31.5471   20.6103 H   0  0  0  0  0  0
  -26.8422  -30.8307   22.0098 H   0  0  0  0  0  0
  -28.1089  -28.9689   21.2006 H   0  0  0  0  0  0
  -25.9443  -25.9418   18.9831 H   0  0  0  0  0  0
  -23.9676  -27.3142   19.0079 H   0  0  0  0  0  0
  -23.7530  -30.5992   19.4059 H   0  0  0  0  0  0
  -22.7536  -29.2524   19.8576 H   0  0  0  0  0  0
  -25.1267  -36.1909   25.0823 H   0  0  0  0  0  0
  -20.9972  -28.3274   24.1403 H   0  0  0  0  0  0
  -20.5658  -26.2305   23.3613 H   0  0  0  0  0  0
  -21.6642  -26.7435   22.1217 H   0  0  0  0  0  0
  -19.6908  -25.6309   21.1247 H   0  0  0  0  0  0
  -19.6688  -27.3200   20.6731 H   0  0  0  0  0  0
  -17.4187  -26.6674   21.4039 H   0  0  0  0  0  0
  -18.0336  -26.0078   22.9029 H   0  0  0  0  0  0
  -19.7938  -30.7260   24.2305 H   0  0  0  0  0  0
  -17.5019  -31.6275   24.5165 H   0  0  0  0  0  0
  -15.5355  -30.3010   23.7631 H   0  0  0  0  0  0
  -15.8669  -28.0827   22.7076 H   0  0  0  0  0  0
  -24.5888  -30.7098   25.7780 H   0  0  0  0  0  0
  -24.8936  -32.2906   26.4878 H   0  0  0  0  0  0
  -25.8047  -30.8905   27.0232 H   0  0  0  0  0  0
  -26.2922  -29.6755   24.1222 H   0  0  0  0  0  0
  -27.4011  -29.7251   25.4724 H   0  0  0  0  0  0
  -27.8801  -30.4269   23.9448 H   0  0  0  0  0  0
  -27.2657  -33.3619   26.2074 H   0  0  0  0  0  0
  -28.3862  -32.6895   25.0334 H   0  0  0  0  0  0
  -28.0725  -31.8462   26.5429 H   0  0  0  0  0  0
  -28.2569  -38.0090   24.7505 H   0  0  0  0  0  0
  -28.1070  -36.2616   24.6280 H   0  0  0  0  0  0
  -27.2294  -37.1417   25.8874 H   0  0  0  0  0  0
  -20.9342  -29.8770   21.6891 H   0  0  0  0  0  0
  -26.0151  -38.2827   24.1446 H   0  0  0  0  0  0
  -31.6846  -19.7971   19.5541 H   0  0  0  0  0  0
  -31.6756  -17.3509   19.5918 H   0  0  0  0  0  0
  -28.1330  -17.4231   22.0221 H   0  0  0  0  0  0
  -28.3974  -23.9425   17.8781 H   0  0  0  0  0  0
  -29.4913  -25.3153   18.0045 H   0  0  0  0  0  0
  -27.7860  -25.5751   17.6922 H   0  0  0  0  0  0
  -31.0671  -21.8908   20.3859 H   0  0  0  0  0  0
  -30.2863  -21.8834   21.9135 H   0  0  0  0  0  0
  -27.2554  -24.6458   20.0185 H   0  0  0  0  0  0
  -28.9508  -15.3436   21.3169 H   0  0  0  0  0  0
  -28.3690  -22.3371   19.7709 H   0  0  0  0  0  0
  1 25  1  0  0  0
  1 30  2  0  0  0
  1 82  1  0  0  0
  2  3  1  0  0  0
  2 25  1  0  0  0
  2 88  1  0  0  0
  2 89  1  0  0  0
  3  4  1  0  0  0
  3 90  1  0  0  0
  3 91  1  0  0  0
  4  5  1  0  0  0
  4 92  1  0  0  0
  4 93  1  0  0  0
  5  6  1  0  0  0
  5 26  1  0  0  0
  5 94  1  0  0  0
  6 25  1  0  0  0
  6 95  1  0  0  0
  6 96  1  0  0  0
  7  8  2  0  0  0
  7 26  1  0  0  0
  7 29  1  0  0  0
  8  9  1  0  0  0
  8 22  1  0  0  0
  9 10  1  0  0  0
  9 27  2  0  0  0
 10 11  2  0  0  0
 10 15  1  0  0  0
 11 12  1  0  0  0
 11 97  1  0  0  0
 12 13  2  0  0  0
 12 98  1  0  0  0
 13 14  1  0  0  0
 13 31  1  0  0  0
 14 15  2  0  0  0
 14 99  1  0  0  0
 15100  1  0  0  0
 16 17  2  0  0  0
 16 21  1  0  0  0
 16 31  1  0  0  0
 17 18  1  0  0  0
 17101  1  0  0  0
 18 19  2  0  0  0
 18102  1  0  0  0
 19 20  1  0  0  0
 19 24  1  0  0  0
 20 21  2  0  0  0
 20103  1  0  0  0
 21 23  1  0  0  0
 22 28  1  0  0  0
 22 32  2  0  0  0
 26 27  1  0  0  0
 28104  1  0  0  0
 28105  1  0  0  0
 29106  1  0  0  0
 29107  1  0  0  0
 33 34  1  0  0  0
 33 66  1  0  0  0
 33 70  2  0  0  0
 34 36  1  0  0  0
 34 59  1  0  0  0
 34108  1  0  0  0
 35 44  2  0  0  0
 35 45  1  0  0  0
 35 68  1  0  0  0
 36 56  1  0  0  0
 36109  1  0  0  0
 37 39  1  0  0  0
 37 47  1  0  0  0
 37 66  1  0  0  0
 37110  1  0  0  0
 38 43  2  0  0  0
 38 46  1  0  0  0
 38 47  1  0  0  0
 39 64  1  0  0  0
 39 67  2  0  0  0
 40 52  1  0  0  0
 40 53  2  0  0  0
 40 58  1  0  0  0
 41111  1  0  0  0
 41112  1  0  0  0
 41113  1  0  0  0
 41 48  1  0  0  0
 42 43  1  0  0  0
 42 66  1  0  0  0
 42114  1  0  0  0
 42115  1  0  0  0
 43 44  1  0  0  0
 44116  1  0  0  0
 45 46  2  0  0  0
 45117  1  0  0  0
 46118  1  0  0  0
 47119  1  0  0  0
 47120  1  0  0  0
 48 56  1  0  0  0
 48 65  1  0  0  0
 48121  1  0  0  0
 49 50  1  0  0  0
 49 53  1  0  0  0
 49 64  1  0  0  0
 49122  1  0  0  0
 50 51  1  0  0  0
 50123  1  0  0  0
 50124  1  0  0  0
 51 52  1  0  0  0
 51125  1  0  0  0
 51126  1  0  0  0
 52127  1  0  0  0
 52128  1  0  0  0
 53 54  1  0  0  0
 54 55  2  0  0  0
 54129  1  0  0  0
 55 57  1  0  0  0
 55130  1  0  0  0
 56 69  2  0  0  0
 57 58  2  0  0  0
 57131  1  0  0  0
 58132  1  0  0  0
 59 60  1  0  0  0
 59 61  1  0  0  0
 59 62  1  0  0  0
 60133  1  0  0  0
 60134  1  0  0  0
 60135  1  0  0  0
 61136  1  0  0  0
 61137  1  0  0  0
 61138  1  0  0  0
 62139  1  0  0  0
 62140  1  0  0  0
 62141  1  0  0  0
 63 65  1  0  0  0
 63142  1  0  0  0
 63143  1  0  0  0
 63144  1  0  0  0
 64145  1  0  0  0
 65146  1  0  0  0
 68 80  1  0  0  0
 71 72  2  0  0  0
 71 74  1  0  0  0
 71147  1  0  0  0
 72 76  1  0  0  0
 72148  1  0  0  0
 73 75  1  0  0  0
 73 76  2  0  0  0
 73149  1  0  0  0
 74 75  2  0  0  0
 74 79  1  0  0  0
 75 81  1  0  0  0
 76 82  1  0  0  0
 77 80  1  0  0  0
 77 83  1  0  0  0
 77 84  2  0  0  0
 78150  1  0  0  0
 78151  1  0  0  0
 78152  1  0  0  0
 78 80  1  0  0  0
 79 83  1  0  0  0
 79153  1  0  0  0
 79154  1  0  0  0
 80155  1  0  0  0
 81 85  1  0  0  0
 81 86  1  0  0  0
 81 87  1  0  0  0
 82156  1  0  0  0
 83157  1  0  0  0
M  ISO  4   1 100  68 101  80 101  82 100
M  END
> <chiral flag>
0

> <version>
0

> <s_m_source_file>
/data/baiqing/PycharmProjects/Reinvent-master-3.2/result/LINK_invent/BTK/process_docking_weight1_custom_product_contain_oxygen_bond_distance_aromatic_linkinvent_7_9_3/rearranged_h_0055.sdf

> <i_m_source_file_index>
95

> <r_mmod_Potential_Energy-OPLS-2005>
17.8713703155518

> <r_mmod_Stretch_Energy-OPLS-2005>
86.4723968505859

> <r_mmod_Bend_Energy-OPLS-2005>
145.911209106445

> <r_mmod_Torsional_Energy-OPLS-2005>
216.544723510742

> <r_mmod_Improper_Torsional_Energy-OPLS-2005>
4.46616744995117

> <r_mmod_Van_der_Waal_Energy-OPLS-2005>
148.59309387207

> <r_mmod_Electrostatic_Energy-OPLS-2005>
-400.338836669922

> <r_mmod_Solvation_Energy-OPLS-2005>
-234.518142700195

> <b_mmod_Minimization_Converged-OPLS-2005>
0

> <r_mmod_RMS_Derivative-OPLS-2005>
1.67025184631348

$$$$
95
                    3D
 Structure written by MMmdl.
158166  0  0  1  0            999 V2000
  -30.7055  -14.4384   20.5325 C   0  0  0  0  0  0
  -30.4136  -12.2682   19.4341 C   0  0  0  0  0  0
  -29.4945  -12.4910   18.2144 C   0  0  0  0  0  0
  -28.0139  -12.3639   18.6222 C   0  0  0  0  0  0
  -27.6628  -13.2027   19.8810 C   0  0  2  0  0  0
  -28.7026  -12.9812   21.0062 C   0  0  0  0  0  0
  -25.2586  -13.8157   20.5692 C   0  0  0  0  0  0
  -24.1833  -13.0435   20.9185 C   0  0  0  0  0  0
  -24.6380  -11.6900   20.8733 C   0  0  0  0  0  0
  -23.9044  -10.4295   21.0401 C   0  0  0  0  0  0
  -24.3605   -9.4212   21.9176 C   0  0  0  0  0  0
  -23.6287   -8.2247   22.0747 C   0  0  0  0  0  0
  -22.4267   -8.0281   21.3544 C   0  0  0  0  0  0
  -21.9896   -9.0251   20.4644 C   0  0  0  0  0  0
  -22.7218  -10.2134   20.3052 C   0  0  0  0  0  0
  -21.6852   -6.0736   22.5280 C   0  0  0  0  0  0
  -21.4010   -6.5639   23.8215 C   0  0  0  0  0  0
  -21.3658   -5.6790   24.9178 C   0  0  0  0  0  0
  -21.6046   -4.3053   24.7227 C   0  0  0  0  0  0
  -21.8816   -3.8150   23.4346 C   0  0  0  0  0  0
  -21.9188   -4.6964   22.3400 C   0  0  0  0  0  0
  -22.7861  -13.5234   21.1853 C   0  0  0  0  0  0
  -22.1660   -4.2155   21.0977 F   0  0  0  0  0  0
  -21.5629   -3.4530   25.7736 F   0  0  0  0  0  0
  -30.0409  -13.2565   20.4571 N   0  0  0  0  0  0
  -26.3021  -12.9316   20.3399 N   0  0  0  0  0  0
  -25.9307  -11.6479   20.5786 N   0  0  0  0  0  0
  -22.0510  -12.8225   22.0414 N   0  0  0  0  0  0
  -25.4301  -15.1877   20.4094 N   0  0  0  0  0  0
  -31.8409  -14.5911   20.0847 O   0  0  0  0  0  0
  -21.6636   -6.8877   21.4243 O   0  0  0  0  0  0
  -22.3546  -14.5540   20.6706 O   0  0  0  0  0  0
  -24.6078  -31.8706   23.2129 C   0  0  0  0  0  0
  -25.8992  -32.4840   23.8413 C   0  0  1  0  0  0
  -27.2556  -27.4756   20.1018 C   0  0  0  0  0  0
  -25.5864  -33.8638   24.2347 N   0  0  0  0  0  0
  -23.3955  -30.4918   21.5503 C   0  0  2  0  0  0
  -24.8483  -28.9601   20.1184 C   0  0  0  0  0  0
  -22.7376  -29.4663   22.5000 C   0  0  0  0  0  0
  -18.0264  -28.1372   22.8493 C   0  0  0  0  0  0
  -24.1484  -36.7333   23.2640 C   0  0  0  0  0  0
  -25.9168  -30.8498   21.3601 C   0  0  0  0  0  0
  -25.9993  -29.4822   20.7200 C   0  0  0  0  0  0
  -27.2012  -28.7464   20.7222 C   0  0  0  0  0  0
  -26.0906  -26.9654   19.4927 C   0  0  0  0  0  0
  -24.8855  -27.6951   19.5052 C   0  0  0  0  0  0
  -23.6054  -29.8196   20.1655 C   0  0  0  0  0  0
  -25.4102  -36.3128   24.0343 C   0  0  1  0  0  0
  -20.5848  -28.3651   23.1332 C   0  0  2  0  0  0
  -20.6753  -26.9392   22.5425 C   0  0  0  0  0  0
  -19.5738  -26.6384   21.5213 C   0  0  0  0  0  0
  -18.1913  -26.7923   22.1618 C   0  0  0  0  0  0
  -19.1511  -28.8826   23.2913 C   0  0  0  0  0  0
  -18.9445  -30.1435   23.8921 C   0  0  0  0  0  0
  -17.6450  -30.6581   24.0569 C   0  0  0  0  0  0
  -25.9018  -34.9487   23.5146 C   0  0  0  0  0  0
  -16.5340  -29.9088   23.6322 C   0  0  0  0  0  0
  -16.7255  -28.6503   23.0343 C   0  0  0  0  0  0
  -26.4450  -31.6604   25.0715 C   0  0  0  0  0  0
  -25.3748  -31.3695   26.1487 C   0  0  0  0  0  0
  -27.0278  -30.3059   24.6048 C   0  0  0  0  0  0
  -27.6035  -32.4315   25.7467 C   0  0  0  0  0  0
  -27.5582  -37.1819   24.8464 C   0  0  0  0  0  0
  -21.4109  -29.3024   22.3741 N   0  0  0  0  0  0
  -26.4297  -37.3801   23.9404 N   0  0  0  0  0  0
  -24.6576  -31.0843   22.1009 N   0  0  0  0  0  0
  -23.4168  -28.8210   23.3030 O   0  0  0  0  0  0
  -28.3921  -26.7016   20.0248 O   0  0  0  0  0  0
  -26.5583  -34.8929   22.4707 O   0  0  0  0  0  0
  -23.5281  -32.1433   23.7552 O   0  0  0  0  0  0
  -32.1601  -17.5136   19.4637 C   0  0  0  0  0  0
  -33.1864  -18.4741   19.4509 C   0  0  0  0  0  0
  -30.7794  -18.9916   20.8197 C   0  0  0  0  0  0
  -30.9613  -17.7464   20.1728 C   0  0  0  0  0  0
  -31.7832  -19.9905   20.7473 C   0  0  0  0  0  0
  -33.0039  -19.7076   20.0962 C   0  0  0  0  0  0
  -30.9529  -23.4960   21.2500 C   0  0  0  0  0  0
  -30.2061  -24.4742   20.7011 C   0  0  0  0  0  0
  -30.5646  -22.1013   21.1229 C   0  0  0  0  0  0
  -29.8201  -16.7297   20.1219 C   0  0  0  0  0  0
  -30.5811  -25.9467   20.7095 C   0  0  0  0  0  0
  -29.4081  -26.8934   21.0050 C   0  0  0  0  0  0
  -31.6261  -21.2977   21.2773 N   0  0  0  0  0  0
  -29.9448  -15.4831   20.8918 N   0  0  0  0  0  0
  -29.4189  -21.6978   20.9058 O   0  0  0  0  0  0
  -34.2654  -20.8895   20.0284 Cl  0  0  0  0  0  0
  -31.4615  -12.3413   19.1383 H   0  0  0  0  0  0
  -30.2886  -11.2587   19.8292 H   0  0  0  0  0  0
  -29.7274  -11.7681   17.4320 H   0  0  0  0  0  0
  -29.6776  -13.4769   17.7835 H   0  0  0  0  0  0
  -27.8161  -11.3080   18.8150 H   0  0  0  0  0  0
  -27.3682  -12.6458   17.7902 H   0  0  0  0  0  0
  -27.7073  -14.2500   19.5831 H   0  0  0  0  0  0
  -28.6616  -11.9515   21.3642 H   0  0  0  0  0  0
  -28.4783  -13.6014   21.8758 H   0  0  0  0  0  0
  -25.2755   -9.5688   22.4745 H   0  0  0  0  0  0
  -24.0003   -7.4630   22.7454 H   0  0  0  0  0  0
  -21.0832   -8.8754   19.8948 H   0  0  0  0  0  0
  -22.3670  -10.9663   19.6155 H   0  0  0  0  0  0
  -21.1999   -7.6148   23.9717 H   0  0  0  0  0  0
  -21.1483   -6.0525   25.9078 H   0  0  0  0  0  0
  -22.0595   -2.7610   23.2844 H   0  0  0  0  0  0
  -22.4131  -11.9880   22.4786 H   0  0  0  0  0  0
  -21.1132  -13.1256   22.2628 H   0  0  0  0  0  0
  -24.6610  -15.8414   20.5099 H   0  0  0  0  0  0
  -26.2798  -15.6269   20.0789 H   0  0  0  0  0  0
  -26.7069  -32.5586   23.1193 H   0  0  0  0  0  0
  -25.0014  -33.9810   25.0491 H   0  0  0  0  0  0
  -22.6822  -31.3064   21.4096 H   0  0  0  0  0  0
  -23.3730  -35.9684   23.3328 H   0  0  0  0  0  0
  -24.3578  -36.8917   22.2050 H   0  0  0  0  0  0
  -23.7256  -37.6557   23.6632 H   0  0  0  0  0  0
  -26.0160  -31.6116   20.5854 H   0  0  0  0  0  0
  -26.8084  -30.9154   21.9712 H   0  0  0  0  0  0
  -28.0737  -29.1803   21.1869 H   0  0  0  0  0  0
  -26.1191  -25.9986   19.0101 H   0  0  0  0  0  0
  -24.0023  -27.2845   19.0352 H   0  0  0  0  0  0
  -23.7093  -30.5918   19.4021 H   0  0  0  0  0  0
  -22.7330  -29.2329   19.8723 H   0  0  0  0  0  0
  -25.1280  -36.2005   25.0838 H   0  0  0  0  0  0
  -20.9945  -28.3214   24.1451 H   0  0  0  0  0  0
  -20.5648  -26.2259   23.3607 H   0  0  0  0  0  0
  -21.6627  -26.7435   22.1225 H   0  0  0  0  0  0
  -19.6900  -25.6300   21.1229 H   0  0  0  0  0  0
  -19.6684  -27.3207   20.6753 H   0  0  0  0  0  0
  -17.4188  -26.6678   21.4014 H   0  0  0  0  0  0
  -18.0308  -26.0058   22.9005 H   0  0  0  0  0  0
  -19.7921  -30.7243   24.2304 H   0  0  0  0  0  0
  -17.5006  -31.6266   24.5163 H   0  0  0  0  0  0
  -15.5343  -30.3002   23.7631 H   0  0  0  0  0  0
  -15.8653  -28.0837   22.7041 H   0  0  0  0  0  0
  -24.5897  -30.7064   25.7834 H   0  0  0  0  0  0
  -24.8968  -32.2852   26.4981 H   0  0  0  0  0  0
  -25.8124  -30.8832   27.0216 H   0  0  0  0  0  0
  -26.2806  -29.6822   24.1126 H   0  0  0  0  0  0
  -27.4100  -29.7281   25.4475 H   0  0  0  0  0  0
  -27.8615  -30.4395   23.9149 H   0  0  0  0  0  0
  -27.2651  -33.3583   26.2114 H   0  0  0  0  0  0
  -28.3804  -32.6934   25.0271 H   0  0  0  0  0  0
  -28.0756  -31.8407   26.5326 H   0  0  0  0  0  0
  -28.2618  -38.0098   24.7489 H   0  0  0  0  0  0
  -28.1059  -36.2630   24.6315 H   0  0  0  0  0  0
  -27.2302  -37.1505   25.8869 H   0  0  0  0  0  0
  -20.9256  -29.8749   21.6975 H   0  0  0  0  0  0
  -26.0195  -38.2886   24.1390 H   0  0  0  0  0  0
  -32.3014  -16.6047   18.8996 H   0  0  0  0  0  0
  -34.1041  -18.2768   18.9158 H   0  0  0  0  0  0
  -29.8485  -19.1939   21.3294 H   0  0  0  0  0  0
  -31.8648  -23.7557   21.7698 H   0  0  0  0  0  0
  -29.2910  -24.2244   20.1799 H   0  0  0  0  0  0
  -29.6511  -16.4701   19.0748 H   0  0  0  0  0  0
  -28.8978  -17.2173   20.4410 H   0  0  0  0  0  0
  -30.9932  -26.1902   19.7294 H   0  0  0  0  0  0
  -31.3826  -26.1178   21.4295 H   0  0  0  0  0  0
  -29.7900  -27.9137   20.9738 H   0  0  0  0  0  0
  -29.0100  -26.7144   22.0048 H   0  0  0  0  0  0
  -32.4963  -21.7854   21.4407 H   0  0  0  0  0  0
  -29.0984  -15.2161   21.3717 H   0  0  0  0  0  0
  1 25  1  0  0  0
  1 30  2  0  0  0
  1 84  1  0  0  0
  2  3  1  0  0  0
  2 25  1  0  0  0
  2 87  1  0  0  0
  2 88  1  0  0  0
  3  4  1  0  0  0
  3 89  1  0  0  0
  3 90  1  0  0  0
  4  5  1  0  0  0
  4 91  1  0  0  0
  4 92  1  0  0  0
  5  6  1  0  0  0
  5 26  1  0  0  0
  5 93  1  0  0  0
  6 25  1  0  0  0
  6 94  1  0  0  0
  6 95  1  0  0  0
  7  8  2  0  0  0
  7 26  1  0  0  0
  7 29  1  0  0  0
  8  9  1  0  0  0
  8 22  1  0  0  0
  9 10  1  0  0  0
  9 27  2  0  0  0
 10 11  2  0  0  0
 10 15  1  0  0  0
 11 12  1  0  0  0
 11 96  1  0  0  0
 12 13  2  0  0  0
 12 97  1  0  0  0
 13 14  1  0  0  0
 13 31  1  0  0  0
 14 15  2  0  0  0
 14 98  1  0  0  0
 15 99  1  0  0  0
 16 17  2  0  0  0
 16 21  1  0  0  0
 16 31  1  0  0  0
 17 18  1  0  0  0
 17100  1  0  0  0
 18 19  2  0  0  0
 18101  1  0  0  0
 19 20  1  0  0  0
 19 24  1  0  0  0
 20 21  2  0  0  0
 20102  1  0  0  0
 21 23  1  0  0  0
 22 28  1  0  0  0
 22 32  2  0  0  0
 26 27  1  0  0  0
 28103  1  0  0  0
 28104  1  0  0  0
 29105  1  0  0  0
 29106  1  0  0  0
 33 34  1  0  0  0
 33 66  1  0  0  0
 33 70  2  0  0  0
 34 36  1  0  0  0
 34 59  1  0  0  0
 34107  1  0  0  0
 35 44  2  0  0  0
 35 45  1  0  0  0
 35 68  1  0  0  0
 36 56  1  0  0  0
 36108  1  0  0  0
 37 39  1  0  0  0
 37 47  1  0  0  0
 37 66  1  0  0  0
 37109  1  0  0  0
 38 43  2  0  0  0
 38 46  1  0  0  0
 38 47  1  0  0  0
 39 64  1  0  0  0
 39 67  2  0  0  0
 40 52  1  0  0  0
 40 53  2  0  0  0
 40 58  1  0  0  0
 41110  1  0  0  0
 41111  1  0  0  0
 41112  1  0  0  0
 41 48  1  0  0  0
 42 43  1  0  0  0
 42 66  1  0  0  0
 42113  1  0  0  0
 42114  1  0  0  0
 43 44  1  0  0  0
 44115  1  0  0  0
 45 46  2  0  0  0
 45116  1  0  0  0
 46117  1  0  0  0
 47118  1  0  0  0
 47119  1  0  0  0
 48 56  1  0  0  0
 48 65  1  0  0  0
 48120  1  0  0  0
 49 50  1  0  0  0
 49 53  1  0  0  0
 49 64  1  0  0  0
 49121  1  0  0  0
 50 51  1  0  0  0
 50122  1  0  0  0
 50123  1  0  0  0
 51 52  1  0  0  0
 51124  1  0  0  0
 51125  1  0  0  0
 52126  1  0  0  0
 52127  1  0  0  0
 53 54  1  0  0  0
 54 55  2  0  0  0
 54128  1  0  0  0
 55 57  1  0  0  0
 55129  1  0  0  0
 56 69  2  0  0  0
 57 58  2  0  0  0
 57130  1  0  0  0
 58131  1  0  0  0
 59 60  1  0  0  0
 59 61  1  0  0  0
 59 62  1  0  0  0
 60132  1  0  0  0
 60133  1  0  0  0
 60134  1  0  0  0
 61135  1  0  0  0
 61136  1  0  0  0
 61137  1  0  0  0
 62138  1  0  0  0
 62139  1  0  0  0
 62140  1  0  0  0
 63 65  1  0  0  0
 63141  1  0  0  0
 63142  1  0  0  0
 63143  1  0  0  0
 64144  1  0  0  0
 65145  1  0  0  0
 68 82  1  0  0  0
 71 72  2  0  0  0
 71 74  1  0  0  0
 71146  1  0  0  0
 72 76  1  0  0  0
 72147  1  0  0  0
 73 74  2  0  0  0
 73 75  1  0  0  0
 73148  1  0  0  0
 74 80  1  0  0  0
 75 76  2  0  0  0
 75 83  1  0  0  0
 76 86  1  0  0  0
 77 78  2  0  0  0
 77 79  1  0  0  0
 77149  1  0  0  0
 78 81  1  0  0  0
 78150  1  0  0  0
 79 83  1  0  0  0
 79 85  2  0  0  0
 80 84  1  0  0  0
 80151  1  0  0  0
 80152  1  0  0  0
 81 82  1  0  0  0
 81153  1  0  0  0
 81154  1  0  0  0
 82155  1  0  0  0
 82156  1  0  0  0
 83157  1  0  0  0
 84158  1  0  0  0
M  ISO  4   1 100  68 101  82 101  84 100
M  END
> <chiral flag>
0

> <version>
0

> <s_m_source_file>
/data/baiqing/PycharmProjects/Reinvent-master-3.2/result/LINK_invent/BTK/process_docking_weight1_custom_product_contain_oxygen_bond_distance_aromatic_linkinvent_7_9_3/rearranged_h_0055.sdf

> <i_m_source_file_index>
96

> <r_mmod_Potential_Energy-OPLS-2005>
-134.304885864258

> <r_mmod_Stretch_Energy-OPLS-2005>
32.7455940246582

> <r_mmod_Bend_Energy-OPLS-2005>
100.39884185791

> <r_mmod_Torsional_Energy-OPLS-2005>
250.81135559082

> <r_mmod_Improper_Torsional_Energy-OPLS-2005>
11.2286987304688

> <r_mmod_Van_der_Waal_Energy-OPLS-2005>
160.04052734375

> <r_mmod_Electrostatic_Energy-OPLS-2005>
-466.645202636719

> <r_mmod_Solvation_Energy-OPLS-2005>
-232.905670166016

> <b_mmod_Minimization_Converged-OPLS-2005>
0

> <r_mmod_RMS_Derivative-OPLS-2005>
0.886430323123932

$$$$
