0
                    3D
 Structure written by MMmdl.
163171  0  0  1  0            999 V2000
  -30.5714  -14.8589   20.5079 C   0  0  0  0  0  0
  -30.4489  -12.5430   19.4913 C   0  0  0  0  0  0
  -29.5208  -12.5430   18.2527 C   0  0  0  0  0  0
  -28.0494  -12.3364   18.6603 C   0  0  0  0  0  0
  -27.6439  -13.2331   19.8570 C   0  0  2  0  0  0
  -28.6836  -13.1504   20.9919 C   0  0  0  0  0  0
  -25.2522  -13.8203   20.5705 C   0  0  0  0  0  0
  -24.1803  -13.0434   20.9172 C   0  0  0  0  0  0
  -24.6397  -11.6910   20.8717 C   0  0  0  0  0  0
  -23.9072  -10.4281   21.0394 C   0  0  0  0  0  0
  -24.3613   -9.4202   21.9182 C   0  0  0  0  0  0
  -23.6276   -8.2250   22.0764 C   0  0  0  0  0  0
  -22.4266   -8.0283   21.3545 C   0  0  0  0  0  0
  -21.9896   -9.0263   20.4652 C   0  0  0  0  0  0
  -22.7234  -10.2133   20.3053 C   0  0  0  0  0  0
  -21.6855   -6.0728   22.5269 C   0  0  0  0  0  0
  -21.4010   -6.5635   23.8200 C   0  0  0  0  0  0
  -21.3660   -5.6794   24.9167 C   0  0  0  0  0  0
  -21.6044   -4.3052   24.7222 C   0  0  0  0  0  0
  -21.8818   -3.8142   23.4340 C   0  0  0  0  0  0
  -21.9188   -4.6953   22.3394 C   0  0  0  0  0  0
  -22.7821  -13.5223   21.1831 C   0  0  0  0  0  0
  -22.1657   -4.2136   21.0970 F   0  0  0  0  0  0
  -21.5632   -3.4539   25.7738 F   0  0  0  0  0  0
  -29.9785  -13.5926   20.4425 N   0  0  0  0  0  0
  -26.2941  -12.9407   20.3275 N   0  0  0  0  0  0
  -25.9328  -11.6545   20.5724 N   0  0  0  0  0  0
  -22.0468  -12.8225   22.0399 N   0  0  0  0  0  0
  -25.4209  -15.1924   20.4161 N   0  0  0  0  0  0
  -31.6961  -14.9911   20.0103 O   0  0  0  0  0  0
  -21.6643   -6.8874   21.4237 O   0  0  0  0  0  0
  -22.3496  -14.5524   20.6677 O   0  0  0  0  0  0
  -24.6404  -31.8480   23.1922 C   0  0  0  0  0  0
  -25.9196  -32.4712   23.8300 C   0  0  1  0  0  0
  -27.2174  -27.1717   20.1312 C   0  0  0  0  0  0
  -25.5951  -33.8517   24.2208 N   0  0  0  0  0  0
  -23.4420  -30.4702   21.5356 C   0  0  2  0  0  0
  -24.8930  -28.9127   20.1064 C   0  0  0  0  0  0
  -22.7549  -29.4568   22.4850 C   0  0  0  0  0  0
  -18.0304  -28.1416   22.8481 C   0  0  0  0  0  0
  -24.1488  -36.7263   23.2646 C   0  0  0  0  0  0
  -25.9966  -30.7301   21.3908 C   0  0  0  0  0  0
  -26.0661  -29.3443   20.7346 C   0  0  0  0  0  0
  -27.2244  -28.4845   20.7461 C   0  0  0  0  0  0
  -26.0243  -26.8567   19.4346 C   0  0  0  0  0  0
  -24.8833  -27.6795   19.4436 C   0  0  0  0  0  0
  -23.6655  -29.8062   20.1537 C   0  0  0  0  0  0
  -25.4119  -36.3036   24.0312 C   0  0  1  0  0  0
  -20.5916  -28.3724   23.1249 C   0  0  2  0  0  0
  -20.6788  -26.9424   22.5409 C   0  0  0  0  0  0
  -19.5765  -26.6392   21.5229 C   0  0  0  0  0  0
  -18.1944  -26.7952   22.1625 C   0  0  0  0  0  0
  -19.1558  -28.8888   23.2862 C   0  0  0  0  0  0
  -18.9476  -30.1483   23.8884 C   0  0  0  0  0  0
  -17.6474  -30.6609   24.0571 C   0  0  0  0  0  0
  -25.9070  -34.9410   23.5061 C   0  0  0  0  0  0
  -16.5370  -29.9096   23.6364 C   0  0  0  0  0  0
  -16.7287  -28.6525   23.0371 C   0  0  0  0  0  0
  -26.4535  -31.6576   25.0730 C   0  0  0  0  0  0
  -25.3715  -31.3737   26.1420 C   0  0  0  0  0  0
  -27.0405  -30.2972   24.6296 C   0  0  0  0  0  0
  -27.6091  -32.4327   25.7471 C   0  0  0  0  0  0
  -27.5575  -37.1778   24.8465 C   0  0  0  0  0  0
  -21.4246  -29.3060   22.3613 N   0  0  0  0  0  0
  -26.4285  -37.3748   23.9411 N   0  0  0  0  0  0
  -24.7122  -31.0363   22.0944 N   0  0  0  0  0  0
  -23.4201  -28.8113   23.2991 O   0  0  0  0  0  0
  -28.2729  -26.1981   20.2386 O   0  0  0  0  0  0
  -26.5653  -34.8896   22.4643 O   0  0  0  0  0  0
  -23.5535  -32.1343   23.7169 O   0  0  0  0  0  0
  -28.7493  -20.0317   21.3820 C   0  0  0  0  0  0
  -30.0282  -19.7433   19.4450 C   0  0  0  0  0  0
  -29.2862  -20.6789   20.2420 C   0  0  0  0  0  0
  -28.8786  -18.6156   21.6762 C   0  0  0  0  0  0
  -29.6641  -17.6616   20.8884 C   0  0  0  0  0  0
  -30.2066  -18.3229   19.7291 C   0  0  0  0  0  0
  -27.9992  -18.8792   24.0137 C   0  0  0  0  0  0
  -29.0315  -22.1864   19.8167 C   0  0  0  0  0  0
  -28.0872  -18.2025   22.8548 C   0  0  0  0  0  0
  -28.6090  -23.3810   20.4260 C   0  0  0  0  0  0
  -29.8849  -16.1021   21.3299 C   0  0  0  0  0  0
  -30.8166  -16.3569   15.2915 C   0  0  0  0  0  0
  -28.1380  -24.7596   19.7002 C   0  0  0  0  0  0
  -31.3065  -16.5242   16.7349 C   0  0  0  0  0  0
  -30.4699  -17.5482   17.5120 C   0  0  0  0  0  0
  -29.5715  -15.7887   22.5171 N   0  0  0  0  0  0
  -30.9420  -17.5633   18.8545 O   0  0  0  0  0  0
  -31.4796  -12.7063   19.1747 H   0  0  0  0  0  0
  -30.4505  -11.5638   19.9718 H   0  0  0  0  0  0
  -29.8265  -11.7632   17.5538 H   0  0  0  0  0  0
  -29.6243  -13.4893   17.7197 H   0  0  0  0  0  0
  -27.9256  -11.2870   18.9317 H   0  0  0  0  0  0
  -27.3904  -12.5135   17.8091 H   0  0  0  0  0  0
  -27.6421  -14.2580   19.4858 H   0  0  0  0  0  0
  -28.7566  -12.1273   21.3644 H   0  0  0  0  0  0
  -28.3542  -13.7372   21.8452 H   0  0  0  0  0  0
  -25.2756   -9.5686   22.4748 H   0  0  0  0  0  0
  -23.9979   -7.4651   22.7499 H   0  0  0  0  0  0
  -21.0819   -8.8781   19.8968 H   0  0  0  0  0  0
  -22.3688  -10.9671   19.6159 H   0  0  0  0  0  0
  -21.2007   -7.6141   23.9695 H   0  0  0  0  0  0
  -21.1483   -6.0525   25.9064 H   0  0  0  0  0  0
  -22.0595   -2.7602   23.2849 H   0  0  0  0  0  0
  -22.4088  -11.9896   22.4806 H   0  0  0  0  0  0
  -21.1097  -13.1272   22.2624 H   0  0  0  0  0  0
  -24.6560  -15.8469   20.5443 H   0  0  0  0  0  0
  -26.2782  -15.6384   20.1174 H   0  0  0  0  0  0
  -26.7247  -32.5326   23.1021 H   0  0  0  0  0  0
  -25.0101  -33.9637   25.0356 H   0  0  0  0  0  0
  -22.7454  -31.2977   21.3852 H   0  0  0  0  0  0
  -23.3752  -35.9598   23.3299 H   0  0  0  0  0  0
  -24.3592  -36.8912   22.2070 H   0  0  0  0  0  0
  -23.7232  -37.6452   23.6690 H   0  0  0  0  0  0
  -26.1516  -31.4802   20.6151 H   0  0  0  0  0  0
  -26.8685  -30.7816   22.0303 H   0  0  0  0  0  0
  -28.1115  -28.8017   21.2772 H   0  0  0  0  0  0
  -25.9090  -25.9464   18.8717 H   0  0  0  0  0  0
  -23.9927  -27.3538   18.9251 H   0  0  0  0  0  0
  -23.7876  -30.5809   19.3958 H   0  0  0  0  0  0
  -22.7835  -29.2395   19.8507 H   0  0  0  0  0  0
  -25.1287  -36.1885   25.0797 H   0  0  0  0  0  0
  -21.0023  -28.3329   24.1366 H   0  0  0  0  0  0
  -20.5744  -26.2318   23.3627 H   0  0  0  0  0  0
  -21.6643  -26.7474   22.1172 H   0  0  0  0  0  0
  -19.6934  -25.6304   21.1262 H   0  0  0  0  0  0
  -19.6718  -27.3209   20.6766 H   0  0  0  0  0  0
  -17.4213  -26.6735   21.4017 H   0  0  0  0  0  0
  -18.0323  -26.0089   22.9010 H   0  0  0  0  0  0
  -19.7944  -30.7314   24.2243 H   0  0  0  0  0  0
  -17.5019  -31.6290   24.5170 H   0  0  0  0  0  0
  -15.5368  -30.2993   23.7694 H   0  0  0  0  0  0
  -15.8683  -28.0839   22.7102 H   0  0  0  0  0  0
  -24.5916  -30.7059   25.7721 H   0  0  0  0  0  0
  -24.8865  -32.2896   26.4797 H   0  0  0  0  0  0
  -25.7985  -30.8937   27.0230 H   0  0  0  0  0  0
  -26.3014  -29.6679   24.1310 H   0  0  0  0  0  0
  -27.4040  -29.7289   25.4872 H   0  0  0  0  0  0
  -27.8905  -30.4217   23.9585 H   0  0  0  0  0  0
  -27.2746  -33.3686   26.1954 H   0  0  0  0  0  0
  -28.3928  -32.6795   25.0292 H   0  0  0  0  0  0
  -28.0717  -31.8499   26.5452 H   0  0  0  0  0  0
  -28.2569  -38.0098   24.7531 H   0  0  0  0  0  0
  -28.1087  -36.2622   24.6253 H   0  0  0  0  0  0
  -27.2296  -37.1381   25.8870 H   0  0  0  0  0  0
  -20.9458  -29.8754   21.6771 H   0  0  0  0  0  0
  -26.0155  -38.2810   24.1448 H   0  0  0  0  0  0
  -28.1355  -20.6435   22.0281 H   0  0  0  0  0  0
  -30.4918  -20.1410   18.5541 H   0  0  0  0  0  0
  -27.3719  -18.5211   24.8190 H   0  0  0  0  0  0
  -28.5467  -19.7953   24.1853 H   0  0  0  0  0  0
  -29.1479  -22.2955   18.7466 H   0  0  0  0  0  0
  -27.4962  -17.3024   22.7475 H   0  0  0  0  0  0
  -28.4784  -23.3809   21.4986 H   0  0  0  0  0  0
  -31.4616  -15.6715   14.7394 H   0  0  0  0  0  0
  -30.8136  -17.3130   14.7647 H   0  0  0  0  0  0
  -29.8016  -15.9552   15.2625 H   0  0  0  0  0  0
  -27.0853  -24.5216   19.5988 H   0  0  0  0  0  0
  -28.5323  -24.7573   18.6836 H   0  0  0  0  0  0
  -32.3529  -16.8361   16.7376 H   0  0  0  0  0  0
  -31.2775  -15.5585   17.2434 H   0  0  0  0  0  0
  -29.4136  -17.2680   17.4893 H   0  0  0  0  0  0
  -30.5618  -18.5286   17.0402 H   0  0  0  0  0  0
  -29.1965  -16.5930   23.0090 H   0  0  0  0  0  0
  1 25  1  0  0  0
  1 30  2  0  0  0
  1 81  1  0  0  0
  2  3  1  0  0  0
  2 25  1  0  0  0
  2 88  1  0  0  0
  2 89  1  0  0  0
  3  4  1  0  0  0
  3 90  1  0  0  0
  3 91  1  0  0  0
  4  5  1  0  0  0
  4 92  1  0  0  0
  4 93  1  0  0  0
  5  6  1  0  0  0
  5 26  1  0  0  0
  5 94  1  0  0  0
  6 25  1  0  0  0
  6 95  1  0  0  0
  6 96  1  0  0  0
  7  8  2  0  0  0
  7 26  1  0  0  0
  7 29  1  0  0  0
  8  9  1  0  0  0
  8 22  1  0  0  0
  9 10  1  0  0  0
  9 27  2  0  0  0
 10 11  2  0  0  0
 10 15  1  0  0  0
 11 12  1  0  0  0
 11 97  1  0  0  0
 12 13  2  0  0  0
 12 98  1  0  0  0
 13 14  1  0  0  0
 13 31  1  0  0  0
 14 15  2  0  0  0
 14 99  1  0  0  0
 15100  1  0  0  0
 16 17  2  0  0  0
 16 21  1  0  0  0
 16 31  1  0  0  0
 17 18  1  0  0  0
 17101  1  0  0  0
 18 19  2  0  0  0
 18102  1  0  0  0
 19 20  1  0  0  0
 19 24  1  0  0  0
 20 21  2  0  0  0
 20103  1  0  0  0
 21 23  1  0  0  0
 22 28  1  0  0  0
 22 32  2  0  0  0
 26 27  1  0  0  0
 28104  1  0  0  0
 28105  1  0  0  0
 29106  1  0  0  0
 29107  1  0  0  0
 33 34  1  0  0  0
 33 66  1  0  0  0
 33 70  2  0  0  0
 34 36  1  0  0  0
 34 59  1  0  0  0
 34108  1  0  0  0
 35 44  2  0  0  0
 35 45  1  0  0  0
 35 68  1  0  0  0
 36 56  1  0  0  0
 36109  1  0  0  0
 37 39  1  0  0  0
 37 47  1  0  0  0
 37 66  1  0  0  0
 37110  1  0  0  0
 38 43  2  0  0  0
 38 46  1  0  0  0
 38 47  1  0  0  0
 39 64  1  0  0  0
 39 67  2  0  0  0
 40 52  1  0  0  0
 40 53  2  0  0  0
 40 58  1  0  0  0
 41111  1  0  0  0
 41112  1  0  0  0
 41113  1  0  0  0
 41 48  1  0  0  0
 42 43  1  0  0  0
 42 66  1  0  0  0
 42114  1  0  0  0
 42115  1  0  0  0
 43 44  1  0  0  0
 44116  1  0  0  0
 45 46  2  0  0  0
 45117  1  0  0  0
 46118  1  0  0  0
 47119  1  0  0  0
 47120  1  0  0  0
 48 56  1  0  0  0
 48 65  1  0  0  0
 48121  1  0  0  0
 49 50  1  0  0  0
 49 53  1  0  0  0
 49 64  1  0  0  0
 49122  1  0  0  0
 50 51  1  0  0  0
 50123  1  0  0  0
 50124  1  0  0  0
 51 52  1  0  0  0
 51125  1  0  0  0
 51126  1  0  0  0
 52127  1  0  0  0
 52128  1  0  0  0
 53 54  1  0  0  0
 54 55  2  0  0  0
 54129  1  0  0  0
 55 57  1  0  0  0
 55130  1  0  0  0
 56 69  2  0  0  0
 57 58  2  0  0  0
 57131  1  0  0  0
 58132  1  0  0  0
 59 60  1  0  0  0
 59 61  1  0  0  0
 59 62  1  0  0  0
 60133  1  0  0  0
 60134  1  0  0  0
 60135  1  0  0  0
 61136  1  0  0  0
 61137  1  0  0  0
 61138  1  0  0  0
 62139  1  0  0  0
 62140  1  0  0  0
 62141  1  0  0  0
 63 65  1  0  0  0
 63142  1  0  0  0
 63143  1  0  0  0
 63144  1  0  0  0
 64145  1  0  0  0
 65146  1  0  0  0
 68 83  1  0  0  0
 71 73  2  0  0  0
 71 74  1  0  0  0
 71147  1  0  0  0
 72 73  1  0  0  0
 72 76  2  0  0  0
 72148  1  0  0  0
 73 78  1  0  0  0
 74 75  2  0  0  0
 74 79  1  0  0  0
 75 76  1  0  0  0
 75 81  1  0  0  0
 76 87  1  0  0  0
 77 79  2  0  0  0
 77149  1  0  0  0
 77150  1  0  0  0
 78 80  2  0  0  0
 78151  1  0  0  0
 79152  1  0  0  0
 80 83  1  0  0  0
 80153  1  0  0  0
 81 86  2  0  0  0
 82 84  1  0  0  0
 82154  1  0  0  0
 82155  1  0  0  0
 82156  1  0  0  0
 83157  1  0  0  0
 83158  1  0  0  0
 84 85  1  0  0  0
 84159  1  0  0  0
 84160  1  0  0  0
 85 87  1  0  0  0
 85161  1  0  0  0
 85162  1  0  0  0
 86163  1  0  0  0
M  ISO  4   1 100  68 101  81 100  83 101
M  END
> <chiral flag>
0

> <version>
0

> <s_m_source_file>
/data/baiqing/PycharmProjects/Reinvent-master-3.2/result/LINK_invent/BTK/process_docking_weight1_custom_product_contain_oxygen_bond_distance_aromatic_linkinvent_7_9_3/rearranged_h_0114.sdf

> <i_m_source_file_index>
1

> <r_mmod_Potential_Energy-OPLS-2005>
638.769836425781

> <r_mmod_Stretch_Energy-OPLS-2005>
225.801147460938

> <r_mmod_Bend_Energy-OPLS-2005>
261.007202148438

> <r_mmod_Torsional_Energy-OPLS-2005>
243.860092163086

> <r_mmod_Improper_Torsional_Energy-OPLS-2005>
6.09258937835693

> <r_mmod_Van_der_Waal_Energy-OPLS-2005>
154.719329833984

> <r_mmod_Electrostatic_Energy-OPLS-2005>
-200.890472412109

> <r_mmod_Solvation_Energy-OPLS-2005>
-197.340621948242

> <b_mmod_Minimization_Converged-OPLS-2005>
0

> <r_mmod_RMS_Derivative-OPLS-2005>
2.51504182815552

$$$$
1
                    3D
 Structure written by MMmdl.
153161  0  0  1  0            999 V2000
  -30.6011  -14.7181   20.4700 C   0  0  0  0  0  0
  -30.4385  -12.4352   19.4731 C   0  0  0  0  0  0
  -29.5200  -12.5307   18.2347 C   0  0  0  0  0  0
  -28.0420  -12.3566   18.6349 C   0  0  0  0  0  0
  -27.6532  -13.2286   19.8599 C   0  0  2  0  0  0
  -28.6959  -13.1166   20.9945 C   0  0  0  0  0  0
  -25.2564  -13.8178   20.5664 C   0  0  0  0  0  0
  -24.1833  -13.0441   20.9158 C   0  0  0  0  0  0
  -24.6414  -11.6914   20.8705 C   0  0  0  0  0  0
  -23.9077  -10.4295   21.0374 C   0  0  0  0  0  0
  -24.3628   -9.4216   21.9158 C   0  0  0  0  0  0
  -23.6303   -8.2254   22.0742 C   0  0  0  0  0  0
  -22.4279   -8.0289   21.3544 C   0  0  0  0  0  0
  -21.9917   -9.0252   20.4633 C   0  0  0  0  0  0
  -22.7244  -10.2129   20.3028 C   0  0  0  0  0  0
  -21.6866   -6.0730   22.5275 C   0  0  0  0  0  0
  -21.4018   -6.5627   23.8207 C   0  0  0  0  0  0
  -21.3659   -5.6778   24.9167 C   0  0  0  0  0  0
  -21.6048   -4.3045   24.7221 C   0  0  0  0  0  0
  -21.8826   -3.8141   23.4343 C   0  0  0  0  0  0
  -21.9201   -4.6958   22.3397 C   0  0  0  0  0  0
  -22.7851  -13.5242   21.1824 C   0  0  0  0  0  0
  -22.1663   -4.2140   21.0977 F   0  0  0  0  0  0
  -21.5640   -3.4534   25.7738 F   0  0  0  0  0  0
  -30.0080  -13.4753   20.4352 N   0  0  0  0  0  0
  -26.3006  -12.9379   20.3285 N   0  0  0  0  0  0
  -25.9355  -11.6523   20.5710 N   0  0  0  0  0  0
  -22.0475  -12.8245   22.0369 N   0  0  0  0  0  0
  -25.4293  -15.1906   20.4107 N   0  0  0  0  0  0
  -31.7542  -14.8695   20.0538 O   0  0  0  0  0  0
  -21.6653   -6.8880   21.4239 O   0  0  0  0  0  0
  -22.3543  -14.5540   20.6655 O   0  0  0  0  0  0
  -24.6309  -31.8546   23.1982 C   0  0  0  0  0  0
  -25.9141  -32.4737   23.8334 C   0  0  1  0  0  0
  -27.2424  -27.2851   20.1083 C   0  0  0  0  0  0
  -25.5941  -33.8539   24.2259 N   0  0  0  0  0  0
  -23.4299  -30.4741   21.5400 C   0  0  2  0  0  0
  -24.8835  -28.9253   20.1048 C   0  0  0  0  0  0
  -22.7499  -29.4597   22.4911 C   0  0  0  0  0  0
  -18.0289  -28.1393   22.8490 C   0  0  0  0  0  0
  -24.1490  -36.7266   23.2638 C   0  0  0  0  0  0
  -25.9733  -30.7711   21.3797 C   0  0  0  0  0  0
  -26.0516  -29.3965   20.7173 C   0  0  0  0  0  0
  -27.2305  -28.5846   20.7168 C   0  0  0  0  0  0
  -26.0482  -26.8725   19.4769 C   0  0  0  0  0  0
  -24.8862  -27.6696   19.4759 C   0  0  0  0  0  0
  -23.6493  -29.8046   20.1564 C   0  0  0  0  0  0
  -25.4120  -36.3057   24.0324 C   0  0  1  0  0  0
  -20.5892  -28.3704   23.1266 C   0  0  2  0  0  0
  -20.6781  -26.9420   22.5415 C   0  0  0  0  0  0
  -19.5759  -26.6390   21.5216 C   0  0  0  0  0  0
  -18.1939  -26.7939   22.1626 C   0  0  0  0  0  0
  -19.1542  -28.8866   23.2876 C   0  0  0  0  0  0
  -18.9461  -30.1462   23.8896 C   0  0  0  0  0  0
  -17.6463  -30.6596   24.0560 C   0  0  0  0  0  0
  -25.9067  -34.9421   23.5100 C   0  0  0  0  0  0
  -16.5351  -29.9102   23.6321 C   0  0  0  0  0  0
  -16.7276  -28.6515   23.0355 C   0  0  0  0  0  0
  -26.4512  -31.6552   25.0717 C   0  0  0  0  0  0
  -25.3725  -31.3692   26.1424 C   0  0  0  0  0  0
  -27.0369  -30.2968   24.6218 C   0  0  0  0  0  0
  -27.6077  -32.4276   25.7489 C   0  0  0  0  0  0
  -27.5583  -37.1782   24.8456 C   0  0  0  0  0  0
  -21.4204  -29.3049   22.3650 N   0  0  0  0  0  0
  -26.4285  -37.3761   23.9409 N   0  0  0  0  0  0
  -24.6959  -31.0521   22.0953 N   0  0  0  0  0  0
  -23.4195  -28.8144   23.3021 O   0  0  0  0  0  0
  -28.3123  -26.3686   20.2144 O   0  0  0  0  0  0
  -26.5646  -34.8894   22.4670 O   0  0  0  0  0  0
  -23.5460  -32.1367   23.7285 O   0  0  0  0  0  0
  -29.7182  -17.6957   19.2062 C   0  0  0  0  0  0
  -29.7276  -18.2678   21.5184 C   0  0  0  0  0  0
  -29.5004  -19.0740   18.8637 C   0  0  0  0  0  0
  -29.4485  -20.1296   19.8481 C   0  0  0  0  0  0
  -29.8316  -17.2322   20.5407 C   0  0  0  0  0  0
  -29.5595  -19.6599   21.1914 C   0  0  0  0  0  0
  -28.2418  -20.0259   16.9077 C   0  0  0  0  0  0
  -29.2484  -19.2996   17.4254 C   0  0  0  0  0  0
  -29.2788  -21.6171   19.4153 C   0  0  0  0  0  0
  -28.9566  -22.8486   19.9730 C   0  0  0  0  0  0
  -28.8449  -24.0796   19.1041 C   0  0  0  0  0  0
  -28.5721  -25.4416   19.1866 C   0  0  0  0  0  0
  -29.8346  -15.7889   20.8941 N   0  0  0  0  0  0
  -29.5007  -20.5588   22.2045 F   0  0  0  0  0  0
  -31.4830  -12.5526   19.1808 H   0  0  0  0  0  0
  -30.3671  -11.4442   19.9241 H   0  0  0  0  0  0
  -29.8038  -11.7811   17.4945 H   0  0  0  0  0  0
  -29.6578  -13.5008   17.7521 H   0  0  0  0  0  0
  -27.8838  -11.3025   18.8636 H   0  0  0  0  0  0
  -27.3947  -12.5849   17.7871 H   0  0  0  0  0  0
  -27.6613  -14.2603   19.5086 H   0  0  0  0  0  0
  -28.7201  -12.1001   21.3904 H   0  0  0  0  0  0
  -28.4304  -13.7600   21.8341 H   0  0  0  0  0  0
  -25.2769   -9.5708   22.4734 H   0  0  0  0  0  0
  -24.0013   -7.4657   22.7471 H   0  0  0  0  0  0
  -21.0846   -8.8764   19.8944 H   0  0  0  0  0  0
  -22.3689  -10.9664   19.6143 H   0  0  0  0  0  0
  -21.1987   -7.6126   23.9708 H   0  0  0  0  0  0
  -21.1483   -6.0501   25.9068 H   0  0  0  0  0  0
  -22.0604   -2.7604   23.2848 H   0  0  0  0  0  0
  -22.4093  -11.9944   22.4827 H   0  0  0  0  0  0
  -21.1065  -13.1254   22.2478 H   0  0  0  0  0  0
  -24.6663  -15.8503   20.5164 H   0  0  0  0  0  0
  -26.2871  -15.6284   20.0976 H   0  0  0  0  0  0
  -26.7209  -32.5396   23.1075 H   0  0  0  0  0  0
  -25.0032  -33.9671   25.0370 H   0  0  0  0  0  0
  -22.7258  -31.2953   21.3905 H   0  0  0  0  0  0
  -23.3759  -35.9593   23.3280 H   0  0  0  0  0  0
  -24.3587  -36.8915   22.2059 H   0  0  0  0  0  0
  -23.7229  -37.6452   23.6679 H   0  0  0  0  0  0
  -26.1156  -31.5369   20.6158 H   0  0  0  0  0  0
  -26.8488  -30.8173   22.0166 H   0  0  0  0  0  0
  -28.1205  -28.9344   21.2206 H   0  0  0  0  0  0
  -25.9943  -25.8976   19.0140 H   0  0  0  0  0  0
  -23.9907  -27.2975   18.9976 H   0  0  0  0  0  0
  -23.7661  -30.5783   19.3961 H   0  0  0  0  0  0
  -22.7712  -29.2303   19.8573 H   0  0  0  0  0  0
  -25.1301  -36.1893   25.0816 H   0  0  0  0  0  0
  -20.9980  -28.3294   24.1389 H   0  0  0  0  0  0
  -20.5661  -26.2324   23.3630 H   0  0  0  0  0  0
  -21.6651  -26.7447   22.1213 H   0  0  0  0  0  0
  -19.6914  -25.6299   21.1259 H   0  0  0  0  0  0
  -19.6691  -27.3186   20.6736 H   0  0  0  0  0  0
  -17.4203  -26.6676   21.4029 H   0  0  0  0  0  0
  -18.0333  -26.0078   22.9018 H   0  0  0  0  0  0
  -19.7933  -30.7279   24.2265 H   0  0  0  0  0  0
  -17.5014  -31.6268   24.5174 H   0  0  0  0  0  0
  -15.5348  -30.3004   23.7648 H   0  0  0  0  0  0
  -15.8676  -28.0828   22.7089 H   0  0  0  0  0  0
  -24.5895  -30.7063   25.7713 H   0  0  0  0  0  0
  -24.8919  -32.2853   26.4862 H   0  0  0  0  0  0
  -25.8020  -30.8824   27.0187 H   0  0  0  0  0  0
  -26.2958  -29.6684   24.1260 H   0  0  0  0  0  0
  -27.4056  -29.7263   25.4751 H   0  0  0  0  0  0
  -27.8833  -30.4228   23.9465 H   0  0  0  0  0  0
  -27.2707  -33.3565   26.2096 H   0  0  0  0  0  0
  -28.3883  -32.6843   25.0314 H   0  0  0  0  0  0
  -28.0753  -31.8369   26.5379 H   0  0  0  0  0  0
  -28.2573  -38.0108   24.7551 H   0  0  0  0  0  0
  -28.1115  -36.2641   24.6229 H   0  0  0  0  0  0
  -27.2306  -37.1356   25.8860 H   0  0  0  0  0  0
  -20.9395  -29.8766   21.6844 H   0  0  0  0  0  0
  -26.0159  -38.2824   24.1444 H   0  0  0  0  0  0
  -29.7218  -16.9613   18.4125 H   0  0  0  0  0  0
  -29.7643  -17.9976   22.5638 H   0  0  0  0  0  0
  -28.1352  -20.1442   15.8384 H   0  0  0  0  0  0
  -27.5079  -20.5108   17.5362 H   0  0  0  0  0  0
  -29.9473  -18.8379   16.7405 H   0  0  0  0  0  0
  -29.4935  -21.7166   18.3630 H   0  0  0  0  0  0
  -28.7566  -22.9213   21.0326 H   0  0  0  0  0  0
  -29.0167  -23.8281   18.0659 H   0  0  0  0  0  0
  -28.5687  -25.9860   18.2508 H   0  0  0  0  0  0
  -29.0254  -15.4940   21.4197 H   0  0  0  0  0  0
  1 25  1  0  0  0
  1 30  2  0  0  0
  1 83  1  0  0  0
  2  3  1  0  0  0
  2 25  1  0  0  0
  2 85  1  0  0  0
  2 86  1  0  0  0
  3  4  1  0  0  0
  3 87  1  0  0  0
  3 88  1  0  0  0
  4  5  1  0  0  0
  4 89  1  0  0  0
  4 90  1  0  0  0
  5  6  1  0  0  0
  5 26  1  0  0  0
  5 91  1  0  0  0
  6 25  1  0  0  0
  6 92  1  0  0  0
  6 93  1  0  0  0
  7  8  2  0  0  0
  7 26  1  0  0  0
  7 29  1  0  0  0
  8  9  1  0  0  0
  8 22  1  0  0  0
  9 10  1  0  0  0
  9 27  2  0  0  0
 10 11  2  0  0  0
 10 15  1  0  0  0
 11 12  1  0  0  0
 11 94  1  0  0  0
 12 13  2  0  0  0
 12 95  1  0  0  0
 13 14  1  0  0  0
 13 31  1  0  0  0
 14 15  2  0  0  0
 14 96  1  0  0  0
 15 97  1  0  0  0
 16 17  2  0  0  0
 16 21  1  0  0  0
 16 31  1  0  0  0
 17 18  1  0  0  0
 17 98  1  0  0  0
 18 19  2  0  0  0
 18 99  1  0  0  0
 19 20  1  0  0  0
 19 24  1  0  0  0
 20 21  2  0  0  0
 20100  1  0  0  0
 21 23  1  0  0  0
 22 28  1  0  0  0
 22 32  2  0  0  0
 26 27  1  0  0  0
 28101  1  0  0  0
 28102  1  0  0  0
 29103  1  0  0  0
 29104  1  0  0  0
 33 34  1  0  0  0
 33 66  1  0  0  0
 33 70  2  0  0  0
 34 36  1  0  0  0
 34 59  1  0  0  0
 34105  1  0  0  0
 35 44  2  0  0  0
 35 45  1  0  0  0
 35 68  1  0  0  0
 36 56  1  0  0  0
 36106  1  0  0  0
 37 39  1  0  0  0
 37 47  1  0  0  0
 37 66  1  0  0  0
 37107  1  0  0  0
 38 43  2  0  0  0
 38 46  1  0  0  0
 38 47  1  0  0  0
 39 64  1  0  0  0
 39 67  2  0  0  0
 40 52  1  0  0  0
 40 53  2  0  0  0
 40 58  1  0  0  0
 41108  1  0  0  0
 41109  1  0  0  0
 41110  1  0  0  0
 41 48  1  0  0  0
 42 43  1  0  0  0
 42 66  1  0  0  0
 42111  1  0  0  0
 42112  1  0  0  0
 43 44  1  0  0  0
 44113  1  0  0  0
 45 46  2  0  0  0
 45114  1  0  0  0
 46115  1  0  0  0
 47116  1  0  0  0
 47117  1  0  0  0
 48 56  1  0  0  0
 48 65  1  0  0  0
 48118  1  0  0  0
 49 50  1  0  0  0
 49 53  1  0  0  0
 49 64  1  0  0  0
 49119  1  0  0  0
 50 51  1  0  0  0
 50120  1  0  0  0
 50121  1  0  0  0
 51 52  1  0  0  0
 51122  1  0  0  0
 51123  1  0  0  0
 52124  1  0  0  0
 52125  1  0  0  0
 53 54  1  0  0  0
 54 55  2  0  0  0
 54126  1  0  0  0
 55 57  1  0  0  0
 55127  1  0  0  0
 56 69  2  0  0  0
 57 58  2  0  0  0
 57128  1  0  0  0
 58129  1  0  0  0
 59 60  1  0  0  0
 59 61  1  0  0  0
 59 62  1  0  0  0
 60130  1  0  0  0
 60131  1  0  0  0
 60132  1  0  0  0
 61133  1  0  0  0
 61134  1  0  0  0
 61135  1  0  0  0
 62136  1  0  0  0
 62137  1  0  0  0
 62138  1  0  0  0
 63 65  1  0  0  0
 63139  1  0  0  0
 63140  1  0  0  0
 63141  1  0  0  0
 64142  1  0  0  0
 65143  1  0  0  0
 68 82  1  0  0  0
 71 73  2  0  0  0
 71 75  1  0  0  0
 71144  1  0  0  0
 72 75  2  0  0  0
 72 76  1  0  0  0
 72145  1  0  0  0
 73 74  1  0  0  0
 73 78  1  0  0  0
 74 76  2  0  0  0
 74 79  1  0  0  0
 75 83  1  0  0  0
 76 84  1  0  0  0
 77 78  2  0  0  0
 77146  1  0  0  0
 77147  1  0  0  0
 78148  1  0  0  0
 79 80  2  0  0  0
 79149  1  0  0  0
 80 81  1  0  0  0
 80150  1  0  0  0
 81 82  2  0  0  0
 81151  1  0  0  0
 82152  1  0  0  0
 83153  1  0  0  0
M  ISO  4   1 100  68 101  82 101  83 100
M  END
> <chiral flag>
0

> <version>
0

> <s_m_source_file>
/data/baiqing/PycharmProjects/Reinvent-master-3.2/result/LINK_invent/BTK/process_docking_weight1_custom_product_contain_oxygen_bond_distance_aromatic_linkinvent_7_9_3/rearranged_h_0114.sdf

> <i_m_source_file_index>
2

> <r_mmod_Potential_Energy-OPLS-2005>
283.185821533203

> <r_mmod_Stretch_Energy-OPLS-2005>
107.088760375977

> <r_mmod_Bend_Energy-OPLS-2005>
218.097198486328

> <r_mmod_Torsional_Energy-OPLS-2005>
258.8154296875

> <r_mmod_Improper_Torsional_Energy-OPLS-2005>
4.93135023117065

> <r_mmod_Van_der_Waal_Energy-OPLS-2005>
143.910186767578

> <r_mmod_Electrostatic_Energy-OPLS-2005>
-322.4736328125

> <r_mmod_Solvation_Energy-OPLS-2005>
-203.872009277344

> <b_mmod_Minimization_Converged-OPLS-2005>
0

> <r_mmod_RMS_Derivative-OPLS-2005>
2.09748244285583

$$$$
2
                    3D
 Structure written by MMmdl.
165173  0  0  1  0            999 V2000
  -30.7486  -14.4927   20.4853 C   0  0  0  0  0  0
  -30.4199  -12.2954   19.4154 C   0  0  0  0  0  0
  -29.4921  -12.4457   18.1930 C   0  0  0  0  0  0
  -28.0024  -12.3942   18.6001 C   0  0  0  0  0  0
  -27.6605  -13.2262   19.8684 C   0  0  2  0  0  0
  -28.7248  -13.0607   20.9776 C   0  0  0  0  0  0
  -25.2592  -13.8275   20.5778 C   0  0  0  0  0  0
  -24.1853  -13.0499   20.9205 C   0  0  0  0  0  0
  -24.6447  -11.6976   20.8738 C   0  0  0  0  0  0
  -23.9128  -10.4350   21.0393 C   0  0  0  0  0  0
  -24.3699   -9.4280   21.9170 C   0  0  0  0  0  0
  -23.6376   -8.2307   22.0757 C   0  0  0  0  0  0
  -22.4340   -8.0335   21.3570 C   0  0  0  0  0  0
  -21.9980   -9.0318   20.4663 C   0  0  0  0  0  0
  -22.7290  -10.2203   20.3048 C   0  0  0  0  0  0
  -21.6871   -6.0788   22.5291 C   0  0  0  0  0  0
  -21.3998   -6.5676   23.8218 C   0  0  0  0  0  0
  -21.3654   -5.6814   24.9176 C   0  0  0  0  0  0
  -21.6055   -4.3086   24.7206 C   0  0  0  0  0  0
  -21.8827   -3.8196   23.4320 C   0  0  0  0  0  0
  -21.9207   -4.7022   22.3390 C   0  0  0  0  0  0
  -22.7857  -13.5260   21.1835 C   0  0  0  0  0  0
  -22.1652   -4.2224   21.0954 F   0  0  0  0  0  0
  -21.5646   -3.4541   25.7708 F   0  0  0  0  0  0
  -30.0372  -13.3340   20.3825 N   0  0  0  0  0  0
  -26.3068  -12.9472   20.3432 N   0  0  0  0  0  0
  -25.9403  -11.6614   20.5813 N   0  0  0  0  0  0
  -22.0494  -12.8265   22.0403 N   0  0  0  0  0  0
  -25.4283  -15.2031   20.4334 N   0  0  0  0  0  0
  -31.9397  -14.5601   20.1728 O   0  0  0  0  0  0
  -21.6684   -6.8953   21.4259 O   0  0  0  0  0  0
  -22.3511  -14.5527   20.6653 O   0  0  0  0  0  0
  -24.6146  -31.8693   23.2124 C   0  0  0  0  0  0
  -25.9039  -32.4837   23.8413 C   0  0  1  0  0  0
  -27.2359  -27.4443   20.0729 C   0  0  0  0  0  0
  -25.5894  -33.8629   24.2333 N   0  0  0  0  0  0
  -23.4007  -30.4938   21.5548 C   0  0  2  0  0  0
  -24.8425  -28.9639   20.1136 C   0  0  0  0  0  0
  -22.7412  -29.4652   22.5006 C   0  0  0  0  0  0
  -18.0269  -28.1377   22.8493 C   0  0  0  0  0  0
  -24.1477  -36.7317   23.2635 C   0  0  0  0  0  0
  -25.9296  -30.8326   21.3658 C   0  0  0  0  0  0
  -26.0036  -29.4695   20.7104 C   0  0  0  0  0  0
  -27.1992  -28.7155   20.6906 C   0  0  0  0  0  0
  -26.0489  -26.9527   19.4754 C   0  0  0  0  0  0
  -24.8594  -27.7029   19.4962 C   0  0  0  0  0  0
  -23.6063  -29.8323   20.1670 C   0  0  0  0  0  0
  -25.4094  -36.3119   24.0336 C   0  0  1  0  0  0
  -20.5861  -28.3654   23.1329 C   0  0  2  0  0  0
  -20.6756  -26.9389   22.5433 C   0  0  0  0  0  0
  -19.5738  -26.6378   21.5225 C   0  0  0  0  0  0
  -18.1913  -26.7925   22.1625 C   0  0  0  0  0  0
  -19.1520  -28.8833   23.2906 C   0  0  0  0  0  0
  -18.9448  -30.1441   23.8914 C   0  0  0  0  0  0
  -17.6450  -30.6580   24.0569 C   0  0  0  0  0  0
  -25.9029  -34.9485   23.5134 C   0  0  0  0  0  0
  -16.5342  -29.9083   23.6325 C   0  0  0  0  0  0
  -16.7259  -28.6502   23.0343 C   0  0  0  0  0  0
  -26.4481  -31.6613   25.0732 C   0  0  0  0  0  0
  -25.3752  -31.3722   26.1493 C   0  0  0  0  0  0
  -27.0314  -30.3062   24.6095 C   0  0  0  0  0  0
  -27.6054  -32.4343   25.7489 C   0  0  0  0  0  0
  -27.5576  -37.1797   24.8453 C   0  0  0  0  0  0
  -21.4143  -29.3020   22.3742 N   0  0  0  0  0  0
  -26.4288  -37.3798   23.9422 N   0  0  0  0  0  0
  -24.6674  -31.0785   22.1035 N   0  0  0  0  0  0
  -23.4187  -28.8191   23.3042 O   0  0  0  0  0  0
  -28.4258  -26.7395   20.0774 O   0  0  0  0  0  0
  -26.5597  -34.8933   22.4698 O   0  0  0  0  0  0
  -23.5342  -32.1459   23.7511 O   0  0  0  0  0  0
  -30.1587  -21.3750   21.2897 C   0  0  0  0  0  0
  -31.8898  -22.8751   20.4865 C   0  0  0  0  0  0
  -31.0881  -20.3145   21.4000 C   0  0  0  0  0  0
  -32.8522  -21.8563   20.6553 C   0  0  0  0  0  0
  -32.4551  -20.5535   21.0778 C   0  0  0  0  0  0
  -30.5336  -22.6446   20.8002 C   0  0  0  0  0  0
  -30.5842  -18.9843   21.8259 C   0  0  0  0  0  0
  -30.7299  -17.8591   21.0942 C   0  0  0  0  0  0
  -34.2549  -22.2175   20.3241 C   0  0  0  0  0  0
  -30.2921  -16.5288   21.5404 C   0  0  0  0  0  0
  -33.4733  -19.4116   21.1586 C   0  0  0  0  0  0
  -35.2475  -22.2173   21.4775 C   0  0  0  0  0  0
  -29.6188  -16.1652   19.2124 C   0  0  0  0  0  0
  -28.4413  -25.4269   19.5047 C   0  0  0  0  0  0
  -29.7741  -24.6961   19.7663 C   0  0  0  0  0  0
  -30.0335  -15.6437   20.5358 N   0  0  0  0  0  0
  -34.6183  -22.5835   19.2029 O   0  0  0  0  0  0
  -30.2424  -16.1970   22.7300 O   0  0  0  0  0  0
  -29.5447  -23.5986   20.6570 O   0  0  0  0  0  0
  -31.4612  -12.3820   19.0978 H   0  0  0  0  0  0
  -30.3152  -11.3037   19.8549 H   0  0  0  0  0  0
  -29.6996  -11.6483   17.4780 H   0  0  0  0  0  0
  -29.7139  -13.3745   17.6674 H   0  0  0  0  0  0
  -27.7387  -11.3494   18.7621 H   0  0  0  0  0  0
  -27.3831  -12.7363   17.7695 H   0  0  0  0  0  0
  -27.6715  -14.2696   19.5666 H   0  0  0  0  0  0
  -28.7163  -12.0474   21.3800 H   0  0  0  0  0  0
  -28.5250  -13.7356   21.8106 H   0  0  0  0  0  0
  -25.2861   -9.5782   22.4724 H   0  0  0  0  0  0
  -24.0120   -7.4702   22.7469 H   0  0  0  0  0  0
  -21.0915   -8.8836   19.8980 H   0  0  0  0  0  0
  -22.3729  -10.9749   19.6160 H   0  0  0  0  0  0
  -21.1932   -7.6175   23.9717 H   0  0  0  0  0  0
  -21.1472   -6.0547   25.9076 H   0  0  0  0  0  0
  -22.0618   -2.7669   23.2783 H   0  0  0  0  0  0
  -22.4129  -11.9936   22.4774 H   0  0  0  0  0  0
  -21.1107  -13.1314   22.2603 H   0  0  0  0  0  0
  -24.6844  -15.8652   20.6248 H   0  0  0  0  0  0
  -26.3118  -15.6548   20.2373 H   0  0  0  0  0  0
  -26.7101  -32.5532   23.1165 H   0  0  0  0  0  0
  -25.0059  -33.9812   25.0491 H   0  0  0  0  0  0
  -22.6882  -31.3105   21.4193 H   0  0  0  0  0  0
  -23.3745  -35.9645   23.3304 H   0  0  0  0  0  0
  -24.3580  -36.8929   22.2049 H   0  0  0  0  0  0
  -23.7216  -37.6517   23.6651 H   0  0  0  0  0  0
  -26.0400  -31.5970   20.5956 H   0  0  0  0  0  0
  -26.8215  -30.8865   21.9799 H   0  0  0  0  0  0
  -28.0976  -29.1050   21.1482 H   0  0  0  0  0  0
  -26.0121  -25.9949   18.9785 H   0  0  0  0  0  0
  -23.9677  -27.3071   19.0296 H   0  0  0  0  0  0
  -23.7169  -30.6130   19.4136 H   0  0  0  0  0  0
  -22.7290  -29.2565   19.8677 H   0  0  0  0  0  0
  -25.1263  -36.1990   25.0830 H   0  0  0  0  0  0
  -20.9947  -28.3215   24.1448 H   0  0  0  0  0  0
  -20.5657  -26.2259   23.3620 H   0  0  0  0  0  0
  -21.6624  -26.7427   22.1219 H   0  0  0  0  0  0
  -19.6900  -25.6293   21.1237 H   0  0  0  0  0  0
  -19.6692  -27.3205   20.6768 H   0  0  0  0  0  0
  -17.4194  -26.6693   21.4014 H   0  0  0  0  0  0
  -18.0294  -26.0059   22.9008 H   0  0  0  0  0  0
  -19.7929  -30.7254   24.2285 H   0  0  0  0  0  0
  -17.5007  -31.6262   24.5167 H   0  0  0  0  0  0
  -15.5342  -30.2993   23.7635 H   0  0  0  0  0  0
  -15.8658  -28.0829   22.7043 H   0  0  0  0  0  0
  -24.5916  -30.7074   25.7840 H   0  0  0  0  0  0
  -24.8961  -32.2883   26.4955 H   0  0  0  0  0  0
  -25.8119  -30.8887   27.0243 H   0  0  0  0  0  0
  -26.2855  -29.6810   24.1176 H   0  0  0  0  0  0
  -27.4134  -29.7300   25.4534 H   0  0  0  0  0  0
  -27.8668  -30.4396   23.9214 H   0  0  0  0  0  0
  -27.2678  -33.3646   26.2071 H   0  0  0  0  0  0
  -28.3863  -32.6904   25.0310 H   0  0  0  0  0  0
  -28.0734  -31.8472   26.5403 H   0  0  0  0  0  0
  -28.2579  -38.0110   24.7540 H   0  0  0  0  0  0
  -28.1094  -36.2645   24.6233 H   0  0  0  0  0  0
  -27.2316  -37.1383   25.8864 H   0  0  0  0  0  0
  -20.9302  -29.8754   21.6977 H   0  0  0  0  0  0
  -26.0175  -38.2877   24.1462 H   0  0  0  0  0  0
  -29.1212  -21.1955   21.5353 H   0  0  0  0  0  0
  -32.2193  -23.8415   20.1307 H   0  0  0  0  0  0
  -30.0976  -18.9374   22.7910 H   0  0  0  0  0  0
  -31.2293  -17.9633   20.1447 H   0  0  0  0  0  0
  -33.1822  -18.6475   21.8784 H   0  0  0  0  0  0
  -34.4636  -19.7306   21.4731 H   0  0  0  0  0  0
  -33.5735  -18.9367   20.1817 H   0  0  0  0  0  0
  -34.7792  -21.8428   22.3892 H   0  0  0  0  0  0
  -35.5975  -23.2305   21.6668 H   0  0  0  0  0  0
  -36.1037  -21.5878   21.2404 H   0  0  0  0  0  0
  -28.8068  -16.8868   19.3157 H   0  0  0  0  0  0
  -29.2620  -15.3890   18.5399 H   0  0  0  0  0  0
  -30.4443  -16.6473   18.6862 H   0  0  0  0  0  0
  -27.6306  -24.8224   19.9143 H   0  0  0  0  0  0
  -28.2743  -25.5016   18.4282 H   0  0  0  0  0  0
  -30.5186  -25.3862   20.1679 H   0  0  0  0  0  0
  -30.1633  -24.3238   18.8173 H   0  0  0  0  0  0
  1 25  1  0  0  0
  1 30  2  0  0  0
  1 86  1  0  0  0
  2  3  1  0  0  0
  2 25  1  0  0  0
  2 90  1  0  0  0
  2 91  1  0  0  0
  3  4  1  0  0  0
  3 92  1  0  0  0
  3 93  1  0  0  0
  4  5  1  0  0  0
  4 94  1  0  0  0
  4 95  1  0  0  0
  5  6  1  0  0  0
  5 26  1  0  0  0
  5 96  1  0  0  0
  6 25  1  0  0  0
  6 97  1  0  0  0
  6 98  1  0  0  0
  7  8  2  0  0  0
  7 26  1  0  0  0
  7 29  1  0  0  0
  8  9  1  0  0  0
  8 22  1  0  0  0
  9 10  1  0  0  0
  9 27  2  0  0  0
 10 11  2  0  0  0
 10 15  1  0  0  0
 11 12  1  0  0  0
 11 99  1  0  0  0
 12 13  2  0  0  0
 12100  1  0  0  0
 13 14  1  0  0  0
 13 31  1  0  0  0
 14 15  2  0  0  0
 14101  1  0  0  0
 15102  1  0  0  0
 16 17  2  0  0  0
 16 21  1  0  0  0
 16 31  1  0  0  0
 17 18  1  0  0  0
 17103  1  0  0  0
 18 19  2  0  0  0
 18104  1  0  0  0
 19 20  1  0  0  0
 19 24  1  0  0  0
 20 21  2  0  0  0
 20105  1  0  0  0
 21 23  1  0  0  0
 22 28  1  0  0  0
 22 32  2  0  0  0
 26 27  1  0  0  0
 28106  1  0  0  0
 28107  1  0  0  0
 29108  1  0  0  0
 29109  1  0  0  0
 33 34  1  0  0  0
 33 66  1  0  0  0
 33 70  2  0  0  0
 34 36  1  0  0  0
 34 59  1  0  0  0
 34110  1  0  0  0
 35 44  2  0  0  0
 35 45  1  0  0  0
 35 68  1  0  0  0
 36 56  1  0  0  0
 36111  1  0  0  0
 37 39  1  0  0  0
 37 47  1  0  0  0
 37 66  1  0  0  0
 37112  1  0  0  0
 38 43  2  0  0  0
 38 46  1  0  0  0
 38 47  1  0  0  0
 39 64  1  0  0  0
 39 67  2  0  0  0
 40 52  1  0  0  0
 40 53  2  0  0  0
 40 58  1  0  0  0
 41113  1  0  0  0
 41114  1  0  0  0
 41115  1  0  0  0
 41 48  1  0  0  0
 42 43  1  0  0  0
 42 66  1  0  0  0
 42116  1  0  0  0
 42117  1  0  0  0
 43 44  1  0  0  0
 44118  1  0  0  0
 45 46  2  0  0  0
 45119  1  0  0  0
 46120  1  0  0  0
 47121  1  0  0  0
 47122  1  0  0  0
 48 56  1  0  0  0
 48 65  1  0  0  0
 48123  1  0  0  0
 49 50  1  0  0  0
 49 53  1  0  0  0
 49 64  1  0  0  0
 49124  1  0  0  0
 50 51  1  0  0  0
 50125  1  0  0  0
 50126  1  0  0  0
 51 52  1  0  0  0
 51127  1  0  0  0
 51128  1  0  0  0
 52129  1  0  0  0
 52130  1  0  0  0
 53 54  1  0  0  0
 54 55  2  0  0  0
 54131  1  0  0  0
 55 57  1  0  0  0
 55132  1  0  0  0
 56 69  2  0  0  0
 57 58  2  0  0  0
 57133  1  0  0  0
 58134  1  0  0  0
 59 60  1  0  0  0
 59 61  1  0  0  0
 59 62  1  0  0  0
 60135  1  0  0  0
 60136  1  0  0  0
 60137  1  0  0  0
 61138  1  0  0  0
 61139  1  0  0  0
 61140  1  0  0  0
 62141  1  0  0  0
 62142  1  0  0  0
 62143  1  0  0  0
 63 65  1  0  0  0
 63144  1  0  0  0
 63145  1  0  0  0
 63146  1  0  0  0
 64147  1  0  0  0
 65148  1  0  0  0
 68 84  1  0  0  0
 71 73  2  0  0  0
 71 76  1  0  0  0
 71149  1  0  0  0
 72 74  1  0  0  0
 72 76  2  0  0  0
 72150  1  0  0  0
 73 75  1  0  0  0
 73 77  1  0  0  0
 74 75  2  0  0  0
 74 79  1  0  0  0
 75 81  1  0  0  0
 76 89  1  0  0  0
 77 78  2  0  0  0
 77151  1  0  0  0
 78 80  1  0  0  0
 78152  1  0  0  0
 79 82  1  0  0  0
 79 87  2  0  0  0
 80 86  1  0  0  0
 80 88  2  0  0  0
 81153  1  0  0  0
 81154  1  0  0  0
 81155  1  0  0  0
 82156  1  0  0  0
 82157  1  0  0  0
 82158  1  0  0  0
 83 86  1  0  0  0
 83159  1  0  0  0
 83160  1  0  0  0
 83161  1  0  0  0
 84 85  1  0  0  0
 84162  1  0  0  0
 84163  1  0  0  0
 85 89  1  0  0  0
 85164  1  0  0  0
 85165  1  0  0  0
M  ISO  4   1 100  68 101  84 101  86 100
M  END
> <chiral flag>
0

> <version>
0

> <s_m_source_file>
/data/baiqing/PycharmProjects/Reinvent-master-3.2/result/LINK_invent/BTK/process_docking_weight1_custom_product_contain_oxygen_bond_distance_aromatic_linkinvent_7_9_3/rearranged_h_0114.sdf

> <i_m_source_file_index>
3

> <r_mmod_Potential_Energy-OPLS-2005>
177.045074462891

> <r_mmod_Stretch_Energy-OPLS-2005>
43.2764434814453

> <r_mmod_Bend_Energy-OPLS-2005>
111.616256713867

> <r_mmod_Torsional_Energy-OPLS-2005>
403.862762451172

> <r_mmod_Improper_Torsional_Energy-OPLS-2005>
14.8249778747559

> <r_mmod_Van_der_Waal_Energy-OPLS-2005>
181.185333251953

> <r_mmod_Electrostatic_Energy-OPLS-2005>
-384.619781494141

> <r_mmod_Solvation_Energy-OPLS-2005>
-215.748565673828

> <b_mmod_Minimization_Converged-OPLS-2005>
0

> <r_mmod_RMS_Derivative-OPLS-2005>
3.65532112121582

$$$$
3
                    3D
 Structure written by MMmdl.
165173  0  0  1  0            999 V2000
  -30.5742  -14.8102   20.4293 C   0  0  0  0  0  0
  -30.4313  -12.4871   19.5003 C   0  0  0  0  0  0
  -29.5208  -12.5356   18.2528 C   0  0  0  0  0  0
  -28.0455  -12.3483   18.6564 C   0  0  0  0  0  0
  -27.6433  -13.2443   19.8608 C   0  0  2  0  0  0
  -28.6837  -13.1833   21.0004 C   0  0  0  0  0  0
  -25.2522  -13.8254   20.5736 C   0  0  0  0  0  0
  -24.1812  -13.0481   20.9242 C   0  0  0  0  0  0
  -24.6421  -11.6967   20.8774 C   0  0  0  0  0  0
  -23.9095  -10.4341   21.0390 C   0  0  0  0  0  0
  -24.3651   -9.4264   21.9164 C   0  0  0  0  0  0
  -23.6327   -8.2291   22.0746 C   0  0  0  0  0  0
  -22.4309   -8.0315   21.3538 C   0  0  0  0  0  0
  -21.9949   -9.0287   20.4648 C   0  0  0  0  0  0
  -22.7258  -10.2167   20.3041 C   0  0  0  0  0  0
  -21.6864   -6.0778   22.5265 C   0  0  0  0  0  0
  -21.4027   -6.5665   23.8212 C   0  0  0  0  0  0
  -21.3653   -5.6800   24.9166 C   0  0  0  0  0  0
  -21.6053   -4.3066   24.7196 C   0  0  0  0  0  0
  -21.8825   -3.8171   23.4303 C   0  0  0  0  0  0
  -21.9213   -4.7006   22.3379 C   0  0  0  0  0  0
  -22.7833  -13.5270   21.1885 C   0  0  0  0  0  0
  -22.1677   -4.2212   21.0944 F   0  0  0  0  0  0
  -21.5626   -3.4530   25.7691 F   0  0  0  0  0  0
  -29.9841  -13.5567   20.4299 N   0  0  0  0  0  0
  -26.2951  -12.9473   20.3335 N   0  0  0  0  0  0
  -25.9357  -11.6609   20.5773 N   0  0  0  0  0  0
  -22.0433  -12.8274   22.0425 N   0  0  0  0  0  0
  -25.4240  -15.1965   20.4156 N   0  0  0  0  0  0
  -31.7429  -14.9013   20.0389 O   0  0  0  0  0  0
  -21.6649   -6.8920   21.4235 O   0  0  0  0  0  0
  -22.3541  -14.5569   20.6705 O   0  0  0  0  0  0
  -24.6327  -31.8487   23.1914 C   0  0  0  0  0  0
  -25.9144  -32.4709   23.8273 C   0  0  1  0  0  0
  -27.2337  -27.2223   20.1270 C   0  0  0  0  0  0
  -25.5928  -33.8515   24.2205 N   0  0  0  0  0  0
  -23.4319  -30.4645   21.5356 C   0  0  2  0  0  0
  -24.8861  -28.9035   20.1038 C   0  0  0  0  0  0
  -22.7508  -29.4542   22.4910 C   0  0  0  0  0  0
  -18.0284  -28.1372   22.8490 C   0  0  0  0  0  0
  -24.1495  -36.7263   23.2644 C   0  0  0  0  0  0
  -25.9765  -30.7505   21.3744 C   0  0  0  0  0  0
  -26.0536  -29.3662   20.7219 C   0  0  0  0  0  0
  -27.2236  -28.5350   20.7265 C   0  0  0  0  0  0
  -26.0400  -26.8343   19.4802 C   0  0  0  0  0  0
  -24.8878  -27.6495   19.4714 C   0  0  0  0  0  0
  -23.6527  -29.7878   20.1542 C   0  0  0  0  0  0
  -25.4120  -36.3034   24.0321 C   0  0  1  0  0  0
  -20.5894  -28.3676   23.1286 C   0  0  2  0  0  0
  -20.6773  -26.9395   22.5425 C   0  0  0  0  0  0
  -19.5748  -26.6370   21.5226 C   0  0  0  0  0  0
  -18.1924  -26.7914   22.1629 C   0  0  0  0  0  0
  -19.1543  -28.8844   23.2875 C   0  0  0  0  0  0
  -18.9461  -30.1449   23.8885 C   0  0  0  0  0  0
  -17.6459  -30.6581   24.0549 C   0  0  0  0  0  0
  -25.9061  -34.9413   23.5072 C   0  0  0  0  0  0
  -16.5347  -29.9075   23.6330 C   0  0  0  0  0  0
  -16.7268  -28.6489   23.0356 C   0  0  0  0  0  0
  -26.4517  -31.6537   25.0668 C   0  0  0  0  0  0
  -25.3730  -31.3694   26.1383 C   0  0  0  0  0  0
  -27.0365  -30.2949   24.6149 C   0  0  0  0  0  0
  -27.6066  -32.4278   25.7439 C   0  0  0  0  0  0
  -27.5575  -37.1775   24.8458 C   0  0  0  0  0  0
  -21.4208  -29.3017   22.3666 N   0  0  0  0  0  0
  -26.4279  -37.3747   23.9413 N   0  0  0  0  0  0
  -24.6991  -31.0412   22.0902 N   0  0  0  0  0  0
  -23.4198  -28.8109   23.3038 O   0  0  0  0  0  0
  -28.3426  -26.3346   20.2244 O   0  0  0  0  0  0
  -26.5645  -34.8904   22.4645 O   0  0  0  0  0  0
  -23.5470  -32.1330   23.7189 O   0  0  0  0  0  0
  -29.1399  -18.9885   23.6539 C   0  0  0  0  0  0
  -29.8865  -20.1537   23.4537 C   0  0  0  0  0  0
  -28.8215  -18.1307   22.5775 C   0  0  0  0  0  0
  -29.3121  -18.4626   21.2738 C   0  0  0  0  0  0
  -30.0752  -20.6532   22.1520 C   0  0  0  0  0  0
  -29.5500  -19.9203   21.0518 C   0  0  0  0  0  0
  -25.4806  -15.5141   25.1730 C   0  0  0  0  0  0
  -27.9282  -16.9707   22.8542 C   0  0  0  0  0  0
  -26.3118  -15.6414   24.1284 C   0  0  0  0  0  0
  -27.1379  -16.8138   23.9328 C   0  0  0  0  0  0
  -29.9408  -17.2931   20.4126 C   0  0  0  0  0  0
  -31.4887  -22.4446   22.9535 C   0  0  0  0  0  0
  -28.5076  -23.4929   20.3713 C   0  0  0  0  0  0
  -28.4695  -24.9517   19.5974 C   0  0  0  0  0  0
  -29.2218  -22.1849   19.6664 C   0  0  0  0  0  0
  -29.8042  -15.9334   20.7481 N   0  0  0  0  0  0
  -30.6158  -17.6286   19.4348 O   0  0  0  0  0  0
  -30.7002  -21.8605   21.9215 O   0  0  0  0  0  0
  -29.0720  -20.6886   19.9424 O   0  0  0  0  0  0
  -31.4780  -12.5984   19.2117 H   0  0  0  0  0  0
  -30.3610  -11.5102   19.9847 H   0  0  0  0  0  0
  -29.8156  -11.7642   17.5385 H   0  0  0  0  0  0
  -29.6516  -13.4901   17.7421 H   0  0  0  0  0  0
  -27.9149  -11.2980   18.9181 H   0  0  0  0  0  0
  -27.3862  -12.5329   17.8065 H   0  0  0  0  0  0
  -27.6344  -14.2682   19.4851 H   0  0  0  0  0  0
  -28.7258  -12.1816   21.4294 H   0  0  0  0  0  0
  -28.4079  -13.8462   21.8206 H   0  0  0  0  0  0
  -25.2793   -9.5785   22.4740 H   0  0  0  0  0  0
  -24.0060   -7.4705   22.7479 H   0  0  0  0  0  0
  -21.0868   -8.8789   19.8978 H   0  0  0  0  0  0
  -22.3684  -10.9701   19.6153 H   0  0  0  0  0  0
  -21.2001   -7.6169   23.9736 H   0  0  0  0  0  0
  -21.1463   -6.0511   25.9078 H   0  0  0  0  0  0
  -22.0607   -2.7638   23.2749 H   0  0  0  0  0  0
  -22.3982  -11.9921   22.4862 H   0  0  0  0  0  0
  -21.1045  -13.1349   22.2522 H   0  0  0  0  0  0
  -24.6580  -15.8484   20.5366 H   0  0  0  0  0  0
  -26.2577  -15.6352   20.0464 H   0  0  0  0  0  0
  -26.7193  -32.5374   23.0997 H   0  0  0  0  0  0
  -25.0046  -33.9623   25.0329 H   0  0  0  0  0  0
  -22.7288  -31.2862   21.3824 H   0  0  0  0  0  0
  -23.3753  -35.9598   23.3281 H   0  0  0  0  0  0
  -24.3586  -36.8914   22.2064 H   0  0  0  0  0  0
  -23.7254  -37.6455   23.6692 H   0  0  0  0  0  0
  -26.1078  -31.5061   20.5987 H   0  0  0  0  0  0
  -26.8568  -30.8116   22.0017 H   0  0  0  0  0  0
  -28.1130  -28.8810   21.2366 H   0  0  0  0  0  0
  -25.9616  -25.8695   19.0054 H   0  0  0  0  0  0
  -23.9957  -27.2919   18.9764 H   0  0  0  0  0  0
  -23.7623  -30.5563   19.3884 H   0  0  0  0  0  0
  -22.7736  -29.2099   19.8630 H   0  0  0  0  0  0
  -25.1303  -36.1856   25.0811 H   0  0  0  0  0  0
  -20.9972  -28.3258   24.1413 H   0  0  0  0  0  0
  -20.5674  -26.2283   23.3625 H   0  0  0  0  0  0
  -21.6638  -26.7417   22.1218 H   0  0  0  0  0  0
  -19.6914  -25.6283   21.1243 H   0  0  0  0  0  0
  -19.6694  -27.3189   20.6764 H   0  0  0  0  0  0
  -17.4205  -26.6669   21.4021 H   0  0  0  0  0  0
  -18.0313  -26.0050   22.9015 H   0  0  0  0  0  0
  -19.7936  -30.7267   24.2253 H   0  0  0  0  0  0
  -17.5008  -31.6263   24.5136 H   0  0  0  0  0  0
  -15.5342  -30.2969   23.7651 H   0  0  0  0  0  0
  -15.8668  -28.0796   22.7078 H   0  0  0  0  0  0
  -24.5920  -30.7021   25.7707 H   0  0  0  0  0  0
  -24.8914  -32.2874   26.4766 H   0  0  0  0  0  0
  -25.8059  -30.8896   27.0173 H   0  0  0  0  0  0
  -26.2944  -29.6664   24.1204 H   0  0  0  0  0  0
  -27.4083  -29.7232   25.4661 H   0  0  0  0  0  0
  -27.8807  -30.4209   23.9361 H   0  0  0  0  0  0
  -27.2671  -33.3593   26.1978 H   0  0  0  0  0  0
  -28.3902  -32.6798   25.0277 H   0  0  0  0  0  0
  -28.0698  -31.8411   26.5380 H   0  0  0  0  0  0
  -28.2564  -38.0094   24.7515 H   0  0  0  0  0  0
  -28.1087  -36.2621   24.6258 H   0  0  0  0  0  0
  -27.2290  -37.1393   25.8857 H   0  0  0  0  0  0
  -20.9396  -29.8727   21.6854 H   0  0  0  0  0  0
  -26.0140  -38.2804   24.1438 H   0  0  0  0  0  0
  -28.8705  -18.7375   24.6679 H   0  0  0  0  0  0
  -30.1924  -20.7142   24.3240 H   0  0  0  0  0  0
  -24.8764  -14.6278   25.2977 H   0  0  0  0  0  0
  -25.3903  -16.2924   25.9190 H   0  0  0  0  0  0
  -27.8715  -16.1712   22.1396 H   0  0  0  0  0  0
  -26.3644  -14.8297   23.4134 H   0  0  0  0  0  0
  -27.0945  -17.5831   24.6910 H   0  0  0  0  0  0
  -32.0230  -23.3010   22.5401 H   0  0  0  0  0  0
  -32.2348  -21.7487   23.3371 H   0  0  0  0  0  0
  -30.8776  -22.8106   23.7789 H   0  0  0  0  0  0
  -27.4826  -23.2238   20.6227 H   0  0  0  0  0  0
  -29.0023  -23.6487   21.3283 H   0  0  0  0  0  0
  -27.8077  -24.8688   18.7387 H   0  0  0  0  0  0
  -29.4498  -25.0198   19.1271 H   0  0  0  0  0  0
  -30.2883  -22.3917   19.5695 H   0  0  0  0  0  0
  -28.8704  -22.2403   18.6361 H   0  0  0  0  0  0
  -29.0247  -15.7367   21.3480 H   0  0  0  0  0  0
  1 25  1  0  0  0
  1 30  2  0  0  0
  1 86  1  0  0  0
  2  3  1  0  0  0
  2 25  1  0  0  0
  2 90  1  0  0  0
  2 91  1  0  0  0
  3  4  1  0  0  0
  3 92  1  0  0  0
  3 93  1  0  0  0
  4  5  1  0  0  0
  4 94  1  0  0  0
  4 95  1  0  0  0
  5  6  1  0  0  0
  5 26  1  0  0  0
  5 96  1  0  0  0
  6 25  1  0  0  0
  6 97  1  0  0  0
  6 98  1  0  0  0
  7  8  2  0  0  0
  7 26  1  0  0  0
  7 29  1  0  0  0
  8  9  1  0  0  0
  8 22  1  0  0  0
  9 10  1  0  0  0
  9 27  2  0  0  0
 10 11  2  0  0  0
 10 15  1  0  0  0
 11 12  1  0  0  0
 11 99  1  0  0  0
 12 13  2  0  0  0
 12100  1  0  0  0
 13 14  1  0  0  0
 13 31  1  0  0  0
 14 15  2  0  0  0
 14101  1  0  0  0
 15102  1  0  0  0
 16 17  2  0  0  0
 16 21  1  0  0  0
 16 31  1  0  0  0
 17 18  1  0  0  0
 17103  1  0  0  0
 18 19  2  0  0  0
 18104  1  0  0  0
 19 20  1  0  0  0
 19 24  1  0  0  0
 20 21  2  0  0  0
 20105  1  0  0  0
 21 23  1  0  0  0
 22 28  1  0  0  0
 22 32  2  0  0  0
 26 27  1  0  0  0
 28106  1  0  0  0
 28107  1  0  0  0
 29108  1  0  0  0
 29109  1  0  0  0
 33 34  1  0  0  0
 33 66  1  0  0  0
 33 70  2  0  0  0
 34 36  1  0  0  0
 34 59  1  0  0  0
 34110  1  0  0  0
 35 44  2  0  0  0
 35 45  1  0  0  0
 35 68  1  0  0  0
 36 56  1  0  0  0
 36111  1  0  0  0
 37 39  1  0  0  0
 37 47  1  0  0  0
 37 66  1  0  0  0
 37112  1  0  0  0
 38 43  2  0  0  0
 38 46  1  0  0  0
 38 47  1  0  0  0
 39 64  1  0  0  0
 39 67  2  0  0  0
 40 52  1  0  0  0
 40 53  2  0  0  0
 40 58  1  0  0  0
 41113  1  0  0  0
 41114  1  0  0  0
 41115  1  0  0  0
 41 48  1  0  0  0
 42 43  1  0  0  0
 42 66  1  0  0  0
 42116  1  0  0  0
 42117  1  0  0  0
 43 44  1  0  0  0
 44118  1  0  0  0
 45 46  2  0  0  0
 45119  1  0  0  0
 46120  1  0  0  0
 47121  1  0  0  0
 47122  1  0  0  0
 48 56  1  0  0  0
 48 65  1  0  0  0
 48123  1  0  0  0
 49 50  1  0  0  0
 49 53  1  0  0  0
 49 64  1  0  0  0
 49124  1  0  0  0
 50 51  1  0  0  0
 50125  1  0  0  0
 50126  1  0  0  0
 51 52  1  0  0  0
 51127  1  0  0  0
 51128  1  0  0  0
 52129  1  0  0  0
 52130  1  0  0  0
 53 54  1  0  0  0
 54 55  2  0  0  0
 54131  1  0  0  0
 55 57  1  0  0  0
 55132  1  0  0  0
 56 69  2  0  0  0
 57 58  2  0  0  0
 57133  1  0  0  0
 58134  1  0  0  0
 59 60  1  0  0  0
 59 61  1  0  0  0
 59 62  1  0  0  0
 60135  1  0  0  0
 60136  1  0  0  0
 60137  1  0  0  0
 61138  1  0  0  0
 61139  1  0  0  0
 61140  1  0  0  0
 62141  1  0  0  0
 62142  1  0  0  0
 62143  1  0  0  0
 63 65  1  0  0  0
 63144  1  0  0  0
 63145  1  0  0  0
 63146  1  0  0  0
 64147  1  0  0  0
 65148  1  0  0  0
 68 84  1  0  0  0
 71 72  2  0  0  0
 71 73  1  0  0  0
 71149  1  0  0  0
 72 75  1  0  0  0
 72150  1  0  0  0
 73 74  2  0  0  0
 73 78  1  0  0  0
 74 76  1  0  0  0
 74 81  1  0  0  0
 75 76  2  0  0  0
 75 88  1  0  0  0
 76 89  1  0  0  0
 77 79  2  0  0  0
 77151  1  0  0  0
 77152  1  0  0  0
 78 80  2  0  0  0
 78153  1  0  0  0
 79 80  1  0  0  0
 79154  1  0  0  0
 80155  1  0  0  0
 81 86  1  0  0  0
 81 87  2  0  0  0
 82 88  1  0  0  0
 82156  1  0  0  0
 82157  1  0  0  0
 82158  1  0  0  0
 83 84  1  0  0  0
 83 85  1  0  0  0
 83159  1  0  0  0
 83160  1  0  0  0
 84161  1  0  0  0
 84162  1  0  0  0
 85 89  1  0  0  0
 85163  1  0  0  0
 85164  1  0  0  0
 86165  1  0  0  0
M  ISO  4   1 100  68 101  84 101  86 100
M  END
> <chiral flag>
0

> <version>
0

> <s_m_source_file>
/data/baiqing/PycharmProjects/Reinvent-master-3.2/result/LINK_invent/BTK/process_docking_weight1_custom_product_contain_oxygen_bond_distance_aromatic_linkinvent_7_9_3/rearranged_h_0114.sdf

> <i_m_source_file_index>
4

> <r_mmod_Potential_Energy-OPLS-2005>
479.600402832031

> <r_mmod_Stretch_Energy-OPLS-2005>
183.166961669922

> <r_mmod_Bend_Energy-OPLS-2005>
267.466400146484

> <r_mmod_Torsional_Energy-OPLS-2005>
383.690948486328

> <r_mmod_Improper_Torsional_Energy-OPLS-2005>
9.34589385986328

> <r_mmod_Van_der_Waal_Energy-OPLS-2005>
150.396850585938

> <r_mmod_Electrostatic_Energy-OPLS-2005>
-393.01513671875

> <r_mmod_Solvation_Energy-OPLS-2005>
-231.907455444336

> <b_mmod_Minimization_Converged-OPLS-2005>
0

> <r_mmod_RMS_Derivative-OPLS-2005>
3.27443933486938

$$$$
4
                    3D
 Structure written by MMmdl.
166174  0  0  1  0            999 V2000
  -30.6588  -14.6594   20.3309 C   0  0  0  0  0  0
  -30.4193  -12.3845   19.4191 C   0  0  0  0  0  0
  -29.4773  -12.4451   18.1979 C   0  0  0  0  0  0
  -27.9982  -12.3354   18.6261 C   0  0  0  0  0  0
  -27.6374  -13.2127   19.8576 C   0  0  2  0  0  0
  -28.7070  -13.1425   20.9585 C   0  0  0  0  0  0
  -25.2496  -13.8082   20.6261 C   0  0  0  0  0  0
  -24.1698  -13.0314   20.9255 C   0  0  0  0  0  0
  -24.6313  -11.6825   20.8687 C   0  0  0  0  0  0
  -23.9039  -10.4218   21.0344 C   0  0  0  0  0  0
  -24.3607   -9.4169   21.9132 C   0  0  0  0  0  0
  -23.6279   -8.2211   22.0723 C   0  0  0  0  0  0
  -22.4255   -8.0251   21.3522 C   0  0  0  0  0  0
  -21.9892   -9.0215   20.4624 C   0  0  0  0  0  0
  -22.7225  -10.2079   20.3010 C   0  0  0  0  0  0
  -21.6845   -6.0742   22.5280 C   0  0  0  0  0  0
  -21.4010   -6.5651   23.8217 C   0  0  0  0  0  0
  -21.3651   -5.6794   24.9175 C   0  0  0  0  0  0
  -21.6037   -4.3057   24.7220 C   0  0  0  0  0  0
  -21.8827   -3.8155   23.4342 C   0  0  0  0  0  0
  -21.9194   -4.6973   22.3398 C   0  0  0  0  0  0
  -22.7732  -13.5138   21.1871 C   0  0  0  0  0  0
  -22.1659   -4.2175   21.0969 F   0  0  0  0  0  0
  -21.5619   -3.4539   25.7725 F   0  0  0  0  0  0
  -29.9984  -13.4564   20.3349 N   0  0  0  0  0  0
  -26.2909  -12.9341   20.3494 N   0  0  0  0  0  0
  -25.9249  -11.6461   20.5718 N   0  0  0  0  0  0
  -22.0362  -12.8113   22.0394 N   0  0  0  0  0  0
  -25.4078  -15.1823   20.5755 N   0  0  0  0  0  0
  -31.8885  -14.6900   20.3910 O   0  0  0  0  0  0
  -21.6616   -6.8869   21.4238 O   0  0  0  0  0  0
  -22.3442  -14.5471   20.6743 O   0  0  0  0  0  0
  -24.6150  -31.8644   23.2077 C   0  0  0  0  0  0
  -25.9034  -32.4811   23.8380 C   0  0  1  0  0  0
  -27.2441  -27.3977   20.1140 C   0  0  0  0  0  0
  -25.5880  -33.8615   24.2312 N   0  0  0  0  0  0
  -23.4060  -30.4880   21.5477 C   0  0  2  0  0  0
  -24.8535  -28.9489   20.1151 C   0  0  0  0  0  0
  -22.7458  -29.4631   22.4978 C   0  0  0  0  0  0
  -18.0300  -28.1352   22.8520 C   0  0  0  0  0  0
  -24.1488  -36.7321   23.2634 C   0  0  0  0  0  0
  -25.9349  -30.8259   21.3625 C   0  0  0  0  0  0
  -26.0119  -29.4544   20.7130 C   0  0  0  0  0  0
  -27.2021  -28.6872   20.7069 C   0  0  0  0  0  0
  -26.0593  -26.9163   19.5084 C   0  0  0  0  0  0
  -24.8739  -27.6779   19.5119 C   0  0  0  0  0  0
  -23.6159  -29.8191   20.1617 C   0  0  0  0  0  0
  -25.4101  -36.3108   24.0335 C   0  0  1  0  0  0
  -20.5905  -28.3666   23.1383 C   0  0  2  0  0  0
  -20.6796  -26.9451   22.5356 C   0  0  0  0  0  0
  -19.5780  -26.6553   21.5091 C   0  0  0  0  0  0
  -18.1974  -26.7956   22.1557 C   0  0  0  0  0  0
  -19.1550  -28.8831   23.2953 C   0  0  0  0  0  0
  -18.9419  -30.1460   23.8904 C   0  0  0  0  0  0
  -17.6415  -30.6622   24.0514 C   0  0  0  0  0  0
  -25.9019  -34.9466   23.5108 C   0  0  0  0  0  0
  -16.5334  -29.9056   23.6316 C   0  0  0  0  0  0
  -16.7279  -28.6472   23.0374 C   0  0  0  0  0  0
  -26.4477  -31.6612   25.0726 C   0  0  0  0  0  0
  -25.3763  -31.3708   26.1487 C   0  0  0  0  0  0
  -27.0292  -30.3046   24.6120 C   0  0  0  0  0  0
  -27.6037  -32.4342   25.7523 C   0  0  0  0  0  0
  -27.5580  -37.1810   24.8463 C   0  0  0  0  0  0
  -21.4149  -29.3129   22.3856 N   0  0  0  0  0  0
  -26.4295  -37.3793   23.9401 N   0  0  0  0  0  0
  -24.6703  -31.0760   22.0966 N   0  0  0  0  0  0
  -23.4251  -28.8066   23.2899 O   0  0  0  0  0  0
  -28.4422  -26.6924   20.1516 O   0  0  0  0  0  0
  -26.5597  -34.8915   22.4685 O   0  0  0  0  0  0
  -23.5332  -32.1401   23.7463 O   0  0  0  0  0  0
  -29.7182  -18.0952   20.5232 C   0  0  0  0  0  0
  -26.9867  -18.0239   20.0802 C   0  0  0  0  0  0
  -29.1734  -16.9319   19.8863 C   0  0  0  0  0  0
  -27.8195  -17.0767   19.4500 C   0  0  0  0  0  0
  -28.9293  -19.2455   20.8691 C   0  0  0  0  0  0
  -27.5189  -19.0898   20.8394 C   0  0  0  0  0  0
  -27.0639  -18.5591   16.8465 C   0  0  0  0  0  0
  -26.5605  -17.3762   17.2351 C   0  0  0  0  0  0
  -30.0635  -15.7888   19.4011 C   0  0  0  0  0  0
  -25.3708  -19.6395   21.7909 C   0  0  0  0  0  0
  -27.2460  -16.4058   18.1873 C   0  0  0  0  0  0
  -28.8161  -24.3855   21.1036 C   0  0  0  0  0  0
  -29.5861  -23.0263   20.8867 C   0  0  0  0  0  0
  -28.5519  -25.2744   19.8443 C   0  0  0  0  0  0
  -28.7968  -21.7111   21.1788 C   0  0  0  0  0  0
  -30.4198  -15.8184   18.1815 N   0  0  0  0  0  0
  -26.7003  -20.0169   21.4559 O   0  0  0  0  0  0
  -29.5581  -20.4623   21.1952 O   0  0  0  0  0  0
  -31.4563  -12.5081   19.0971 H   0  0  0  0  0  0
  -30.3602  -11.4118   19.9097 H   0  0  0  0  0  0
  -29.7120  -11.6355   17.5057 H   0  0  0  0  0  0
  -29.6361  -13.3647   17.6360 H   0  0  0  0  0  0
  -27.8020  -11.2878   18.8531 H   0  0  0  0  0  0
  -27.3480  -12.5909   17.7874 H   0  0  0  0  0  0
  -27.6370  -14.2369   19.5144 H   0  0  0  0  0  0
  -28.7277  -12.1448   21.4020 H   0  0  0  0  0  0
  -28.4882  -13.8452   21.7639 H   0  0  0  0  0  0
  -25.2764   -9.5671   22.4695 H   0  0  0  0  0  0
  -24.0017   -7.4611   22.7463 H   0  0  0  0  0  0
  -21.0815   -8.8739   19.8937 H   0  0  0  0  0  0
  -22.3684  -10.9627   19.6111 H   0  0  0  0  0  0
  -21.1996   -7.6156   23.9739 H   0  0  0  0  0  0
  -21.1457   -6.0507   25.9078 H   0  0  0  0  0  0
  -22.0610   -2.7627   23.2826 H   0  0  0  0  0  0
  -22.3998  -11.9759   22.4739 H   0  0  0  0  0  0
  -21.0934  -13.1058   22.2570 H   0  0  0  0  0  0
  -24.6467  -15.7943   20.8476 H   0  0  0  0  0  0
  -26.3030  -15.6526   20.5297 H   0  0  0  0  0  0
  -26.7111  -32.5521   23.1144 H   0  0  0  0  0  0
  -25.0063  -33.9780   25.0479 H   0  0  0  0  0  0
  -22.6928  -31.3015   21.4116 H   0  0  0  0  0  0
  -23.3749  -35.9662   23.3305 H   0  0  0  0  0  0
  -24.3581  -36.8933   22.2045 H   0  0  0  0  0  0
  -23.7252  -37.6529   23.6654 H   0  0  0  0  0  0
  -26.0511  -31.5962   20.5972 H   0  0  0  0  0  0
  -26.8185  -30.8760   21.9870 H   0  0  0  0  0  0
  -28.0961  -29.0716   21.1774 H   0  0  0  0  0  0
  -26.0114  -25.9545   19.0258 H   0  0  0  0  0  0
  -23.9819  -27.2868   19.0416 H   0  0  0  0  0  0
  -23.7206  -30.5956   19.4048 H   0  0  0  0  0  0
  -22.7425  -29.2385   19.8619 H   0  0  0  0  0  0
  -25.1288  -36.1974   25.0838 H   0  0  0  0  0  0
  -21.0008  -28.3188   24.1519 H   0  0  0  0  0  0
  -20.5724  -26.2196   23.3449 H   0  0  0  0  0  0
  -21.6661  -26.7561   22.1099 H   0  0  0  0  0  0
  -19.7008  -25.6545   21.0928 H   0  0  0  0  0  0
  -19.6649  -27.3545   20.6766 H   0  0  0  0  0  0
  -17.4194  -26.6723   21.4009 H   0  0  0  0  0  0
  -18.0467  -26.0086   22.8949 H   0  0  0  0  0  0
  -19.7857  -30.7277   24.2325 H   0  0  0  0  0  0
  -17.4921  -31.6325   24.5054 H   0  0  0  0  0  0
  -15.5323  -30.2909   23.7647 H   0  0  0  0  0  0
  -15.8669  -28.0784   22.7153 H   0  0  0  0  0  0
  -24.5928  -30.7069   25.7840 H   0  0  0  0  0  0
  -24.8974  -32.2852   26.4990 H   0  0  0  0  0  0
  -25.8120  -30.8852   27.0229 H   0  0  0  0  0  0
  -26.2812  -29.6830   24.1184 H   0  0  0  0  0  0
  -27.4053  -29.7277   25.4587 H   0  0  0  0  0  0
  -27.8672  -30.4371   23.9268 H   0  0  0  0  0  0
  -27.2636  -33.3613   26.2168 H   0  0  0  0  0  0
  -28.3836  -32.6957   25.0358 H   0  0  0  0  0  0
  -28.0738  -31.8442   26.5406 H   0  0  0  0  0  0
  -28.2596  -38.0109   24.7501 H   0  0  0  0  0  0
  -28.1074  -36.2633   24.6303 H   0  0  0  0  0  0
  -27.2296  -37.1480   25.8868 H   0  0  0  0  0  0
  -20.9260  -29.9054   21.7298 H   0  0  0  0  0  0
  -26.0178  -38.2878   24.1402 H   0  0  0  0  0  0
  -30.7880  -18.1536   20.6528 H   0  0  0  0  0  0
  -25.9360  -18.0206   19.8330 H   0  0  0  0  0  0
  -26.5218  -19.1971   16.1656 H   0  0  0  0  0  0
  -28.0175  -18.9130   17.2090 H   0  0  0  0  0  0
  -25.6033  -17.0595   16.8433 H   0  0  0  0  0  0
  -25.3706  -18.7130   22.3643 H   0  0  0  0  0  0
  -24.7367  -19.5398   20.9102 H   0  0  0  0  0  0
  -24.9194  -20.4000   22.4260 H   0  0  0  0  0  0
  -26.4910  -15.6702   18.4375 H   0  0  0  0  0  0
  -27.9791  -15.8662   17.5973 H   0  0  0  0  0  0
  -27.8787  -24.2146   21.6370 H   0  0  0  0  0  0
  -29.4257  -24.9884   21.7810 H   0  0  0  0  0  0
  -30.4504  -23.0368   21.5492 H   0  0  0  0  0  0
  -29.9937  -22.9890   19.8771 H   0  0  0  0  0  0
  -27.7283  -24.8666   19.2655 H   0  0  0  0  0  0
  -29.4124  -25.1944   19.1788 H   0  0  0  0  0  0
  -28.3171  -21.8127   22.1533 H   0  0  0  0  0  0
  -28.0103  -21.6718   20.4253 H   0  0  0  0  0  0
  -29.9871  -16.5982   17.7025 H   0  0  0  0  0  0
  1 25  1  0  0  0
  1 30  2  0  0  0
  1 79  1  0  0  0
  2  3  1  0  0  0
  2 25  1  0  0  0
  2 89  1  0  0  0
  2 90  1  0  0  0
  3  4  1  0  0  0
  3 91  1  0  0  0
  3 92  1  0  0  0
  4  5  1  0  0  0
  4 93  1  0  0  0
  4 94  1  0  0  0
  5  6  1  0  0  0
  5 26  1  0  0  0
  5 95  1  0  0  0
  6 25  1  0  0  0
  6 96  1  0  0  0
  6 97  1  0  0  0
  7  8  2  0  0  0
  7 26  1  0  0  0
  7 29  1  0  0  0
  8  9  1  0  0  0
  8 22  1  0  0  0
  9 10  1  0  0  0
  9 27  2  0  0  0
 10 11  2  0  0  0
 10 15  1  0  0  0
 11 12  1  0  0  0
 11 98  1  0  0  0
 12 13  2  0  0  0
 12 99  1  0  0  0
 13 14  1  0  0  0
 13 31  1  0  0  0
 14 15  2  0  0  0
 14100  1  0  0  0
 15101  1  0  0  0
 16 17  2  0  0  0
 16 21  1  0  0  0
 16 31  1  0  0  0
 17 18  1  0  0  0
 17102  1  0  0  0
 18 19  2  0  0  0
 18103  1  0  0  0
 19 20  1  0  0  0
 19 24  1  0  0  0
 20 21  2  0  0  0
 20104  1  0  0  0
 21 23  1  0  0  0
 22 28  1  0  0  0
 22 32  2  0  0  0
 26 27  1  0  0  0
 28105  1  0  0  0
 28106  1  0  0  0
 29107  1  0  0  0
 29108  1  0  0  0
 33 34  1  0  0  0
 33 66  1  0  0  0
 33 70  2  0  0  0
 34 36  1  0  0  0
 34 59  1  0  0  0
 34109  1  0  0  0
 35 44  2  0  0  0
 35 45  1  0  0  0
 35 68  1  0  0  0
 36 56  1  0  0  0
 36110  1  0  0  0
 37 39  1  0  0  0
 37 47  1  0  0  0
 37 66  1  0  0  0
 37111  1  0  0  0
 38 43  2  0  0  0
 38 46  1  0  0  0
 38 47  1  0  0  0
 39 64  1  0  0  0
 39 67  2  0  0  0
 40 52  1  0  0  0
 40 53  2  0  0  0
 40 58  1  0  0  0
 41112  1  0  0  0
 41113  1  0  0  0
 41114  1  0  0  0
 41 48  1  0  0  0
 42 43  1  0  0  0
 42 66  1  0  0  0
 42115  1  0  0  0
 42116  1  0  0  0
 43 44  1  0  0  0
 44117  1  0  0  0
 45 46  2  0  0  0
 45118  1  0  0  0
 46119  1  0  0  0
 47120  1  0  0  0
 47121  1  0  0  0
 48 56  1  0  0  0
 48 65  1  0  0  0
 48122  1  0  0  0
 49 50  1  0  0  0
 49 53  1  0  0  0
 49 64  1  0  0  0
 49123  1  0  0  0
 50 51  1  0  0  0
 50124  1  0  0  0
 50125  1  0  0  0
 51 52  1  0  0  0
 51126  1  0  0  0
 51127  1  0  0  0
 52128  1  0  0  0
 52129  1  0  0  0
 53 54  1  0  0  0
 54 55  2  0  0  0
 54130  1  0  0  0
 55 57  1  0  0  0
 55131  1  0  0  0
 56 69  2  0  0  0
 57 58  2  0  0  0
 57132  1  0  0  0
 58133  1  0  0  0
 59 60  1  0  0  0
 59 61  1  0  0  0
 59 62  1  0  0  0
 60134  1  0  0  0
 60135  1  0  0  0
 60136  1  0  0  0
 61137  1  0  0  0
 61138  1  0  0  0
 61139  1  0  0  0
 62140  1  0  0  0
 62141  1  0  0  0
 62142  1  0  0  0
 63 65  1  0  0  0
 63143  1  0  0  0
 63144  1  0  0  0
 63145  1  0  0  0
 64146  1  0  0  0
 65147  1  0  0  0
 68 84  1  0  0  0
 71 73  2  0  0  0
 71 75  1  0  0  0
 71148  1  0  0  0
 72 74  2  0  0  0
 72 76  1  0  0  0
 72149  1  0  0  0
 73 74  1  0  0  0
 73 79  1  0  0  0
 74 81  1  0  0  0
 75 76  2  0  0  0
 75 88  1  0  0  0
 76 87  1  0  0  0
 77 78  2  0  0  0
 77150  1  0  0  0
 77151  1  0  0  0
 78 81  1  0  0  0
 78152  1  0  0  0
 79 86  2  0  0  0
 80 87  1  0  0  0
 80153  1  0  0  0
 80154  1  0  0  0
 80155  1  0  0  0
 81156  1  0  0  0
 81157  1  0  0  0
 82 83  1  0  0  0
 82 84  1  0  0  0
 82158  1  0  0  0
 82159  1  0  0  0
 83 85  1  0  0  0
 83160  1  0  0  0
 83161  1  0  0  0
 84162  1  0  0  0
 84163  1  0  0  0
 85 88  1  0  0  0
 85164  1  0  0  0
 85165  1  0  0  0
 86166  1  0  0  0
M  ISO  4   1 100  68 101  79 100  84 101
M  END
> <chiral flag>
0

> <version>
0

> <s_m_source_file>
/data/baiqing/PycharmProjects/Reinvent-master-3.2/result/LINK_invent/BTK/process_docking_weight1_custom_product_contain_oxygen_bond_distance_aromatic_linkinvent_7_9_3/rearranged_h_0114.sdf

> <i_m_source_file_index>
5

> <r_mmod_Potential_Energy-OPLS-2005>
434.7490234375

> <r_mmod_Stretch_Energy-OPLS-2005>
73.3649215698242

> <r_mmod_Bend_Energy-OPLS-2005>
166.440841674805

> <r_mmod_Torsional_Energy-OPLS-2005>
366.810577392578

> <r_mmod_Improper_Torsional_Energy-OPLS-2005>
35.9171447753906

> <r_mmod_Van_der_Waal_Energy-OPLS-2005>
162.655380249023

> <r_mmod_Electrostatic_Energy-OPLS-2005>
-232.09196472168

> <r_mmod_Solvation_Energy-OPLS-2005>
-201.031875610352

> <b_mmod_Minimization_Converged-OPLS-2005>
0

> <r_mmod_RMS_Derivative-OPLS-2005>
5.6267786026001

$$$$
5
                    3D
 Structure written by MMmdl.
147155  0  0  1  0            999 V2000
  -30.4905  -15.0675   20.3901 C   0  0  0  0  0  0
  -30.4354  -12.6564   19.5385 C   0  0  0  0  0  0
  -29.5336  -12.5738   18.2827 C   0  0  0  0  0  0
  -28.0675  -12.3382   18.6863 C   0  0  0  0  0  0
  -27.6278  -13.2676   19.8458 C   0  0  2  0  0  0
  -28.6614  -13.3315   20.9943 C   0  0  0  0  0  0
  -25.2424  -13.8256   20.5727 C   0  0  0  0  0  0
  -24.1748  -13.0450   20.9210 C   0  0  0  0  0  0
  -24.6393  -11.6943   20.8730 C   0  0  0  0  0  0
  -23.9083  -10.4296   21.0393 C   0  0  0  0  0  0
  -24.3627   -9.4208   21.9168 C   0  0  0  0  0  0
  -23.6296   -8.2247   22.0757 C   0  0  0  0  0  0
  -22.4271   -8.0286   21.3556 C   0  0  0  0  0  0
  -21.9905   -9.0260   20.4657 C   0  0  0  0  0  0
  -22.7249  -10.2129   20.3050 C   0  0  0  0  0  0
  -21.6856   -6.0735   22.5272 C   0  0  0  0  0  0
  -21.4027   -6.5638   23.8205 C   0  0  0  0  0  0
  -21.3658   -5.6788   24.9161 C   0  0  0  0  0  0
  -21.6043   -4.3053   24.7212 C   0  0  0  0  0  0
  -21.8814   -3.8147   23.4333 C   0  0  0  0  0  0
  -21.9195   -4.6964   22.3392 C   0  0  0  0  0  0
  -22.7760  -13.5212   21.1875 C   0  0  0  0  0  0
  -22.1657   -4.2157   21.0968 F   0  0  0  0  0  0
  -21.5624   -3.4532   25.7723 F   0  0  0  0  0  0
  -29.9374  -13.7729   20.4115 N   0  0  0  0  0  0
  -26.2868  -12.9520   20.3249 N   0  0  0  0  0  0
  -25.9338  -11.6635   20.5706 N   0  0  0  0  0  0
  -22.0416  -12.8203   22.0433 N   0  0  0  0  0  0
  -25.4078  -15.1992   20.4200 N   0  0  0  0  0  0
  -31.6514  -15.1377   19.9672 O   0  0  0  0  0  0
  -21.6644   -6.8878   21.4239 O   0  0  0  0  0  0
  -22.3424  -14.5512   20.6719 O   0  0  0  0  0  0
  -24.6502  -31.8330   23.1785 C   0  0  0  0  0  0
  -25.9234  -32.4628   23.8217 C   0  0  1  0  0  0
  -27.2304  -27.0442   20.1650 C   0  0  0  0  0  0
  -25.5951  -33.8441   24.2132 N   0  0  0  0  0  0
  -23.4606  -30.4446   21.5231 C   0  0  2  0  0  0
  -24.9176  -28.8524   20.0963 C   0  0  0  0  0  0
  -22.7611  -29.4468   22.4802 C   0  0  0  0  0  0
  -18.0321  -28.1396   22.8473 C   0  0  0  0  0  0
  -24.1499  -36.7224   23.2646 C   0  0  0  0  0  0
  -26.0193  -30.6728   21.3955 C   0  0  0  0  0  0
  -26.0885  -29.2754   20.7356 C   0  0  0  0  0  0
  -27.2332  -28.3820   20.7620 C   0  0  0  0  0  0
  -26.0417  -26.7445   19.4668 C   0  0  0  0  0  0
  -24.9130  -27.6047   19.4448 C   0  0  0  0  0  0
  -23.6942  -29.7639   20.1434 C   0  0  0  0  0  0
  -25.4131  -36.2989   24.0312 C   0  0  1  0  0  0
  -20.5937  -28.3731   23.1217 C   0  0  2  0  0  0
  -20.6792  -26.9417   22.5418 C   0  0  0  0  0  0
  -19.5770  -26.6368   21.5220 C   0  0  0  0  0  0
  -18.1950  -26.7935   22.1623 C   0  0  0  0  0  0
  -19.1579  -28.8882   23.2838 C   0  0  0  0  0  0
  -18.9488  -30.1473   23.8871 C   0  0  0  0  0  0
  -17.6479  -30.6584   24.0556 C   0  0  0  0  0  0
  -25.9083  -34.9369   23.5039 C   0  0  0  0  0  0
  -16.5374  -29.9072   23.6332 C   0  0  0  0  0  0
  -16.7303  -28.6494   23.0351 C   0  0  0  0  0  0
  -26.4522  -31.6535   25.0701 C   0  0  0  0  0  0
  -25.3685  -31.3767   26.1385 C   0  0  0  0  0  0
  -27.0383  -30.2909   24.6359 C   0  0  0  0  0  0
  -27.6047  -32.4316   25.7482 C   0  0  0  0  0  0
  -27.5578  -37.1764   24.8461 C   0  0  0  0  0  0
  -21.4294  -29.3030   22.3563 N   0  0  0  0  0  0
  -26.4286  -37.3713   23.9404 N   0  0  0  0  0  0
  -24.7296  -31.0080   22.0872 N   0  0  0  0  0  0
  -23.4204  -28.8040   23.3009 O   0  0  0  0  0  0
  -28.2515  -26.0160   20.3609 O   0  0  0  0  0  0
  -26.5692  -34.8890   22.4633 O   0  0  0  0  0  0
  -23.5598  -32.1270   23.6936 O   0  0  0  0  0  0
  -28.6998  -17.5453   18.9950 C   0  0  0  0  0  0
  -29.6086  -19.1163   20.5828 C   0  0  0  0  0  0
  -29.4672  -17.6221   20.1010 C   0  0  0  0  0  0
  -28.9242  -20.2557   20.0413 C   0  0  0  0  0  0
  -28.0095  -18.7096   18.3596 C   0  0  0  0  0  0
  -29.1397  -21.8371   20.1842 C   0  0  0  0  0  0
  -28.2896  -22.9950   20.0118 C   0  0  0  0  0  0
  -28.5359  -24.6308   19.6338 C   0  0  0  0  0  0
  -29.7536  -16.2600   20.7486 N   0  0  0  0  0  0
  -27.3584  -18.5734   17.3218 O   0  0  0  0  0  0
  -28.0736  -19.9509   18.9963 O   0  0  0  0  0  0
  -31.4749  -12.7990   19.2408 H   0  0  0  0  0  0
  -30.4195  -11.7092   20.0796 H   0  0  0  0  0  0
  -29.8749  -11.7849   17.6109 H   0  0  0  0  0  0
  -29.6111  -13.5063   17.7210 H   0  0  0  0  0  0
  -27.9652  -11.2956   18.9901 H   0  0  0  0  0  0
  -27.4133  -12.4689   17.8235 H   0  0  0  0  0  0
  -27.5799  -14.2643   19.4069 H   0  0  0  0  0  0
  -28.7622  -12.3620   21.4856 H   0  0  0  0  0  0
  -28.3352  -14.0341   21.7617 H   0  0  0  0  0  0
  -25.2768   -9.5681   22.4737 H   0  0  0  0  0  0
  -24.0006   -7.4637   22.7474 H   0  0  0  0  0  0
  -21.0834   -8.8780   19.8964 H   0  0  0  0  0  0
  -22.3708  -10.9661   19.6153 H   0  0  0  0  0  0
  -21.2036   -7.6147   23.9709 H   0  0  0  0  0  0
  -21.1482   -6.0517   25.9064 H   0  0  0  0  0  0
  -22.0601   -2.7613   23.2827 H   0  0  0  0  0  0
  -22.4055  -11.9884   22.4844 H   0  0  0  0  0  0
  -21.1038  -13.1217   22.2652 H   0  0  0  0  0  0
  -24.6444  -15.8526   20.5543 H   0  0  0  0  0  0
  -26.2570  -15.6433   20.0989 H   0  0  0  0  0  0
  -26.7304  -32.5193   23.0938 H   0  0  0  0  0  0
  -25.0046  -33.9543   25.0247 H   0  0  0  0  0  0
  -22.7666  -31.2718   21.3597 H   0  0  0  0  0  0
  -23.3758  -35.9559   23.3300 H   0  0  0  0  0  0
  -24.3575  -36.8862   22.2060 H   0  0  0  0  0  0
  -23.7262  -37.6420   23.6696 H   0  0  0  0  0  0
  -26.1889  -31.4223   20.6211 H   0  0  0  0  0  0
  -26.8838  -30.7242   22.0458 H   0  0  0  0  0  0
  -28.1109  -28.6872   21.3144 H   0  0  0  0  0  0
  -25.9464  -25.7775   18.9938 H   0  0  0  0  0  0
  -24.0203  -27.2727   18.9327 H   0  0  0  0  0  0
  -23.8353  -30.5374   19.3874 H   0  0  0  0  0  0
  -22.8076  -29.2090   19.8310 H   0  0  0  0  0  0
  -25.1322  -36.1802   25.0804 H   0  0  0  0  0  0
  -21.0041  -28.3344   24.1335 H   0  0  0  0  0  0
  -20.5668  -26.2347   23.3654 H   0  0  0  0  0  0
  -21.6659  -26.7393   22.1231 H   0  0  0  0  0  0
  -19.6924  -25.6267   21.1273 H   0  0  0  0  0  0
  -19.6714  -27.3162   20.6736 H   0  0  0  0  0  0
  -17.4224  -26.6695   21.4017 H   0  0  0  0  0  0
  -18.0337  -26.0086   22.9030 H   0  0  0  0  0  0
  -19.7958  -30.7300   24.2236 H   0  0  0  0  0  0
  -17.5021  -31.6261   24.5167 H   0  0  0  0  0  0
  -15.5365  -30.2951   23.7660 H   0  0  0  0  0  0
  -15.8714  -28.0785   22.7078 H   0  0  0  0  0  0
  -24.5876  -30.7098   25.7704 H   0  0  0  0  0  0
  -24.8859  -32.2963   26.4713 H   0  0  0  0  0  0
  -25.7944  -30.8999   27.0225 H   0  0  0  0  0  0
  -26.3002  -29.6613   24.1376 H   0  0  0  0  0  0
  -27.3947  -29.7236   25.4965 H   0  0  0  0  0  0
  -27.8942  -30.4088   23.9713 H   0  0  0  0  0  0
  -27.2641  -33.3639   26.2001 H   0  0  0  0  0  0
  -28.3885  -32.6842   25.0330 H   0  0  0  0  0  0
  -28.0701  -31.8492   26.5444 H   0  0  0  0  0  0
  -28.2578  -38.0073   24.7495 H   0  0  0  0  0  0
  -28.1090  -36.2598   24.6293 H   0  0  0  0  0  0
  -27.2302  -37.1419   25.8867 H   0  0  0  0  0  0
  -20.9529  -29.8704   21.6693 H   0  0  0  0  0  0
  -26.0141  -38.2779   24.1397 H   0  0  0  0  0  0
  -28.4623  -16.5809   18.5735 H   0  0  0  0  0  0
  -30.3673  -19.3205   21.3247 H   0  0  0  0  0  0
  -30.1835  -22.0976   20.2873 H   0  0  0  0  0  0
  -27.2370  -22.7556   19.9617 H   0  0  0  0  0  0
  -28.1104  -24.7428   18.6377 H   0  0  0  0  0  0
  -29.6110  -24.6738   19.4623 H   0  0  0  0  0  0
  -28.9930  -15.9983   21.3590 H   0  0  0  0  0  0
  1 25  1  0  0  0
  1 30  2  0  0  0
  1 79  1  0  0  0
  2  3  1  0  0  0
  2 25  1  0  0  0
  2 82  1  0  0  0
  2 83  1  0  0  0
  3  4  1  0  0  0
  3 84  1  0  0  0
  3 85  1  0  0  0
  4  5  1  0  0  0
  4 86  1  0  0  0
  4 87  1  0  0  0
  5  6  1  0  0  0
  5 26  1  0  0  0
  5 88  1  0  0  0
  6 25  1  0  0  0
  6 89  1  0  0  0
  6 90  1  0  0  0
  7  8  2  0  0  0
  7 26  1  0  0  0
  7 29  1  0  0  0
  8  9  1  0  0  0
  8 22  1  0  0  0
  9 10  1  0  0  0
  9 27  2  0  0  0
 10 11  2  0  0  0
 10 15  1  0  0  0
 11 12  1  0  0  0
 11 91  1  0  0  0
 12 13  2  0  0  0
 12 92  1  0  0  0
 13 14  1  0  0  0
 13 31  1  0  0  0
 14 15  2  0  0  0
 14 93  1  0  0  0
 15 94  1  0  0  0
 16 17  2  0  0  0
 16 21  1  0  0  0
 16 31  1  0  0  0
 17 18  1  0  0  0
 17 95  1  0  0  0
 18 19  2  0  0  0
 18 96  1  0  0  0
 19 20  1  0  0  0
 19 24  1  0  0  0
 20 21  2  0  0  0
 20 97  1  0  0  0
 21 23  1  0  0  0
 22 28  1  0  0  0
 22 32  2  0  0  0
 26 27  1  0  0  0
 28 98  1  0  0  0
 28 99  1  0  0  0
 29100  1  0  0  0
 29101  1  0  0  0
 33 34  1  0  0  0
 33 66  1  0  0  0
 33 70  2  0  0  0
 34 36  1  0  0  0
 34 59  1  0  0  0
 34102  1  0  0  0
 35 44  2  0  0  0
 35 45  1  0  0  0
 35 68  1  0  0  0
 36 56  1  0  0  0
 36103  1  0  0  0
 37 39  1  0  0  0
 37 47  1  0  0  0
 37 66  1  0  0  0
 37104  1  0  0  0
 38 43  2  0  0  0
 38 46  1  0  0  0
 38 47  1  0  0  0
 39 64  1  0  0  0
 39 67  2  0  0  0
 40 52  1  0  0  0
 40 53  2  0  0  0
 40 58  1  0  0  0
 41105  1  0  0  0
 41106  1  0  0  0
 41107  1  0  0  0
 41 48  1  0  0  0
 42 43  1  0  0  0
 42 66  1  0  0  0
 42108  1  0  0  0
 42109  1  0  0  0
 43 44  1  0  0  0
 44110  1  0  0  0
 45 46  2  0  0  0
 45111  1  0  0  0
 46112  1  0  0  0
 47113  1  0  0  0
 47114  1  0  0  0
 48 56  1  0  0  0
 48 65  1  0  0  0
 48115  1  0  0  0
 49 50  1  0  0  0
 49 53  1  0  0  0
 49 64  1  0  0  0
 49116  1  0  0  0
 50 51  1  0  0  0
 50117  1  0  0  0
 50118  1  0  0  0
 51 52  1  0  0  0
 51119  1  0  0  0
 51120  1  0  0  0
 52121  1  0  0  0
 52122  1  0  0  0
 53 54  1  0  0  0
 54 55  2  0  0  0
 54123  1  0  0  0
 55 57  1  0  0  0
 55124  1  0  0  0
 56 69  2  0  0  0
 57 58  2  0  0  0
 57125  1  0  0  0
 58126  1  0  0  0
 59 60  1  0  0  0
 59 61  1  0  0  0
 59 62  1  0  0  0
 60127  1  0  0  0
 60128  1  0  0  0
 60129  1  0  0  0
 61130  1  0  0  0
 61131  1  0  0  0
 61132  1  0  0  0
 62133  1  0  0  0
 62134  1  0  0  0
 62135  1  0  0  0
 63 65  1  0  0  0
 63136  1  0  0  0
 63137  1  0  0  0
 63138  1  0  0  0
 64139  1  0  0  0
 65140  1  0  0  0
 68 78  1  0  0  0
 71 73  2  0  0  0
 71 75  1  0  0  0
 71141  1  0  0  0
 72 73  1  0  0  0
 72 74  2  0  0  0
 72142  1  0  0  0
 73 79  1  0  0  0
 74 76  1  0  0  0
 74 81  1  0  0  0
 75 80  2  0  0  0
 75 81  1  0  0  0
 76 77  2  0  0  0
 76143  1  0  0  0
 77 78  1  0  0  0
 77144  1  0  0  0
 78145  1  0  0  0
 78146  1  0  0  0
 79147  1  0  0  0
M  ISO  4   1 100  68 101  78 101  79 100
M  END
> <chiral flag>
0

> <version>
0

> <s_m_source_file>
/data/baiqing/PycharmProjects/Reinvent-master-3.2/result/LINK_invent/BTK/process_docking_weight1_custom_product_contain_oxygen_bond_distance_aromatic_linkinvent_7_9_3/rearranged_h_0114.sdf

> <i_m_source_file_index>
6

> <r_mmod_Potential_Energy-OPLS-2005>
866.450866699219

> <r_mmod_Stretch_Energy-OPLS-2005>
355.356994628906

> <r_mmod_Bend_Energy-OPLS-2005>
375.868957519531

> <r_mmod_Torsional_Energy-OPLS-2005>
271.336547851562

> <r_mmod_Improper_Torsional_Energy-OPLS-2005>
11.5103025436401

> <r_mmod_Van_der_Waal_Energy-OPLS-2005>
123.610382080078

> <r_mmod_Electrostatic_Energy-OPLS-2005>
-329.715423583984

> <r_mmod_Solvation_Energy-OPLS-2005>
-235.194366455078

> <b_mmod_Minimization_Converged-OPLS-2005>
0

> <r_mmod_RMS_Derivative-OPLS-2005>
2.20233464241028

$$$$
6
                    3D
 Structure written by MMmdl.
149157  0  0  1  0            999 V2000
  -31.4108  -14.3454   21.1303 C   0  0  0  0  0  0
  -30.8092  -13.6408   18.8681 C   0  0  0  0  0  0
  -29.3738  -13.9374   17.5925 C   0  0  0  0  0  0
  -27.5196  -13.9677   18.2579 C   0  0  0  0  0  0
  -27.2903  -13.8283   20.2261 C   0  0  2  0  0  0
  -28.8152  -13.5040   21.3568 C   0  0  0  0  0  0
  -24.9743  -13.9086   20.6128 C   0  0  0  0  0  0
  -24.0148  -13.0351   20.9426 C   0  0  0  0  0  0
  -24.5930  -11.7261   20.8950 C   0  0  0  0  0  0
  -23.9161  -10.4306   21.0311 C   0  0  0  0  0  0
  -24.3765   -9.4288   21.9124 C   0  0  0  0  0  0
  -23.6430   -8.2322   22.0749 C   0  0  0  0  0  0
  -22.4386   -8.0332   21.3554 C   0  0  0  0  0  0
  -22.0003   -9.0244   20.4603 C   0  0  0  0  0  0
  -22.7357  -10.2088   20.2938 C   0  0  0  0  0  0
  -21.6891   -6.0802   22.5296 C   0  0  0  0  0  0
  -21.4050   -6.5702   23.8234 C   0  0  0  0  0  0
  -21.3632   -5.6830   24.9181 C   0  0  0  0  0  0
  -21.6023   -4.3095   24.7219 C   0  0  0  0  0  0
  -21.8834   -3.8204   23.4339 C   0  0  0  0  0  0
  -21.9209   -4.7030   22.3409 C   0  0  0  0  0  0
  -22.6160  -13.4588   21.1995 C   0  0  0  0  0  0
  -22.1689   -4.2237   21.0978 F   0  0  0  0  0  0
  -21.5568   -3.4554   25.7714 F   0  0  0  0  0  0
  -30.4615  -13.5837   20.6095 N   0  0  0  0  0  0
  -26.0955  -13.1607   20.5257 N   0  0  0  0  0  0
  -25.9057  -11.8143   20.6578 N   0  0  0  0  0  0
  -21.9291  -12.7488   22.0756 N   0  0  0  0  0  0
  -24.9667  -15.2902   20.3980 N   0  0  0  0  0  0
  -32.4667  -14.5737   20.5578 O   0  0  0  0  0  0
  -21.6722   -6.8950   21.4267 O   0  0  0  0  0  0
  -22.1701  -14.4886   20.6947 O   0  0  0  0  0  0
  -24.7109  -31.7727   23.1315 C   0  0  0  0  0  0
  -25.9590  -32.4305   23.7927 C   0  0  1  0  0  0
  -27.1254  -26.4825   20.0693 C   0  0  0  0  0  0
  -25.6072  -33.8151   24.1789 N   0  0  0  0  0  0
  -23.5340  -30.3809   21.4989 C   0  0  2  0  0  0
  -24.9546  -28.6908   20.0883 C   0  0  0  0  0  0
  -22.7843  -29.4229   22.4671 C   0  0  0  0  0  0
  -18.0349  -28.1442   22.8440 C   0  0  0  0  0  0
  -24.1502  -36.7074   23.2657 C   0  0  0  0  0  0
  -26.1251  -30.4153   21.4253 C   0  0  0  0  0  0
  -26.1603  -28.9702   20.7390 C   0  0  0  0  0  0
  -27.2308  -27.8935   20.6973 C   0  0  0  0  0  0
  -25.8945  -26.4774   19.3754 C   0  0  0  0  0  0
  -24.8728  -27.4769   19.3881 C   0  0  0  0  0  0
  -23.7778  -29.6836   20.1317 C   0  0  0  0  0  0
  -25.4162  -36.2785   24.0243 C   0  0  1  0  0  0
  -20.5987  -28.3805   23.1108 C   0  0  2  0  0  0
  -20.6811  -26.9455   22.5400 C   0  0  0  0  0  0
  -19.5790  -26.6378   21.5211 C   0  0  0  0  0  0
  -18.1977  -26.7965   22.1611 C   0  0  0  0  0  0
  -19.1619  -28.8950   23.2742 C   0  0  0  0  0  0
  -18.9530  -30.1528   23.8796 C   0  0  0  0  0  0
  -17.6523  -30.6621   24.0551 C   0  0  0  0  0  0
  -25.9164  -34.9201   23.4855 C   0  0  0  0  0  0
  -16.5407  -29.9097   23.6371 C   0  0  0  0  0  0
  -16.7327  -28.6521   23.0376 C   0  0  0  0  0  0
  -26.4665  -31.6459   25.0664 C   0  0  0  0  0  0
  -25.3667  -31.3877   26.1233 C   0  0  0  0  0  0
  -27.0634  -30.2765   24.6768 C   0  0  0  0  0  0
  -27.6043  -32.4395   25.7517 C   0  0  0  0  0  0
  -27.5549  -37.1689   24.8460 C   0  0  0  0  0  0
  -21.4472  -29.3015   22.3406 N   0  0  0  0  0  0
  -26.4249  -37.3589   23.9406 N   0  0  0  0  0  0
  -24.8188  -30.8953   22.0698 N   0  0  0  0  0  0
  -23.4192  -28.7853   23.3109 O   0  0  0  0  0  0
  -27.9644  -25.1141   20.0607 O   0  0  0  0  0  0
  -26.5837  -34.8840   22.4495 O   0  0  0  0  0  0
  -23.6093  -32.0941   23.6149 O   0  0  0  0  0  0
  -29.4939  -16.2281   20.6378 C   0  0  0  0  0  0
  -29.0596  -15.2718   19.5934 C   0  0  0  0  0  0
  -28.6221  -18.1688   19.5132 C   0  0  0  0  0  0
  -28.1768  -19.9849   19.2738 C   0  0  0  0  0  0
  -28.2461  -21.4881   19.8245 C   0  0  0  0  0  0
  -30.1177  -16.0184   22.0212 C   0  0  0  0  0  0
  -28.8838  -12.4619   19.2909 C   0  0  0  0  0  0
  -27.6891  -23.3474   19.5369 C   0  0  0  0  0  0
  -29.3333  -17.6773   20.5160 N   0  0  0  0  0  0
  -31.0518  -15.0851   22.1585 N   0  0  0  0  0  0
  -29.8342  -16.7404   22.9856 O   0  0  0  0  0  0
  -28.4304  -16.6975   18.9284 O   0  0  0  0  0  0
  -31.5181  -14.4064   18.5530 H   0  0  0  0  0  0
  -31.3488  -12.7230   18.6215 H   0  0  0  0  0  0
  -29.4646  -13.2578   16.7430 H   0  0  0  0  0  0
  -29.5606  -14.9033   17.1201 H   0  0  0  0  0  0
  -26.9478  -13.1785   17.7688 H   0  0  0  0  0  0
  -27.0129  -14.8582   17.8866 H   0  0  0  0  0  0
  -27.1375  -14.8101   20.6619 H   0  0  0  0  0  0
  -28.7165  -12.5025   21.7832 H   0  0  0  0  0  0
  -28.6816  -14.0254   22.3024 H   0  0  0  0  0  0
  -25.2875   -9.5900   22.4746 H   0  0  0  0  0  0
  -24.0133   -7.4783   22.7554 H   0  0  0  0  0  0
  -21.0908   -8.8780   19.8942 H   0  0  0  0  0  0
  -22.3788  -10.9614   19.6033 H   0  0  0  0  0  0
  -21.2115   -7.6219   23.9767 H   0  0  0  0  0  0
  -21.1364   -6.0548   25.9063 H   0  0  0  0  0  0
  -22.0611   -2.7676   23.2802 H   0  0  0  0  0  0
  -22.3315  -11.9277   22.5020 H   0  0  0  0  0  0
  -20.9874  -13.0236   22.3175 H   0  0  0  0  0  0
  -24.0838  -15.7896   20.4052 H   0  0  0  0  0  0
  -25.7396  -15.8432   20.0478 H   0  0  0  0  0  0
  -26.7687  -32.4664   23.0636 H   0  0  0  0  0  0
  -25.0088  -33.9147   24.9851 H   0  0  0  0  0  0
  -22.8711  -31.2273   21.3114 H   0  0  0  0  0  0
  -23.3792  -35.9371   23.3226 H   0  0  0  0  0  0
  -24.3561  -36.8855   22.2091 H   0  0  0  0  0  0
  -23.7242  -37.6201   23.6829 H   0  0  0  0  0  0
  -26.3778  -31.1437   20.6536 H   0  0  0  0  0  0
  -26.9585  -30.4488   22.1137 H   0  0  0  0  0  0
  -28.1454  -28.1075   21.2315 H   0  0  0  0  0  0
  -25.6567  -25.5810   18.8208 H   0  0  0  0  0  0
  -23.9682  -27.2691   18.8351 H   0  0  0  0  0  0
  -23.9737  -30.4479   19.3783 H   0  0  0  0  0  0
  -22.8671  -29.1809   19.8033 H   0  0  0  0  0  0
  -25.1391  -36.1482   25.0727 H   0  0  0  0  0  0
  -21.0053  -28.3454   24.1238 H   0  0  0  0  0  0
  -20.5682  -26.2437   23.3673 H   0  0  0  0  0  0
  -21.6672  -26.7390   22.1219 H   0  0  0  0  0  0
  -19.6954  -25.6267   21.1300 H   0  0  0  0  0  0
  -19.6745  -27.3134   20.6701 H   0  0  0  0  0  0
  -17.4246  -26.6705   21.4013 H   0  0  0  0  0  0
  -18.0361  -26.0122   22.9020 H   0  0  0  0  0  0
  -19.8009  -30.7370   24.2118 H   0  0  0  0  0  0
  -17.5080  -31.6289   24.5183 H   0  0  0  0  0  0
  -15.5410  -30.2977   23.7755 H   0  0  0  0  0  0
  -15.8721  -28.0818   22.7141 H   0  0  0  0  0  0
  -24.5881  -30.7186   25.7551 H   0  0  0  0  0  0
  -24.8834  -32.3137   26.4361 H   0  0  0  0  0  0
  -25.7788  -30.9247   27.0210 H   0  0  0  0  0  0
  -26.3391  -29.6289   24.1821 H   0  0  0  0  0  0
  -27.4007  -29.7323   25.5605 H   0  0  0  0  0  0
  -27.9394  -30.3821   24.0366 H   0  0  0  0  0  0
  -27.2515  -33.3792   26.1794 H   0  0  0  0  0  0
  -28.4017  -32.6820   25.0474 H   0  0  0  0  0  0
  -28.0537  -31.8740   26.5698 H   0  0  0  0  0  0
  -28.2500  -38.0050   24.7523 H   0  0  0  0  0  0
  -28.1110  -36.2563   24.6254 H   0  0  0  0  0  0
  -27.2266  -37.1271   25.8864 H   0  0  0  0  0  0
  -20.9821  -29.8616   21.6395 H   0  0  0  0  0  0
  -26.0036  -38.2608   24.1457 H   0  0  0  0  0  0
  -27.6331  -20.0238   18.3400 H   0  0  0  0  0  0
  -28.7811  -21.4895   20.7631 H   0  0  0  0  0  0
  -27.9358  -11.9142   19.2210 H   0  0  0  0  0  0
  -29.3546  -11.7388   19.9769 H   0  0  0  0  0  0
  -29.2957  -11.9054   18.4348 H   0  0  0  0  0  0
  -26.6187  -23.2540   19.7142 H   0  0  0  0  0  0
  -27.7621  -23.4128   18.4509 H   0  0  0  0  0  0
  -31.7268  -15.2680   22.8795 H   0  0  0  0  0  0
  1 25  1  0  0  0
  1 30  2  0  0  0
  1 80  1  0  0  0
  2  3  1  0  0  0
  2 25  1  0  0  0
  2 83  1  0  0  0
  2 84  1  0  0  0
  3  4  1  0  0  0
  3 85  1  0  0  0
  3 86  1  0  0  0
  4  5  1  0  0  0
  4 87  1  0  0  0
  4 88  1  0  0  0
  5  6  1  0  0  0
  5 26  1  0  0  0
  5 89  1  0  0  0
  6 25  1  0  0  0
  6 90  1  0  0  0
  6 91  1  0  0  0
  7  8  2  0  0  0
  7 26  1  0  0  0
  7 29  1  0  0  0
  8  9  1  0  0  0
  8 22  1  0  0  0
  9 10  1  0  0  0
  9 27  2  0  0  0
 10 11  2  0  0  0
 10 15  1  0  0  0
 11 12  1  0  0  0
 11 92  1  0  0  0
 12 13  2  0  0  0
 12 93  1  0  0  0
 13 14  1  0  0  0
 13 31  1  0  0  0
 14 15  2  0  0  0
 14 94  1  0  0  0
 15 95  1  0  0  0
 16 17  2  0  0  0
 16 21  1  0  0  0
 16 31  1  0  0  0
 17 18  1  0  0  0
 17 96  1  0  0  0
 18 19  2  0  0  0
 18 97  1  0  0  0
 19 20  1  0  0  0
 19 24  1  0  0  0
 20 21  2  0  0  0
 20 98  1  0  0  0
 21 23  1  0  0  0
 22 28  1  0  0  0
 22 32  2  0  0  0
 26 27  1  0  0  0
 28 99  1  0  0  0
 28100  1  0  0  0
 29101  1  0  0  0
 29102  1  0  0  0
 33 34  1  0  0  0
 33 66  1  0  0  0
 33 70  2  0  0  0
 34 36  1  0  0  0
 34 59  1  0  0  0
 34103  1  0  0  0
 35 44  2  0  0  0
 35 45  1  0  0  0
 35 68  1  0  0  0
 36 56  1  0  0  0
 36104  1  0  0  0
 37 39  1  0  0  0
 37 47  1  0  0  0
 37 66  1  0  0  0
 37105  1  0  0  0
 38 43  2  0  0  0
 38 46  1  0  0  0
 38 47  1  0  0  0
 39 64  1  0  0  0
 39 67  2  0  0  0
 40 52  1  0  0  0
 40 53  2  0  0  0
 40 58  1  0  0  0
 41106  1  0  0  0
 41107  1  0  0  0
 41108  1  0  0  0
 41 48  1  0  0  0
 42 43  1  0  0  0
 42 66  1  0  0  0
 42109  1  0  0  0
 42110  1  0  0  0
 43 44  1  0  0  0
 44111  1  0  0  0
 45 46  2  0  0  0
 45112  1  0  0  0
 46113  1  0  0  0
 47114  1  0  0  0
 47115  1  0  0  0
 48 56  1  0  0  0
 48 65  1  0  0  0
 48116  1  0  0  0
 49 50  1  0  0  0
 49 53  1  0  0  0
 49 64  1  0  0  0
 49117  1  0  0  0
 50 51  1  0  0  0
 50118  1  0  0  0
 50119  1  0  0  0
 51 52  1  0  0  0
 51120  1  0  0  0
 51121  1  0  0  0
 52122  1  0  0  0
 52123  1  0  0  0
 53 54  1  0  0  0
 54 55  2  0  0  0
 54124  1  0  0  0
 55 57  1  0  0  0
 55125  1  0  0  0
 56 69  2  0  0  0
 57 58  2  0  0  0
 57126  1  0  0  0
 58127  1  0  0  0
 59 60  1  0  0  0
 59 61  1  0  0  0
 59 62  1  0  0  0
 60128  1  0  0  0
 60129  1  0  0  0
 60130  1  0  0  0
 61131  1  0  0  0
 61132  1  0  0  0
 61133  1  0  0  0
 62134  1  0  0  0
 62135  1  0  0  0
 62136  1  0  0  0
 63 65  1  0  0  0
 63137  1  0  0  0
 63138  1  0  0  0
 63139  1  0  0  0
 64140  1  0  0  0
 65141  1  0  0  0
 68 78  1  0  0  0
 71 72  2  0  0  0
 71 76  1  0  0  0
 71 79  1  0  0  0
 72 77  1  0  0  0
 72 82  1  0  0  0
 73 74  1  0  0  0
 73 79  2  0  0  0
 73 82  1  0  0  0
 74 75  2  0  0  0
 74142  1  0  0  0
 75 78  1  0  0  0
 75143  1  0  0  0
 76 80  1  0  0  0
 76 81  2  0  0  0
 77144  1  0  0  0
 77145  1  0  0  0
 77146  1  0  0  0
 78147  1  0  0  0
 78148  1  0  0  0
 80149  1  0  0  0
M  ISO  4   1 100  68 101  78 101  80 100
M  END
> <chiral flag>
0

> <version>
0

> <s_m_source_file>
/data/baiqing/PycharmProjects/Reinvent-master-3.2/result/LINK_invent/BTK/process_docking_weight1_custom_product_contain_oxygen_bond_distance_aromatic_linkinvent_7_9_3/rearranged_h_0114.sdf

> <i_m_source_file_index>
7

> <r_mmod_Potential_Energy-OPLS-2005>
9036.7431640625

> <r_mmod_Stretch_Energy-OPLS-2005>
4899.47509765625

> <r_mmod_Bend_Energy-OPLS-2005>
1020.17431640625

> <r_mmod_Torsional_Energy-OPLS-2005>
329.167816162109

> <r_mmod_Improper_Torsional_Energy-OPLS-2005>
14.7148170471191

> <r_mmod_Van_der_Waal_Energy-OPLS-2005>
1786.0439453125

> <r_mmod_Electrostatic_Energy-OPLS-2005>
-477.182495117188

> <r_mmod_Solvation_Energy-OPLS-2005>
-218.716857910156

> <b_mmod_Minimization_Converged-OPLS-2005>
0

> <r_mmod_RMS_Derivative-OPLS-2005>
5.06362771987915

$$$$
7
                    3D
 Structure written by MMmdl.
155163  0  0  1  0            999 V2000
  -30.5576  -15.0725   20.4121 C   0  0  0  0  0  0
  -30.4241  -12.6977   19.4908 C   0  0  0  0  0  0
  -29.5113  -12.5574   18.2491 C   0  0  0  0  0  0
  -28.0481  -12.3233   18.6686 C   0  0  0  0  0  0
  -27.6115  -13.2578   19.8236 C   0  0  2  0  0  0
  -28.6595  -13.2978   20.9470 C   0  0  0  0  0  0
  -25.2365  -13.8194   20.5640 C   0  0  0  0  0  0
  -24.1737  -13.0420   20.9279 C   0  0  0  0  0  0
  -24.6354  -11.6907   20.8770 C   0  0  0  0  0  0
  -23.9045  -10.4275   21.0392 C   0  0  0  0  0  0
  -24.3601   -9.4195   21.9174 C   0  0  0  0  0  0
  -23.6280   -8.2223   22.0764 C   0  0  0  0  0  0
  -22.4282   -8.0250   21.3534 C   0  0  0  0  0  0
  -21.9912   -9.0206   20.4633 C   0  0  0  0  0  0
  -22.7210  -10.2108   20.3047 C   0  0  0  0  0  0
  -21.6822   -6.0757   22.5287 C   0  0  0  0  0  0
  -21.3983   -6.5673   23.8219 C   0  0  0  0  0  0
  -21.3660   -5.6835   24.9191 C   0  0  0  0  0  0
  -21.6048   -4.3100   24.7239 C   0  0  0  0  0  0
  -21.8798   -3.8181   23.4361 C   0  0  0  0  0  0
  -21.9163   -4.6987   22.3417 C   0  0  0  0  0  0
  -22.7762  -13.5154   21.1963 C   0  0  0  0  0  0
  -22.1620   -4.2171   21.0992 F   0  0  0  0  0  0
  -21.5674   -3.4588   25.7757 F   0  0  0  0  0  0
  -29.8935  -13.8256   20.3338 N   0  0  0  0  0  0
  -26.2789  -12.9444   20.3195 N   0  0  0  0  0  0
  -25.9283  -11.6563   20.5705 N   0  0  0  0  0  0
  -22.0390  -12.8118   22.0482 N   0  0  0  0  0  0
  -25.4011  -15.1881   20.3831 N   0  0  0  0  0  0
  -31.7776  -14.9905   20.2327 O   0  0  0  0  0  0
  -21.6613   -6.8875   21.4238 O   0  0  0  0  0  0
  -22.3434  -14.5455   20.6792 O   0  0  0  0  0  0
  -24.6514  -31.8374   23.1819 C   0  0  0  0  0  0
  -25.9262  -32.4652   23.8221 C   0  0  1  0  0  0
  -27.2107  -27.0599   20.1537 C   0  0  0  0  0  0
  -25.5982  -33.8452   24.2143 N   0  0  0  0  0  0
  -23.4572  -30.4563   21.5290 C   0  0  2  0  0  0
  -24.9052  -28.8677   20.1101 C   0  0  0  0  0  0
  -22.7605  -29.4524   22.4828 C   0  0  0  0  0  0
  -18.0312  -28.1395   22.8465 C   0  0  0  0  0  0
  -24.1497  -36.7231   23.2646 C   0  0  0  0  0  0
  -26.0196  -30.6863   21.3921 C   0  0  0  0  0  0
  -26.0877  -29.2909   20.7314 C   0  0  0  0  0  0
  -27.2410  -28.4044   20.7314 C   0  0  0  0  0  0
  -25.9977  -26.7582   19.4956 C   0  0  0  0  0  0
  -24.8773  -27.6179   19.4761 C   0  0  0  0  0  0
  -23.6863  -29.7801   20.1506 C   0  0  0  0  0  0
  -25.4137  -36.3000   24.0306 C   0  0  1  0  0  0
  -20.5928  -28.3734   23.1212 C   0  0  2  0  0  0
  -20.6793  -26.9437   22.5392 C   0  0  0  0  0  0
  -19.5761  -26.6381   21.5202 C   0  0  0  0  0  0
  -18.1948  -26.7929   22.1618 C   0  0  0  0  0  0
  -19.1573  -28.8880   23.2824 C   0  0  0  0  0  0
  -18.9489  -30.1473   23.8856 C   0  0  0  0  0  0
  -17.6484  -30.6593   24.0554 C   0  0  0  0  0  0
  -25.9090  -34.9382   23.5041 C   0  0  0  0  0  0
  -16.5373  -29.9085   23.6343 C   0  0  0  0  0  0
  -16.7296  -28.6502   23.0367 C   0  0  0  0  0  0
  -26.4547  -31.6542   25.0700 C   0  0  0  0  0  0
  -25.3699  -31.3765   26.1379 C   0  0  0  0  0  0
  -27.0431  -30.2921   24.6348 C   0  0  0  0  0  0
  -27.6054  -32.4330   25.7497 C   0  0  0  0  0  0
  -27.5575  -37.1778   24.8467 C   0  0  0  0  0  0
  -21.4285  -29.3053   22.3581 N   0  0  0  0  0  0
  -26.4287  -37.3729   23.9408 N   0  0  0  0  0  0
  -24.7297  -31.0158   22.0891 N   0  0  0  0  0  0
  -23.4220  -28.8079   23.3008 O   0  0  0  0  0  0
  -28.2470  -26.0305   20.2009 O   0  0  0  0  0  0
  -26.5680  -34.8903   22.4623 O   0  0  0  0  0  0
  -23.5615  -32.1267   23.7010 O   0  0  0  0  0  0
  -28.3621  -16.6085   21.9997 C   0  0  0  0  0  0
  -27.2966  -19.0972   21.5297 C   0  0  0  0  0  0
  -27.1755  -16.9625   22.6456 C   0  0  0  0  0  0
  -28.5544  -18.8611   20.8828 C   0  0  0  0  0  0
  -29.0140  -17.3754   21.0032 C   0  0  0  0  0  0
  -26.6032  -18.1955   22.3462 C   0  0  0  0  0  0
  -28.5150  -21.4400   20.3092 C   0  0  0  0  0  0
  -26.5203  -16.0036   23.6293 C   0  0  0  0  0  0
  -28.9867  -23.0795   20.1770 C   0  0  0  0  0  0
  -27.9473  -24.4635   20.1478 C   0  0  0  0  0  0
  -29.1343  -20.1926   20.3722 N   0  0  0  0  0  0
  -25.3837  -18.5718   22.9075 N   0  0  0  0  0  0
  -30.0175  -16.4293   20.3119 N   0  0  0  0  0  0
  -31.4489  -12.8661   19.1569 H   0  0  0  0  0  0
  -30.4675  -11.7647   20.0547 H   0  0  0  0  0  0
  -29.8569  -11.7437   17.6094 H   0  0  0  0  0  0
  -29.5745  -13.4703   17.6565 H   0  0  0  0  0  0
  -27.9564  -11.2838   18.9866 H   0  0  0  0  0  0
  -27.3891  -12.4417   17.8083 H   0  0  0  0  0  0
  -27.5651  -14.2608   19.3977 H   0  0  0  0  0  0
  -28.8089  -12.2969   21.3514 H   0  0  0  0  0  0
  -28.2889  -13.8686   21.7851 H   0  0  0  0  0  0
  -25.2745   -9.5712   22.4760 H   0  0  0  0  0  0
  -23.9986   -7.4678   22.7543 H   0  0  0  0  0  0
  -21.0831   -8.8673   19.8970 H   0  0  0  0  0  0
  -22.3612  -10.9630   19.6188 H   0  0  0  0  0  0
  -21.1940   -7.6175   23.9693 H   0  0  0  0  0  0
  -21.1508   -6.0614   25.9089 H   0  0  0  0  0  0
  -22.0565   -2.7645   23.2864 H   0  0  0  0  0  0
  -22.3959  -11.9708   22.4793 H   0  0  0  0  0  0
  -21.1047  -13.1237   22.2763 H   0  0  0  0  0  0
  -24.6512  -15.8530   20.5259 H   0  0  0  0  0  0
  -26.2731  -15.6224   20.1102 H   0  0  0  0  0  0
  -26.7336  -32.5232   23.0944 H   0  0  0  0  0  0
  -25.0088  -33.9539   25.0262 H   0  0  0  0  0  0
  -22.7636  -31.2851   21.3703 H   0  0  0  0  0  0
  -23.3764  -35.9552   23.3276 H   0  0  0  0  0  0
  -24.3567  -36.8896   22.2062 H   0  0  0  0  0  0
  -23.7252  -37.6421   23.6701 H   0  0  0  0  0  0
  -26.1903  -31.4388   20.6215 H   0  0  0  0  0  0
  -26.8855  -30.7327   22.0400 H   0  0  0  0  0  0
  -28.1444  -28.7215   21.2339 H   0  0  0  0  0  0
  -25.8766  -25.8082   18.9997 H   0  0  0  0  0  0
  -23.9758  -27.2919   18.9759 H   0  0  0  0  0  0
  -23.8262  -30.5512   19.3925 H   0  0  0  0  0  0
  -22.7988  -29.2260   19.8382 H   0  0  0  0  0  0
  -25.1331  -36.1802   25.0793 H   0  0  0  0  0  0
  -21.0018  -28.3340   24.1328 H   0  0  0  0  0  0
  -20.5685  -26.2356   23.3618 H   0  0  0  0  0  0
  -21.6666  -26.7425   22.1202 H   0  0  0  0  0  0
  -19.6934  -25.6284   21.1254 H   0  0  0  0  0  0
  -19.6705  -27.3170   20.6716 H   0  0  0  0  0  0
  -17.4222  -26.6662   21.4026 H   0  0  0  0  0  0
  -18.0362  -26.0075   22.9018 H   0  0  0  0  0  0
  -19.7970  -30.7297   24.2216 H   0  0  0  0  0  0
  -17.5045  -31.6272   24.5163 H   0  0  0  0  0  0
  -15.5380  -30.2981   23.7688 H   0  0  0  0  0  0
  -15.8687  -28.0807   22.7115 H   0  0  0  0  0  0
  -24.5888  -30.7105   25.7700 H   0  0  0  0  0  0
  -24.8884  -32.2960   26.4710 H   0  0  0  0  0  0
  -25.7959  -30.8999   27.0213 H   0  0  0  0  0  0
  -26.3075  -29.6616   24.1347 H   0  0  0  0  0  0
  -27.4001  -29.7254   25.4955 H   0  0  0  0  0  0
  -27.8994  -30.4129   23.9715 H   0  0  0  0  0  0
  -27.2627  -33.3657   26.1983 H   0  0  0  0  0  0
  -28.3914  -32.6846   25.0367 H   0  0  0  0  0  0
  -28.0660  -31.8515   26.5490 H   0  0  0  0  0  0
  -28.2592  -38.0080   24.7519 H   0  0  0  0  0  0
  -28.1078  -36.2608   24.6289 H   0  0  0  0  0  0
  -27.2283  -37.1420   25.8869 H   0  0  0  0  0  0
  -20.9520  -29.8754   21.6725 H   0  0  0  0  0  0
  -26.0137  -38.2790   24.1405 H   0  0  0  0  0  0
  -28.7966  -15.6802   22.3077 H   0  0  0  0  0  0
  -26.7888  -20.0406   21.4957 H   0  0  0  0  0  0
  -27.4257  -21.4759   20.3449 H   0  0  0  0  0  0
  -26.4097  -16.4775   24.6029 H   0  0  0  0  0  0
  -27.1079  -15.0947   23.7605 H   0  0  0  0  0  0
  -25.5288  -15.7106   23.2844 H   0  0  0  0  0  0
  -29.6064  -23.1414   19.2824 H   0  0  0  0  0  0
  -29.6879  -23.2485   20.9939 H   0  0  0  0  0  0
  -27.2387  -24.3068   20.9610 H   0  0  0  0  0  0
  -27.3656  -24.3180   19.2419 H   0  0  0  0  0  0
  -24.8040  -17.8500   23.3186 H   0  0  0  0  0  0
  -24.8401  -19.2931   22.4422 H   0  0  0  0  0  0
  -30.7083  -16.9750   19.8182 H   0  0  0  0  0  0
  1 25  1  0  0  0
  1 30  2  0  0  0
  1 83  1  0  0  0
  2  3  1  0  0  0
  2 25  1  0  0  0
  2 84  1  0  0  0
  2 85  1  0  0  0
  3  4  1  0  0  0
  3 86  1  0  0  0
  3 87  1  0  0  0
  4  5  1  0  0  0
  4 88  1  0  0  0
  4 89  1  0  0  0
  5  6  1  0  0  0
  5 26  1  0  0  0
  5 90  1  0  0  0
  6 25  1  0  0  0
  6 91  1  0  0  0
  6 92  1  0  0  0
  7  8  2  0  0  0
  7 26  1  0  0  0
  7 29  1  0  0  0
  8  9  1  0  0  0
  8 22  1  0  0  0
  9 10  1  0  0  0
  9 27  2  0  0  0
 10 11  2  0  0  0
 10 15  1  0  0  0
 11 12  1  0  0  0
 11 93  1  0  0  0
 12 13  2  0  0  0
 12 94  1  0  0  0
 13 14  1  0  0  0
 13 31  1  0  0  0
 14 15  2  0  0  0
 14 95  1  0  0  0
 15 96  1  0  0  0
 16 17  2  0  0  0
 16 21  1  0  0  0
 16 31  1  0  0  0
 17 18  1  0  0  0
 17 97  1  0  0  0
 18 19  2  0  0  0
 18 98  1  0  0  0
 19 20  1  0  0  0
 19 24  1  0  0  0
 20 21  2  0  0  0
 20 99  1  0  0  0
 21 23  1  0  0  0
 22 28  1  0  0  0
 22 32  2  0  0  0
 26 27  1  0  0  0
 28100  1  0  0  0
 28101  1  0  0  0
 29102  1  0  0  0
 29103  1  0  0  0
 33 34  1  0  0  0
 33 66  1  0  0  0
 33 70  2  0  0  0
 34 36  1  0  0  0
 34 59  1  0  0  0
 34104  1  0  0  0
 35 44  2  0  0  0
 35 45  1  0  0  0
 35 68  1  0  0  0
 36 56  1  0  0  0
 36105  1  0  0  0
 37 39  1  0  0  0
 37 47  1  0  0  0
 37 66  1  0  0  0
 37106  1  0  0  0
 38 43  2  0  0  0
 38 46  1  0  0  0
 38 47  1  0  0  0
 39 64  1  0  0  0
 39 67  2  0  0  0
 40 52  1  0  0  0
 40 53  2  0  0  0
 40 58  1  0  0  0
 41107  1  0  0  0
 41108  1  0  0  0
 41109  1  0  0  0
 41 48  1  0  0  0
 42 43  1  0  0  0
 42 66  1  0  0  0
 42110  1  0  0  0
 42111  1  0  0  0
 43 44  1  0  0  0
 44112  1  0  0  0
 45 46  2  0  0  0
 45113  1  0  0  0
 46114  1  0  0  0
 47115  1  0  0  0
 47116  1  0  0  0
 48 56  1  0  0  0
 48 65  1  0  0  0
 48117  1  0  0  0
 49 50  1  0  0  0
 49 53  1  0  0  0
 49 64  1  0  0  0
 49118  1  0  0  0
 50 51  1  0  0  0
 50119  1  0  0  0
 50120  1  0  0  0
 51 52  1  0  0  0
 51121  1  0  0  0
 51122  1  0  0  0
 52123  1  0  0  0
 52124  1  0  0  0
 53 54  1  0  0  0
 54 55  2  0  0  0
 54125  1  0  0  0
 55 57  1  0  0  0
 55126  1  0  0  0
 56 69  2  0  0  0
 57 58  2  0  0  0
 57127  1  0  0  0
 58128  1  0  0  0
 59 60  1  0  0  0
 59 61  1  0  0  0
 59 62  1  0  0  0
 60129  1  0  0  0
 60130  1  0  0  0
 60131  1  0  0  0
 61132  1  0  0  0
 61133  1  0  0  0
 61134  1  0  0  0
 62135  1  0  0  0
 62136  1  0  0  0
 62137  1  0  0  0
 63 65  1  0  0  0
 63138  1  0  0  0
 63139  1  0  0  0
 63140  1  0  0  0
 64141  1  0  0  0
 65142  1  0  0  0
 68 80  1  0  0  0
 71 73  2  0  0  0
 71 75  1  0  0  0
 71143  1  0  0  0
 72 74  1  0  0  0
 72 76  2  0  0  0
 72144  1  0  0  0
 73 76  1  0  0  0
 73 78  1  0  0  0
 74 75  2  0  0  0
 74 81  1  0  0  0
 75 83  1  0  0  0
 76 82  1  0  0  0
 77 79  1  0  0  0
 77 81  2  0  0  0
 77145  1  0  0  0
 78146  1  0  0  0
 78147  1  0  0  0
 78148  1  0  0  0
 79 80  1  0  0  0
 79149  1  0  0  0
 79150  1  0  0  0
 80151  1  0  0  0
 80152  1  0  0  0
 82153  1  0  0  0
 82154  1  0  0  0
 83155  1  0  0  0
M  ISO  4   1 100  68 101  80 101  83 100
M  END
> <chiral flag>
0

> <version>
0

> <s_m_source_file>
/data/baiqing/PycharmProjects/Reinvent-master-3.2/result/LINK_invent/BTK/process_docking_weight1_custom_product_contain_oxygen_bond_distance_aromatic_linkinvent_7_9_3/rearranged_h_0114.sdf

> <i_m_source_file_index>
8

> <r_mmod_Potential_Energy-OPLS-2005>
891.770385742188

> <r_mmod_Stretch_Energy-OPLS-2005>
413.908233642578

> <r_mmod_Bend_Energy-OPLS-2005>
431.230010986328

> <r_mmod_Torsional_Energy-OPLS-2005>
282.871276855469

> <r_mmod_Improper_Torsional_Energy-OPLS-2005>
15.2945489883423

> <r_mmod_Van_der_Waal_Energy-OPLS-2005>
156.057083129883

> <r_mmod_Electrostatic_Energy-OPLS-2005>
-465.048431396484

> <r_mmod_Solvation_Energy-OPLS-2005>
-212.984878540039

> <b_mmod_Minimization_Converged-OPLS-2005>
0

> <r_mmod_RMS_Derivative-OPLS-2005>
3.82989072799683

$$$$
8
                    3D
 Structure written by MMmdl.
148156  0  0  1  0            999 V2000
  -30.6005  -14.7651   20.4670 C   0  0  0  0  0  0
  -30.4365  -12.4741   19.4621 C   0  0  0  0  0  0
  -29.5078  -12.5066   18.2284 C   0  0  0  0  0  0
  -28.0357  -12.3237   18.6477 C   0  0  0  0  0  0
  -27.6385  -13.2297   19.8436 C   0  0  2  0  0  0
  -28.6857  -13.1722   20.9753 C   0  0  0  0  0  0
  -25.2501  -13.8189   20.5683 C   0  0  0  0  0  0
  -24.1797  -13.0436   20.9213 C   0  0  0  0  0  0
  -24.6389  -11.6915   20.8753 C   0  0  0  0  0  0
  -23.9069  -10.4291   21.0409 C   0  0  0  0  0  0
  -24.3620   -9.4205   21.9186 C   0  0  0  0  0  0
  -23.6294   -8.2241   22.0754 C   0  0  0  0  0  0
  -22.4276   -8.0279   21.3544 C   0  0  0  0  0  0
  -21.9913   -9.0254   20.4647 C   0  0  0  0  0  0
  -22.7242  -10.2133   20.3058 C   0  0  0  0  0  0
  -21.6854   -6.0734   22.5279 C   0  0  0  0  0  0
  -21.4015   -6.5638   23.8212 C   0  0  0  0  0  0
  -21.3659   -5.6791   24.9174 C   0  0  0  0  0  0
  -21.6043   -4.3053   24.7225 C   0  0  0  0  0  0
  -21.8820   -3.8146   23.4345 C   0  0  0  0  0  0
  -21.9194   -4.6962   22.3402 C   0  0  0  0  0  0
  -22.7819  -13.5219   21.1872 C   0  0  0  0  0  0
  -22.1661   -4.2148   21.0980 F   0  0  0  0  0  0
  -21.5628   -3.4537   25.7737 F   0  0  0  0  0  0
  -29.9791  -13.5378   20.3847 N   0  0  0  0  0  0
  -26.2921  -12.9392   20.3254 N   0  0  0  0  0  0
  -25.9316  -11.6538   20.5745 N   0  0  0  0  0  0
  -22.0469  -12.8211   22.0431 N   0  0  0  0  0  0
  -25.4177  -15.1912   20.4085 N   0  0  0  0  0  0
  -31.8007  -14.8613   20.1969 O   0  0  0  0  0  0
  -21.6640   -6.8877   21.4240 O   0  0  0  0  0  0
  -22.3503  -14.5525   20.6717 O   0  0  0  0  0  0
  -24.6337  -31.8541   23.1968 C   0  0  0  0  0  0
  -25.9154  -32.4748   23.8321 C   0  0  1  0  0  0
  -27.2155  -27.2408   20.1335 C   0  0  0  0  0  0
  -25.5941  -33.8549   24.2243 N   0  0  0  0  0  0
  -23.4306  -30.4775   21.5417 C   0  0  2  0  0  0
  -24.8762  -28.9199   20.1155 C   0  0  0  0  0  0
  -22.7513  -29.4602   22.4909 C   0  0  0  0  0  0
  -18.0297  -28.1388   22.8484 C   0  0  0  0  0  0
  -24.1490  -36.7280   23.2640 C   0  0  0  0  0  0
  -25.9791  -30.7617   21.3788 C   0  0  0  0  0  0
  -26.0516  -29.3819   20.7218 C   0  0  0  0  0  0
  -27.2267  -28.5580   20.7132 C   0  0  0  0  0  0
  -26.0125  -26.8513   19.5030 C   0  0  0  0  0  0
  -24.8631  -27.6635   19.4944 C   0  0  0  0  0  0
  -23.6496  -29.8109   20.1592 C   0  0  0  0  0  0
  -25.4119  -36.3064   24.0322 C   0  0  1  0  0  0
  -20.5901  -28.3703   23.1263 C   0  0  2  0  0  0
  -20.6785  -26.9419   22.5406 C   0  0  0  0  0  0
  -19.5759  -26.6384   21.5212 C   0  0  0  0  0  0
  -18.1940  -26.7930   22.1624 C   0  0  0  0  0  0
  -19.1550  -28.8862   23.2868 C   0  0  0  0  0  0
  -18.9469  -30.1462   23.8888 C   0  0  0  0  0  0
  -17.6468  -30.6588   24.0562 C   0  0  0  0  0  0
  -25.9060  -34.9435   23.5085 C   0  0  0  0  0  0
  -16.5359  -29.9085   23.6332 C   0  0  0  0  0  0
  -16.7282  -28.6502   23.0354 C   0  0  0  0  0  0
  -26.4511  -31.6579   25.0719 C   0  0  0  0  0  0
  -25.3724  -31.3736   26.1433 C   0  0  0  0  0  0
  -27.0363  -30.2991   24.6223 C   0  0  0  0  0  0
  -27.6055  -32.4326   25.7501 C   0  0  0  0  0  0
  -27.5576  -37.1799   24.8467 C   0  0  0  0  0  0
  -21.4218  -29.3049   22.3652 N   0  0  0  0  0  0
  -26.4291  -37.3765   23.9404 N   0  0  0  0  0  0
  -24.7006  -31.0492   22.0953 N   0  0  0  0  0  0
  -23.4206  -28.8143   23.3015 O   0  0  0  0  0  0
  -28.3112  -26.3365   20.1386 O   0  0  0  0  0  0
  -26.5636  -34.8915   22.4656 O   0  0  0  0  0  0
  -23.5482  -32.1366   23.7257 O   0  0  0  0  0  0
  -29.2107  -20.3433   18.8545 C   0  0  0  0  0  0
  -29.5416  -18.9457   18.9608 C   0  0  0  0  0  0
  -29.1021  -20.8841   20.1106 C   0  0  0  0  0  0
  -29.6926  -18.6228   20.2836 C   0  0  0  0  0  0
  -28.7370  -22.2614   20.5879 C   0  0  0  0  0  0
  -28.6731  -23.5164   19.9831 C   0  0  0  0  0  0
  -30.2190  -17.3313   21.0354 C   0  0  0  0  0  0
  -28.0927  -24.8976   20.5635 C   0  0  0  0  0  0
  -29.8195  -15.8963   20.6721 N   0  0  0  0  0  0
  -29.4173  -19.8216   20.9949 O   0  0  0  0  0  0
  -31.4740  -12.6149   19.1541 H   0  0  0  0  0  0
  -30.3978  -11.5007   19.9533 H   0  0  0  0  0  0
  -29.7940  -11.7289   17.5189 H   0  0  0  0  0  0
  -29.6247  -13.4569   17.7048 H   0  0  0  0  0  0
  -27.9009  -11.2760   18.9191 H   0  0  0  0  0  0
  -27.3746  -12.5041   17.7990 H   0  0  0  0  0  0
  -27.6291  -14.2486   19.4564 H   0  0  0  0  0  0
  -28.7315  -12.1747   21.4142 H   0  0  0  0  0  0
  -28.4179  -13.8517   21.7860 H   0  0  0  0  0  0
  -25.2766   -9.5682   22.4758 H   0  0  0  0  0  0
  -24.0003   -7.4633   22.7474 H   0  0  0  0  0  0
  -21.0844   -8.8775   19.8955 H   0  0  0  0  0  0
  -22.3703  -10.9670   19.6165 H   0  0  0  0  0  0
  -21.2009   -7.6147   23.9715 H   0  0  0  0  0  0
  -21.1480   -6.0521   25.9076 H   0  0  0  0  0  0
  -22.0600   -2.7608   23.2847 H   0  0  0  0  0  0
  -22.4093  -11.9874   22.4816 H   0  0  0  0  0  0
  -21.1083  -13.1229   22.2636 H   0  0  0  0  0  0
  -24.6448  -15.8397   20.5132 H   0  0  0  0  0  0
  -26.2546  -15.6321   20.0493 H   0  0  0  0  0  0
  -26.7222  -32.5393   23.1062 H   0  0  0  0  0  0
  -25.0078  -33.9679   25.0384 H   0  0  0  0  0  0
  -22.7280  -31.3004   21.3950 H   0  0  0  0  0  0
  -23.3751  -35.9614   23.3305 H   0  0  0  0  0  0
  -24.3577  -36.8903   22.2054 H   0  0  0  0  0  0
  -23.7247  -37.6482   23.6668 H   0  0  0  0  0  0
  -26.1199  -31.5212   20.6084 H   0  0  0  0  0  0
  -26.8560  -30.8111   22.0129 H   0  0  0  0  0  0
  -28.1294  -28.9118   21.1911 H   0  0  0  0  0  0
  -25.9315  -25.8965   19.0061 H   0  0  0  0  0  0
  -23.9642  -27.3054   19.0114 H   0  0  0  0  0  0
  -23.7785  -30.5865   19.4034 H   0  0  0  0  0  0
  -22.7664  -29.2476   19.8522 H   0  0  0  0  0  0
  -25.1305  -36.1906   25.0816 H   0  0  0  0  0  0
  -20.9994  -28.3282   24.1384 H   0  0  0  0  0  0
  -20.5686  -26.2314   23.3612 H   0  0  0  0  0  0
  -21.6652  -26.7442   22.1198 H   0  0  0  0  0  0
  -19.6921  -25.6293   21.1247 H   0  0  0  0  0  0
  -19.6695  -27.3189   20.6738 H   0  0  0  0  0  0
  -17.4208  -26.6673   21.4028 H   0  0  0  0  0  0
  -18.0344  -26.0074   22.9024 H   0  0  0  0  0  0
  -19.7945  -30.7281   24.2252 H   0  0  0  0  0  0
  -17.5022  -31.6267   24.5166 H   0  0  0  0  0  0
  -15.5359  -30.2983   23.7661 H   0  0  0  0  0  0
  -15.8683  -28.0818   22.7074 H   0  0  0  0  0  0
  -24.5902  -30.7085   25.7756 H   0  0  0  0  0  0
  -24.8915  -32.2909   26.4838 H   0  0  0  0  0  0
  -25.8031  -30.8922   27.0222 H   0  0  0  0  0  0
  -26.2955  -29.6732   24.1234 H   0  0  0  0  0  0
  -27.4022  -29.7263   25.4755 H   0  0  0  0  0  0
  -27.8843  -30.4258   23.9489 H   0  0  0  0  0  0
  -27.2652  -33.3629   26.2063 H   0  0  0  0  0  0
  -28.3877  -32.6882   25.0342 H   0  0  0  0  0  0
  -28.0713  -31.8464   26.5433 H   0  0  0  0  0  0
  -28.2600  -38.0089   24.7499 H   0  0  0  0  0  0
  -28.1065  -36.2618   24.6315 H   0  0  0  0  0  0
  -27.2291  -37.1475   25.8870 H   0  0  0  0  0  0
  -20.9406  -29.8770   21.6854 H   0  0  0  0  0  0
  -26.0168  -38.2839   24.1396 H   0  0  0  0  0  0
  -29.0446  -20.8932   17.9382 H   0  0  0  0  0  0
  -29.7009  -18.2577   18.1420 H   0  0  0  0  0  0
  -28.3964  -22.2508   21.6138 H   0  0  0  0  0  0
  -29.0434  -23.5687   18.9661 H   0  0  0  0  0  0
  -29.9675  -17.4436   22.0904 H   0  0  0  0  0  0
  -31.3088  -17.3721   21.0169 H   0  0  0  0  0  0
  -27.5976  -24.8026   19.6016 H   0  0  0  0  0  0
  -29.1486  -24.9962   20.8168 H   0  0  0  0  0  0
  -28.8333  -15.7073   20.7587 H   0  0  0  0  0  0
  1 25  1  0  0  0
  1 30  2  0  0  0
  1 79  1  0  0  0
  2  3  1  0  0  0
  2 25  1  0  0  0
  2 81  1  0  0  0
  2 82  1  0  0  0
  3  4  1  0  0  0
  3 83  1  0  0  0
  3 84  1  0  0  0
  4  5  1  0  0  0
  4 85  1  0  0  0
  4 86  1  0  0  0
  5  6  1  0  0  0
  5 26  1  0  0  0
  5 87  1  0  0  0
  6 25  1  0  0  0
  6 88  1  0  0  0
  6 89  1  0  0  0
  7  8  2  0  0  0
  7 26  1  0  0  0
  7 29  1  0  0  0
  8  9  1  0  0  0
  8 22  1  0  0  0
  9 10  1  0  0  0
  9 27  2  0  0  0
 10 11  2  0  0  0
 10 15  1  0  0  0
 11 12  1  0  0  0
 11 90  1  0  0  0
 12 13  2  0  0  0
 12 91  1  0  0  0
 13 14  1  0  0  0
 13 31  1  0  0  0
 14 15  2  0  0  0
 14 92  1  0  0  0
 15 93  1  0  0  0
 16 17  2  0  0  0
 16 21  1  0  0  0
 16 31  1  0  0  0
 17 18  1  0  0  0
 17 94  1  0  0  0
 18 19  2  0  0  0
 18 95  1  0  0  0
 19 20  1  0  0  0
 19 24  1  0  0  0
 20 21  2  0  0  0
 20 96  1  0  0  0
 21 23  1  0  0  0
 22 28  1  0  0  0
 22 32  2  0  0  0
 26 27  1  0  0  0
 28 97  1  0  0  0
 28 98  1  0  0  0
 29 99  1  0  0  0
 29100  1  0  0  0
 33 34  1  0  0  0
 33 66  1  0  0  0
 33 70  2  0  0  0
 34 36  1  0  0  0
 34 59  1  0  0  0
 34101  1  0  0  0
 35 44  2  0  0  0
 35 45  1  0  0  0
 35 68  1  0  0  0
 36 56  1  0  0  0
 36102  1  0  0  0
 37 39  1  0  0  0
 37 47  1  0  0  0
 37 66  1  0  0  0
 37103  1  0  0  0
 38 43  2  0  0  0
 38 46  1  0  0  0
 38 47  1  0  0  0
 39 64  1  0  0  0
 39 67  2  0  0  0
 40 52  1  0  0  0
 40 53  2  0  0  0
 40 58  1  0  0  0
 41104  1  0  0  0
 41105  1  0  0  0
 41106  1  0  0  0
 41 48  1  0  0  0
 42 43  1  0  0  0
 42 66  1  0  0  0
 42107  1  0  0  0
 42108  1  0  0  0
 43 44  1  0  0  0
 44109  1  0  0  0
 45 46  2  0  0  0
 45110  1  0  0  0
 46111  1  0  0  0
 47112  1  0  0  0
 47113  1  0  0  0
 48 56  1  0  0  0
 48 65  1  0  0  0
 48114  1  0  0  0
 49 50  1  0  0  0
 49 53  1  0  0  0
 49 64  1  0  0  0
 49115  1  0  0  0
 50 51  1  0  0  0
 50116  1  0  0  0
 50117  1  0  0  0
 51 52  1  0  0  0
 51118  1  0  0  0
 51119  1  0  0  0
 52120  1  0  0  0
 52121  1  0  0  0
 53 54  1  0  0  0
 54 55  2  0  0  0
 54122  1  0  0  0
 55 57  1  0  0  0
 55123  1  0  0  0
 56 69  2  0  0  0
 57 58  2  0  0  0
 57124  1  0  0  0
 58125  1  0  0  0
 59 60  1  0  0  0
 59 61  1  0  0  0
 59 62  1  0  0  0
 60126  1  0  0  0
 60127  1  0  0  0
 60128  1  0  0  0
 61129  1  0  0  0
 61130  1  0  0  0
 61131  1  0  0  0
 62132  1  0  0  0
 62133  1  0  0  0
 62134  1  0  0  0
 63 65  1  0  0  0
 63135  1  0  0  0
 63136  1  0  0  0
 63137  1  0  0  0
 64138  1  0  0  0
 65139  1  0  0  0
 68 78  1  0  0  0
 71 72  1  0  0  0
 71 73  2  0  0  0
 71140  1  0  0  0
 72 74  2  0  0  0
 72141  1  0  0  0
 73 75  1  0  0  0
 73 80  1  0  0  0
 74 77  1  0  0  0
 74 80  1  0  0  0
 75 76  2  0  0  0
 75142  1  0  0  0
 76 78  1  0  0  0
 76143  1  0  0  0
 77 79  1  0  0  0
 77144  1  0  0  0
 77145  1  0  0  0
 78146  1  0  0  0
 78147  1  0  0  0
 79148  1  0  0  0
M  ISO  4   1 100  68 101  78 101  79 100
M  END
> <chiral flag>
0

> <version>
0

> <s_m_source_file>
/data/baiqing/PycharmProjects/Reinvent-master-3.2/result/LINK_invent/BTK/process_docking_weight1_custom_product_contain_oxygen_bond_distance_aromatic_linkinvent_7_9_3/rearranged_h_0114.sdf

> <i_m_source_file_index>
9

> <r_mmod_Potential_Energy-OPLS-2005>
308.340209960938

> <r_mmod_Stretch_Energy-OPLS-2005>
127.240341186523

> <r_mmod_Bend_Energy-OPLS-2005>
367.345977783203

> <r_mmod_Torsional_Energy-OPLS-2005>
222.313186645508

> <r_mmod_Improper_Torsional_Energy-OPLS-2005>
5.14975261688232

> <r_mmod_Van_der_Waal_Energy-OPLS-2005>
120.910041809082

> <r_mmod_Electrostatic_Energy-OPLS-2005>
-419.065551757812

> <r_mmod_Solvation_Energy-OPLS-2005>
-211.116882324219

> <b_mmod_Minimization_Converged-OPLS-2005>
0

> <r_mmod_RMS_Derivative-OPLS-2005>
0.38094300031662

$$$$
9
                    3D
 Structure written by MMmdl.
163172  0  0  1  0            999 V2000
  -30.6034  -14.7124   20.4741 C   0  0  0  0  0  0
  -30.4420  -12.4372   19.4647 C   0  0  0  0  0  0
  -29.5115  -12.5222   18.2312 C   0  0  0  0  0  0
  -28.0317  -12.3502   18.6350 C   0  0  0  0  0  0
  -27.6501  -13.2132   19.8666 C   0  0  2  0  0  0
  -28.6972  -13.0467   20.9870 C   0  0  0  0  0  0
  -25.2563  -13.8147   20.5719 C   0  0  0  0  0  0
  -24.1807  -13.0418   20.9163 C   0  0  0  0  0  0
  -24.6373  -11.6889   20.8724 C   0  0  0  0  0  0
  -23.9042  -10.4280   21.0403 C   0  0  0  0  0  0
  -24.3604   -9.4201   21.9179 C   0  0  0  0  0  0
  -23.6286   -8.2233   22.0748 C   0  0  0  0  0  0
  -22.4265   -8.0270   21.3541 C   0  0  0  0  0  0
  -21.9898   -9.0239   20.4639 C   0  0  0  0  0  0
  -22.7220  -10.2121   20.3050 C   0  0  0  0  0  0
  -21.6850   -6.0733   22.5282 C   0  0  0  0  0  0
  -21.4012   -6.5641   23.8215 C   0  0  0  0  0  0
  -21.3660   -5.6794   24.9176 C   0  0  0  0  0  0
  -21.6044   -4.3056   24.7227 C   0  0  0  0  0  0
  -21.8821   -3.8146   23.4350 C   0  0  0  0  0  0
  -21.9194   -4.6962   22.3406 C   0  0  0  0  0  0
  -22.7841  -13.5224   21.1852 C   0  0  0  0  0  0
  -22.1664   -4.2148   21.0982 F   0  0  0  0  0  0
  -21.5630   -3.4542   25.7742 F   0  0  0  0  0  0
  -29.9962  -13.4669   20.4353 N   0  0  0  0  0  0
  -26.2974  -12.9313   20.3353 N   0  0  0  0  0  0
  -25.9299  -11.6467   20.5746 N   0  0  0  0  0  0
  -22.0491  -12.8205   22.0407 N   0  0  0  0  0  0
  -25.4345  -15.1863   20.4241 N   0  0  0  0  0  0
  -31.7848  -14.8042   20.1223 O   0  0  0  0  0  0
  -21.6631   -6.8870   21.4241 O   0  0  0  0  0  0
  -22.3522  -14.5540   20.6723 O   0  0  0  0  0  0
  -24.6275  -31.8578   23.1998 C   0  0  0  0  0  0
  -25.9113  -32.4769   23.8337 C   0  0  1  0  0  0
  -27.2290  -27.3042   20.1274 C   0  0  0  0  0  0
  -25.5919  -33.8570   24.2263 N   0  0  0  0  0  0
  -23.4224  -30.4783   21.5432 C   0  0  2  0  0  0
  -24.8700  -28.9235   20.1172 C   0  0  0  0  0  0
  -22.7482  -29.4608   22.4941 C   0  0  0  0  0  0
  -18.0287  -28.1385   22.8491 C   0  0  0  0  0  0
  -24.1487  -36.7291   23.2640 C   0  0  0  0  0  0
  -25.9633  -30.7843   21.3714 C   0  0  0  0  0  0
  -26.0390  -29.4075   20.7187 C   0  0  0  0  0  0
  -27.2233  -28.6108   20.7090 C   0  0  0  0  0  0
  -26.0396  -26.8713   19.5046 C   0  0  0  0  0  0
  -24.8721  -27.6606   19.5017 C   0  0  0  0  0  0
  -23.6387  -29.8065   20.1612 C   0  0  0  0  0  0
  -25.4114  -36.3079   24.0328 C   0  0  1  0  0  0
  -20.5889  -28.3687   23.1291 C   0  0  2  0  0  0
  -20.6773  -26.9410   22.5417 C   0  0  0  0  0  0
  -19.5746  -26.6384   21.5220 C   0  0  0  0  0  0
  -18.1928  -26.7927   22.1631 C   0  0  0  0  0  0
  -19.1540  -28.8854   23.2884 C   0  0  0  0  0  0
  -18.9461  -30.1458   23.8895 C   0  0  0  0  0  0
  -17.6459  -30.6586   24.0565 C   0  0  0  0  0  0
  -25.9053  -34.9449   23.5099 C   0  0  0  0  0  0
  -16.5352  -29.9086   23.6328 C   0  0  0  0  0  0
  -16.7275  -28.6504   23.0348 C   0  0  0  0  0  0
  -26.4490  -31.6585   25.0715 C   0  0  0  0  0  0
  -25.3721  -31.3732   26.1441 C   0  0  0  0  0  0
  -27.0329  -30.3005   24.6174 C   0  0  0  0  0  0
  -27.6038  -32.4329   25.7493 C   0  0  0  0  0  0
  -27.5576  -37.1802   24.8464 C   0  0  0  0  0  0
  -21.4194  -29.3038   22.3684 N   0  0  0  0  0  0
  -26.4287  -37.3777   23.9409 N   0  0  0  0  0  0
  -24.6900  -31.0577   22.0951 N   0  0  0  0  0  0
  -23.4198  -28.8156   23.3034 O   0  0  0  0  0  0
  -28.3564  -26.4683   20.1193 O   0  0  0  0  0  0
  -26.5631  -34.8919   22.4671 O   0  0  0  0  0  0
  -23.5435  -32.1378   23.7322 O   0  0  0  0  0  0
  -29.3670  -18.6662   20.6522 C   0  0  0  0  0  0
  -31.1611  -17.6894   19.3657 C   0  0  0  0  0  0
  -30.7171  -20.1008   19.2354 C   0  0  0  0  0  0
  -30.1098  -17.4673   20.2900 C   0  0  0  0  0  0
  -29.6462  -19.9903   20.1416 C   0  0  0  0  0  0
  -31.4765  -18.9670   18.8506 C   0  0  0  0  0  0
  -30.5810  -22.8309   21.2676 C   0  0  0  0  0  0
  -29.7493  -16.0409   20.8278 C   0  0  0  0  0  0
  -31.3031  -24.0882   20.8177 C   0  0  0  0  0  0
  -30.5195  -24.4856   19.5663 C   0  0  0  0  0  0
  -29.1107  -23.9156   19.8055 C   0  0  2  0  0  0
  -32.9363  -20.2999   17.4814 C   0  0  0  0  0  0
  -28.7884  -21.2829   20.4798 C   0  0  0  0  0  0
  -28.2264  -25.0431   20.5391 C   0  0  0  0  0  0
  -28.7239  -15.9804   21.5699 N   0  0  0  0  0  0
  -29.4409  -22.6495   20.5800 N   0  0  0  0  0  0
  -31.0595  -22.0618   22.1050 O   0  0  0  0  0  0
  -32.5322  -19.0241   17.9661 O   0  0  0  0  0  0
  -31.4810  -12.5689   19.1591 H   0  0  0  0  0  0
  -30.3972  -11.4426   19.9115 H   0  0  0  0  0  0
  -29.7889  -11.7662   17.4953 H   0  0  0  0  0  0
  -29.6446  -13.4876   17.7409 H   0  0  0  0  0  0
  -27.8711  -11.2954   18.8610 H   0  0  0  0  0  0
  -27.3787  -12.5827   17.7930 H   0  0  0  0  0  0
  -27.6688  -14.2510   19.5346 H   0  0  0  0  0  0
  -28.7412  -12.0026   21.3017 H   0  0  0  0  0  0
  -28.4245  -13.5808   21.8941 H   0  0  0  0  0  0
  -25.2752   -9.5690   22.4745 H   0  0  0  0  0  0
  -24.0006   -7.4629   22.7466 H   0  0  0  0  0  0
  -21.0832   -8.8757   19.8942 H   0  0  0  0  0  0
  -22.3682  -10.9660   19.6157 H   0  0  0  0  0  0
  -21.1996   -7.6147   23.9721 H   0  0  0  0  0  0
  -21.1484   -6.0520   25.9081 H   0  0  0  0  0  0
  -22.0597   -2.7607   23.2850 H   0  0  0  0  0  0
  -22.4118  -11.9861   22.4776 H   0  0  0  0  0  0
  -21.1113  -13.1227   22.2636 H   0  0  0  0  0  0
  -24.6970  -15.8596   20.5988 H   0  0  0  0  0  0
  -26.3441  -15.6130   20.2906 H   0  0  0  0  0  0
  -26.7184  -32.5435   23.1086 H   0  0  0  0  0  0
  -25.0045  -33.9710   25.0393 H   0  0  0  0  0  0
  -22.7165  -31.2985   21.3961 H   0  0  0  0  0  0
  -23.3747  -35.9625   23.3303 H   0  0  0  0  0  0
  -24.3576  -36.8913   22.2053 H   0  0  0  0  0  0
  -23.7240  -37.6492   23.6665 H   0  0  0  0  0  0
  -26.0935  -31.5442   20.5995 H   0  0  0  0  0  0
  -26.8446  -30.8380   21.9992 H   0  0  0  0  0  0
  -28.1248  -28.9814   21.1766 H   0  0  0  0  0  0
  -26.0073  -25.9087   19.0146 H   0  0  0  0  0  0
  -23.9768  -27.2844   19.0260 H   0  0  0  0  0  0
  -23.7613  -30.5798   19.4017 H   0  0  0  0  0  0
  -22.7581  -29.2364   19.8597 H   0  0  0  0  0  0
  -25.1295  -36.1924   25.0820 H   0  0  0  0  0  0
  -20.9982  -28.3259   24.1412 H   0  0  0  0  0  0
  -20.5679  -26.2295   23.3617 H   0  0  0  0  0  0
  -21.6640  -26.7437   22.1208 H   0  0  0  0  0  0
  -19.6906  -25.6296   21.1246 H   0  0  0  0  0  0
  -19.6681  -27.3199   20.6755 H   0  0  0  0  0  0
  -17.4198  -26.6682   21.4032 H   0  0  0  0  0  0
  -18.0320  -26.0069   22.9028 H   0  0  0  0  0  0
  -19.7936  -30.7280   24.2257 H   0  0  0  0  0  0
  -17.5012  -31.6265   24.5170 H   0  0  0  0  0  0
  -15.5352  -30.2987   23.7649 H   0  0  0  0  0  0
  -15.8676  -28.0827   22.7054 H   0  0  0  0  0  0
  -24.5892  -30.7083   25.7775 H   0  0  0  0  0  0
  -24.8918  -32.2903   26.4863 H   0  0  0  0  0  0
  -25.8046  -30.8913   27.0218 H   0  0  0  0  0  0
  -26.2904  -29.6763   24.1189 H   0  0  0  0  0  0
  -27.4008  -29.7256   25.4682 H   0  0  0  0  0  0
  -27.8782  -30.4283   23.9407 H   0  0  0  0  0  0
  -27.2630  -33.3623   26.2069 H   0  0  0  0  0  0
  -28.3851  -32.6903   25.0330 H   0  0  0  0  0  0
  -28.0702  -31.8459   26.5413 H   0  0  0  0  0  0
  -28.2597  -38.0096   24.7510 H   0  0  0  0  0  0
  -28.1071  -36.2628   24.6294 H   0  0  0  0  0  0
  -27.2299  -37.1457   25.8869 H   0  0  0  0  0  0
  -20.9376  -29.8755   21.6887 H   0  0  0  0  0  0
  -26.0166  -38.2850   24.1411 H   0  0  0  0  0  0
  -28.5362  -18.5766   21.3373 H   0  0  0  0  0  0
  -31.7619  -16.8709   19.0052 H   0  0  0  0  0  0
  -30.9313  -21.0777   18.8283 H   0  0  0  0  0  0
  -32.3559  -23.8993   20.6067 H   0  0  0  0  0  0
  -31.2293  -24.8475   21.5965 H   0  0  0  0  0  0
  -30.9662  -24.0101   18.6914 H   0  0  0  0  0  0
  -30.5378  -25.5602   19.3847 H   0  0  0  0  0  0
  -28.6529  -23.6647   18.8475 H   0  0  0  0  0  0
  -33.8029  -20.1817   16.8315 H   0  0  0  0  0  0
  -33.2256  -20.9640   18.2977 H   0  0  0  0  0  0
  -32.1493  -20.7730   16.8922 H   0  0  0  0  0  0
  -28.2772  -21.1030   21.4264 H   0  0  0  0  0  0
  -27.9993  -21.3477   19.7308 H   0  0  0  0  0  0
  -28.4930  -25.0393   21.5962 H   0  0  0  0  0  0
  -27.1866  -24.7183   20.5239 H   0  0  0  0  0  0
  -28.3107  -16.8948   21.6941 H   0  0  0  0  0  0
  1 25  1  0  0  0
  1 30  2  0  0  0
  1 78  1  0  0  0
  2  3  1  0  0  0
  2 25  1  0  0  0
  2 89  1  0  0  0
  2 90  1  0  0  0
  3  4  1  0  0  0
  3 91  1  0  0  0
  3 92  1  0  0  0
  4  5  1  0  0  0
  4 93  1  0  0  0
  4 94  1  0  0  0
  5  6  1  0  0  0
  5 26  1  0  0  0
  5 95  1  0  0  0
  6 25  1  0  0  0
  6 96  1  0  0  0
  6 97  1  0  0  0
  7  8  2  0  0  0
  7 26  1  0  0  0
  7 29  1  0  0  0
  8  9  1  0  0  0
  8 22  1  0  0  0
  9 10  1  0  0  0
  9 27  2  0  0  0
 10 11  2  0  0  0
 10 15  1  0  0  0
 11 12  1  0  0  0
 11 98  1  0  0  0
 12 13  2  0  0  0
 12 99  1  0  0  0
 13 14  1  0  0  0
 13 31  1  0  0  0
 14 15  2  0  0  0
 14100  1  0  0  0
 15101  1  0  0  0
 16 17  2  0  0  0
 16 21  1  0  0  0
 16 31  1  0  0  0
 17 18  1  0  0  0
 17102  1  0  0  0
 18 19  2  0  0  0
 18103  1  0  0  0
 19 20  1  0  0  0
 19 24  1  0  0  0
 20 21  2  0  0  0
 20104  1  0  0  0
 21 23  1  0  0  0
 22 28  1  0  0  0
 22 32  2  0  0  0
 26 27  1  0  0  0
 28105  1  0  0  0
 28106  1  0  0  0
 29107  1  0  0  0
 29108  1  0  0  0
 33 34  1  0  0  0
 33 66  1  0  0  0
 33 70  2  0  0  0
 34 36  1  0  0  0
 34 59  1  0  0  0
 34109  1  0  0  0
 35 44  2  0  0  0
 35 45  1  0  0  0
 35 68  1  0  0  0
 36 56  1  0  0  0
 36110  1  0  0  0
 37 39  1  0  0  0
 37 47  1  0  0  0
 37 66  1  0  0  0
 37111  1  0  0  0
 38 43  2  0  0  0
 38 46  1  0  0  0
 38 47  1  0  0  0
 39 64  1  0  0  0
 39 67  2  0  0  0
 40 52  1  0  0  0
 40 53  2  0  0  0
 40 58  1  0  0  0
 41112  1  0  0  0
 41113  1  0  0  0
 41114  1  0  0  0
 41 48  1  0  0  0
 42 43  1  0  0  0
 42 66  1  0  0  0
 42115  1  0  0  0
 42116  1  0  0  0
 43 44  1  0  0  0
 44117  1  0  0  0
 45 46  2  0  0  0
 45118  1  0  0  0
 46119  1  0  0  0
 47120  1  0  0  0
 47121  1  0  0  0
 48 56  1  0  0  0
 48 65  1  0  0  0
 48122  1  0  0  0
 49 50  1  0  0  0
 49 53  1  0  0  0
 49 64  1  0  0  0
 49123  1  0  0  0
 50 51  1  0  0  0
 50124  1  0  0  0
 50125  1  0  0  0
 51 52  1  0  0  0
 51126  1  0  0  0
 51127  1  0  0  0
 52128  1  0  0  0
 52129  1  0  0  0
 53 54  1  0  0  0
 54 55  2  0  0  0
 54130  1  0  0  0
 55 57  1  0  0  0
 55131  1  0  0  0
 56 69  2  0  0  0
 57 58  2  0  0  0
 57132  1  0  0  0
 58133  1  0  0  0
 59 60  1  0  0  0
 59 61  1  0  0  0
 59 62  1  0  0  0
 60134  1  0  0  0
 60135  1  0  0  0
 60136  1  0  0  0
 61137  1  0  0  0
 61138  1  0  0  0
 61139  1  0  0  0
 62140  1  0  0  0
 62141  1  0  0  0
 62142  1  0  0  0
 63 65  1  0  0  0
 63143  1  0  0  0
 63144  1  0  0  0
 63145  1  0  0  0
 64146  1  0  0  0
 65147  1  0  0  0
 68 84  1  0  0  0
 71 74  2  0  0  0
 71 75  1  0  0  0
 71148  1  0  0  0
 72 74  1  0  0  0
 72 76  2  0  0  0
 72149  1  0  0  0
 73 75  2  0  0  0
 73 76  1  0  0  0
 73150  1  0  0  0
 74 78  1  0  0  0
 75 83  1  0  0  0
 76 88  1  0  0  0
 77 79  1  0  0  0
 77 86  1  0  0  0
 77 87  2  0  0  0
 78 85  2  0  0  0
 79 80  1  0  0  0
 79151  1  0  0  0
 79152  1  0  0  0
 80 81  1  0  0  0
 80153  1  0  0  0
 80154  1  0  0  0
 81 84  1  0  0  0
 81 86  1  0  0  0
 81155  1  0  0  0
 82 88  1  0  0  0
 82156  1  0  0  0
 82157  1  0  0  0
 82158  1  0  0  0
 83 86  1  0  0  0
 83159  1  0  0  0
 83160  1  0  0  0
 84161  1  0  0  0
 84162  1  0  0  0
 85163  1  0  0  0
M  ISO  4   1 100  68 101  78 100  84 101
M  END
> <chiral flag>
0

> <version>
0

> <s_m_source_file>
/data/baiqing/PycharmProjects/Reinvent-master-3.2/result/LINK_invent/BTK/process_docking_weight1_custom_product_contain_oxygen_bond_distance_aromatic_linkinvent_7_9_3/rearranged_h_0114.sdf

> <i_m_source_file_index>
10

> <r_mmod_Potential_Energy-OPLS-2005>
296.638427734375

> <r_mmod_Stretch_Energy-OPLS-2005>
124.929916381836

> <r_mmod_Bend_Energy-OPLS-2005>
204.337265014648

> <r_mmod_Torsional_Energy-OPLS-2005>
238.43815612793

> <r_mmod_Improper_Torsional_Energy-OPLS-2005>
3.98073410987854

> <r_mmod_Van_der_Waal_Energy-OPLS-2005>
155.316650390625

> <r_mmod_Electrostatic_Energy-OPLS-2005>
-263.454376220703

> <r_mmod_Solvation_Energy-OPLS-2005>
-226.059036254883

> <b_mmod_Minimization_Converged-OPLS-2005>
0

> <r_mmod_RMS_Derivative-OPLS-2005>
0.680952847003937

$$$$
10
                    3D
 Structure written by MMmdl.
164172  0  0  1  0            999 V2000
  -30.6980  -14.4804   20.5326 C   0  0  0  0  0  0
  -30.4182  -12.2988   19.4217 C   0  0  0  0  0  0
  -29.4929  -12.4932   18.2024 C   0  0  0  0  0  0
  -28.0126  -12.3607   18.6139 C   0  0  0  0  0  0
  -27.6583  -13.2046   19.8687 C   0  0  2  0  0  0
  -28.7026  -13.0030   20.9897 C   0  0  0  0  0  0
  -25.2592  -13.8165   20.5686 C   0  0  0  0  0  0
  -24.1833  -13.0452   20.9182 C   0  0  0  0  0  0
  -24.6383  -11.6914   20.8740 C   0  0  0  0  0  0
  -23.9046  -10.4294   21.0404 C   0  0  0  0  0  0
  -24.3602   -9.4204   21.9174 C   0  0  0  0  0  0
  -23.6286   -8.2235   22.0742 C   0  0  0  0  0  0
  -22.4266   -8.0273   21.3538 C   0  0  0  0  0  0
  -21.9892   -9.0251   20.4647 C   0  0  0  0  0  0
  -22.7218  -10.2131   20.3053 C   0  0  0  0  0  0
  -21.6854   -6.0717   22.5272 C   0  0  0  0  0  0
  -21.4022   -6.5629   23.8203 C   0  0  0  0  0  0
  -21.3663   -5.6785   24.9166 C   0  0  0  0  0  0
  -21.6037   -4.3045   24.7230 C   0  0  0  0  0  0
  -21.8825   -3.8136   23.4354 C   0  0  0  0  0  0
  -21.9197   -4.6943   22.3401 C   0  0  0  0  0  0
  -22.7855  -13.5248   21.1873 C   0  0  0  0  0  0
  -22.1673   -4.2122   21.0977 F   0  0  0  0  0  0
  -21.5624   -3.4533   25.7752 F   0  0  0  0  0  0
  -30.0273  -13.2993   20.4271 N   0  0  0  0  0  0
  -26.3010  -12.9315   20.3356 N   0  0  0  0  0  0
  -25.9309  -11.6484   20.5771 N   0  0  0  0  0  0
  -22.0508  -12.8223   22.0427 N   0  0  0  0  0  0
  -25.4406  -15.1868   20.4106 N   0  0  0  0  0  0
  -31.8727  -14.6062   20.1722 O   0  0  0  0  0  0
  -21.6639   -6.8859   21.4230 O   0  0  0  0  0  0
  -22.3521  -14.5556   20.6738 O   0  0  0  0  0  0
  -24.6134  -31.8675   23.2156 C   0  0  0  0  0  0
  -25.9033  -32.4810   23.8430 C   0  0  1  0  0  0
  -27.2459  -27.4570   20.0918 C   0  0  0  0  0  0
  -25.5899  -33.8613   24.2351 N   0  0  0  0  0  0
  -23.4015  -30.4904   21.5547 C   0  0  2  0  0  0
  -24.8522  -28.9526   20.1247 C   0  0  0  0  0  0
  -22.7399  -29.4632   22.5013 C   0  0  0  0  0  0
  -18.0271  -28.1343   22.8485 C   0  0  0  0  0  0
  -24.1491  -36.7330   23.2635 C   0  0  0  0  0  0
  -25.9293  -30.8334   21.3734 C   0  0  0  0  0  0
  -26.0081  -29.4672   20.7274 C   0  0  0  0  0  0
  -27.2096  -28.7230   20.7187 C   0  0  0  0  0  0
  -26.0785  -26.9513   19.4884 C   0  0  0  0  0  0
  -24.8776  -27.6885   19.5092 C   0  0  0  0  0  0
  -23.6117  -29.8196   20.1704 C   0  0  0  0  0  0
  -25.4105  -36.3110   24.0334 C   0  0  1  0  0  0
  -20.5851  -28.3628   23.1311 C   0  0  2  0  0  0
  -20.6743  -26.9351   22.5415 C   0  0  0  0  0  0
  -19.5727  -26.6343   21.5201 C   0  0  0  0  0  0
  -18.1909  -26.7891   22.1613 C   0  0  0  0  0  0
  -19.1512  -28.8806   23.2888 C   0  0  0  0  0  0
  -18.9445  -30.1424   23.8877 C   0  0  0  0  0  0
  -17.6441  -30.6552   24.0561 C   0  0  0  0  0  0
  -25.9027  -34.9460   23.5139 C   0  0  0  0  0  0
  -16.5338  -29.9054   23.6315 C   0  0  0  0  0  0
  -16.7255  -28.6471   23.0333 C   0  0  0  0  0  0
  -26.4469  -31.6588   25.0759 C   0  0  0  0  0  0
  -25.3749  -31.3708   26.1526 C   0  0  0  0  0  0
  -27.0283  -30.3025   24.6140 C   0  0  0  0  0  0
  -27.6074  -32.4285   25.7492 C   0  0  0  0  0  0
  -27.5577  -37.1810   24.8446 C   0  0  0  0  0  0
  -21.4123  -29.3016   22.3735 N   0  0  0  0  0  0
  -26.4293  -37.3789   23.9392 N   0  0  0  0  0  0
  -24.6647  -31.0784   22.1056 N   0  0  0  0  0  0
  -23.4161  -28.8162   23.3035 O   0  0  0  0  0  0
  -28.4024  -26.7286   19.9542 O   0  0  0  0  0  0
  -26.5589  -34.8906   22.4699 O   0  0  0  0  0  0
  -23.5332  -32.1411   23.7571 O   0  0  0  0  0  0
  -28.4758  -18.5427   21.3194 C   0  0  0  0  0  0
  -30.7266  -18.4621   22.2314 C   0  0  0  0  0  0
  -28.5358  -19.9572   21.2380 C   0  0  0  0  0  0
  -29.5690  -17.7842   21.7951 C   0  0  0  0  0  0
  -29.7164  -20.6215   21.6548 C   0  0  0  0  0  0
  -30.7999  -19.8681   22.1625 C   0  0  0  0  0  0
  -26.2972  -20.2671   20.1195 C   0  0  0  0  0  0
  -27.4112  -20.7499   20.6968 C   0  0  0  0  0  0
  -29.9221  -16.4183   19.3316 C   0  0  0  0  0  0
  -29.5107  -16.2482   21.8009 C   0  0  0  0  0  0
  -28.8943  -24.8388   21.3591 C   0  0  0  0  0  0
  -29.8523  -24.2474   22.4123 C   0  0  0  0  0  0
  -29.1036  -26.3492   21.1316 C   0  0  0  0  0  0
  -29.6571  -22.7435   22.6929 C   0  0  0  0  0  0
  -29.8997  -15.5764   20.5397 N   0  0  0  0  0  0
  -29.8373  -21.9868   21.5005 O   0  0  0  0  0  0
  -31.9337  -20.4953   22.5609 F   0  0  0  0  0  0
  -31.4641  -12.3876   19.1201 H   0  0  0  0  0  0
  -30.3087  -11.2925   19.8295 H   0  0  0  0  0  0
  -29.7315  -11.7658   17.4244 H   0  0  0  0  0  0
  -29.6665  -13.4751   17.7606 H   0  0  0  0  0  0
  -27.8154  -11.3060   18.8084 H   0  0  0  0  0  0
  -27.3641  -12.6374   17.7813 H   0  0  0  0  0  0
  -27.6957  -14.2481   19.5616 H   0  0  0  0  0  0
  -28.6760  -11.9740   21.3535 H   0  0  0  0  0  0
  -28.4781  -13.6271   21.8537 H   0  0  0  0  0  0
  -25.2752   -9.5674   22.4734 H   0  0  0  0  0  0
  -24.0003   -7.4604   22.7442 H   0  0  0  0  0  0
  -21.0823   -8.8755   19.8955 H   0  0  0  0  0  0
  -22.3672  -10.9653   19.6147 H   0  0  0  0  0  0
  -21.2026   -7.6140   23.9702 H   0  0  0  0  0  0
  -21.1482   -6.0521   25.9061 H   0  0  0  0  0  0
  -22.0613   -2.7598   23.2876 H   0  0  0  0  0  0
  -22.4136  -11.9873   22.4788 H   0  0  0  0  0  0
  -21.1122  -13.1221   22.2667 H   0  0  0  0  0  0
  -24.6901  -15.8602   20.5165 H   0  0  0  0  0  0
  -26.3079  -15.6069   20.1026 H   0  0  0  0  0  0
  -26.7113  -32.5531   23.1199 H   0  0  0  0  0  0
  -25.0058  -33.9763   25.0504 H   0  0  0  0  0  0
  -22.6919  -31.3084   21.4181 H   0  0  0  0  0  0
  -23.3729  -35.9688   23.3299 H   0  0  0  0  0  0
  -24.3598  -36.8946   22.2051 H   0  0  0  0  0  0
  -23.7269  -37.6545   23.6652 H   0  0  0  0  0  0
  -26.0482  -31.5981   20.6055 H   0  0  0  0  0  0
  -26.8142  -30.8832   21.9941 H   0  0  0  0  0  0
  -28.1072  -29.1301   21.1610 H   0  0  0  0  0  0
  -26.1052  -25.9908   18.9932 H   0  0  0  0  0  0
  -23.9912  -27.2868   19.0387 H   0  0  0  0  0  0
  -23.7188  -30.5930   19.4093 H   0  0  0  0  0  0
  -22.7374  -29.2374   19.8742 H   0  0  0  0  0  0
  -25.1282  -36.1984   25.0828 H   0  0  0  0  0  0
  -20.9940  -28.3198   24.1430 H   0  0  0  0  0  0
  -20.5588  -26.2244   23.3610 H   0  0  0  0  0  0
  -21.6631  -26.7337   22.1253 H   0  0  0  0  0  0
  -19.6880  -25.6249   21.1239 H   0  0  0  0  0  0
  -19.6682  -27.3144   20.6723 H   0  0  0  0  0  0
  -17.4174  -26.6614   21.4022 H   0  0  0  0  0  0
  -18.0313  -26.0026   22.9002 H   0  0  0  0  0  0
  -19.7925  -30.7252   24.2212 H   0  0  0  0  0  0
  -17.4998  -31.6229   24.5167 H   0  0  0  0  0  0
  -15.5332  -30.2952   23.7633 H   0  0  0  0  0  0
  -15.8659  -28.0795   22.7030 H   0  0  0  0  0  0
  -24.5888  -30.7090   25.7876 H   0  0  0  0  0  0
  -24.8989  -32.2876   26.5016 H   0  0  0  0  0  0
  -25.8112  -30.8837   27.0259 H   0  0  0  0  0  0
  -26.2822  -29.6806   24.1187 H   0  0  0  0  0  0
  -27.4032  -29.7247   25.4601 H   0  0  0  0  0  0
  -27.8679  -30.4338   23.9310 H   0  0  0  0  0  0
  -27.2726  -33.3580   26.2110 H   0  0  0  0  0  0
  -28.3850  -32.6840   25.0280 H   0  0  0  0  0  0
  -28.0772  -31.8377   26.5365 H   0  0  0  0  0  0
  -28.2599  -38.0102   24.7494 H   0  0  0  0  0  0
  -28.1067  -36.2639   24.6264 H   0  0  0  0  0  0
  -27.2307  -37.1460   25.8853 H   0  0  0  0  0  0
  -20.9279  -29.8790   21.7012 H   0  0  0  0  0  0
  -26.0182  -38.2865   24.1409 H   0  0  0  0  0  0
  -27.5927  -18.0150   20.9924 H   0  0  0  0  0  0
  -31.5757  -17.9074   22.6013 H   0  0  0  0  0  0
  -25.5325  -20.9408   19.7576 H   0  0  0  0  0  0
  -26.1182  -19.2108   19.9865 H   0  0  0  0  0  0
  -27.4963  -21.8254   20.7828 H   0  0  0  0  0  0
  -28.9450  -16.8642   19.1444 H   0  0  0  0  0  0
  -30.1833  -15.8463   18.4380 H   0  0  0  0  0  0
  -30.6572  -17.2183   19.4241 H   0  0  0  0  0  0
  -28.4920  -15.9462   22.0449 H   0  0  0  0  0  0
  -30.1292  -15.8821   22.6246 H   0  0  0  0  0  0
  -27.8577  -24.6559   21.6425 H   0  0  0  0  0  0
  -29.0430  -24.3145   20.4133 H   0  0  0  0  0  0
  -29.7213  -24.7904   23.3481 H   0  0  0  0  0  0
  -30.8839  -24.4196   22.1011 H   0  0  0  0  0  0
  -28.8091  -26.9243   22.0104 H   0  0  0  0  0  0
  -30.1605  -26.5559   20.9565 H   0  0  0  0  0  0
  -28.6628  -22.5585   23.1043 H   0  0  0  0  0  0
  -30.3760  -22.4285   23.4520 H   0  0  0  0  0  0
  1 25  1  0  0  0
  1 30  2  0  0  0
  1 85  1  0  0  0
  2  3  1  0  0  0
  2 25  1  0  0  0
  2 88  1  0  0  0
  2 89  1  0  0  0
  3  4  1  0  0  0
  3 90  1  0  0  0
  3 91  1  0  0  0
  4  5  1  0  0  0
  4 92  1  0  0  0
  4 93  1  0  0  0
  5  6  1  0  0  0
  5 26  1  0  0  0
  5 94  1  0  0  0
  6 25  1  0  0  0
  6 95  1  0  0  0
  6 96  1  0  0  0
  7  8  2  0  0  0
  7 26  1  0  0  0
  7 29  1  0  0  0
  8  9  1  0  0  0
  8 22  1  0  0  0
  9 10  1  0  0  0
  9 27  2  0  0  0
 10 11  2  0  0  0
 10 15  1  0  0  0
 11 12  1  0  0  0
 11 97  1  0  0  0
 12 13  2  0  0  0
 12 98  1  0  0  0
 13 14  1  0  0  0
 13 31  1  0  0  0
 14 15  2  0  0  0
 14 99  1  0  0  0
 15100  1  0  0  0
 16 17  2  0  0  0
 16 21  1  0  0  0
 16 31  1  0  0  0
 17 18  1  0  0  0
 17101  1  0  0  0
 18 19  2  0  0  0
 18102  1  0  0  0
 19 20  1  0  0  0
 19 24  1  0  0  0
 20 21  2  0  0  0
 20103  1  0  0  0
 21 23  1  0  0  0
 22 28  1  0  0  0
 22 32  2  0  0  0
 26 27  1  0  0  0
 28104  1  0  0  0
 28105  1  0  0  0
 29106  1  0  0  0
 29107  1  0  0  0
 33 34  1  0  0  0
 33 66  1  0  0  0
 33 70  2  0  0  0
 34 36  1  0  0  0
 34 59  1  0  0  0
 34108  1  0  0  0
 35 44  2  0  0  0
 35 45  1  0  0  0
 35 68  1  0  0  0
 36 56  1  0  0  0
 36109  1  0  0  0
 37 39  1  0  0  0
 37 47  1  0  0  0
 37 66  1  0  0  0
 37110  1  0  0  0
 38 43  2  0  0  0
 38 46  1  0  0  0
 38 47  1  0  0  0
 39 64  1  0  0  0
 39 67  2  0  0  0
 40 52  1  0  0  0
 40 53  2  0  0  0
 40 58  1  0  0  0
 41111  1  0  0  0
 41112  1  0  0  0
 41113  1  0  0  0
 41 48  1  0  0  0
 42 43  1  0  0  0
 42 66  1  0  0  0
 42114  1  0  0  0
 42115  1  0  0  0
 43 44  1  0  0  0
 44116  1  0  0  0
 45 46  2  0  0  0
 45117  1  0  0  0
 46118  1  0  0  0
 47119  1  0  0  0
 47120  1  0  0  0
 48 56  1  0  0  0
 48 65  1  0  0  0
 48121  1  0  0  0
 49 50  1  0  0  0
 49 53  1  0  0  0
 49 64  1  0  0  0
 49122  1  0  0  0
 50 51  1  0  0  0
 50123  1  0  0  0
 50124  1  0  0  0
 51 52  1  0  0  0
 51125  1  0  0  0
 51126  1  0  0  0
 52127  1  0  0  0
 52128  1  0  0  0
 53 54  1  0  0  0
 54 55  2  0  0  0
 54129  1  0  0  0
 55 57  1  0  0  0
 55130  1  0  0  0
 56 69  2  0  0  0
 57 58  2  0  0  0
 57131  1  0  0  0
 58132  1  0  0  0
 59 60  1  0  0  0
 59 61  1  0  0  0
 59 62  1  0  0  0
 60133  1  0  0  0
 60134  1  0  0  0
 60135  1  0  0  0
 61136  1  0  0  0
 61137  1  0  0  0
 61138  1  0  0  0
 62139  1  0  0  0
 62140  1  0  0  0
 62141  1  0  0  0
 63 65  1  0  0  0
 63142  1  0  0  0
 63143  1  0  0  0
 63144  1  0  0  0
 64145  1  0  0  0
 65146  1  0  0  0
 68 83  1  0  0  0
 71 73  2  0  0  0
 71 74  1  0  0  0
 71147  1  0  0  0
 72 74  2  0  0  0
 72 76  1  0  0  0
 72148  1  0  0  0
 73 75  1  0  0  0
 73 78  1  0  0  0
 74 80  1  0  0  0
 75 76  2  0  0  0
 75 86  1  0  0  0
 76 87  1  0  0  0
 77 78  2  0  0  0
 77149  1  0  0  0
 77150  1  0  0  0
 78151  1  0  0  0
 79 85  1  0  0  0
 79152  1  0  0  0
 79153  1  0  0  0
 79154  1  0  0  0
 80 85  1  0  0  0
 80155  1  0  0  0
 80156  1  0  0  0
 81 82  1  0  0  0
 81 83  1  0  0  0
 81157  1  0  0  0
 81158  1  0  0  0
 82 84  1  0  0  0
 82159  1  0  0  0
 82160  1  0  0  0
 83161  1  0  0  0
 83162  1  0  0  0
 84 86  1  0  0  0
 84163  1  0  0  0
 84164  1  0  0  0
M  ISO  4   1 100  68 101  83 101  85 100
M  END
> <chiral flag>
0

> <version>
0

> <s_m_source_file>
/data/baiqing/PycharmProjects/Reinvent-master-3.2/result/LINK_invent/BTK/process_docking_weight1_custom_product_contain_oxygen_bond_distance_aromatic_linkinvent_7_9_3/rearranged_h_0114.sdf

> <i_m_source_file_index>
11

> <r_mmod_Potential_Energy-OPLS-2005>
150.661895751953

> <r_mmod_Stretch_Energy-OPLS-2005>
37.4159660339355

> <r_mmod_Bend_Energy-OPLS-2005>
94.9739532470703

> <r_mmod_Torsional_Energy-OPLS-2005>
329.789764404297

> <r_mmod_Improper_Torsional_Energy-OPLS-2005>
18.4687881469727

> <r_mmod_Van_der_Waal_Energy-OPLS-2005>
145.564987182617

> <r_mmod_Electrostatic_Energy-OPLS-2005>
-297.476898193359

> <r_mmod_Solvation_Energy-OPLS-2005>
-192.844390869141

> <b_mmod_Minimization_Converged-OPLS-2005>
0

> <r_mmod_RMS_Derivative-OPLS-2005>
2.84867024421692

$$$$
11
                    3D
 Structure written by MMmdl.
157165  0  0  1  0            999 V2000
  -30.6291  -14.7768   20.6332 C   0  0  0  0  0  0
  -30.4389  -12.5203   19.4792 C   0  0  0  0  0  0
  -29.5182  -12.5550   18.2384 C   0  0  0  0  0  0
  -28.0485  -12.3327   18.6394 C   0  0  0  0  0  0
  -27.6380  -13.2283   19.8332 C   0  0  2  0  0  0
  -28.6644  -13.1491   20.9731 C   0  0  0  0  0  0
  -25.2520  -13.8191   20.5663 C   0  0  0  0  0  0
  -24.1806  -13.0435   20.9179 C   0  0  0  0  0  0
  -24.6401  -11.6917   20.8679 C   0  0  0  0  0  0
  -23.9082  -10.4300   21.0388 C   0  0  0  0  0  0
  -24.3622   -9.4217   21.9180 C   0  0  0  0  0  0
  -23.6295   -8.2246   22.0754 C   0  0  0  0  0  0
  -22.4279   -8.0283   21.3543 C   0  0  0  0  0  0
  -21.9910   -9.0261   20.4652 C   0  0  0  0  0  0
  -22.7243  -10.2138   20.3059 C   0  0  0  0  0  0
  -21.6848   -6.0740   22.5287 C   0  0  0  0  0  0
  -21.4009   -6.5648   23.8220 C   0  0  0  0  0  0
  -21.3657   -5.6793   24.9176 C   0  0  0  0  0  0
  -21.6034   -4.3057   24.7223 C   0  0  0  0  0  0
  -21.8817   -3.8157   23.4343 C   0  0  0  0  0  0
  -21.9196   -4.6971   22.3399 C   0  0  0  0  0  0
  -22.7838  -13.5235   21.1864 C   0  0  0  0  0  0
  -22.1664   -4.2157   21.0973 F   0  0  0  0  0  0
  -21.5624   -3.4539   25.7731 F   0  0  0  0  0  0
  -29.9849  -13.5529   20.4497 N   0  0  0  0  0  0
  -26.2900  -12.9372   20.3127 N   0  0  0  0  0  0
  -25.9313  -11.6519   20.5629 N   0  0  0  0  0  0
  -22.0484  -12.8219   22.0428 N   0  0  0  0  0  0
  -25.4258  -15.1911   20.4170 N   0  0  0  0  0  0
  -31.6915  -14.9811   20.0352 O   0  0  0  0  0  0
  -21.6636   -6.8883   21.4254 O   0  0  0  0  0  0
  -22.3511  -14.5537   20.6718 O   0  0  0  0  0  0
  -24.6383  -31.8499   23.1966 C   0  0  0  0  0  0
  -25.9178  -32.4721   23.8324 C   0  0  1  0  0  0
  -27.2114  -27.2025   20.1244 C   0  0  0  0  0  0
  -25.5948  -33.8528   24.2235 N   0  0  0  0  0  0
  -23.4371  -30.4756   21.5416 C   0  0  2  0  0  0
  -24.8840  -28.9205   20.1097 C   0  0  0  0  0  0
  -22.7530  -29.4587   22.4886 C   0  0  0  0  0  0
  -18.0300  -28.1401   22.8479 C   0  0  0  0  0  0
  -24.1495  -36.7255   23.2644 C   0  0  0  0  0  0
  -25.9918  -30.7456   21.3880 C   0  0  0  0  0  0
  -26.0631  -29.3665   20.7209 C   0  0  0  0  0  0
  -27.2320  -28.5236   20.7094 C   0  0  0  0  0  0
  -26.0014  -26.8448   19.4831 C   0  0  0  0  0  0
  -24.8625  -27.6713   19.4788 C   0  0  0  0  0  0
  -23.6574  -29.8140   20.1579 C   0  0  0  0  0  0
  -25.4125  -36.3041   24.0322 C   0  0  1  0  0  0
  -20.5907  -28.3718   23.1253 C   0  0  2  0  0  0
  -20.6793  -26.9423   22.5413 C   0  0  0  0  0  0
  -19.5768  -26.6382   21.5225 C   0  0  0  0  0  0
  -18.1943  -26.7941   22.1625 C   0  0  0  0  0  0
  -19.1558  -28.8876   23.2859 C   0  0  0  0  0  0
  -18.9481  -30.1477   23.8878 C   0  0  0  0  0  0
  -17.6475  -30.6592   24.0564 C   0  0  0  0  0  0
  -25.9070  -34.9413   23.5079 C   0  0  0  0  0  0
  -16.5366  -29.9088   23.6347 C   0  0  0  0  0  0
  -16.7286  -28.6513   23.0351 C   0  0  0  0  0  0
  -26.4527  -31.6561   25.0735 C   0  0  0  0  0  0
  -25.3728  -31.3718   26.1436 C   0  0  0  0  0  0
  -27.0399  -30.2960   24.6293 C   0  0  0  0  0  0
  -27.6058  -32.4332   25.7513 C   0  0  0  0  0  0
  -27.5575  -37.1789   24.8467 C   0  0  0  0  0  0
  -21.4227  -29.3053   22.3613 N   0  0  0  0  0  0
  -26.4287  -37.3749   23.9404 N   0  0  0  0  0  0
  -24.7084  -31.0420   22.0970 N   0  0  0  0  0  0
  -23.4203  -28.8124   23.3000 O   0  0  0  0  0  0
  -28.2702  -26.2425   20.1815 O   0  0  0  0  0  0
  -26.5649  -34.8891   22.4653 O   0  0  0  0  0  0
  -23.5519  -32.1350   23.7219 O   0  0  0  0  0  0
  -30.3354  -17.7885   22.9450 C   0  0  0  0  0  0
  -29.8243  -20.0754   22.2997 C   0  0  0  0  0  0
  -30.1972  -19.1474   23.2803 C   0  0  0  0  0  0
  -30.0841  -17.2240   21.6560 C   0  0  0  0  0  0
  -29.5689  -19.6990   20.9725 C   0  0  0  0  0  0
  -29.7105  -18.2499   20.6601 C   0  0  0  0  0  0
  -30.4817  -20.8199   25.1475 C   0  0  0  0  0  0
  -30.4658  -19.5629   24.6705 C   0  0  0  0  0  0
  -28.9536  -23.5397   20.2373 C   0  0  0  0  0  0
  -30.2098  -15.0139   22.9224 C   0  0  0  0  0  0
  -27.8876  -24.7609   20.0960 C   0  0  0  0  0  0
  -28.4439  -22.0124   20.4952 C   0  0  0  0  0  0
  -30.1505  -15.6846   21.5921 N   0  0  0  0  0  0
  -30.1649  -23.7701   20.1404 O   0  0  0  0  0  0
  -29.2683  -20.7938   20.0819 O   0  0  0  0  0  0
  -29.4464  -17.8389   19.3977 F   0  0  0  0  0  0
  -31.4777  -12.6670   19.1824 H   0  0  0  0  0  0
  -30.4103  -11.5351   19.9466 H   0  0  0  0  0  0
  -29.8291  -11.8026   17.5114 H   0  0  0  0  0  0
  -29.6165  -13.5215   17.7405 H   0  0  0  0  0  0
  -27.9298  -11.2821   18.9061 H   0  0  0  0  0  0
  -27.3926  -12.5057   17.7856 H   0  0  0  0  0  0
  -27.6365  -14.2535   19.4583 H   0  0  0  0  0  0
  -28.7105  -12.1426   21.3912 H   0  0  0  0  0  0
  -28.3062  -13.7934   21.7722 H   0  0  0  0  0  0
  -25.2771   -9.5668   22.4758 H   0  0  0  0  0  0
  -23.9995   -7.4623   22.7467 H   0  0  0  0  0  0
  -21.0841   -8.8788   19.8951 H   0  0  0  0  0  0
  -22.3717  -10.9673   19.6156 H   0  0  0  0  0  0
  -21.1999   -7.6156   23.9720 H   0  0  0  0  0  0
  -21.1480   -6.0524   25.9074 H   0  0  0  0  0  0
  -22.0599   -2.7625   23.2841 H   0  0  0  0  0  0
  -22.4097  -11.9869   22.4786 H   0  0  0  0  0  0
  -21.1108  -13.1252   22.2662 H   0  0  0  0  0  0
  -24.6674  -15.8528   20.5433 H   0  0  0  0  0  0
  -26.2894  -15.6308   20.1236 H   0  0  0  0  0  0
  -26.7230  -32.5353   23.1050 H   0  0  0  0  0  0
  -25.0065  -33.9667   25.0359 H   0  0  0  0  0  0
  -22.7362  -31.3007   21.3961 H   0  0  0  0  0  0
  -23.3758  -35.9586   23.3305 H   0  0  0  0  0  0
  -24.3576  -36.8888   22.2057 H   0  0  0  0  0  0
  -23.7254  -37.6452   23.6678 H   0  0  0  0  0  0
  -26.1459  -31.5132   20.6279 H   0  0  0  0  0  0
  -26.8618  -30.7827   22.0325 H   0  0  0  0  0  0
  -28.1353  -28.8588   21.1982 H   0  0  0  0  0  0
  -25.8832  -25.8963   18.9823 H   0  0  0  0  0  0
  -23.9596  -27.3272   18.9932 H   0  0  0  0  0  0
  -23.7812  -30.5936   19.4045 H   0  0  0  0  0  0
  -22.7732  -29.2516   19.8530 H   0  0  0  0  0  0
  -25.1315  -36.1874   25.0816 H   0  0  0  0  0  0
  -21.0005  -28.3319   24.1373 H   0  0  0  0  0  0
  -20.5705  -26.2321   23.3623 H   0  0  0  0  0  0
  -21.6659  -26.7454   22.1202 H   0  0  0  0  0  0
  -19.6923  -25.6292   21.1257 H   0  0  0  0  0  0
  -19.6706  -27.3188   20.6749 H   0  0  0  0  0  0
  -17.4224  -26.6708   21.4007 H   0  0  0  0  0  0
  -18.0317  -26.0084   22.9018 H   0  0  0  0  0  0
  -19.7951  -30.7310   24.2223 H   0  0  0  0  0  0
  -17.5028  -31.6266   24.5180 H   0  0  0  0  0  0
  -15.5366  -30.2981   23.7694 H   0  0  0  0  0  0
  -15.8688  -28.0835   22.7062 H   0  0  0  0  0  0
  -24.5908  -30.7071   25.7739 H   0  0  0  0  0  0
  -24.8925  -32.2896   26.4836 H   0  0  0  0  0  0
  -25.8034  -30.8897   27.0224 H   0  0  0  0  0  0
  -26.3023  -29.6683   24.1279 H   0  0  0  0  0  0
  -27.3985  -29.7253   25.4869 H   0  0  0  0  0  0
  -27.8937  -30.4189   23.9629 H   0  0  0  0  0  0
  -27.2638  -33.3632   26.2060 H   0  0  0  0  0  0
  -28.3879  -32.6903   25.0356 H   0  0  0  0  0  0
  -28.0715  -31.8492   26.5460 H   0  0  0  0  0  0
  -28.2592  -38.0085   24.7503 H   0  0  0  0  0  0
  -28.1075  -36.2616   24.6313 H   0  0  0  0  0  0
  -27.2288  -37.1451   25.8869 H   0  0  0  0  0  0
  -20.9409  -29.8711   21.6767 H   0  0  0  0  0  0
  -26.0157  -38.2816   24.1407 H   0  0  0  0  0  0
  -30.6475  -17.1874   23.7795 H   0  0  0  0  0  0
  -29.7686  -21.1162   22.5685 H   0  0  0  0  0  0
  -30.6950  -20.9964   26.1920 H   0  0  0  0  0  0
  -30.2952  -21.6899   24.5361 H   0  0  0  0  0  0
  -30.6615  -18.7708   25.3805 H   0  0  0  0  0  0
  -31.1632  -15.2236   23.4085 H   0  0  0  0  0  0
  -30.1696  -13.9243   22.9335 H   0  0  0  0  0  0
  -29.3908  -15.3396   23.5651 H   0  0  0  0  0  0
  -27.0893  -24.5808   20.8156 H   0  0  0  0  0  0
  -27.4463  -24.5967   19.1145 H   0  0  0  0  0  0
  -27.5050  -21.9248   19.9475 H   0  0  0  0  0  0
  -28.1471  -21.9293   21.5396 H   0  0  0  0  0  0
  1 25  1  0  0  0
  1 30  2  0  0  0
  1 83  1  0  0  0
  2  3  1  0  0  0
  2 25  1  0  0  0
  2 87  1  0  0  0
  2 88  1  0  0  0
  3  4  1  0  0  0
  3 89  1  0  0  0
  3 90  1  0  0  0
  4  5  1  0  0  0
  4 91  1  0  0  0
  4 92  1  0  0  0
  5  6  1  0  0  0
  5 26  1  0  0  0
  5 93  1  0  0  0
  6 25  1  0  0  0
  6 94  1  0  0  0
  6 95  1  0  0  0
  7  8  2  0  0  0
  7 26  1  0  0  0
  7 29  1  0  0  0
  8  9  1  0  0  0
  8 22  1  0  0  0
  9 10  1  0  0  0
  9 27  2  0  0  0
 10 11  2  0  0  0
 10 15  1  0  0  0
 11 12  1  0  0  0
 11 96  1  0  0  0
 12 13  2  0  0  0
 12 97  1  0  0  0
 13 14  1  0  0  0
 13 31  1  0  0  0
 14 15  2  0  0  0
 14 98  1  0  0  0
 15 99  1  0  0  0
 16 17  2  0  0  0
 16 21  1  0  0  0
 16 31  1  0  0  0
 17 18  1  0  0  0
 17100  1  0  0  0
 18 19  2  0  0  0
 18101  1  0  0  0
 19 20  1  0  0  0
 19 24  1  0  0  0
 20 21  2  0  0  0
 20102  1  0  0  0
 21 23  1  0  0  0
 22 28  1  0  0  0
 22 32  2  0  0  0
 26 27  1  0  0  0
 28103  1  0  0  0
 28104  1  0  0  0
 29105  1  0  0  0
 29106  1  0  0  0
 33 34  1  0  0  0
 33 66  1  0  0  0
 33 70  2  0  0  0
 34 36  1  0  0  0
 34 59  1  0  0  0
 34107  1  0  0  0
 35 44  2  0  0  0
 35 45  1  0  0  0
 35 68  1  0  0  0
 36 56  1  0  0  0
 36108  1  0  0  0
 37 39  1  0  0  0
 37 47  1  0  0  0
 37 66  1  0  0  0
 37109  1  0  0  0
 38 43  2  0  0  0
 38 46  1  0  0  0
 38 47  1  0  0  0
 39 64  1  0  0  0
 39 67  2  0  0  0
 40 52  1  0  0  0
 40 53  2  0  0  0
 40 58  1  0  0  0
 41110  1  0  0  0
 41111  1  0  0  0
 41112  1  0  0  0
 41 48  1  0  0  0
 42 43  1  0  0  0
 42 66  1  0  0  0
 42113  1  0  0  0
 42114  1  0  0  0
 43 44  1  0  0  0
 44115  1  0  0  0
 45 46  2  0  0  0
 45116  1  0  0  0
 46117  1  0  0  0
 47118  1  0  0  0
 47119  1  0  0  0
 48 56  1  0  0  0
 48 65  1  0  0  0
 48120  1  0  0  0
 49 50  1  0  0  0
 49 53  1  0  0  0
 49 64  1  0  0  0
 49121  1  0  0  0
 50 51  1  0  0  0
 50122  1  0  0  0
 50123  1  0  0  0
 51 52  1  0  0  0
 51124  1  0  0  0
 51125  1  0  0  0
 52126  1  0  0  0
 52127  1  0  0  0
 53 54  1  0  0  0
 54 55  2  0  0  0
 54128  1  0  0  0
 55 57  1  0  0  0
 55129  1  0  0  0
 56 69  2  0  0  0
 57 58  2  0  0  0
 57130  1  0  0  0
 58131  1  0  0  0
 59 60  1  0  0  0
 59 61  1  0  0  0
 59 62  1  0  0  0
 60132  1  0  0  0
 60133  1  0  0  0
 60134  1  0  0  0
 61135  1  0  0  0
 61136  1  0  0  0
 61137  1  0  0  0
 62138  1  0  0  0
 62139  1  0  0  0
 62140  1  0  0  0
 63 65  1  0  0  0
 63141  1  0  0  0
 63142  1  0  0  0
 63143  1  0  0  0
 64144  1  0  0  0
 65145  1  0  0  0
 68 81  1  0  0  0
 71 73  2  0  0  0
 71 74  1  0  0  0
 71146  1  0  0  0
 72 73  1  0  0  0
 72 75  2  0  0  0
 72147  1  0  0  0
 73 78  1  0  0  0
 74 76  2  0  0  0
 74 83  1  0  0  0
 75 76  1  0  0  0
 75 85  1  0  0  0
 76 86  1  0  0  0
 77 78  2  0  0  0
 77148  1  0  0  0
 77149  1  0  0  0
 78150  1  0  0  0
 79 81  1  0  0  0
 79 82  1  0  0  0
 79 84  2  0  0  0
 80 83  1  0  0  0
 80151  1  0  0  0
 80152  1  0  0  0
 80153  1  0  0  0
 81154  1  0  0  0
 81155  1  0  0  0
 82 85  1  0  0  0
 82156  1  0  0  0
 82157  1  0  0  0
M  ISO  4   1 100  68 101  81 101  83 100
M  END
> <chiral flag>
0

> <version>
0

> <s_m_source_file>
/data/baiqing/PycharmProjects/Reinvent-master-3.2/result/LINK_invent/BTK/process_docking_weight1_custom_product_contain_oxygen_bond_distance_aromatic_linkinvent_7_9_3/rearranged_h_0114.sdf

> <i_m_source_file_index>
12

> <r_mmod_Potential_Energy-OPLS-2005>
552.572937011719

> <r_mmod_Stretch_Energy-OPLS-2005>
206.264389038086

> <r_mmod_Bend_Energy-OPLS-2005>
244.788345336914

> <r_mmod_Torsional_Energy-OPLS-2005>
288.80908203125

> <r_mmod_Improper_Torsional_Energy-OPLS-2005>
4.90264797210693

> <r_mmod_Van_der_Waal_Energy-OPLS-2005>
173.240356445312

> <r_mmod_Electrostatic_Energy-OPLS-2005>
-253.544219970703

> <r_mmod_Solvation_Energy-OPLS-2005>
-227.780975341797

> <b_mmod_Minimization_Converged-OPLS-2005>
0

> <r_mmod_RMS_Derivative-OPLS-2005>
2.37790942192078

$$$$
12
                    3D
 Structure written by MMmdl.
158166  0  0  1  0            999 V2000
  -30.6530  -14.6180   20.5851 C   0  0  0  0  0  0
  -30.4309  -12.3979   19.4717 C   0  0  0  0  0  0
  -29.5106  -12.5290   18.2376 C   0  0  0  0  0  0
  -28.0322  -12.3539   18.6344 C   0  0  0  0  0  0
  -27.6536  -13.2115   19.8685 C   0  0  2  0  0  0
  -28.6835  -13.0346   21.0022 C   0  0  0  0  0  0
  -25.2547  -13.8154   20.5612 C   0  0  0  0  0  0
  -24.1822  -13.0427   20.9170 C   0  0  0  0  0  0
  -24.6383  -11.6901   20.8727 C   0  0  0  0  0  0
  -23.9058  -10.4288   21.0414 C   0  0  0  0  0  0
  -24.3615   -9.4200   21.9187 C   0  0  0  0  0  0
  -23.6284   -8.2233   22.0757 C   0  0  0  0  0  0
  -22.4271   -8.0270   21.3542 C   0  0  0  0  0  0
  -21.9909   -9.0243   20.4651 C   0  0  0  0  0  0
  -22.7236  -10.2121   20.3060 C   0  0  0  0  0  0
  -21.6843   -6.0723   22.5269 C   0  0  0  0  0  0
  -21.4013   -6.5626   23.8199 C   0  0  0  0  0  0
  -21.3657   -5.6787   24.9162 C   0  0  0  0  0  0
  -21.6048   -4.3049   24.7217 C   0  0  0  0  0  0
  -21.8819   -3.8132   23.4343 C   0  0  0  0  0  0
  -21.9192   -4.6953   22.3399 C   0  0  0  0  0  0
  -22.7855  -13.5221   21.1843 C   0  0  0  0  0  0
  -22.1665   -4.2143   21.0970 F   0  0  0  0  0  0
  -21.5629   -3.4536   25.7736 F   0  0  0  0  0  0
  -30.0087  -13.4038   20.4733 N   0  0  0  0  0  0
  -26.2961  -12.9328   20.3271 N   0  0  0  0  0  0
  -25.9301  -11.6490   20.5715 N   0  0  0  0  0  0
  -22.0539  -12.8175   22.0406 N   0  0  0  0  0  0
  -25.4275  -15.1844   20.3918 N   0  0  0  0  0  0
  -31.7366  -14.8102   20.0209 O   0  0  0  0  0  0
  -21.6634   -6.8869   21.4236 O   0  0  0  0  0  0
  -22.3523  -14.5535   20.6717 O   0  0  0  0  0  0
  -24.6256  -31.8603   23.2070 C   0  0  0  0  0  0
  -25.9099  -32.4772   23.8398 C   0  0  1  0  0  0
  -27.2154  -27.3204   20.1113 C   0  0  0  0  0  0
  -25.5911  -33.8583   24.2305 N   0  0  0  0  0  0
  -23.4184  -30.4869   21.5513 C   0  0  2  0  0  0
  -24.8637  -28.9495   20.1128 C   0  0  0  0  0  0
  -22.7468  -29.4630   22.4966 C   0  0  0  0  0  0
  -18.0280  -28.1375   22.8500 C   0  0  0  0  0  0
  -24.1478  -36.7278   23.2637 C   0  0  0  0  0  0
  -25.9610  -30.7900   21.3823 C   0  0  0  0  0  0
  -26.0349  -29.4207   20.7201 C   0  0  0  0  0  0
  -27.2174  -28.6183   20.7110 C   0  0  0  0  0  0
  -26.0232  -26.9123   19.4689 C   0  0  0  0  0  0
  -24.8593  -27.6999   19.4806 C   0  0  0  0  0  0
  -23.6319  -29.8293   20.1655 C   0  0  0  0  0  0
  -25.4094  -36.3078   24.0345 C   0  0  1  0  0  0
  -20.5876  -28.3685   23.1292 C   0  0  2  0  0  0
  -20.6774  -26.9424   22.5409 C   0  0  0  0  0  0
  -19.5758  -26.6391   21.5216 C   0  0  0  0  0  0
  -18.1917  -26.7929   22.1620 C   0  0  0  0  0  0
  -19.1531  -28.8852   23.2873 C   0  0  0  0  0  0
  -18.9467  -30.1451   23.8891 C   0  0  0  0  0  0
  -17.6469  -30.6596   24.0581 C   0  0  0  0  0  0
  -25.9055  -34.9450   23.5126 C   0  0  0  0  0  0
  -16.5360  -29.9091   23.6346 C   0  0  0  0  0  0
  -16.7269  -28.6506   23.0388 C   0  0  0  0  0  0
  -26.4509  -31.6595   25.0767 C   0  0  0  0  0  0
  -25.3751  -31.3693   26.1499 C   0  0  0  0  0  0
  -27.0387  -30.3020   24.6235 C   0  0  0  0  0  0
  -27.6070  -32.4357   25.7503 C   0  0  0  0  0  0
  -27.5602  -37.1733   24.8428 C   0  0  0  0  0  0
  -21.4181  -29.3038   22.3690 N   0  0  0  0  0  0
  -26.4247  -37.3808   23.9477 N   0  0  0  0  0  0
  -24.6861  -31.0623   22.1030 N   0  0  0  0  0  0
  -23.4187  -28.8165   23.3049 O   0  0  0  0  0  0
  -28.3117  -26.4446   20.1479 O   0  0  0  0  0  0
  -26.5631  -34.8902   22.4700 O   0  0  0  0  0  0
  -23.5417  -32.1437   23.7373 O   0  0  0  0  0  0
  -30.8308  -17.8852   20.2431 C   0  0  0  0  0  0
  -30.7627  -19.2729   19.9364 C   0  0  0  0  0  0
  -28.6413  -19.4248   21.0326 C   0  0  0  0  0  0
  -29.8179  -17.2041   20.9720 C   0  0  0  0  0  0
  -28.6750  -18.0176   21.3238 C   0  0  0  0  0  0
  -29.6889  -20.0954   20.3527 C   0  0  0  0  0  0
  -27.5107  -17.4385   22.0463 C   0  0  0  0  0  0
  -26.6558  -18.0951   22.8553 C   0  0  0  0  0  0
  -30.0299  -15.7530   21.4858 C   0  0  0  0  0  0
  -29.1012  -23.9398   20.2091 C   0  0  0  0  0  0
  -25.4615  -17.4649   23.5472 C   0  0  0  0  0  0
  -28.7750  -22.4340   20.5758 C   0  0  0  0  0  0
  -27.9791  -25.0216   20.4240 C   0  0  0  0  0  0
  -29.7528  -15.4973   22.6980 N   0  0  0  0  0  0
  -30.2092  -24.2587   19.7580 O   0  0  0  0  0  0
  -29.7493  -21.4731   20.0604 O   0  0  0  0  0  0
  -31.4761  -12.5119   19.1793 H   0  0  0  0  0  0
  -30.3586  -11.3955   19.8955 H   0  0  0  0  0  0
  -29.7841  -11.7912   17.4823 H   0  0  0  0  0  0
  -29.6540  -13.5092   17.7771 H   0  0  0  0  0  0
  -27.8701  -11.2986   18.8564 H   0  0  0  0  0  0
  -27.3823  -12.5915   17.7917 H   0  0  0  0  0  0
  -27.6858  -14.2538   19.5498 H   0  0  0  0  0  0
  -28.6958  -12.0000   21.3479 H   0  0  0  0  0  0
  -28.3745  -13.6116   21.8690 H   0  0  0  0  0  0
  -25.2760   -9.5673   22.4758 H   0  0  0  0  0  0
  -23.9996   -7.4632   22.7486 H   0  0  0  0  0  0
  -21.0834   -8.8765   19.8962 H   0  0  0  0  0  0
  -22.3699  -10.9665   19.6169 H   0  0  0  0  0  0
  -21.2010   -7.6140   23.9698 H   0  0  0  0  0  0
  -21.1480   -6.0520   25.9065 H   0  0  0  0  0  0
  -22.0603   -2.7603   23.2841 H   0  0  0  0  0  0
  -22.4180  -11.9802   22.4703 H   0  0  0  0  0  0
  -21.1189  -13.1218   22.2738 H   0  0  0  0  0  0
  -24.6753  -15.8524   20.5168 H   0  0  0  0  0  0
  -26.2781  -15.6111   20.0489 H   0  0  0  0  0  0
  -26.7163  -32.5453   23.1137 H   0  0  0  0  0  0
  -25.0050  -33.9749   25.0448 H   0  0  0  0  0  0
  -22.7108  -31.3052   21.4109 H   0  0  0  0  0  0
  -23.3781  -35.9558   23.3182 H   0  0  0  0  0  0
  -24.3603  -36.9026   22.2076 H   0  0  0  0  0  0
  -23.7144  -37.6398   23.6757 H   0  0  0  0  0  0
  -26.0981  -31.5583   20.6194 H   0  0  0  0  0  0
  -26.8374  -30.8324   22.0171 H   0  0  0  0  0  0
  -28.1133  -28.9745   21.1997 H   0  0  0  0  0  0
  -25.9591  -25.9752   18.9388 H   0  0  0  0  0  0
  -23.9651  -27.3389   18.9899 H   0  0  0  0  0  0
  -23.7426  -30.6105   19.4123 H   0  0  0  0  0  0
  -22.7508  -29.2587   19.8678 H   0  0  0  0  0  0
  -25.1234  -36.1915   25.0823 H   0  0  0  0  0  0
  -20.9961  -28.3296   24.1419 H   0  0  0  0  0  0
  -20.5726  -26.2303   23.3607 H   0  0  0  0  0  0
  -21.6641  -26.7477   22.1197 H   0  0  0  0  0  0
  -19.6938  -25.6307   21.1250 H   0  0  0  0  0  0
  -19.6690  -27.3188   20.6739 H   0  0  0  0  0  0
  -17.4200  -26.6686   21.4003 H   0  0  0  0  0  0
  -18.0286  -26.0040   22.8983 H   0  0  0  0  0  0
  -19.7953  -30.7264   24.2263 H   0  0  0  0  0  0
  -17.5036  -31.6287   24.5165 H   0  0  0  0  0  0
  -15.5370  -30.3012   23.7684 H   0  0  0  0  0  0
  -15.8656  -28.0828   22.7138 H   0  0  0  0  0  0
  -24.5979  -30.6963   25.7865 H   0  0  0  0  0  0
  -24.8847  -32.2813   26.4938 H   0  0  0  0  0  0
  -25.8092  -30.8931   27.0292 H   0  0  0  0  0  0
  -26.2979  -29.6705   24.1322 H   0  0  0  0  0  0
  -27.4148  -29.7353   25.4760 H   0  0  0  0  0  0
  -27.8802  -30.4320   23.9421 H   0  0  0  0  0  0
  -27.2733  -33.3734   26.1978 H   0  0  0  0  0  0
  -28.3917  -32.6810   25.0330 H   0  0  0  0  0  0
  -28.0686  -31.8540   26.5490 H   0  0  0  0  0  0
  -28.2461  -38.0191   24.7782 H   0  0  0  0  0  0
  -28.1265  -36.2757   24.5892 H   0  0  0  0  0  0
  -27.2367  -37.0943   25.8821 H   0  0  0  0  0  0
  -20.9358  -29.8749   21.6892 H   0  0  0  0  0  0
  -26.0109  -38.2831   24.1664 H   0  0  0  0  0  0
  -31.7212  -17.3508   19.9434 H   0  0  0  0  0  0
  -31.5851  -19.7220   19.3953 H   0  0  0  0  0  0
  -27.7800  -20.0036   21.3292 H   0  0  0  0  0  0
  -27.3216  -16.3868   21.8797 H   0  0  0  0  0  0
  -26.7986  -19.1454   23.0638 H   0  0  0  0  0  0
  -25.3208  -16.4238   23.2522 H   0  0  0  0  0  0
  -24.5476  -18.0098   23.3059 H   0  0  0  0  0  0
  -25.5913  -17.4964   24.6295 H   0  0  0  0  0  0
  -27.7844  -22.1890   20.1941 H   0  0  0  0  0  0
  -28.7324  -22.3498   21.6622 H   0  0  0  0  0  0
  -27.6313  -24.9467   21.4545 H   0  0  0  0  0  0
  -27.1568  -24.6713   19.8046 H   0  0  0  0  0  0
  -29.3928  -16.3200   23.1664 H   0  0  0  0  0  0
  1 25  1  0  0  0
  1 30  2  0  0  0
  1 79  1  0  0  0
  2  3  1  0  0  0
  2 25  1  0  0  0
  2 87  1  0  0  0
  2 88  1  0  0  0
  3  4  1  0  0  0
  3 89  1  0  0  0
  3 90  1  0  0  0
  4  5  1  0  0  0
  4 91  1  0  0  0
  4 92  1  0  0  0
  5  6  1  0  0  0
  5 26  1  0  0  0
  5 93  1  0  0  0
  6 25  1  0  0  0
  6 94  1  0  0  0
  6 95  1  0  0  0
  7  8  2  0  0  0
  7 26  1  0  0  0
  7 29  1  0  0  0
  8  9  1  0  0  0
  8 22  1  0  0  0
  9 10  1  0  0  0
  9 27  2  0  0  0
 10 11  2  0  0  0
 10 15  1  0  0  0
 11 12  1  0  0  0
 11 96  1  0  0  0
 12 13  2  0  0  0
 12 97  1  0  0  0
 13 14  1  0  0  0
 13 31  1  0  0  0
 14 15  2  0  0  0
 14 98  1  0  0  0
 15 99  1  0  0  0
 16 17  2  0  0  0
 16 21  1  0  0  0
 16 31  1  0  0  0
 17 18  1  0  0  0
 17100  1  0  0  0
 18 19  2  0  0  0
 18101  1  0  0  0
 19 20  1  0  0  0
 19 24  1  0  0  0
 20 21  2  0  0  0
 20102  1  0  0  0
 21 23  1  0  0  0
 22 28  1  0  0  0
 22 32  2  0  0  0
 26 27  1  0  0  0
 28103  1  0  0  0
 28104  1  0  0  0
 29105  1  0  0  0
 29106  1  0  0  0
 33 34  1  0  0  0
 33 66  1  0  0  0
 33 70  2  0  0  0
 34 36  1  0  0  0
 34 59  1  0  0  0
 34107  1  0  0  0
 35 44  2  0  0  0
 35 45  1  0  0  0
 35 68  1  0  0  0
 36 56  1  0  0  0
 36108  1  0  0  0
 37 39  1  0  0  0
 37 47  1  0  0  0
 37 66  1  0  0  0
 37109  1  0  0  0
 38 43  2  0  0  0
 38 46  1  0  0  0
 38 47  1  0  0  0
 39 64  1  0  0  0
 39 67  2  0  0  0
 40 52  1  0  0  0
 40 53  2  0  0  0
 40 58  1  0  0  0
 41110  1  0  0  0
 41111  1  0  0  0
 41112  1  0  0  0
 41 48  1  0  0  0
 42 43  1  0  0  0
 42 66  1  0  0  0
 42113  1  0  0  0
 42114  1  0  0  0
 43 44  1  0  0  0
 44115  1  0  0  0
 45 46  2  0  0  0
 45116  1  0  0  0
 46117  1  0  0  0
 47118  1  0  0  0
 47119  1  0  0  0
 48 56  1  0  0  0
 48 65  1  0  0  0
 48120  1  0  0  0
 49 50  1  0  0  0
 49 53  1  0  0  0
 49 64  1  0  0  0
 49121  1  0  0  0
 50 51  1  0  0  0
 50122  1  0  0  0
 50123  1  0  0  0
 51 52  1  0  0  0
 51124  1  0  0  0
 51125  1  0  0  0
 52126  1  0  0  0
 52127  1  0  0  0
 53 54  1  0  0  0
 54 55  2  0  0  0
 54128  1  0  0  0
 55 57  1  0  0  0
 55129  1  0  0  0
 56 69  2  0  0  0
 57 58  2  0  0  0
 57130  1  0  0  0
 58131  1  0  0  0
 59 60  1  0  0  0
 59 61  1  0  0  0
 59 62  1  0  0  0
 60132  1  0  0  0
 60133  1  0  0  0
 60134  1  0  0  0
 61135  1  0  0  0
 61136  1  0  0  0
 61137  1  0  0  0
 62138  1  0  0  0
 62139  1  0  0  0
 62140  1  0  0  0
 63 65  1  0  0  0
 63141  1  0  0  0
 63142  1  0  0  0
 63143  1  0  0  0
 64144  1  0  0  0
 65145  1  0  0  0
 68 83  1  0  0  0
 71 72  2  0  0  0
 71 74  1  0  0  0
 71146  1  0  0  0
 72 76  1  0  0  0
 72147  1  0  0  0
 73 75  1  0  0  0
 73 76  2  0  0  0
 73148  1  0  0  0
 74 75  2  0  0  0
 74 79  1  0  0  0
 75 77  1  0  0  0
 76 86  1  0  0  0
 77 78  2  0  0  0
 77149  1  0  0  0
 78 81  1  0  0  0
 78150  1  0  0  0
 79 84  2  0  0  0
 80 82  1  0  0  0
 80 83  1  0  0  0
 80 85  2  0  0  0
 81151  1  0  0  0
 81152  1  0  0  0
 81153  1  0  0  0
 82 86  1  0  0  0
 82154  1  0  0  0
 82155  1  0  0  0
 83156  1  0  0  0
 83157  1  0  0  0
 84158  1  0  0  0
M  ISO  4   1 100  68 101  79 100  83 101
M  END
> <chiral flag>
0

> <version>
0

> <s_m_source_file>
/data/baiqing/PycharmProjects/Reinvent-master-3.2/result/LINK_invent/BTK/process_docking_weight1_custom_product_contain_oxygen_bond_distance_aromatic_linkinvent_7_9_3/rearranged_h_0114.sdf

> <i_m_source_file_index>
13

> <r_mmod_Potential_Energy-OPLS-2005>
271.269470214844

> <r_mmod_Stretch_Energy-OPLS-2005>
93.5914077758789

> <r_mmod_Bend_Energy-OPLS-2005>
147.620162963867

> <r_mmod_Torsional_Energy-OPLS-2005>
223.500198364258

> <r_mmod_Improper_Torsional_Energy-OPLS-2005>
3.26075553894043

> <r_mmod_Van_der_Waal_Energy-OPLS-2005>
152.838317871094

> <r_mmod_Electrostatic_Energy-OPLS-2005>
-169.221389770508

> <r_mmod_Solvation_Energy-OPLS-2005>
-225.971633911133

> <b_mmod_Minimization_Converged-OPLS-2005>
0

> <r_mmod_RMS_Derivative-OPLS-2005>
3.14590096473694

$$$$
13
                    3D
 Structure written by MMmdl.
151159  0  0  1  0            999 V2000
  -30.6875  -14.5925   20.5499 C   0  0  0  0  0  0
  -30.4165  -12.3731   19.4679 C   0  0  0  0  0  0
  -29.5119  -12.5442   18.2327 C   0  0  0  0  0  0
  -28.0283  -12.3835   18.6261 C   0  0  0  0  0  0
  -27.6525  -13.2267   19.8741 C   0  0  2  0  0  0
  -28.6940  -13.0777   21.0054 C   0  0  0  0  0  0
  -25.2541  -13.8207   20.5703 C   0  0  0  0  0  0
  -24.1815  -13.0470   20.9167 C   0  0  0  0  0  0
  -24.6392  -11.6931   20.8709 C   0  0  0  0  0  0
  -23.9058  -10.4315   21.0398 C   0  0  0  0  0  0
  -24.3612   -9.4225   21.9176 C   0  0  0  0  0  0
  -23.6297   -8.2257   22.0739 C   0  0  0  0  0  0
  -22.4272   -8.0282   21.3543 C   0  0  0  0  0  0
  -21.9918   -9.0257   20.4636 C   0  0  0  0  0  0
  -22.7235  -10.2147   20.3054 C   0  0  0  0  0  0
  -21.6855   -6.0742   22.5291 C   0  0  0  0  0  0
  -21.3994   -6.5637   23.8220 C   0  0  0  0  0  0
  -21.3666   -5.6798   24.9179 C   0  0  0  0  0  0
  -21.6058   -4.3062   24.7232 C   0  0  0  0  0  0
  -21.8810   -3.8147   23.4343 C   0  0  0  0  0  0
  -21.9188   -4.6970   22.3402 C   0  0  0  0  0  0
  -22.7828  -13.5236   21.1866 C   0  0  0  0  0  0
  -22.1666   -4.2165   21.0983 F   0  0  0  0  0  0
  -21.5648   -3.4541   25.7733 F   0  0  0  0  0  0
  -30.0134  -13.4028   20.4482 N   0  0  0  0  0  0
  -26.2979  -12.9392   20.3359 N   0  0  0  0  0  0
  -25.9314  -11.6522   20.5735 N   0  0  0  0  0  0
  -22.0485  -12.8213   22.0424 N   0  0  0  0  0  0
  -25.4300  -15.1940   20.4178 N   0  0  0  0  0  0
  -31.8038  -14.7001   20.0350 O   0  0  0  0  0  0
  -21.6640   -6.8877   21.4246 O   0  0  0  0  0  0
  -22.3511  -14.5565   20.6749 O   0  0  0  0  0  0
  -24.6217  -31.8596   23.1991 C   0  0  0  0  0  0
  -25.9062  -32.4772   23.8350 C   0  0  1  0  0  0
  -27.2429  -27.3480   20.1132 C   0  0  0  0  0  0
  -25.5865  -33.8574   24.2253 N   0  0  0  0  0  0
  -23.4173  -30.4798   21.5396 C   0  0  2  0  0  0
  -24.8687  -28.9347   20.1026 C   0  0  0  0  0  0
  -22.7477  -29.4585   22.4912 C   0  0  0  0  0  0
  -18.0282  -28.1360   22.8470 C   0  0  0  0  0  0
  -24.1463  -36.7317   23.2648 C   0  0  0  0  0  0
  -25.9510  -30.7998   21.3645 C   0  0  0  0  0  0
  -26.0272  -29.4241   20.7168 C   0  0  0  0  0  0
  -27.2122  -28.6376   20.7188 C   0  0  0  0  0  0
  -26.0608  -26.8953   19.4835 C   0  0  0  0  0  0
  -24.8871  -27.6775   19.4745 C   0  0  0  0  0  0
  -23.6331  -29.8100   20.1538 C   0  0  0  0  0  0
  -25.4093  -36.3093   24.0329 C   0  0  1  0  0  0
  -20.5878  -28.3660   23.1284 C   0  0  2  0  0  0
  -20.6746  -26.9386   22.5418 C   0  0  0  0  0  0
  -19.5725  -26.6354   21.5207 C   0  0  0  0  0  0
  -18.1906  -26.7889   22.1618 C   0  0  0  0  0  0
  -19.1539  -28.8839   23.2856 C   0  0  0  0  0  0
  -18.9462  -30.1435   23.8887 C   0  0  0  0  0  0
  -17.6466  -30.6571   24.0562 C   0  0  0  0  0  0
  -25.9037  -34.9456   23.5115 C   0  0  0  0  0  0
  -16.5364  -29.9083   23.6295 C   0  0  0  0  0  0
  -16.7275  -28.6489   23.0324 C   0  0  0  0  0  0
  -26.4469  -31.6597   25.0722 C   0  0  0  0  0  0
  -25.3693  -31.3741   26.1446 C   0  0  0  0  0  0
  -27.0298  -30.3041   24.6127 C   0  0  0  0  0  0
  -27.6051  -32.4335   25.7481 C   0  0  0  0  0  0
  -27.5566  -37.1790   24.8456 C   0  0  0  0  0  0
  -21.4195  -29.3016   22.3681 N   0  0  0  0  0  0
  -26.4263  -37.3798   23.9419 N   0  0  0  0  0  0
  -24.6818  -31.0623   22.0924 N   0  0  0  0  0  0
  -23.4204  -28.8117   23.2985 O   0  0  0  0  0  0
  -28.4005  -26.5698   20.1872 O   0  0  0  0  0  0
  -26.5640  -34.8934   22.4702 O   0  0  0  0  0  0
  -23.5391  -32.1392   23.7328 O   0  0  0  0  0  0
  -30.3554  -18.9118   21.8984 C   0  0  0  0  0  0
  -30.0481  -20.3058   21.7360 C   0  0  0  0  0  0
  -29.7964  -18.1981   20.8645 C   0  0  0  0  0  0
  -29.2280  -20.3647   20.6421 C   0  0  0  0  0  0
  -29.9123  -16.7700   20.4133 C   0  0  0  0  0  0
  -28.4324  -23.9737   20.2913 C   0  0  0  0  0  0
  -30.5170  -21.4561   22.5936 C   0  0  0  0  0  0
  -28.5741  -25.3046   19.4556 C   0  0  0  0  0  0
  -29.1531  -22.6669   19.7807 C   0  0  0  0  0  0
  -30.0450  -15.7016   21.1473 N   0  0  0  0  0  0
  -27.7774  -23.9554   21.3381 O   0  0  0  0  0  0
  -29.0716  -19.0995   20.0880 O   0  0  0  0  0  0
  -28.4875  -21.4045   20.1181 O   0  0  0  0  0  0
  -31.4689  -12.4392   19.1835 H   0  0  0  0  0  0
  -30.2986  -11.3780   19.9017 H   0  0  0  0  0  0
  -29.7816  -11.8242   17.4606 H   0  0  0  0  0  0
  -29.6726  -13.5344   17.7994 H   0  0  0  0  0  0
  -27.8404  -11.3259   18.8176 H   0  0  0  0  0  0
  -27.3895  -12.6631   17.7868 H   0  0  0  0  0  0
  -27.6769  -14.2682   19.5553 H   0  0  0  0  0  0
  -28.6925  -12.0567   21.3890 H   0  0  0  0  0  0
  -28.4470  -13.7130   21.8579 H   0  0  0  0  0  0
  -25.2765   -9.5710   22.4734 H   0  0  0  0  0  0
  -24.0049   -7.4620   22.7418 H   0  0  0  0  0  0
  -21.0886   -8.8733   19.8892 H   0  0  0  0  0  0
  -22.3700  -10.9668   19.6142 H   0  0  0  0  0  0
  -21.1965   -7.6141   23.9731 H   0  0  0  0  0  0
  -21.1508   -6.0519   25.9097 H   0  0  0  0  0  0
  -22.0589   -2.7614   23.2840 H   0  0  0  0  0  0
  -22.4147  -11.9911   22.4847 H   0  0  0  0  0  0
  -21.1067  -13.1181   22.2584 H   0  0  0  0  0  0
  -24.6834  -15.8662   20.5531 H   0  0  0  0  0  0
  -26.3114  -15.6240   20.1653 H   0  0  0  0  0  0
  -26.7134  -32.5449   23.1117 H   0  0  0  0  0  0
  -24.9944  -33.9725   25.0354 H   0  0  0  0  0  0
  -22.7059  -31.2962   21.3919 H   0  0  0  0  0  0
  -23.3724  -35.9650   23.3316 H   0  0  0  0  0  0
  -24.3563  -36.8950   22.2061 H   0  0  0  0  0  0
  -23.7202  -37.6516   23.6688 H   0  0  0  0  0  0
  -26.0595  -31.5505   20.5800 H   0  0  0  0  0  0
  -26.8383  -30.8669   21.9811 H   0  0  0  0  0  0
  -28.1043  -29.0064   21.2067 H   0  0  0  0  0  0
  -26.0132  -25.9255   19.0139 H   0  0  0  0  0  0
  -24.0012  -27.3020   18.9813 H   0  0  0  0  0  0
  -23.7425  -30.5809   19.3902 H   0  0  0  0  0  0
  -22.7575  -29.2303   19.8573 H   0  0  0  0  0  0
  -25.1253  -36.1976   25.0818 H   0  0  0  0  0  0
  -20.9957  -28.3229   24.1404 H   0  0  0  0  0  0
  -20.5573  -26.2302   23.3631 H   0  0  0  0  0  0
  -21.6617  -26.7341   22.1263 H   0  0  0  0  0  0
  -19.6892  -25.6255   21.1238 H   0  0  0  0  0  0
  -19.6662  -27.3150   20.6726 H   0  0  0  0  0  0
  -17.4175  -26.6641   21.4021 H   0  0  0  0  0  0
  -18.0319  -26.0024   22.9013 H   0  0  0  0  0  0
  -19.7960  -30.7224   24.2265 H   0  0  0  0  0  0
  -17.5042  -31.6238   24.5169 H   0  0  0  0  0  0
  -15.5363  -30.3003   23.7594 H   0  0  0  0  0  0
  -15.8667  -28.0812   22.7044 H   0  0  0  0  0  0
  -24.5887  -30.7073   25.7786 H   0  0  0  0  0  0
  -24.8848  -32.2896   26.4854 H   0  0  0  0  0  0
  -25.7990  -30.8947   27.0247 H   0  0  0  0  0  0
  -26.2856  -29.6807   24.1159 H   0  0  0  0  0  0
  -27.4056  -29.7282   25.4593 H   0  0  0  0  0  0
  -27.8693  -30.4378   23.9300 H   0  0  0  0  0  0
  -27.2715  -33.3692   26.2001 H   0  0  0  0  0  0
  -28.3883  -32.6807   25.0292 H   0  0  0  0  0  0
  -28.0694  -31.8481   26.5424 H   0  0  0  0  0  0
  -28.2559  -38.0110   24.7531 H   0  0  0  0  0  0
  -28.1069  -36.2635   24.6230 H   0  0  0  0  0  0
  -27.2301  -37.1403   25.8864 H   0  0  0  0  0  0
  -20.9393  -29.8852   21.6975 H   0  0  0  0  0  0
  -26.0149  -38.2872   24.1466 H   0  0  0  0  0  0
  -30.9779  -18.4692   22.6643 H   0  0  0  0  0  0
  -29.9700  -16.6762   19.3225 H   0  0  0  0  0  0
  -31.4481  -21.8589   22.1921 H   0  0  0  0  0  0
  -30.6948  -21.1544   23.6253 H   0  0  0  0  0  0
  -29.7824  -22.2624   22.6003 H   0  0  0  0  0  0
  -27.9425  -25.2613   18.5680 H   0  0  0  0  0  0
  -29.5959  -25.3245   19.0759 H   0  0  0  0  0  0
  -30.1845  -22.6687   20.1326 H   0  0  0  0  0  0
  -29.1977  -22.7210   18.6930 H   0  0  0  0  0  0
  1 25  1  0  0  0
  1 30  2  0  0  0
  1 80  1  0  0  0
  2  3  1  0  0  0
  2 25  1  0  0  0
  2 84  1  0  0  0
  2 85  1  0  0  0
  3  4  1  0  0  0
  3 86  1  0  0  0
  3 87  1  0  0  0
  4  5  1  0  0  0
  4 88  1  0  0  0
  4 89  1  0  0  0
  5  6  1  0  0  0
  5 26  1  0  0  0
  5 90  1  0  0  0
  6 25  1  0  0  0
  6 91  1  0  0  0
  6 92  1  0  0  0
  7  8  2  0  0  0
  7 26  1  0  0  0
  7 29  1  0  0  0
  8  9  1  0  0  0
  8 22  1  0  0  0
  9 10  1  0  0  0
  9 27  2  0  0  0
 10 11  2  0  0  0
 10 15  1  0  0  0
 11 12  1  0  0  0
 11 93  1  0  0  0
 12 13  2  0  0  0
 12 94  1  0  0  0
 13 14  1  0  0  0
 13 31  1  0  0  0
 14 15  2  0  0  0
 14 95  1  0  0  0
 15 96  1  0  0  0
 16 17  2  0  0  0
 16 21  1  0  0  0
 16 31  1  0  0  0
 17 18  1  0  0  0
 17 97  1  0  0  0
 18 19  2  0  0  0
 18 98  1  0  0  0
 19 20  1  0  0  0
 19 24  1  0  0  0
 20 21  2  0  0  0
 20 99  1  0  0  0
 21 23  1  0  0  0
 22 28  1  0  0  0
 22 32  2  0  0  0
 26 27  1  0  0  0
 28100  1  0  0  0
 28101  1  0  0  0
 29102  1  0  0  0
 29103  1  0  0  0
 33 34  1  0  0  0
 33 66  1  0  0  0
 33 70  2  0  0  0
 34 36  1  0  0  0
 34 59  1  0  0  0
 34104  1  0  0  0
 35 44  2  0  0  0
 35 45  1  0  0  0
 35 68  1  0  0  0
 36 56  1  0  0  0
 36105  1  0  0  0
 37 39  1  0  0  0
 37 47  1  0  0  0
 37 66  1  0  0  0
 37106  1  0  0  0
 38 43  2  0  0  0
 38 46  1  0  0  0
 38 47  1  0  0  0
 39 64  1  0  0  0
 39 67  2  0  0  0
 40 52  1  0  0  0
 40 53  2  0  0  0
 40 58  1  0  0  0
 41107  1  0  0  0
 41108  1  0  0  0
 41109  1  0  0  0
 41 48  1  0  0  0
 42 43  1  0  0  0
 42 66  1  0  0  0
 42110  1  0  0  0
 42111  1  0  0  0
 43 44  1  0  0  0
 44112  1  0  0  0
 45 46  2  0  0  0
 45113  1  0  0  0
 46114  1  0  0  0
 47115  1  0  0  0
 47116  1  0  0  0
 48 56  1  0  0  0
 48 65  1  0  0  0
 48117  1  0  0  0
 49 50  1  0  0  0
 49 53  1  0  0  0
 49 64  1  0  0  0
 49118  1  0  0  0
 50 51  1  0  0  0
 50119  1  0  0  0
 50120  1  0  0  0
 51 52  1  0  0  0
 51121  1  0  0  0
 51122  1  0  0  0
 52123  1  0  0  0
 52124  1  0  0  0
 53 54  1  0  0  0
 54 55  2  0  0  0
 54125  1  0  0  0
 55 57  1  0  0  0
 55126  1  0  0  0
 56 69  2  0  0  0
 57 58  2  0  0  0
 57127  1  0  0  0
 58128  1  0  0  0
 59 60  1  0  0  0
 59 61  1  0  0  0
 59 62  1  0  0  0
 60129  1  0  0  0
 60130  1  0  0  0
 60131  1  0  0  0
 61132  1  0  0  0
 61133  1  0  0  0
 61134  1  0  0  0
 62135  1  0  0  0
 62136  1  0  0  0
 62137  1  0  0  0
 63 65  1  0  0  0
 63138  1  0  0  0
 63139  1  0  0  0
 63140  1  0  0  0
 64141  1  0  0  0
 65142  1  0  0  0
 68 78  1  0  0  0
 71 72  1  0  0  0
 71 73  2  0  0  0
 71143  1  0  0  0
 72 74  2  0  0  0
 72 77  1  0  0  0
 73 75  1  0  0  0
 73 82  1  0  0  0
 74 82  1  0  0  0
 74 83  1  0  0  0
 75 80  2  0  0  0
 75144  1  0  0  0
 76 78  1  0  0  0
 76 79  1  0  0  0
 76 81  2  0  0  0
 77145  1  0  0  0
 77146  1  0  0  0
 77147  1  0  0  0
 78148  1  0  0  0
 78149  1  0  0  0
 79 83  1  0  0  0
 79150  1  0  0  0
 79151  1  0  0  0
M  ISO  4   1 100  68 101  78 101  80 100
M  END
> <chiral flag>
0

> <version>
0

> <s_m_source_file>
/data/baiqing/PycharmProjects/Reinvent-master-3.2/result/LINK_invent/BTK/process_docking_weight1_custom_product_contain_oxygen_bond_distance_aromatic_linkinvent_7_9_3/rearranged_h_0114.sdf

> <i_m_source_file_index>
14

> <r_mmod_Potential_Energy-OPLS-2005>
29.7732086181641

> <r_mmod_Stretch_Energy-OPLS-2005>
71.0469818115234

> <r_mmod_Bend_Energy-OPLS-2005>
143.683349609375

> <r_mmod_Torsional_Energy-OPLS-2005>
201.077346801758

> <r_mmod_Improper_Torsional_Energy-OPLS-2005>
3.72351145744324

> <r_mmod_Van_der_Waal_Energy-OPLS-2005>
120.668212890625

> <r_mmod_Electrostatic_Energy-OPLS-2005>
-325.393402099609

> <r_mmod_Solvation_Energy-OPLS-2005>
-219.454254150391

> <b_mmod_Minimization_Converged-OPLS-2005>
0

> <r_mmod_RMS_Derivative-OPLS-2005>
3.72264266014099

$$$$
14
                    3D
 Structure written by MMmdl.
159167  0  0  1  0            999 V2000
  -30.6915  -14.5381   20.5236 C   0  0  0  0  0  0
  -30.4151  -12.3282   19.4505 C   0  0  0  0  0  0
  -29.5016  -12.5053   18.2199 C   0  0  0  0  0  0
  -28.0203  -12.3661   18.6240 C   0  0  0  0  0  0
  -27.6544  -13.2209   19.8677 C   0  0  2  0  0  0
  -28.6947  -13.0591   20.9966 C   0  0  0  0  0  0
  -25.2583  -13.8188   20.5732 C   0  0  0  0  0  0
  -24.1829  -13.0446   20.9176 C   0  0  0  0  0  0
  -24.6396  -11.6915   20.8721 C   0  0  0  0  0  0
  -23.9066  -10.4297   21.0388 C   0  0  0  0  0  0
  -24.3624   -9.4214   21.9170 C   0  0  0  0  0  0
  -23.6302   -8.2252   22.0748 C   0  0  0  0  0  0
  -22.4281   -8.0290   21.3544 C   0  0  0  0  0  0
  -21.9909   -9.0262   20.4645 C   0  0  0  0  0  0
  -22.7227  -10.2145   20.3050 C   0  0  0  0  0  0
  -21.6863   -6.0739   22.5272 C   0  0  0  0  0  0
  -21.4016   -6.5642   23.8204 C   0  0  0  0  0  0
  -21.3661   -5.6798   24.9167 C   0  0  0  0  0  0
  -21.6043   -4.3057   24.7222 C   0  0  0  0  0  0
  -21.8820   -3.8147   23.4343 C   0  0  0  0  0  0
  -21.9195   -4.6965   22.3395 C   0  0  0  0  0  0
  -22.7851  -13.5242   21.1853 C   0  0  0  0  0  0
  -22.1657   -4.2144   21.0978 F   0  0  0  0  0  0
  -21.5640   -3.4547   25.7740 F   0  0  0  0  0  0
  -30.0225  -13.3501   20.4385 N   0  0  0  0  0  0
  -26.2999  -12.9369   20.3352 N   0  0  0  0  0  0
  -25.9320  -11.6508   20.5745 N   0  0  0  0  0  0
  -22.0513  -12.8228   22.0409 N   0  0  0  0  0  0
  -25.4368  -15.1913   20.4268 N   0  0  0  0  0  0
  -31.8505  -14.6193   20.1081 O   0  0  0  0  0  0
  -21.6647   -6.8881   21.4236 O   0  0  0  0  0  0
  -22.3515  -14.5547   20.6713 O   0  0  0  0  0  0
  -24.6165  -31.8639   23.2073 C   0  0  0  0  0  0
  -25.9062  -32.4795   23.8368 C   0  0  1  0  0  0
  -27.2222  -27.3967   20.1109 C   0  0  0  0  0  0
  -25.5927  -33.8589   24.2304 N   0  0  0  0  0  0
  -23.4073  -30.4865   21.5473 C   0  0  2  0  0  0
  -24.8532  -28.9501   20.1110 C   0  0  0  0  0  0
  -22.7429  -29.4628   22.4970 C   0  0  0  0  0  0
  -18.0274  -28.1396   22.8469 C   0  0  0  0  0  0
  -24.1501  -36.7313   23.2638 C   0  0  0  0  0  0
  -25.9381  -30.8215   21.3620 C   0  0  0  0  0  0
  -26.0157  -29.4531   20.7080 C   0  0  0  0  0  0
  -27.2071  -28.6862   20.6990 C   0  0  0  0  0  0
  -26.0466  -26.9189   19.4953 C   0  0  0  0  0  0
  -24.8661  -27.6866   19.4951 C   0  0  0  0  0  0
  -23.6167  -29.8203   20.1612 C   0  0  0  0  0  0
  -25.4116  -36.3082   24.0336 C   0  0  1  0  0  0
  -20.5866  -28.3675   23.1323 C   0  0  2  0  0  0
  -20.6770  -26.9409   22.5441 C   0  0  0  0  0  0
  -19.5759  -26.6385   21.5229 C   0  0  0  0  0  0
  -18.1923  -26.7944   22.1614 C   0  0  0  0  0  0
  -19.1523  -28.8847   23.2891 C   0  0  0  0  0  0
  -18.9458  -30.1450   23.8907 C   0  0  0  0  0  0
  -17.6459  -30.6584   24.0570 C   0  0  0  0  0  0
  -25.9051  -34.9453   23.5122 C   0  0  0  0  0  0
  -16.5351  -29.9094   23.6329 C   0  0  0  0  0  0
  -16.7268  -28.6529   23.0325 C   0  0  0  0  0  0
  -26.4471  -31.6581   25.0707 C   0  0  0  0  0  0
  -25.3752  -31.3713   26.1482 C   0  0  0  0  0  0
  -27.0283  -30.3019   24.6091 C   0  0  0  0  0  0
  -27.6054  -32.4283   25.7461 C   0  0  0  0  0  0
  -27.5589  -37.1787   24.8447 C   0  0  0  0  0  0
  -21.4156  -29.3034   22.3729 N   0  0  0  0  0  0
  -26.4290  -37.3785   23.9416 N   0  0  0  0  0  0
  -24.6729  -31.0724   22.0982 N   0  0  0  0  0  0
  -23.4184  -28.8180   23.3028 O   0  0  0  0  0  0
  -28.3546  -26.6036   20.1298 O   0  0  0  0  0  0
  -26.5597  -34.8902   22.4670 O   0  0  0  0  0  0
  -23.5357  -32.1392   23.7463 O   0  0  0  0  0  0
  -29.7562  -19.2849   19.7578 C   0  0  0  0  0  0
  -28.9366  -20.2815   20.3771 C   0  0  0  0  0  0
  -29.5880  -18.0946   20.4205 C   0  0  0  0  0  0
  -28.3061  -19.6144   21.4119 C   0  0  0  0  0  0
  -27.3005  -19.9808   22.3700 C   0  0  0  0  0  0
  -30.1347  -16.7352   20.2332 C   0  0  0  0  0  0
  -26.5529  -19.2520   23.2279 C   0  0  0  0  0  0
  -25.5616  -19.9195   24.1631 C   0  0  0  0  0  0
  -26.6127  -17.7410   23.3823 C   0  0  0  0  0  0
  -28.5970  -24.0638   19.9935 C   0  0  0  0  0  0
  -28.2172  -25.3329   20.8224 C   0  0  0  0  0  0
  -28.4653  -22.6973   20.7495 C   0  0  0  0  0  0
  -29.9267  -15.6534   20.9141 N   0  0  0  0  0  0
  -28.7183  -18.3014   21.4443 O   0  0  0  0  0  0
  -28.8174  -21.5876   19.8961 O   0  0  0  0  0  0
  -31.4628  -12.4011   19.1519 H   0  0  0  0  0  0
  -30.2987  -11.3286   19.8748 H   0  0  0  0  0  0
  -29.7518  -11.7693   17.4543 H   0  0  0  0  0  0
  -29.6698  -13.4837   17.7677 H   0  0  0  0  0  0
  -27.8342  -11.3124   18.8333 H   0  0  0  0  0  0
  -27.3738  -12.6273   17.7869 H   0  0  0  0  0  0
  -27.6847  -14.2627   19.5485 H   0  0  0  0  0  0
  -28.6734  -12.0449   21.3996 H   0  0  0  0  0  0
  -28.4557  -13.7154   21.8349 H   0  0  0  0  0  0
  -25.2775   -9.5696   22.4728 H   0  0  0  0  0  0
  -24.0017   -7.4642   22.7466 H   0  0  0  0  0  0
  -21.0838   -8.8773   19.8954 H   0  0  0  0  0  0
  -22.3676  -10.9686   19.6164 H   0  0  0  0  0  0
  -21.2005   -7.6150   23.9702 H   0  0  0  0  0  0
  -21.1482   -6.0531   25.9072 H   0  0  0  0  0  0
  -22.0602   -2.7611   23.2846 H   0  0  0  0  0  0
  -22.4159  -11.9897   22.4779 H   0  0  0  0  0  0
  -21.1136  -13.1237   22.2633 H   0  0  0  0  0  0
  -24.7011  -15.8645   20.6056 H   0  0  0  0  0  0
  -26.3305  -15.6208   20.2245 H   0  0  0  0  0  0
  -26.7132  -32.5485   23.1118 H   0  0  0  0  0  0
  -25.0059  -33.9747   25.0441 H   0  0  0  0  0  0
  -22.6980  -31.3039   21.4052 H   0  0  0  0  0  0
  -23.3754  -35.9651   23.3274 H   0  0  0  0  0  0
  -24.3606  -36.8967   22.2060 H   0  0  0  0  0  0
  -23.7252  -37.6507   23.6676 H   0  0  0  0  0  0
  -26.0525  -31.5882   20.5940 H   0  0  0  0  0  0
  -26.8261  -30.8739   21.9819 H   0  0  0  0  0  0
  -28.1030  -29.0659   21.1685 H   0  0  0  0  0  0
  -26.0431  -25.9469   19.0226 H   0  0  0  0  0  0
  -23.9747  -27.2971   19.0224 H   0  0  0  0  0  0
  -23.7242  -30.5938   19.4000 H   0  0  0  0  0  0
  -22.7400  -29.2410   19.8642 H   0  0  0  0  0  0
  -25.1286  -36.1935   25.0825 H   0  0  0  0  0  0
  -20.9939  -28.3243   24.1452 H   0  0  0  0  0  0
  -20.5683  -26.2279   23.3624 H   0  0  0  0  0  0
  -21.6636  -26.7443   22.1233 H   0  0  0  0  0  0
  -19.6931  -25.6298   21.1254 H   0  0  0  0  0  0
  -19.6735  -27.3190   20.6755 H   0  0  0  0  0  0
  -17.4213  -26.6696   21.4003 H   0  0  0  0  0  0
  -18.0309  -26.0092   22.9008 H   0  0  0  0  0  0
  -19.7933  -30.7256   24.2292 H   0  0  0  0  0  0
  -17.5017  -31.6266   24.5167 H   0  0  0  0  0  0
  -15.5354  -30.2993   23.7660 H   0  0  0  0  0  0
  -15.8673  -28.0861   22.7013 H   0  0  0  0  0  0
  -24.5865  -30.7137   25.7823 H   0  0  0  0  0  0
  -24.9028  -32.2897   26.4977 H   0  0  0  0  0  0
  -25.8109  -30.8819   27.0204 H   0  0  0  0  0  0
  -26.2815  -29.6794   24.1153 H   0  0  0  0  0  0
  -27.4064  -29.7239   25.4531 H   0  0  0  0  0  0
  -27.8652  -30.4336   23.9224 H   0  0  0  0  0  0
  -27.2672  -33.3547   26.2100 H   0  0  0  0  0  0
  -28.3817  -32.6897   25.0264 H   0  0  0  0  0  0
  -28.0773  -31.8377   26.5321 H   0  0  0  0  0  0
  -28.2556  -38.0125   24.7502 H   0  0  0  0  0  0
  -28.1117  -36.2648   24.6225 H   0  0  0  0  0  0
  -27.2315  -37.1385   25.8849 H   0  0  0  0  0  0
  -20.9328  -29.8755   21.6947 H   0  0  0  0  0  0
  -26.0173  -38.2853   24.1440 H   0  0  0  0  0  0
  -30.3913  -19.4153   18.8929 H   0  0  0  0  0  0
  -27.1243  -21.0400   22.4179 H   0  0  0  0  0  0
  -30.8083  -16.7122   19.3694 H   0  0  0  0  0  0
  -25.5634  -21.0038   24.0519 H   0  0  0  0  0  0
  -25.7991  -19.6905   25.2014 H   0  0  0  0  0  0
  -24.5489  -19.5706   23.9578 H   0  0  0  0  0  0
  -26.8586  -17.2305   22.4527 H   0  0  0  0  0  0
  -25.6447  -17.3523   23.6981 H   0  0  0  0  0  0
  -27.3482  -17.4668   24.1388 H   0  0  0  0  0  0
  -29.6217  -24.1719   19.6367 H   0  0  0  0  0  0
  -27.9657  -24.0308   19.1040 H   0  0  0  0  0  0
  -28.8704  -25.3849   21.6947 H   0  0  0  0  0  0
  -27.2105  -25.2077   21.2292 H   0  0  0  0  0  0
  -27.4307  -22.6055   21.0763 H   0  0  0  0  0  0
  -29.0981  -22.6953   21.6381 H   0  0  0  0  0  0
  1 25  1  0  0  0
  1 30  2  0  0  0
  1 83  1  0  0  0
  2  3  1  0  0  0
  2 25  1  0  0  0
  2 86  1  0  0  0
  2 87  1  0  0  0
  3  4  1  0  0  0
  3 88  1  0  0  0
  3 89  1  0  0  0
  4  5  1  0  0  0
  4 90  1  0  0  0
  4 91  1  0  0  0
  5  6  1  0  0  0
  5 26  1  0  0  0
  5 92  1  0  0  0
  6 25  1  0  0  0
  6 93  1  0  0  0
  6 94  1  0  0  0
  7  8  2  0  0  0
  7 26  1  0  0  0
  7 29  1  0  0  0
  8  9  1  0  0  0
  8 22  1  0  0  0
  9 10  1  0  0  0
  9 27  2  0  0  0
 10 11  2  0  0  0
 10 15  1  0  0  0
 11 12  1  0  0  0
 11 95  1  0  0  0
 12 13  2  0  0  0
 12 96  1  0  0  0
 13 14  1  0  0  0
 13 31  1  0  0  0
 14 15  2  0  0  0
 14 97  1  0  0  0
 15 98  1  0  0  0
 16 17  2  0  0  0
 16 21  1  0  0  0
 16 31  1  0  0  0
 17 18  1  0  0  0
 17 99  1  0  0  0
 18 19  2  0  0  0
 18100  1  0  0  0
 19 20  1  0  0  0
 19 24  1  0  0  0
 20 21  2  0  0  0
 20101  1  0  0  0
 21 23  1  0  0  0
 22 28  1  0  0  0
 22 32  2  0  0  0
 26 27  1  0  0  0
 28102  1  0  0  0
 28103  1  0  0  0
 29104  1  0  0  0
 29105  1  0  0  0
 33 34  1  0  0  0
 33 66  1  0  0  0
 33 70  2  0  0  0
 34 36  1  0  0  0
 34 59  1  0  0  0
 34106  1  0  0  0
 35 44  2  0  0  0
 35 45  1  0  0  0
 35 68  1  0  0  0
 36 56  1  0  0  0
 36107  1  0  0  0
 37 39  1  0  0  0
 37 47  1  0  0  0
 37 66  1  0  0  0
 37108  1  0  0  0
 38 43  2  0  0  0
 38 46  1  0  0  0
 38 47  1  0  0  0
 39 64  1  0  0  0
 39 67  2  0  0  0
 40 52  1  0  0  0
 40 53  2  0  0  0
 40 58  1  0  0  0
 41109  1  0  0  0
 41110  1  0  0  0
 41111  1  0  0  0
 41 48  1  0  0  0
 42 43  1  0  0  0
 42 66  1  0  0  0
 42112  1  0  0  0
 42113  1  0  0  0
 43 44  1  0  0  0
 44114  1  0  0  0
 45 46  2  0  0  0
 45115  1  0  0  0
 46116  1  0  0  0
 47117  1  0  0  0
 47118  1  0  0  0
 48 56  1  0  0  0
 48 65  1  0  0  0
 48119  1  0  0  0
 49 50  1  0  0  0
 49 53  1  0  0  0
 49 64  1  0  0  0
 49120  1  0  0  0
 50 51  1  0  0  0
 50121  1  0  0  0
 50122  1  0  0  0
 51 52  1  0  0  0
 51123  1  0  0  0
 51124  1  0  0  0
 52125  1  0  0  0
 52126  1  0  0  0
 53 54  1  0  0  0
 54 55  2  0  0  0
 54127  1  0  0  0
 55 57  1  0  0  0
 55128  1  0  0  0
 56 69  2  0  0  0
 57 58  2  0  0  0
 57129  1  0  0  0
 58130  1  0  0  0
 59 60  1  0  0  0
 59 61  1  0  0  0
 59 62  1  0  0  0
 60131  1  0  0  0
 60132  1  0  0  0
 60133  1  0  0  0
 61134  1  0  0  0
 61135  1  0  0  0
 61136  1  0  0  0
 62137  1  0  0  0
 62138  1  0  0  0
 62139  1  0  0  0
 63 65  1  0  0  0
 63140  1  0  0  0
 63141  1  0  0  0
 63142  1  0  0  0
 64143  1  0  0  0
 65144  1  0  0  0
 68 81  1  0  0  0
 71 72  1  0  0  0
 71 73  2  0  0  0
 71145  1  0  0  0
 72 74  2  0  0  0
 72 85  1  0  0  0
 73 76  1  0  0  0
 73 84  1  0  0  0
 74 75  1  0  0  0
 74 84  1  0  0  0
 75 77  2  0  0  0
 75146  1  0  0  0
 76 83  2  0  0  0
 76147  1  0  0  0
 77 78  1  0  0  0
 77 79  1  0  0  0
 78148  1  0  0  0
 78149  1  0  0  0
 78150  1  0  0  0
 79151  1  0  0  0
 79152  1  0  0  0
 79153  1  0  0  0
 80 81  1  0  0  0
 80 82  1  0  0  0
 80154  1  0  0  0
 80155  1  0  0  0
 81156  1  0  0  0
 81157  1  0  0  0
 82 85  1  0  0  0
 82158  1  0  0  0
 82159  1  0  0  0
M  ISO  4   1 100  68 101  81 101  83 100
M  END
> <chiral flag>
0

> <version>
0

> <s_m_source_file>
/data/baiqing/PycharmProjects/Reinvent-master-3.2/result/LINK_invent/BTK/process_docking_weight1_custom_product_contain_oxygen_bond_distance_aromatic_linkinvent_7_9_3/rearranged_h_0114.sdf

> <i_m_source_file_index>
15

> <r_mmod_Potential_Energy-OPLS-2005>
-13.080509185791

> <r_mmod_Stretch_Energy-OPLS-2005>
48.6452102661133

> <r_mmod_Bend_Energy-OPLS-2005>
119.567199707031

> <r_mmod_Torsional_Energy-OPLS-2005>
198.05940246582

> <r_mmod_Improper_Torsional_Energy-OPLS-2005>
4.52296876907349

> <r_mmod_Van_der_Waal_Energy-OPLS-2005>
135.181259155273

> <r_mmod_Electrostatic_Energy-OPLS-2005>
-357.386444091797

> <r_mmod_Solvation_Energy-OPLS-2005>
-185.379989624023

> <b_mmod_Minimization_Converged-OPLS-2005>
0

> <r_mmod_RMS_Derivative-OPLS-2005>
2.3278443813324

$$$$
15
                    3D
 Structure written by MMmdl.
163171  0  0  1  0            999 V2000
  -30.7186  -14.5096   20.6563 C   0  0  0  0  0  0
  -30.4199  -12.3709   19.4213 C   0  0  0  0  0  0
  -29.4861  -12.5539   18.2078 C   0  0  0  0  0  0
  -28.0111  -12.3917   18.6204 C   0  0  0  0  0  0
  -27.6595  -13.2172   19.8861 C   0  0  2  0  0  0
  -28.7030  -12.9838   21.0014 C   0  0  0  0  0  0
  -25.2495  -13.8171   20.5521 C   0  0  0  0  0  0
  -24.1802  -13.0440   20.9162 C   0  0  0  0  0  0
  -24.6392  -11.6923   20.8777 C   0  0  0  0  0  0
  -23.9064  -10.4298   21.0431 C   0  0  0  0  0  0
  -24.3613   -9.4207   21.9204 C   0  0  0  0  0  0
  -23.6287   -8.2240   22.0763 C   0  0  0  0  0  0
  -22.4275   -8.0277   21.3546 C   0  0  0  0  0  0
  -21.9915   -9.0256   20.4647 C   0  0  0  0  0  0
  -22.7243  -10.2137   20.3068 C   0  0  0  0  0  0
  -21.6850   -6.0733   22.5281 C   0  0  0  0  0  0
  -21.4011   -6.5639   23.8214 C   0  0  0  0  0  0
  -21.3659   -5.6795   24.9178 C   0  0  0  0  0  0
  -21.6044   -4.3057   24.7228 C   0  0  0  0  0  0
  -21.8817   -3.8144   23.4349 C   0  0  0  0  0  0
  -21.9190   -4.6960   22.3403 C   0  0  0  0  0  0
  -22.7823  -13.5230   21.1838 C   0  0  0  0  0  0
  -22.1658   -4.2143   21.0981 F   0  0  0  0  0  0
  -21.5631   -3.4542   25.7743 F   0  0  0  0  0  0
  -30.0263  -13.3395   20.4665 N   0  0  0  0  0  0
  -26.3003  -12.9381   20.3424 N   0  0  0  0  0  0
  -25.9334  -11.6531   20.5849 N   0  0  0  0  0  0
  -22.0469  -12.8224   22.0410 N   0  0  0  0  0  0
  -25.4054  -15.1845   20.3535 N   0  0  0  0  0  0
  -31.7477  -14.7653   20.0192 O   0  0  0  0  0  0
  -21.6637   -6.8877   21.4240 O   0  0  0  0  0  0
  -22.3493  -14.5527   20.6692 O   0  0  0  0  0  0
  -24.6219  -31.8622   23.2035 C   0  0  0  0  0  0
  -25.9085  -32.4782   23.8353 C   0  0  1  0  0  0
  -27.2338  -27.3573   20.0919 C   0  0  0  0  0  0
  -25.5923  -33.8581   24.2284 N   0  0  0  0  0  0
  -23.4128  -30.4845   21.5480 C   0  0  2  0  0  0
  -24.8561  -28.9393   20.1161 C   0  0  0  0  0  0
  -22.7440  -29.4633   22.4974 C   0  0  0  0  0  0
  -18.0286  -28.1355   22.8479 C   0  0  0  0  0  0
  -24.1497  -36.7307   23.2641 C   0  0  0  0  0  0
  -25.9500  -30.8013   21.3687 C   0  0  0  0  0  0
  -26.0229  -29.4308   20.7123 C   0  0  0  0  0  0
  -27.2097  -28.6488   20.6942 C   0  0  0  0  0  0
  -26.0328  -26.8953   19.5027 C   0  0  0  0  0  0
  -24.8597  -27.6732   19.5108 C   0  0  0  0  0  0
  -23.6226  -29.8149   20.1648 C   0  0  0  0  0  0
  -25.4121  -36.3090   24.0329 C   0  0  1  0  0  0
  -20.5877  -28.3659   23.1300 C   0  0  2  0  0  0
  -20.6781  -26.9390   22.5414 C   0  0  0  0  0  0
  -19.5765  -26.6363   21.5206 C   0  0  0  0  0  0
  -18.1934  -26.7904   22.1603 C   0  0  0  0  0  0
  -19.1531  -28.8823   23.2883 C   0  0  0  0  0  0
  -18.9458  -30.1428   23.8889 C   0  0  0  0  0  0
  -17.6458  -30.6564   24.0550 C   0  0  0  0  0  0
  -25.9048  -34.9453   23.5103 C   0  0  0  0  0  0
  -16.5346  -29.9059   23.6324 C   0  0  0  0  0  0
  -16.7271  -28.6476   23.0342 C   0  0  0  0  0  0
  -26.4484  -31.6586   25.0712 C   0  0  0  0  0  0
  -25.3726  -31.3702   26.1447 C   0  0  0  0  0  0
  -27.0342  -30.3025   24.6136 C   0  0  0  0  0  0
  -27.6030  -32.4335   25.7483 C   0  0  0  0  0  0
  -27.5585  -37.1816   24.8463 C   0  0  0  0  0  0
  -21.4162  -29.3028   22.3705 N   0  0  0  0  0  0
  -26.4303  -37.3781   23.9394 N   0  0  0  0  0  0
  -24.6804  -31.0655   22.0973 N   0  0  0  0  0  0
  -23.4180  -28.8176   23.3047 O   0  0  0  0  0  0
  -28.4096  -26.6022   20.1218 O   0  0  0  0  0  0
  -26.5611  -34.8917   22.4668 O   0  0  0  0  0  0
  -23.5395  -32.1417   23.7384 O   0  0  0  0  0  0
  -27.3301  -17.8904   21.9785 C   0  0  0  0  0  0
  -29.8891  -17.8315   20.8981 C   0  0  0  0  0  0
  -28.1374  -16.7514   22.2118 C   0  0  0  0  0  0
  -29.4235  -16.6638   21.5902 C   0  0  0  0  0  0
  -27.7873  -19.0189   21.2596 C   0  0  0  0  0  0
  -29.1182  -19.0344   20.7814 C   0  0  0  0  0  0
  -26.3311  -15.5177   23.5087 C   0  0  0  0  0  0
  -27.6045  -15.6939   23.1134 C   0  0  0  0  0  0
  -30.3229  -15.4509   21.8206 C   0  0  0  0  0  0
  -25.6485  -20.1219   21.4614 C   0  0  0  0  0  0
  -28.7788  -24.0689   20.4924 C   0  0  0  0  0  0
  -28.9880  -22.6476   19.8329 C   0  0  0  0  0  0
  -28.5316  -25.2750   19.5119 C   0  0  0  0  0  0
  -29.4790  -21.4899   20.7802 C   0  0  0  0  0  0
  -30.7947  -15.2301   22.9788 N   0  0  0  0  0  0
  -26.9894  -20.1132   20.9896 O   0  0  0  0  0  0
  -29.6438  -20.1749   20.1597 O   0  0  0  0  0  0
  -31.4599  -12.4885   19.1129 H   0  0  0  0  0  0
  -30.3451  -11.3530   19.8074 H   0  0  0  0  0  0
  -29.7358  -11.8396   17.4222 H   0  0  0  0  0  0
  -29.6374  -13.5460   17.7791 H   0  0  0  0  0  0
  -27.8269  -11.3331   18.8049 H   0  0  0  0  0  0
  -27.3557  -12.6732   17.7953 H   0  0  0  0  0  0
  -27.7063  -14.2697   19.6068 H   0  0  0  0  0  0
  -28.6973  -11.9353   21.3037 H   0  0  0  0  0  0
  -28.4418  -13.5331   21.8978 H   0  0  0  0  0  0
  -25.2752   -9.5690   22.4790 H   0  0  0  0  0  0
  -23.9995   -7.4633   22.7486 H   0  0  0  0  0  0
  -21.0853   -8.8774   19.8941 H   0  0  0  0  0  0
  -22.3701  -10.9681   19.6180 H   0  0  0  0  0  0
  -21.2004   -7.6150   23.9712 H   0  0  0  0  0  0
  -21.1485   -6.0529   25.9083 H   0  0  0  0  0  0
  -22.0596   -2.7606   23.2855 H   0  0  0  0  0  0
  -22.4087  -11.9908   22.4835 H   0  0  0  0  0  0
  -21.1075  -13.1239   22.2581 H   0  0  0  0  0  0
  -24.6322  -15.8324   20.4458 H   0  0  0  0  0  0
  -26.2588  -15.6270   20.0407 H   0  0  0  0  0  0
  -26.7144  -32.5457   23.1096 H   0  0  0  0  0  0
  -25.0082  -33.9719   25.0437 H   0  0  0  0  0  0
  -22.7044  -31.3035   21.4058 H   0  0  0  0  0  0
  -23.3760  -35.9644   23.3298 H   0  0  0  0  0  0
  -24.3580  -36.8942   22.2058 H   0  0  0  0  0  0
  -23.7251  -37.6504   23.6674 H   0  0  0  0  0  0
  -26.0765  -31.5635   20.5993 H   0  0  0  0  0  0
  -26.8323  -30.8503   21.9943 H   0  0  0  0  0  0
  -28.1102  -29.0270   21.1582 H   0  0  0  0  0  0
  -25.9484  -25.9254   19.0413 H   0  0  0  0  0  0
  -23.9591  -27.2816   19.0572 H   0  0  0  0  0  0
  -23.7359  -30.5882   19.4040 H   0  0  0  0  0  0
  -22.7439  -29.2392   19.8681 H   0  0  0  0  0  0
  -25.1308  -36.1953   25.0827 H   0  0  0  0  0  0
  -20.9959  -28.3237   24.1426 H   0  0  0  0  0  0
  -20.5692  -26.2261   23.3602 H   0  0  0  0  0  0
  -21.6654  -26.7430   22.1208 H   0  0  0  0  0  0
  -19.6927  -25.6280   21.1226 H   0  0  0  0  0  0
  -19.6707  -27.3174   20.6736 H   0  0  0  0  0  0
  -17.4218  -26.6659   21.3987 H   0  0  0  0  0  0
  -18.0316  -26.0031   22.8977 H   0  0  0  0  0  0
  -19.7935  -30.7239   24.2255 H   0  0  0  0  0  0
  -17.5017  -31.6243   24.5152 H   0  0  0  0  0  0
  -15.5346  -30.2952   23.7657 H   0  0  0  0  0  0
  -15.8673  -28.0791   22.7059 H   0  0  0  0  0  0
  -24.5900  -30.7053   25.7780 H   0  0  0  0  0  0
  -24.8914  -32.2858   26.4891 H   0  0  0  0  0  0
  -25.8071  -30.8868   27.0205 H   0  0  0  0  0  0
  -26.2910  -29.6749   24.1204 H   0  0  0  0  0  0
  -27.4121  -29.7303   25.4618 H   0  0  0  0  0  0
  -27.8741  -30.4342   23.9309 H   0  0  0  0  0  0
  -27.2639  -33.3661   26.2006 H   0  0  0  0  0  0
  -28.3865  -32.6852   25.0323 H   0  0  0  0  0  0
  -28.0665  -31.8494   26.5442 H   0  0  0  0  0  0
  -28.2608  -38.0109   24.7506 H   0  0  0  0  0  0
  -28.1082  -36.2635   24.6316 H   0  0  0  0  0  0
  -27.2287  -37.1499   25.8863 H   0  0  0  0  0  0
  -20.9323  -29.8762   21.6933 H   0  0  0  0  0  0
  -26.0194  -38.2867   24.1371 H   0  0  0  0  0  0
  -26.3422  -17.9095   22.4049 H   0  0  0  0  0  0
  -30.8917  -17.8228   20.4947 H   0  0  0  0  0  0
  -26.0785  -14.7170   24.1891 H   0  0  0  0  0  0
  -25.5157  -16.1401   23.1736 H   0  0  0  0  0  0
  -28.3111  -14.9983   23.5383 H   0  0  0  0  0  0
  -25.1643  -21.0488   21.1542 H   0  0  0  0  0  0
  -25.6116  -20.0798   22.5508 H   0  0  0  0  0  0
  -25.0693  -19.2962   21.0451 H   0  0  0  0  0  0
  -29.6572  -24.3013   21.0959 H   0  0  0  0  0  0
  -27.9451  -24.0066   21.1920 H   0  0  0  0  0  0
  -29.7083  -22.7442   19.0199 H   0  0  0  0  0  0
  -28.0531  -22.3417   19.3619 H   0  0  0  0  0  0
  -27.7333  -25.0220   18.8208 H   0  0  0  0  0  0
  -29.4076  -25.3433   18.8662 H   0  0  0  0  0  0
  -28.8604  -21.4539   21.6767 H   0  0  0  0  0  0
  -30.4655  -21.7717   21.1511 H   0  0  0  0  0  0
  -30.4762  -15.9286   23.6404 H   0  0  0  0  0  0
  1 25  1  0  0  0
  1 30  2  0  0  0
  1 79  1  0  0  0
  2  3  1  0  0  0
  2 25  1  0  0  0
  2 88  1  0  0  0
  2 89  1  0  0  0
  3  4  1  0  0  0
  3 90  1  0  0  0
  3 91  1  0  0  0
  4  5  1  0  0  0
  4 92  1  0  0  0
  4 93  1  0  0  0
  5  6  1  0  0  0
  5 26  1  0  0  0
  5 94  1  0  0  0
  6 25  1  0  0  0
  6 95  1  0  0  0
  6 96  1  0  0  0
  7  8  2  0  0  0
  7 26  1  0  0  0
  7 29  1  0  0  0
  8  9  1  0  0  0
  8 22  1  0  0  0
  9 10  1  0  0  0
  9 27  2  0  0  0
 10 11  2  0  0  0
 10 15  1  0  0  0
 11 12  1  0  0  0
 11 97  1  0  0  0
 12 13  2  0  0  0
 12 98  1  0  0  0
 13 14  1  0  0  0
 13 31  1  0  0  0
 14 15  2  0  0  0
 14 99  1  0  0  0
 15100  1  0  0  0
 16 17  2  0  0  0
 16 21  1  0  0  0
 16 31  1  0  0  0
 17 18  1  0  0  0
 17101  1  0  0  0
 18 19  2  0  0  0
 18102  1  0  0  0
 19 20  1  0  0  0
 19 24  1  0  0  0
 20 21  2  0  0  0
 20103  1  0  0  0
 21 23  1  0  0  0
 22 28  1  0  0  0
 22 32  2  0  0  0
 26 27  1  0  0  0
 28104  1  0  0  0
 28105  1  0  0  0
 29106  1  0  0  0
 29107  1  0  0  0
 33 34  1  0  0  0
 33 66  1  0  0  0
 33 70  2  0  0  0
 34 36  1  0  0  0
 34 59  1  0  0  0
 34108  1  0  0  0
 35 44  2  0  0  0
 35 45  1  0  0  0
 35 68  1  0  0  0
 36 56  1  0  0  0
 36109  1  0  0  0
 37 39  1  0  0  0
 37 47  1  0  0  0
 37 66  1  0  0  0
 37110  1  0  0  0
 38 43  2  0  0  0
 38 46  1  0  0  0
 38 47  1  0  0  0
 39 64  1  0  0  0
 39 67  2  0  0  0
 40 52  1  0  0  0
 40 53  2  0  0  0
 40 58  1  0  0  0
 41111  1  0  0  0
 41112  1  0  0  0
 41113  1  0  0  0
 41 48  1  0  0  0
 42 43  1  0  0  0
 42 66  1  0  0  0
 42114  1  0  0  0
 42115  1  0  0  0
 43 44  1  0  0  0
 44116  1  0  0  0
 45 46  2  0  0  0
 45117  1  0  0  0
 46118  1  0  0  0
 47119  1  0  0  0
 47120  1  0  0  0
 48 56  1  0  0  0
 48 65  1  0  0  0
 48121  1  0  0  0
 49 50  1  0  0  0
 49 53  1  0  0  0
 49 64  1  0  0  0
 49122  1  0  0  0
 50 51  1  0  0  0
 50123  1  0  0  0
 50124  1  0  0  0
 51 52  1  0  0  0
 51125  1  0  0  0
 51126  1  0  0  0
 52127  1  0  0  0
 52128  1  0  0  0
 53 54  1  0  0  0
 54 55  2  0  0  0
 54129  1  0  0  0
 55 57  1  0  0  0
 55130  1  0  0  0
 56 69  2  0  0  0
 57 58  2  0  0  0
 57131  1  0  0  0
 58132  1  0  0  0
 59 60  1  0  0  0
 59 61  1  0  0  0
 59 62  1  0  0  0
 60133  1  0  0  0
 60134  1  0  0  0
 60135  1  0  0  0
 61136  1  0  0  0
 61137  1  0  0  0
 61138  1  0  0  0
 62139  1  0  0  0
 62140  1  0  0  0
 62141  1  0  0  0
 63 65  1  0  0  0
 63142  1  0  0  0
 63143  1  0  0  0
 63144  1  0  0  0
 64145  1  0  0  0
 65146  1  0  0  0
 68 83  1  0  0  0
 71 73  2  0  0  0
 71 75  1  0  0  0
 71147  1  0  0  0
 72 74  2  0  0  0
 72 76  1  0  0  0
 72148  1  0  0  0
 73 74  1  0  0  0
 73 78  1  0  0  0
 74 79  1  0  0  0
 75 76  2  0  0  0
 75 86  1  0  0  0
 76 87  1  0  0  0
 77 78  2  0  0  0
 77149  1  0  0  0
 77150  1  0  0  0
 78151  1  0  0  0
 79 85  2  0  0  0
 80 86  1  0  0  0
 80152  1  0  0  0
 80153  1  0  0  0
 80154  1  0  0  0
 81 82  1  0  0  0
 81 83  1  0  0  0
 81155  1  0  0  0
 81156  1  0  0  0
 82 84  1  0  0  0
 82157  1  0  0  0
 82158  1  0  0  0
 83159  1  0  0  0
 83160  1  0  0  0
 84 87  1  0  0  0
 84161  1  0  0  0
 84162  1  0  0  0
 85163  1  0  0  0
M  ISO  4   1 100  68 101  79 100  83 101
M  END
> <chiral flag>
0

> <version>
0

> <s_m_source_file>
/data/baiqing/PycharmProjects/Reinvent-master-3.2/result/LINK_invent/BTK/process_docking_weight1_custom_product_contain_oxygen_bond_distance_aromatic_linkinvent_7_9_3/rearranged_h_0114.sdf

> <i_m_source_file_index>
16

> <r_mmod_Potential_Energy-OPLS-2005>
216.780303955078

> <r_mmod_Stretch_Energy-OPLS-2005>
72.8109970092773

> <r_mmod_Bend_Energy-OPLS-2005>
152.389266967773

> <r_mmod_Torsional_Energy-OPLS-2005>
249.805603027344

> <r_mmod_Improper_Torsional_Energy-OPLS-2005>
4.62173175811768

> <r_mmod_Van_der_Waal_Energy-OPLS-2005>
152.898620605469

> <r_mmod_Electrostatic_Energy-OPLS-2005>
-238.108993530273

> <r_mmod_Solvation_Energy-OPLS-2005>
-200.285934448242

> <b_mmod_Minimization_Converged-OPLS-2005>
0

> <r_mmod_RMS_Derivative-OPLS-2005>
1.36533868312836

$$$$
16
                    3D
 Structure written by MMmdl.
156164  0  0  1  0            999 V2000
  -30.7264  -14.5019   20.6565 C   0  0  0  0  0  0
  -30.4338  -12.3636   19.4213 C   0  0  0  0  0  0
  -29.4972  -12.5367   18.2091 C   0  0  0  0  0  0
  -28.0241  -12.3666   18.6249 C   0  0  0  0  0  0
  -27.6650  -13.2069   19.8775 C   0  0  2  0  0  0
  -28.7039  -12.9859   20.9984 C   0  0  0  0  0  0
  -25.2605  -13.8155   20.5683 C   0  0  0  0  0  0
  -24.1851  -13.0430   20.9163 C   0  0  0  0  0  0
  -24.6404  -11.6898   20.8724 C   0  0  0  0  0  0
  -23.9068  -10.4289   21.0400 C   0  0  0  0  0  0
  -24.3618   -9.4203   21.9178 C   0  0  0  0  0  0
  -23.6290   -8.2244   22.0754 C   0  0  0  0  0  0
  -22.4274   -8.0281   21.3542 C   0  0  0  0  0  0
  -21.9907   -9.0255   20.4646 C   0  0  0  0  0  0
  -22.7241  -10.2133   20.3051 C   0  0  0  0  0  0
  -21.6848   -6.0736   22.5280 C   0  0  0  0  0  0
  -21.4010   -6.5638   23.8211 C   0  0  0  0  0  0
  -21.3660   -5.6791   24.9173 C   0  0  0  0  0  0
  -21.6044   -4.3056   24.7226 C   0  0  0  0  0  0
  -21.8819   -3.8146   23.4346 C   0  0  0  0  0  0
  -21.9192   -4.6964   22.3404 C   0  0  0  0  0  0
  -22.7873  -13.5232   21.1831 C   0  0  0  0  0  0
  -22.1660   -4.2150   21.0981 F   0  0  0  0  0  0
  -21.5630   -3.4538   25.7737 F   0  0  0  0  0  0
  -30.0397  -13.3280   20.4666 N   0  0  0  0  0  0
  -26.3046  -12.9324   20.3364 N   0  0  0  0  0  0
  -25.9333  -11.6483   20.5748 N   0  0  0  0  0  0
  -22.0517  -12.8237   22.0399 N   0  0  0  0  0  0
  -25.4300  -15.1877   20.4116 N   0  0  0  0  0  0
  -31.7243  -14.8007   19.9905 O   0  0  0  0  0  0
  -21.6632   -6.8881   21.4244 O   0  0  0  0  0  0
  -22.3558  -14.5534   20.6675 O   0  0  0  0  0  0
  -24.6219  -31.8629   23.2076 C   0  0  0  0  0  0
  -25.9092  -32.4789   23.8376 C   0  0  1  0  0  0
  -27.2230  -27.3612   20.0997 C   0  0  0  0  0  0
  -25.5923  -33.8588   24.2297 N   0  0  0  0  0  0
  -23.4119  -30.4901   21.5497 C   0  0  2  0  0  0
  -24.8568  -28.9558   20.1097 C   0  0  0  0  0  0
  -22.7443  -29.4638   22.4950 C   0  0  0  0  0  0
  -18.0276  -28.1380   22.8485 C   0  0  0  0  0  0
  -24.1488  -36.7295   23.2639 C   0  0  0  0  0  0
  -25.9515  -30.8041   21.3754 C   0  0  0  0  0  0
  -26.0248  -29.4375   20.7147 C   0  0  0  0  0  0
  -27.2097  -28.6504   20.7043 C   0  0  0  0  0  0
  -26.0307  -26.9271   19.4695 C   0  0  0  0  0  0
  -24.8600  -27.7033   19.4812 C   0  0  0  0  0  0
  -23.6238  -29.8316   20.1628 C   0  0  0  0  0  0
  -25.4112  -36.3081   24.0327 C   0  0  1  0  0  0
  -20.5874  -28.3676   23.1290 C   0  0  2  0  0  0
  -20.6765  -26.9401   22.5409 C   0  0  0  0  0  0
  -19.5743  -26.6379   21.5206 C   0  0  0  0  0  0
  -18.1920  -26.7926   22.1618 C   0  0  0  0  0  0
  -19.1528  -28.8844   23.2886 C   0  0  0  0  0  0
  -18.9456  -30.1448   23.8895 C   0  0  0  0  0  0
  -17.6460  -30.6587   24.0560 C   0  0  0  0  0  0
  -25.9046  -34.9451   23.5110 C   0  0  0  0  0  0
  -16.5349  -29.9086   23.6334 C   0  0  0  0  0  0
  -16.7264  -28.6508   23.0353 C   0  0  0  0  0  0
  -26.4498  -31.6596   25.0732 C   0  0  0  0  0  0
  -25.3744  -31.3711   26.1464 C   0  0  0  0  0  0
  -27.0362  -30.3033   24.6180 C   0  0  0  0  0  0
  -27.6058  -32.4342   25.7492 C   0  0  0  0  0  0
  -27.5579  -37.1790   24.8462 C   0  0  0  0  0  0
  -21.4161  -29.3038   22.3692 N   0  0  0  0  0  0
  -26.4292  -37.3775   23.9410 N   0  0  0  0  0  0
  -24.6803  -31.0674   22.1011 N   0  0  0  0  0  0
  -23.4186  -28.8160   23.2999 O   0  0  0  0  0  0
  -28.3559  -26.5429   20.1487 O   0  0  0  0  0  0
  -26.5611  -34.8913   22.4674 O   0  0  0  0  0  0
  -23.5399  -32.1426   23.7425 O   0  0  0  0  0  0
  -30.0122  -17.7536   20.6965 C   0  0  0  0  0  0
  -29.4463  -19.0596   21.0223 C   0  0  0  0  0  0
  -29.9368  -16.8050   21.7110 C   0  0  0  0  0  0
  -28.9156  -19.0531   22.2974 C   0  0  0  0  0  0
  -27.1776  -20.8478   22.5002 C   0  0  0  0  0  0
  -28.0942  -19.9992   22.9904 C   0  0  0  0  0  0
  -30.3383  -15.3682   21.8712 C   0  0  0  0  0  0
  -29.2514  -24.0930   20.3506 C   0  0  0  0  0  0
  -28.9329  -22.6027   19.9488 C   0  0  0  0  0  0
  -28.1618  -25.1170   19.8784 C   0  0  0  0  0  0
  -29.7927  -21.4502   20.5837 C   0  0  0  0  0  0
  -30.3800  -14.8354   23.0252 N   0  0  0  0  0  0
  -29.3621  -20.1257   20.1551 O   0  0  0  0  0  0
  -29.1836  -17.5403   23.1096 S   0  0  0  0  0  0
  -31.4741  -12.4889   19.1144 H   0  0  0  0  0  0
  -30.3672  -11.3472   19.8129 H   0  0  0  0  0  0
  -29.7526  -11.8154   17.4319 H   0  0  0  0  0  0
  -29.6442  -13.5249   17.7709 H   0  0  0  0  0  0
  -27.8581  -11.3086   18.8310 H   0  0  0  0  0  0
  -27.3641  -12.6216   17.7949 H   0  0  0  0  0  0
  -27.7117  -14.2562   19.5863 H   0  0  0  0  0  0
  -28.6969  -11.9436   21.3205 H   0  0  0  0  0  0
  -28.4144  -13.5578   21.8782 H   0  0  0  0  0  0
  -25.2767   -9.5670   22.4742 H   0  0  0  0  0  0
  -23.9997   -7.4632   22.7471 H   0  0  0  0  0  0
  -21.0839   -8.8777   19.8952 H   0  0  0  0  0  0
  -22.3706  -10.9667   19.6155 H   0  0  0  0  0  0
  -21.2002   -7.6145   23.9714 H   0  0  0  0  0  0
  -21.1480   -6.0521   25.9075 H   0  0  0  0  0  0
  -22.0599   -2.7610   23.2846 H   0  0  0  0  0  0
  -22.4146  -11.9917   22.4815 H   0  0  0  0  0  0
  -21.1128  -13.1252   22.2588 H   0  0  0  0  0  0
  -24.6627  -15.8403   20.5293 H   0  0  0  0  0  0
  -26.2876  -15.6351   20.1142 H   0  0  0  0  0  0
  -26.7150  -32.5467   23.1116 H   0  0  0  0  0  0
  -25.0053  -33.9743   25.0428 H   0  0  0  0  0  0
  -22.7044  -31.3104   21.4120 H   0  0  0  0  0  0
  -23.3753  -35.9622   23.3294 H   0  0  0  0  0  0
  -24.3571  -36.8937   22.2055 H   0  0  0  0  0  0
  -23.7252  -37.6494   23.6678 H   0  0  0  0  0  0
  -26.0834  -31.5697   20.6098 H   0  0  0  0  0  0
  -26.8322  -30.8468   22.0045 H   0  0  0  0  0  0
  -28.1056  -29.0140   21.1885 H   0  0  0  0  0  0
  -25.9680  -25.9752   18.9638 H   0  0  0  0  0  0
  -23.9651  -27.3296   19.0018 H   0  0  0  0  0  0
  -23.7402  -30.6125   19.4097 H   0  0  0  0  0  0
  -22.7443  -29.2614   19.8590 H   0  0  0  0  0  0
  -25.1295  -36.1918   25.0820 H   0  0  0  0  0  0
  -20.9965  -28.3246   24.1410 H   0  0  0  0  0  0
  -20.5668  -26.2275   23.3598 H   0  0  0  0  0  0
  -21.6633  -26.7429   22.1203 H   0  0  0  0  0  0
  -19.6903  -25.6291   21.1239 H   0  0  0  0  0  0
  -19.6695  -27.3184   20.6735 H   0  0  0  0  0  0
  -17.4190  -26.6663   21.4024 H   0  0  0  0  0  0
  -18.0329  -26.0070   22.9017 H   0  0  0  0  0  0
  -19.7932  -30.7262   24.2269 H   0  0  0  0  0  0
  -17.5018  -31.6267   24.5158 H   0  0  0  0  0  0
  -15.5355  -30.2990   23.7675 H   0  0  0  0  0  0
  -15.8656  -28.0837   22.7069 H   0  0  0  0  0  0
  -24.5901  -30.7088   25.7780 H   0  0  0  0  0  0
  -24.8948  -32.2870   26.4926 H   0  0  0  0  0  0
  -25.8071  -30.8850   27.0216 H   0  0  0  0  0  0
  -26.2940  -29.6743   24.1255 H   0  0  0  0  0  0
  -27.4140  -29.7321   25.4668 H   0  0  0  0  0  0
  -27.8761  -30.4337   23.9355 H   0  0  0  0  0  0
  -27.2679  -33.3653   26.2053 H   0  0  0  0  0  0
  -28.3865  -32.6899   25.0314 H   0  0  0  0  0  0
  -28.0731  -31.8487   26.5420 H   0  0  0  0  0  0
  -28.2578  -38.0102   24.7538 H   0  0  0  0  0  0
  -28.1107  -36.2643   24.6270 H   0  0  0  0  0  0
  -27.2299  -37.1408   25.8864 H   0  0  0  0  0  0
  -20.9320  -29.8787   21.6939 H   0  0  0  0  0  0
  -26.0172  -38.2843   24.1441 H   0  0  0  0  0  0
  -30.4420  -17.5599   19.7243 H   0  0  0  0  0  0
  -26.6391  -21.5225   23.1513 H   0  0  0  0  0  0
  -26.9439  -20.8764   21.4470 H   0  0  0  0  0  0
  -28.2546  -20.0305   24.0595 H   0  0  0  0  0  0
  -30.2217  -24.3779   19.9439 H   0  0  0  0  0  0
  -29.3425  -24.1578   21.4350 H   0  0  0  0  0  0
  -28.9933  -22.5179   18.8632 H   0  0  0  0  0  0
  -27.8880  -22.4146   20.1868 H   0  0  0  0  0  0
  -27.2361  -24.7893   20.3556 H   0  0  0  0  0  0
  -28.0240  -24.9951   18.8032 H   0  0  0  0  0  0
  -29.7969  -21.5521   21.6681 H   0  0  0  0  0  0
  -30.8326  -21.5718   20.2788 H   0  0  0  0  0  0
  -30.1168  -15.5014   23.7408 H   0  0  0  0  0  0
  1 25  1  0  0  0
  1 30  2  0  0  0
  1 77  1  0  0  0
  2  3  1  0  0  0
  2 25  1  0  0  0
  2 85  1  0  0  0
  2 86  1  0  0  0
  3  4  1  0  0  0
  3 87  1  0  0  0
  3 88  1  0  0  0
  4  5  1  0  0  0
  4 89  1  0  0  0
  4 90  1  0  0  0
  5  6  1  0  0  0
  5 26  1  0  0  0
  5 91  1  0  0  0
  6 25  1  0  0  0
  6 92  1  0  0  0
  6 93  1  0  0  0
  7  8  2  0  0  0
  7 26  1  0  0  0
  7 29  1  0  0  0
  8  9  1  0  0  0
  8 22  1  0  0  0
  9 10  1  0  0  0
  9 27  2  0  0  0
 10 11  2  0  0  0
 10 15  1  0  0  0
 11 12  1  0  0  0
 11 94  1  0  0  0
 12 13  2  0  0  0
 12 95  1  0  0  0
 13 14  1  0  0  0
 13 31  1  0  0  0
 14 15  2  0  0  0
 14 96  1  0  0  0
 15 97  1  0  0  0
 16 17  2  0  0  0
 16 21  1  0  0  0
 16 31  1  0  0  0
 17 18  1  0  0  0
 17 98  1  0  0  0
 18 19  2  0  0  0
 18 99  1  0  0  0
 19 20  1  0  0  0
 19 24  1  0  0  0
 20 21  2  0  0  0
 20100  1  0  0  0
 21 23  1  0  0  0
 22 28  1  0  0  0
 22 32  2  0  0  0
 26 27  1  0  0  0
 28101  1  0  0  0
 28102  1  0  0  0
 29103  1  0  0  0
 29104  1  0  0  0
 33 34  1  0  0  0
 33 66  1  0  0  0
 33 70  2  0  0  0
 34 36  1  0  0  0
 34 59  1  0  0  0
 34105  1  0  0  0
 35 44  2  0  0  0
 35 45  1  0  0  0
 35 68  1  0  0  0
 36 56  1  0  0  0
 36106  1  0  0  0
 37 39  1  0  0  0
 37 47  1  0  0  0
 37 66  1  0  0  0
 37107  1  0  0  0
 38 43  2  0  0  0
 38 46  1  0  0  0
 38 47  1  0  0  0
 39 64  1  0  0  0
 39 67  2  0  0  0
 40 52  1  0  0  0
 40 53  2  0  0  0
 40 58  1  0  0  0
 41108  1  0  0  0
 41109  1  0  0  0
 41110  1  0  0  0
 41 48  1  0  0  0
 42 43  1  0  0  0
 42 66  1  0  0  0
 42111  1  0  0  0
 42112  1  0  0  0
 43 44  1  0  0  0
 44113  1  0  0  0
 45 46  2  0  0  0
 45114  1  0  0  0
 46115  1  0  0  0
 47116  1  0  0  0
 47117  1  0  0  0
 48 56  1  0  0  0
 48 65  1  0  0  0
 48118  1  0  0  0
 49 50  1  0  0  0
 49 53  1  0  0  0
 49 64  1  0  0  0
 49119  1  0  0  0
 50 51  1  0  0  0
 50120  1  0  0  0
 50121  1  0  0  0
 51 52  1  0  0  0
 51122  1  0  0  0
 51123  1  0  0  0
 52124  1  0  0  0
 52125  1  0  0  0
 53 54  1  0  0  0
 54 55  2  0  0  0
 54126  1  0  0  0
 55 57  1  0  0  0
 55127  1  0  0  0
 56 69  2  0  0  0
 57 58  2  0  0  0
 57128  1  0  0  0
 58129  1  0  0  0
 59 60  1  0  0  0
 59 61  1  0  0  0
 59 62  1  0  0  0
 60130  1  0  0  0
 60131  1  0  0  0
 60132  1  0  0  0
 61133  1  0  0  0
 61134  1  0  0  0
 61135  1  0  0  0
 62136  1  0  0  0
 62137  1  0  0  0
 62138  1  0  0  0
 63 65  1  0  0  0
 63139  1  0  0  0
 63140  1  0  0  0
 63141  1  0  0  0
 64142  1  0  0  0
 65143  1  0  0  0
 68 80  1  0  0  0
 71 72  1  0  0  0
 71 73  2  0  0  0
 71144  1  0  0  0
 72 74  2  0  0  0
 72 83  1  0  0  0
 73 77  1  0  0  0
 73 84  1  0  0  0
 74 76  1  0  0  0
 74 84  1  0  0  0
 75 76  2  0  0  0
 75145  1  0  0  0
 75146  1  0  0  0
 76147  1  0  0  0
 77 82  2  0  0  0
 78 79  1  0  0  0
 78 80  1  0  0  0
 78148  1  0  0  0
 78149  1  0  0  0
 79 81  1  0  0  0
 79150  1  0  0  0
 79151  1  0  0  0
 80152  1  0  0  0
 80153  1  0  0  0
 81 83  1  0  0  0
 81154  1  0  0  0
 81155  1  0  0  0
 82156  1  0  0  0
M  ISO  4   1 100  68 101  77 100  80 101
M  END
> <chiral flag>
0

> <version>
0

> <s_m_source_file>
/data/baiqing/PycharmProjects/Reinvent-master-3.2/result/LINK_invent/BTK/process_docking_weight1_custom_product_contain_oxygen_bond_distance_aromatic_linkinvent_7_9_3/rearranged_h_0114.sdf

> <i_m_source_file_index>
17

> <r_mmod_Potential_Energy-OPLS-2005>
144.064483642578

> <r_mmod_Stretch_Energy-OPLS-2005>
62.2334289550781

> <r_mmod_Bend_Energy-OPLS-2005>
132.59619140625

> <r_mmod_Torsional_Energy-OPLS-2005>
221.756805419922

> <r_mmod_Improper_Torsional_Energy-OPLS-2005>
4.0982813835144

> <r_mmod_Van_der_Waal_Energy-OPLS-2005>
136.313827514648

> <r_mmod_Electrostatic_Energy-OPLS-2005>
-242.891525268555

> <r_mmod_Solvation_Energy-OPLS-2005>
-195.451309204102

> <b_mmod_Minimization_Converged-OPLS-2005>
0

> <r_mmod_RMS_Derivative-OPLS-2005>
1.1398491859436

$$$$
17
                    3D
 Structure written by MMmdl.
156164  0  0  1  0            999 V2000
  -30.7378  -14.5376   20.4546 C   0  0  0  0  0  0
  -30.3874  -12.3287   19.4377 C   0  0  0  0  0  0
  -29.4762  -12.4814   18.2038 C   0  0  0  0  0  0
  -27.9993  -12.3474   18.6227 C   0  0  0  0  0  0
  -27.6322  -13.2318   19.8462 C   0  0  2  0  0  0
  -28.6818  -13.1385   20.9776 C   0  0  0  0  0  0
  -25.2464  -13.8212   20.5743 C   0  0  0  0  0  0
  -24.1761  -13.0474   20.9215 C   0  0  0  0  0  0
  -24.6317  -11.6928   20.8738 C   0  0  0  0  0  0
  -23.9005  -10.4299   21.0404 C   0  0  0  0  0  0
  -24.3576   -9.4203   21.9160 C   0  0  0  0  0  0
  -23.6253   -8.2252   22.0745 C   0  0  0  0  0  0
  -22.4237   -8.0264   21.3557 C   0  0  0  0  0  0
  -21.9873   -9.0229   20.4654 C   0  0  0  0  0  0
  -22.7199  -10.2103   20.3044 C   0  0  0  0  0  0
  -21.6834   -6.0701   22.5262 C   0  0  0  0  0  0
  -21.4022   -6.5613   23.8196 C   0  0  0  0  0  0
  -21.3679   -5.6780   24.9166 C   0  0  0  0  0  0
  -21.6049   -4.3037   24.7223 C   0  0  0  0  0  0
  -21.8827   -3.8119   23.4346 C   0  0  0  0  0  0
  -21.9184   -4.6930   22.3393 C   0  0  0  0  0  0
  -22.7771  -13.5227   21.1908 C   0  0  0  0  0  0
  -22.1645   -4.2105   21.0973 F   0  0  0  0  0  0
  -21.5630   -3.4526   25.7737 F   0  0  0  0  0  0
  -30.0067  -13.3877   20.3903 N   0  0  0  0  0  0
  -26.2870  -12.9419   20.3302 N   0  0  0  0  0  0
  -25.9241  -11.6552   20.5753 N   0  0  0  0  0  0
  -22.0433  -12.8209   22.0459 N   0  0  0  0  0  0
  -25.4204  -15.1947   20.4146 N   0  0  0  0  0  0
  -31.9397  -14.5225   20.1874 O   0  0  0  0  0  0
  -21.6642   -6.8839   21.4220 O   0  0  0  0  0  0
  -22.3443  -14.5520   20.6703 O   0  0  0  0  0  0
  -24.6167  -31.8670   23.2119 C   0  0  0  0  0  0
  -25.9037  -32.4849   23.8419 C   0  0  1  0  0  0
  -27.2443  -27.4101   20.0803 C   0  0  0  0  0  0
  -25.5904  -33.8646   24.2341 N   0  0  0  0  0  0
  -23.4091  -30.4909   21.5501 C   0  0  2  0  0  0
  -24.8596  -28.9642   20.1144 C   0  0  0  0  0  0
  -22.7468  -29.4622   22.4931 C   0  0  0  0  0  0
  -18.0288  -28.1254   22.8676 C   0  0  0  0  0  0
  -24.1496  -36.7315   23.2631 C   0  0  0  0  0  0
  -25.9432  -30.8290   21.3690 C   0  0  0  0  0  0
  -26.0227  -29.4634   20.7093 C   0  0  0  0  0  0
  -27.2142  -28.6932   20.6898 C   0  0  0  0  0  0
  -26.0559  -26.9525   19.4586 C   0  0  0  0  0  0
  -24.8718  -27.7102   19.4894 C   0  0  0  0  0  0
  -23.6252  -29.8316   20.1639 C   0  0  0  0  0  0
  -25.4115  -36.3115   24.0339 C   0  0  1  0  0  0
  -20.5893  -28.3635   23.1242 C   0  0  2  0  0  0
  -20.6823  -26.9448   22.5106 C   0  0  0  0  0  0
  -19.5546  -26.6390   21.5194 C   0  0  0  0  0  0
  -18.1973  -26.7687   22.2102 C   0  0  0  0  0  0
  -19.1547  -28.8812   23.2905 C   0  0  0  0  0  0
  -18.9460  -30.1485   23.8793 C   0  0  0  0  0  0
  -17.6449  -30.6605   24.0413 C   0  0  0  0  0  0
  -25.9031  -34.9485   23.5130 C   0  0  0  0  0  0
  -16.5352  -29.9044   23.6257 C   0  0  0  0  0  0
  -16.7261  -28.6369   23.0503 C   0  0  0  0  0  0
  -26.4476  -31.6608   25.0723 C   0  0  0  0  0  0
  -25.3740  -31.3706   26.1457 C   0  0  0  0  0  0
  -27.0272  -30.3046   24.6090 C   0  0  0  0  0  0
  -27.6073  -32.4297   25.7489 C   0  0  0  0  0  0
  -27.5590  -37.1817   24.8466 C   0  0  0  0  0  0
  -21.4176  -29.3113   22.3786 N   0  0  0  0  0  0
  -26.4297  -37.3809   23.9416 N   0  0  0  0  0  0
  -24.6743  -31.0761   22.1022 N   0  0  0  0  0  0
  -23.4261  -28.8065   23.2877 O   0  0  0  0  0  0
  -28.4144  -26.6578   20.1317 O   0  0  0  0  0  0
  -26.5577  -34.8936   22.4686 O   0  0  0  0  0  0
  -23.5350  -32.1390   23.7503 O   0  0  0  0  0  0
  -27.9793  -19.0622   18.4061 C   0  0  0  0  0  0
  -28.1672  -20.3329   18.9794 C   0  0  0  0  0  0
  -28.7518  -17.9410   18.7993 C   0  0  0  0  0  0
  -29.6856  -18.0997   19.8750 C   0  0  0  0  0  0
  -29.1748  -20.5445   19.9384 C   0  0  0  0  0  0
  -29.9041  -19.4201   20.3940 C   0  0  0  0  0  0
  -27.5409  -16.3335   17.2550 C   0  0  0  0  0  0
  -28.5689  -16.6648   18.0546 C   0  0  0  0  0  0
  -30.5837  -16.9598   20.3440 C   0  0  0  0  0  0
  -29.2506  -24.2881   20.2688 C   0  0  0  0  0  0
  -28.4800  -25.3661   19.4727 C   0  0  0  0  0  0
  -29.4342  -22.9311   19.5459 C   0  0  0  0  0  0
  -30.0485  -15.7105   20.5108 N   0  0  0  0  0  0
  -31.7765  -17.2217   20.5315 O   0  0  0  0  0  0
  -29.6982  -24.4973   21.4035 O   0  0  0  0  0  0
  -29.4572  -21.8060   20.4574 O   0  0  0  0  0  0
  -30.8720  -19.6482   21.3194 F   0  0  0  0  0  0
  -31.4347  -12.3870   19.1350 H   0  0  0  0  0  0
  -30.2662  -11.3459   19.8963 H   0  0  0  0  0  0
  -29.7243  -11.7245   17.4572 H   0  0  0  0  0  0
  -29.6431  -13.4466   17.7240 H   0  0  0  0  0  0
  -27.8299  -11.2992   18.8678 H   0  0  0  0  0  0
  -27.3428  -12.5717   17.7787 H   0  0  0  0  0  0
  -27.6251  -14.2587   19.4803 H   0  0  0  0  0  0
  -28.6497  -12.1554   21.4487 H   0  0  0  0  0  0
  -28.4475  -13.8615   21.7628 H   0  0  0  0  0  0
  -25.2718   -9.5677   22.4732 H   0  0  0  0  0  0
  -23.9951   -7.4654   22.7465 H   0  0  0  0  0  0
  -21.0809   -8.8744   19.8961 H   0  0  0  0  0  0
  -22.3653  -10.9631   19.6149 H   0  0  0  0  0  0
  -21.2037   -7.6123   23.9684 H   0  0  0  0  0  0
  -21.1499   -6.0511   25.9073 H   0  0  0  0  0  0
  -22.0589   -2.7569   23.2860 H   0  0  0  0  0  0
  -22.4042  -11.9861   22.4853 H   0  0  0  0  0  0
  -21.1062  -13.1243   22.2712 H   0  0  0  0  0  0
  -24.6543  -15.8529   20.5059 H   0  0  0  0  0  0
  -26.2695  -15.6200   20.0663 H   0  0  0  0  0  0
  -26.7098  -32.5578   23.1181 H   0  0  0  0  0  0
  -25.0100  -33.9805   25.0515 H   0  0  0  0  0  0
  -22.6948  -31.3024   21.4097 H   0  0  0  0  0  0
  -23.3754  -35.9653   23.3305 H   0  0  0  0  0  0
  -24.3580  -36.8913   22.2039 H   0  0  0  0  0  0
  -23.7242  -37.6535   23.6623 H   0  0  0  0  0  0
  -26.0541  -31.6040   20.6073 H   0  0  0  0  0  0
  -26.8297  -30.8845   21.9913 H   0  0  0  0  0  0
  -28.1118  -29.0847   21.1477 H   0  0  0  0  0  0
  -25.9948  -26.0166   18.9312 H   0  0  0  0  0  0
  -23.9743  -27.3304   19.0202 H   0  0  0  0  0  0
  -23.7587  -30.6104   19.4129 H   0  0  0  0  0  0
  -22.7518  -29.2558   19.8502 H   0  0  0  0  0  0
  -25.1292  -36.1997   25.0835 H   0  0  0  0  0  0
  -20.9984  -28.3026   24.1349 H   0  0  0  0  0  0
  -21.6554  -26.7673   22.0511 H   0  0  0  0  0  0
  -20.6120  -26.2161   23.3193 H   0  0  0  0  0  0
  -19.6060  -27.3290   20.6764 H   0  0  0  0  0  0
  -19.6714  -25.6354   21.1093 H   0  0  0  0  0  0
  -17.3912  -26.5886   21.4992 H   0  0  0  0  0  0
  -18.1024  -26.0044   22.9821 H   0  0  0  0  0  0
  -19.7946  -30.7386   24.2010 H   0  0  0  0  0  0
  -17.5005  -31.6367   24.4822 H   0  0  0  0  0  0
  -15.5341  -30.2963   23.7495 H   0  0  0  0  0  0
  -15.8684  -28.0573   22.7351 H   0  0  0  0  0  0
  -24.5983  -30.6972   25.7802 H   0  0  0  0  0  0
  -24.8838  -32.2838   26.4847 H   0  0  0  0  0  0
  -25.8108  -30.8957   27.0245 H   0  0  0  0  0  0
  -26.2786  -29.6843   24.1151 H   0  0  0  0  0  0
  -27.4010  -29.7281   25.4557 H   0  0  0  0  0  0
  -27.8657  -30.4345   23.9242 H   0  0  0  0  0  0
  -27.2746  -33.3622   26.2074 H   0  0  0  0  0  0
  -28.3917  -32.6807   25.0326 H   0  0  0  0  0  0
  -28.0694  -31.8385   26.5409 H   0  0  0  0  0  0
  -28.2625  -38.0098   24.7509 H   0  0  0  0  0  0
  -28.1068  -36.2633   24.6306 H   0  0  0  0  0  0
  -27.2299  -37.1490   25.8865 H   0  0  0  0  0  0
  -20.9307  -29.9101   21.7271 H   0  0  0  0  0  0
  -26.0191  -38.2902   24.1413 H   0  0  0  0  0  0
  -27.2554  -18.9927   17.6076 H   0  0  0  0  0  0
  -27.5335  -21.1432   18.6553 H   0  0  0  0  0  0
  -27.5276  -15.3711   16.7576 H   0  0  0  0  0  0
  -26.6999  -16.9880   17.0735 H   0  0  0  0  0  0
  -29.3553  -15.9251   18.1231 H   0  0  0  0  0  0
  -27.5158  -24.9091   19.2826 H   0  0  0  0  0  0
  -28.9654  -25.4986   18.5084 H   0  0  0  0  0  0
  -28.6490  -22.8552   18.7974 H   0  0  0  0  0  0
  -30.3836  -22.9786   19.0055 H   0  0  0  0  0  0
  -29.0449  -15.6537   20.5043 H   0  0  0  0  0  0
  1 25  1  0  0  0
  1 30  2  0  0  0
  1 83  1  0  0  0
  2  3  1  0  0  0
  2 25  1  0  0  0
  2 88  1  0  0  0
  2 89  1  0  0  0
  3  4  1  0  0  0
  3 90  1  0  0  0
  3 91  1  0  0  0
  4  5  1  0  0  0
  4 92  1  0  0  0
  4 93  1  0  0  0
  5  6  1  0  0  0
  5 26  1  0  0  0
  5 94  1  0  0  0
  6 25  1  0  0  0
  6 95  1  0  0  0
  6 96  1  0  0  0
  7  8  2  0  0  0
  7 26  1  0  0  0
  7 29  1  0  0  0
  8  9  1  0  0  0
  8 22  1  0  0  0
  9 10  1  0  0  0
  9 27  2  0  0  0
 10 11  2  0  0  0
 10 15  1  0  0  0
 11 12  1  0  0  0
 11 97  1  0  0  0
 12 13  2  0  0  0
 12 98  1  0  0  0
 13 14  1  0  0  0
 13 31  1  0  0  0
 14 15  2  0  0  0
 14 99  1  0  0  0
 15100  1  0  0  0
 16 17  2  0  0  0
 16 21  1  0  0  0
 16 31  1  0  0  0
 17 18  1  0  0  0
 17101  1  0  0  0
 18 19  2  0  0  0
 18102  1  0  0  0
 19 20  1  0  0  0
 19 24  1  0  0  0
 20 21  2  0  0  0
 20103  1  0  0  0
 21 23  1  0  0  0
 22 28  1  0  0  0
 22 32  2  0  0  0
 26 27  1  0  0  0
 28104  1  0  0  0
 28105  1  0  0  0
 29106  1  0  0  0
 29107  1  0  0  0
 33 34  1  0  0  0
 33 66  1  0  0  0
 33 70  2  0  0  0
 34 36  1  0  0  0
 34 59  1  0  0  0
 34108  1  0  0  0
 35 44  2  0  0  0
 35 45  1  0  0  0
 35 68  1  0  0  0
 36 56  1  0  0  0
 36109  1  0  0  0
 37 39  1  0  0  0
 37 47  1  0  0  0
 37 66  1  0  0  0
 37110  1  0  0  0
 38 43  2  0  0  0
 38 46  1  0  0  0
 38 47  1  0  0  0
 39 64  1  0  0  0
 39 67  2  0  0  0
 40 52  1  0  0  0
 40 53  2  0  0  0
 40 58  1  0  0  0
 41111  1  0  0  0
 41112  1  0  0  0
 41113  1  0  0  0
 41 48  1  0  0  0
 42 43  1  0  0  0
 42 66  1  0  0  0
 42114  1  0  0  0
 42115  1  0  0  0
 43 44  1  0  0  0
 44116  1  0  0  0
 45 46  2  0  0  0
 45117  1  0  0  0
 46118  1  0  0  0
 47119  1  0  0  0
 47120  1  0  0  0
 48 56  1  0  0  0
 48 65  1  0  0  0
 48121  1  0  0  0
 49 50  1  0  0  0
 49 53  1  0  0  0
 49 64  1  0  0  0
 49122  1  0  0  0
 50 51  1  0  0  0
 50123  1  0  0  0
 50124  1  0  0  0
 51 52  1  0  0  0
 51125  1  0  0  0
 51126  1  0  0  0
 52127  1  0  0  0
 52128  1  0  0  0
 53 54  1  0  0  0
 54 55  2  0  0  0
 54129  1  0  0  0
 55 57  1  0  0  0
 55130  1  0  0  0
 56 69  2  0  0  0
 57 58  2  0  0  0
 57131  1  0  0  0
 58132  1  0  0  0
 59 60  1  0  0  0
 59 61  1  0  0  0
 59 62  1  0  0  0
 60133  1  0  0  0
 60134  1  0  0  0
 60135  1  0  0  0
 61136  1  0  0  0
 61137  1  0  0  0
 61138  1  0  0  0
 62139  1  0  0  0
 62140  1  0  0  0
 62141  1  0  0  0
 63 65  1  0  0  0
 63142  1  0  0  0
 63143  1  0  0  0
 63144  1  0  0  0
 64145  1  0  0  0
 65146  1  0  0  0
 68 81  1  0  0  0
 71 72  2  0  0  0
 71 73  1  0  0  0
 71147  1  0  0  0
 72 75  1  0  0  0
 72148  1  0  0  0
 73 74  2  0  0  0
 73 78  1  0  0  0
 74 76  1  0  0  0
 74 79  1  0  0  0
 75 76  2  0  0  0
 75 86  1  0  0  0
 76 87  1  0  0  0
 77 78  2  0  0  0
 77149  1  0  0  0
 77150  1  0  0  0
 78151  1  0  0  0
 79 83  1  0  0  0
 79 84  2  0  0  0
 80 81  1  0  0  0
 80 82  1  0  0  0
 80 85  2  0  0  0
 81152  1  0  0  0
 81153  1  0  0  0
 82 86  1  0  0  0
 82154  1  0  0  0
 82155  1  0  0  0
 83156  1  0  0  0
M  ISO  4   1 100  68 101  81 101  83 100
M  END
> <chiral flag>
0

> <version>
0

> <s_m_source_file>
/data/baiqing/PycharmProjects/Reinvent-master-3.2/result/LINK_invent/BTK/process_docking_weight1_custom_product_contain_oxygen_bond_distance_aromatic_linkinvent_7_9_3/rearranged_h_0114.sdf

> <i_m_source_file_index>
18

> <r_mmod_Potential_Energy-OPLS-2005>
29.5199298858643

> <r_mmod_Stretch_Energy-OPLS-2005>
53.2544174194336

> <r_mmod_Bend_Energy-OPLS-2005>
118.940437316895

> <r_mmod_Torsional_Energy-OPLS-2005>
246.75163269043

> <r_mmod_Improper_Torsional_Energy-OPLS-2005>
9.10155391693115

> <r_mmod_Van_der_Waal_Energy-OPLS-2005>
170.917175292969

> <r_mmod_Electrostatic_Energy-OPLS-2005>
-337.667083740234

> <r_mmod_Solvation_Energy-OPLS-2005>
-266.077758789062

> <b_mmod_Minimization_Converged-OPLS-2005>
0

> <r_mmod_RMS_Derivative-OPLS-2005>
5.80602216720581

$$$$
18
                    3D
 Structure written by MMmdl.
156164  0  0  1  0            999 V2000
  -30.7338  -14.5425   20.5316 C   0  0  0  0  0  0
  -30.4058  -12.3504   19.4309 C   0  0  0  0  0  0
  -29.4852  -12.4962   18.2054 C   0  0  0  0  0  0
  -28.0115  -12.3498   18.6270 C   0  0  0  0  0  0
  -27.6461  -13.2233   19.8576 C   0  0  2  0  0  0
  -28.6971  -13.1013   20.9827 C   0  0  0  0  0  0
  -25.2520  -13.8157   20.5693 C   0  0  0  0  0  0
  -24.1805  -13.0424   20.9219 C   0  0  0  0  0  0
  -24.6391  -11.6902   20.8775 C   0  0  0  0  0  0
  -23.9066  -10.4286   21.0430 C   0  0  0  0  0  0
  -24.3616   -9.4197   21.9206 C   0  0  0  0  0  0
  -23.6287   -8.2237   22.0766 C   0  0  0  0  0  0
  -22.4272   -8.0281   21.3549 C   0  0  0  0  0  0
  -21.9911   -9.0254   20.4653 C   0  0  0  0  0  0
  -22.7244  -10.2134   20.3070 C   0  0  0  0  0  0
  -21.6850   -6.0732   22.5277 C   0  0  0  0  0  0
  -21.4009   -6.5636   23.8207 C   0  0  0  0  0  0
  -21.3663   -5.6792   24.9173 C   0  0  0  0  0  0
  -21.6049   -4.3055   24.7228 C   0  0  0  0  0  0
  -21.8818   -3.8144   23.4346 C   0  0  0  0  0  0
  -21.9188   -4.6959   22.3402 C   0  0  0  0  0  0
  -22.7832  -13.5222   21.1863 C   0  0  0  0  0  0
  -22.1658   -4.2146   21.0980 F   0  0  0  0  0  0
  -21.5633   -3.4538   25.7740 F   0  0  0  0  0  0
  -30.0089  -13.3938   20.3932 N   0  0  0  0  0  0
  -26.2959  -12.9369   20.3336 N   0  0  0  0  0  0
  -25.9323  -11.6520   20.5798 N   0  0  0  0  0  0
  -22.0460  -12.8218   22.0409 N   0  0  0  0  0  0
  -25.4199  -15.1860   20.4040 N   0  0  0  0  0  0
  -31.9144  -14.5779   20.1756 O   0  0  0  0  0  0
  -21.6637   -6.8875   21.4238 O   0  0  0  0  0  0
  -22.3534  -14.5536   20.6709 O   0  0  0  0  0  0
  -24.6187  -31.8653   23.2079 C   0  0  0  0  0  0
  -25.9066  -32.4807   23.8389 C   0  0  1  0  0  0
  -27.2311  -27.3960   20.0914 C   0  0  0  0  0  0
  -25.5922  -33.8612   24.2306 N   0  0  0  0  0  0
  -23.4084  -30.4891   21.5495 C   0  0  2  0  0  0
  -24.8548  -28.9537   20.1113 C   0  0  0  0  0  0
  -22.7421  -29.4649   22.4970 C   0  0  0  0  0  0
  -18.0278  -28.1371   22.8485 C   0  0  0  0  0  0
  -24.1492  -36.7314   23.2636 C   0  0  0  0  0  0
  -25.9425  -30.8179   21.3678 C   0  0  0  0  0  0
  -26.0198  -29.4520   20.7087 C   0  0  0  0  0  0
  -27.2104  -28.6797   20.6975 C   0  0  0  0  0  0
  -26.0389  -26.9192   19.4992 C   0  0  0  0  0  0
  -24.8607  -27.6871   19.5053 C   0  0  0  0  0  0
  -23.6178  -29.8231   20.1639 C   0  0  0  0  0  0
  -25.4115  -36.3106   24.0323 C   0  0  1  0  0  0
  -20.5865  -28.3675   23.1299 C   0  0  2  0  0  0
  -20.6768  -26.9407   22.5407 C   0  0  0  0  0  0
  -19.5750  -26.6381   21.5206 C   0  0  0  0  0  0
  -18.1926  -26.7922   22.1614 C   0  0  0  0  0  0
  -19.1522  -28.8842   23.2893 C   0  0  0  0  0  0
  -18.9455  -30.1446   23.8906 C   0  0  0  0  0  0
  -17.6457  -30.6587   24.0561 C   0  0  0  0  0  0
  -25.9044  -34.9469   23.5107 C   0  0  0  0  0  0
  -16.5350  -29.9079   23.6333 C   0  0  0  0  0  0
  -16.7265  -28.6494   23.0357 C   0  0  0  0  0  0
  -26.4477  -31.6613   25.0744 C   0  0  0  0  0  0
  -25.3725  -31.3731   26.1488 C   0  0  0  0  0  0
  -27.0319  -30.3050   24.6163 C   0  0  0  0  0  0
  -27.6053  -32.4344   25.7507 C   0  0  0  0  0  0
  -27.5577  -37.1811   24.8456 C   0  0  0  0  0  0
  -21.4145  -29.3042   22.3707 N   0  0  0  0  0  0
  -26.4296  -37.3797   23.9395 N   0  0  0  0  0  0
  -24.6751  -31.0713   22.1002 N   0  0  0  0  0  0
  -23.4171  -28.8187   23.3028 O   0  0  0  0  0  0
  -28.3606  -26.5895   20.1410 O   0  0  0  0  0  0
  -26.5602  -34.8916   22.4666 O   0  0  0  0  0  0
  -23.5367  -32.1442   23.7436 O   0  0  0  0  0  0
  -28.6046  -18.4139   20.8740 C   0  0  0  0  0  0
  -30.2565  -20.6403   20.4548 C   0  0  0  0  0  0
  -28.0280  -19.7064   20.6778 C   0  0  0  0  0  0
  -30.0059  -18.2121   20.8811 C   0  0  0  0  0  0
  -28.8595  -20.8500   20.4672 C   0  0  0  0  0  0
  -30.8181  -19.3568   20.6519 C   0  0  0  0  0  0
  -25.6689  -18.8727   20.4018 C   0  0  0  0  0  0
  -26.5559  -19.8498   20.6560 C   0  0  0  0  0  0
  -28.8426  -24.3600   19.2060 C   0  0  0  0  0  0
  -28.5810  -25.6916   19.1136 C   0  0  0  0  0  0
  -30.6526  -16.8626   21.2011 C   0  0  0  0  0  0
  -28.9541  -23.4403   20.4273 C   0  0  0  0  0  0
  -28.2846  -22.1345   20.2402 N   0  0  0  0  0  0
  -30.0614  -15.6909   20.8301 N   0  0  0  0  0  0
  -31.7397  -16.8761   21.7928 O   0  0  0  0  0  0
  -32.1696  -19.2535   20.6077 F   0  0  0  0  0  0
  -31.4517  -12.4209   19.1259 H   0  0  0  0  0  0
  -30.2940  -11.3619   19.8797 H   0  0  0  0  0  0
  -29.7343  -11.7468   17.4534 H   0  0  0  0  0  0
  -29.6403  -13.4678   17.7337 H   0  0  0  0  0  0
  -27.8412  -11.2973   18.8570 H   0  0  0  0  0  0
  -27.3537  -12.5880   17.7897 H   0  0  0  0  0  0
  -27.6569  -14.2566   19.5116 H   0  0  0  0  0  0
  -28.6946  -12.0966   21.4071 H   0  0  0  0  0  0
  -28.4673  -13.7800   21.8053 H   0  0  0  0  0  0
  -25.2757   -9.5670   22.4787 H   0  0  0  0  0  0
  -23.9988   -7.4625   22.7487 H   0  0  0  0  0  0
  -21.0841   -8.8779   19.8957 H   0  0  0  0  0  0
  -22.3707  -10.9678   19.6183 H   0  0  0  0  0  0
  -21.1999   -7.6145   23.9709 H   0  0  0  0  0  0
  -21.1488   -6.0526   25.9076 H   0  0  0  0  0  0
  -22.0594   -2.7608   23.2849 H   0  0  0  0  0  0
  -22.4059  -11.9869   22.4795 H   0  0  0  0  0  0
  -21.1091  -13.1275   22.2623 H   0  0  0  0  0  0
  -24.6389  -15.8280   20.4816 H   0  0  0  0  0  0
  -26.2456  -15.6081   20.0025 H   0  0  0  0  0  0
  -26.7128  -32.5492   23.1137 H   0  0  0  0  0  0
  -25.0090  -33.9791   25.0463 H   0  0  0  0  0  0
  -22.7007  -31.3090   21.4072 H   0  0  0  0  0  0
  -23.3756  -35.9648   23.3306 H   0  0  0  0  0  0
  -24.3583  -36.8936   22.2052 H   0  0  0  0  0  0
  -23.7247  -37.6514   23.6659 H   0  0  0  0  0  0
  -26.0625  -31.5846   20.6015 H   0  0  0  0  0  0
  -26.8280  -30.8676   21.9901 H   0  0  0  0  0  0
  -28.1075  -29.0540   21.1709 H   0  0  0  0  0  0
  -26.0028  -25.9360   19.0521 H   0  0  0  0  0  0
  -23.9606  -27.2910   19.0561 H   0  0  0  0  0  0
  -23.7245  -30.5989   19.4046 H   0  0  0  0  0  0
  -22.7409  -29.2431   19.8687 H   0  0  0  0  0  0
  -25.1285  -36.1972   25.0814 H   0  0  0  0  0  0
  -20.9962  -28.3253   24.1421 H   0  0  0  0  0  0
  -20.5673  -26.2287   23.3598 H   0  0  0  0  0  0
  -21.6636  -26.7445   22.1192 H   0  0  0  0  0  0
  -19.6921  -25.6292   21.1237 H   0  0  0  0  0  0
  -19.6695  -27.3190   20.6733 H   0  0  0  0  0  0
  -17.4190  -26.6679   21.4016 H   0  0  0  0  0  0
  -18.0336  -26.0049   22.8994 H   0  0  0  0  0  0
  -19.7930  -30.7258   24.2288 H   0  0  0  0  0  0
  -17.5009  -31.6269   24.5157 H   0  0  0  0  0  0
  -15.5347  -30.2982   23.7667 H   0  0  0  0  0  0
  -15.8660  -28.0813   22.7081 H   0  0  0  0  0  0
  -24.5887  -30.7098   25.7810 H   0  0  0  0  0  0
  -24.8929  -32.2889   26.4949 H   0  0  0  0  0  0
  -25.8058  -30.8875   27.0242 H   0  0  0  0  0  0
  -26.2878  -29.6817   24.1190 H   0  0  0  0  0  0
  -27.4036  -29.7298   25.4654 H   0  0  0  0  0  0
  -27.8735  -30.4356   23.9360 H   0  0  0  0  0  0
  -27.2669  -33.3638   26.2098 H   0  0  0  0  0  0
  -28.3850  -32.6925   25.0329 H   0  0  0  0  0  0
  -28.0738  -31.8469   26.5414 H   0  0  0  0  0  0
  -28.2589  -38.0114   24.7510 H   0  0  0  0  0  0
  -28.1074  -36.2644   24.6265 H   0  0  0  0  0  0
  -27.2288  -37.1439   25.8857 H   0  0  0  0  0  0
  -20.9315  -29.8778   21.6933 H   0  0  0  0  0  0
  -26.0183  -38.2869   24.1411 H   0  0  0  0  0  0
  -27.9643  -17.5662   21.0612 H   0  0  0  0  0  0
  -30.9373  -21.4571   20.2752 H   0  0  0  0  0  0
  -24.6068  -19.0724   20.4280 H   0  0  0  0  0  0
  -25.9730  -17.8668   20.1587 H   0  0  0  0  0  0
  -26.1582  -20.8265   20.8903 H   0  0  0  0  0  0
  -29.0154  -23.8496   18.2680 H   0  0  0  0  0  0
  -28.5332  -26.1856   18.1524 H   0  0  0  0  0  0
  -28.5125  -23.9468   21.2870 H   0  0  0  0  0  0
  -30.0096  -23.3156   20.6637 H   0  0  0  0  0  0
  -27.2707  -22.1665   20.1775 H   0  0  0  0  0  0
  -29.0690  -15.6941   20.6779 H   0  0  0  0  0  0
  1 25  1  0  0  0
  1 30  2  0  0  0
  1 84  1  0  0  0
  2  3  1  0  0  0
  2 25  1  0  0  0
  2 87  1  0  0  0
  2 88  1  0  0  0
  3  4  1  0  0  0
  3 89  1  0  0  0
  3 90  1  0  0  0
  4  5  1  0  0  0
  4 91  1  0  0  0
  4 92  1  0  0  0
  5  6  1  0  0  0
  5 26  1  0  0  0
  5 93  1  0  0  0
  6 25  1  0  0  0
  6 94  1  0  0  0
  6 95  1  0  0  0
  7  8  2  0  0  0
  7 26  1  0  0  0
  7 29  1  0  0  0
  8  9  1  0  0  0
  8 22  1  0  0  0
  9 10  1  0  0  0
  9 27  2  0  0  0
 10 11  2  0  0  0
 10 15  1  0  0  0
 11 12  1  0  0  0
 11 96  1  0  0  0
 12 13  2  0  0  0
 12 97  1  0  0  0
 13 14  1  0  0  0
 13 31  1  0  0  0
 14 15  2  0  0  0
 14 98  1  0  0  0
 15 99  1  0  0  0
 16 17  2  0  0  0
 16 21  1  0  0  0
 16 31  1  0  0  0
 17 18  1  0  0  0
 17100  1  0  0  0
 18 19  2  0  0  0
 18101  1  0  0  0
 19 20  1  0  0  0
 19 24  1  0  0  0
 20 21  2  0  0  0
 20102  1  0  0  0
 21 23  1  0  0  0
 22 28  1  0  0  0
 22 32  2  0  0  0
 26 27  1  0  0  0
 28103  1  0  0  0
 28104  1  0  0  0
 29105  1  0  0  0
 29106  1  0  0  0
 33 34  1  0  0  0
 33 66  1  0  0  0
 33 70  2  0  0  0
 34 36  1  0  0  0
 34 59  1  0  0  0
 34107  1  0  0  0
 35 44  2  0  0  0
 35 45  1  0  0  0
 35 68  1  0  0  0
 36 56  1  0  0  0
 36108  1  0  0  0
 37 39  1  0  0  0
 37 47  1  0  0  0
 37 66  1  0  0  0
 37109  1  0  0  0
 38 43  2  0  0  0
 38 46  1  0  0  0
 38 47  1  0  0  0
 39 64  1  0  0  0
 39 67  2  0  0  0
 40 52  1  0  0  0
 40 53  2  0  0  0
 40 58  1  0  0  0
 41110  1  0  0  0
 41111  1  0  0  0
 41112  1  0  0  0
 41 48  1  0  0  0
 42 43  1  0  0  0
 42 66  1  0  0  0
 42113  1  0  0  0
 42114  1  0  0  0
 43 44  1  0  0  0
 44115  1  0  0  0
 45 46  2  0  0  0
 45116  1  0  0  0
 46117  1  0  0  0
 47118  1  0  0  0
 47119  1  0  0  0
 48 56  1  0  0  0
 48 65  1  0  0  0
 48120  1  0  0  0
 49 50  1  0  0  0
 49 53  1  0  0  0
 49 64  1  0  0  0
 49121  1  0  0  0
 50 51  1  0  0  0
 50122  1  0  0  0
 50123  1  0  0  0
 51 52  1  0  0  0
 51124  1  0  0  0
 51125  1  0  0  0
 52126  1  0  0  0
 52127  1  0  0  0
 53 54  1  0  0  0
 54 55  2  0  0  0
 54128  1  0  0  0
 55 57  1  0  0  0
 55129  1  0  0  0
 56 69  2  0  0  0
 57 58  2  0  0  0
 57130  1  0  0  0
 58131  1  0  0  0
 59 60  1  0  0  0
 59 61  1  0  0  0
 59 62  1  0  0  0
 60132  1  0  0  0
 60133  1  0  0  0
 60134  1  0  0  0
 61135  1  0  0  0
 61136  1  0  0  0
 61137  1  0  0  0
 62138  1  0  0  0
 62139  1  0  0  0
 62140  1  0  0  0
 63 65  1  0  0  0
 63141  1  0  0  0
 63142  1  0  0  0
 63143  1  0  0  0
 64144  1  0  0  0
 65145  1  0  0  0
 68 80  1  0  0  0
 71 73  2  0  0  0
 71 74  1  0  0  0
 71146  1  0  0  0
 72 75  2  0  0  0
 72 76  1  0  0  0
 72147  1  0  0  0
 73 75  1  0  0  0
 73 78  1  0  0  0
 74 76  2  0  0  0
 74 81  1  0  0  0
 75 83  1  0  0  0
 76 86  1  0  0  0
 77 78  2  0  0  0
 77148  1  0  0  0
 77149  1  0  0  0
 78150  1  0  0  0
 79 80  2  0  0  0
 79 82  1  0  0  0
 79151  1  0  0  0
 80152  1  0  0  0
 81 84  1  0  0  0
 81 85  2  0  0  0
 82 83  1  0  0  0
 82153  1  0  0  0
 82154  1  0  0  0
 83155  1  0  0  0
 84156  1  0  0  0
M  ISO  4   1 100  68 101  80 101  84 100
M  END
> <chiral flag>
0

> <version>
0

> <s_m_source_file>
/data/baiqing/PycharmProjects/Reinvent-master-3.2/result/LINK_invent/BTK/process_docking_weight1_custom_product_contain_oxygen_bond_distance_aromatic_linkinvent_7_9_3/rearranged_h_0114.sdf

> <i_m_source_file_index>
19

> <r_mmod_Potential_Energy-OPLS-2005>
-14.8292646408081

> <r_mmod_Stretch_Energy-OPLS-2005>
50.3916435241699

> <r_mmod_Bend_Energy-OPLS-2005>
127.867454528809

> <r_mmod_Torsional_Energy-OPLS-2005>
235.993560791016

> <r_mmod_Improper_Torsional_Energy-OPLS-2005>
7.04115581512451

> <r_mmod_Van_der_Waal_Energy-OPLS-2005>
164.199783325195

> <r_mmod_Electrostatic_Energy-OPLS-2005>
-400.942169189453

> <r_mmod_Solvation_Energy-OPLS-2005>
-229.849380493164

> <b_mmod_Minimization_Converged-OPLS-2005>
0

> <r_mmod_RMS_Derivative-OPLS-2005>
1.34285306930542

$$$$
19
                    3D
 Structure written by MMmdl.
158166  0  0  1  0            999 V2000
  -30.6405  -14.8458   20.4679 C   0  0  0  0  0  0
  -30.4351  -12.5268   19.5023 C   0  0  0  0  0  0
  -29.5192  -12.5115   18.2609 C   0  0  0  0  0  0
  -28.0479  -12.3177   18.6734 C   0  0  0  0  0  0
  -27.6343  -13.2402   19.8539 C   0  0  2  0  0  0
  -28.6767  -13.2808   20.9956 C   0  0  0  0  0  0
  -25.2519  -13.8047   20.6260 C   0  0  0  0  0  0
  -24.1753  -13.0266   20.9350 C   0  0  0  0  0  0
  -24.6409  -11.6855   20.8695 C   0  0  0  0  0  0
  -23.9130  -10.4245   21.0354 C   0  0  0  0  0  0
  -24.3684   -9.4189   21.9147 C   0  0  0  0  0  0
  -23.6331   -8.2251   22.0734 C   0  0  0  0  0  0
  -22.4284   -8.0323   21.3553 C   0  0  0  0  0  0
  -21.9963   -9.0298   20.4625 C   0  0  0  0  0  0
  -22.7328  -10.2153   20.3006 C   0  0  0  0  0  0
  -21.6849   -6.0792   22.5306 C   0  0  0  0  0  0
  -21.4024   -6.5678   23.8248 C   0  0  0  0  0  0
  -21.3636   -5.6814   24.9191 C   0  0  0  0  0  0
  -21.6026   -4.3075   24.7228 C   0  0  0  0  0  0
  -21.8805   -3.8194   23.4333 C   0  0  0  0  0  0
  -21.9208   -4.7023   22.3413 C   0  0  0  0  0  0
  -22.7814  -13.5148   21.1960 C   0  0  0  0  0  0
  -22.1648   -4.2223   21.0973 F   0  0  0  0  0  0
  -21.5626   -3.4544   25.7715 F   0  0  0  0  0  0
  -29.9792  -13.6254   20.4038 N   0  0  0  0  0  0
  -26.2901  -12.9370   20.3411 N   0  0  0  0  0  0
  -25.9314  -11.6473   20.5597 N   0  0  0  0  0  0
  -22.0409  -12.8147   22.0451 N   0  0  0  0  0  0
  -25.4060  -15.1786   20.5727 N   0  0  0  0  0  0
  -31.8249  -14.8632   20.1152 O   0  0  0  0  0  0
  -21.6631   -6.8953   21.4261 O   0  0  0  0  0  0
  -22.3510  -14.5453   20.6747 O   0  0  0  0  0  0
  -24.6277  -31.8565   23.1942 C   0  0  0  0  0  0
  -25.9054  -32.4803   23.8347 C   0  0  1  0  0  0
  -27.2478  -27.2165   20.2521 C   0  0  0  0  0  0
  -25.5843  -33.8623   24.2294 N   0  0  0  0  0  0
  -23.4360  -30.4682   21.5340 C   0  0  2  0  0  0
  -24.8996  -28.8904   20.1340 C   0  0  0  0  0  0
  -22.7518  -29.4600   22.4869 C   0  0  0  0  0  0
  -18.0248  -28.1377   22.8288 C   0  0  0  0  0  0
  -24.1455  -36.7279   23.2652 C   0  0  0  0  0  0
  -25.9770  -30.7622   21.3843 C   0  0  0  0  0  0
  -26.0604  -29.3671   20.7596 C   0  0  0  0  0  0
  -27.2353  -28.5425   20.8032 C   0  0  0  0  0  0
  -26.0712  -26.8112   19.5787 C   0  0  0  0  0  0
  -24.9152  -27.6235   19.5235 C   0  0  0  0  0  0
  -23.6676  -29.7794   20.1594 C   0  0  0  0  0  0
  -25.4094  -36.3147   24.0355 C   0  0  1  0  0  0
  -20.5823  -28.3729   23.1134 C   0  0  2  0  0  0
  -20.6667  -26.9469   22.5250 C   0  0  0  0  0  0
  -19.5689  -26.6364   21.5029 C   0  0  0  0  0  0
  -18.1915  -26.7942   22.1410 C   0  0  0  0  0  0
  -19.1478  -28.8853   23.2716 C   0  0  0  0  0  0
  -18.9327  -30.1421   23.8813 C   0  0  0  0  0  0
  -17.6300  -30.6469   24.0602 C   0  0  0  0  0  0
  -25.9013  -34.9489   23.5145 C   0  0  0  0  0  0
  -16.5241  -29.8932   23.6309 C   0  0  0  0  0  0
  -16.7235  -28.6449   23.0118 C   0  0  0  0  0  0
  -26.4462  -31.6660   25.0761 C   0  0  0  0  0  0
  -25.3740  -31.3679   26.1504 C   0  0  0  0  0  0
  -27.0289  -30.3096   24.6231 C   0  0  0  0  0  0
  -27.6041  -32.4400   25.7495 C   0  0  0  0  0  0
  -27.5584  -37.1825   24.8494 C   0  0  0  0  0  0
  -21.4223  -29.3105   22.3582 N   0  0  0  0  0  0
  -26.4305  -37.3826   23.9420 N   0  0  0  0  0  0
  -24.6988  -31.0492   22.0939 N   0  0  0  0  0  0
  -23.4103  -28.8147   23.3042 O   0  0  0  0  0  0
  -28.3610  -26.3312   20.2471 O   0  0  0  0  0  0
  -26.5612  -34.8994   22.4725 O   0  0  0  0  0  0
  -23.5398  -32.1349   23.7218 O   0  0  0  0  0  0
  -29.7622  -20.0062   20.9391 C   0  0  0  0  0  0
  -27.5187  -20.8172   21.2460 C   0  0  0  0  0  0
  -29.3149  -18.6193   20.6820 C   0  0  0  0  0  0
  -27.9066  -18.5031   20.4401 C   0  0  0  0  0  0
  -28.8745  -21.1655   21.1208 C   0  0  0  0  0  0
  -27.0440  -19.5499   20.8686 C   0  0  0  0  0  0
  -27.3634  -17.3940   19.6083 C   0  0  0  0  0  0
  -26.3546  -17.4470   18.7125 C   0  0  0  0  0  0
  -28.4864  -23.6280   20.8732 C   0  0  0  0  0  0
  -30.2912  -17.3864   20.4888 C   0  0  0  0  0  0
  -25.9220  -16.2681   17.8567 C   0  0  0  0  0  0
  -28.5655  -25.2085   21.2558 C   0  0  0  0  0  0
  -29.2270  -22.5897   21.2887 N   0  0  0  0  0  0
  -25.6634  -19.3757   20.9166 N   0  0  0  0  0  0
  -29.9388  -16.0369   20.7304 N   0  0  0  0  0  0
  -31.4308  -17.6839   20.1076 O   0  0  0  0  0  0
  -31.4678  -12.6506   19.1661 H   0  0  0  0  0  0
  -30.4103  -11.5741   20.0314 H   0  0  0  0  0  0
  -29.8304  -11.7250   17.5748 H   0  0  0  0  0  0
  -29.6229  -13.4514   17.7114 H   0  0  0  0  0  0
  -27.9277  -11.2719   18.9567 H   0  0  0  0  0  0
  -27.3993  -12.4783   17.8146 H   0  0  0  0  0  0
  -27.6108  -14.2381   19.4317 H   0  0  0  0  0  0
  -28.7358  -12.3328   21.5376 H   0  0  0  0  0  0
  -28.3804  -14.0338   21.7264 H   0  0  0  0  0  0
  -25.2828   -9.5705   22.4711 H   0  0  0  0  0  0
  -24.0051   -7.4667   22.7469 H   0  0  0  0  0  0
  -21.0885   -8.8860   19.8946 H   0  0  0  0  0  0
  -22.3805  -10.9710   19.6130 H   0  0  0  0  0  0
  -21.1983   -7.6179   23.9777 H   0  0  0  0  0  0
  -21.1455   -6.0519   25.9103 H   0  0  0  0  0  0
  -22.0596   -2.7656   23.2798 H   0  0  0  0  0  0
  -22.4009  -11.9866   22.4878 H   0  0  0  0  0  0
  -21.1030  -13.1243   22.2630 H   0  0  0  0  0  0
  -24.5761  -15.7565   20.5338 H   0  0  0  0  0  0
  -26.1759  -15.6062   20.0741 H   0  0  0  0  0  0
  -26.7170  -32.5506   23.1126 H   0  0  0  0  0  0
  -25.0046  -33.9744   25.0493 H   0  0  0  0  0  0
  -22.7321  -31.2871   21.3721 H   0  0  0  0  0  0
  -23.3783  -35.9554   23.3346 H   0  0  0  0  0  0
  -24.3536  -36.8851   22.2065 H   0  0  0  0  0  0
  -23.7140  -37.6475   23.6616 H   0  0  0  0  0  0
  -26.1067  -31.5030   20.5932 H   0  0  0  0  0  0
  -26.8554  -30.8328   22.0129 H   0  0  0  0  0  0
  -28.1218  -28.9084   21.2989 H   0  0  0  0  0  0
  -26.0455  -25.8414   19.0983 H   0  0  0  0  0  0
  -24.0302  -27.2595   19.0169 H   0  0  0  0  0  0
  -23.7933  -30.5378   19.3855 H   0  0  0  0  0  0
  -22.7890  -29.2030   19.8627 H   0  0  0  0  0  0
  -25.1284  -36.2046   25.0855 H   0  0  0  0  0  0
  -20.9886  -28.3260   24.1295 H   0  0  0  0  0  0
  -20.5447  -26.2416   23.3492 H   0  0  0  0  0  0
  -21.6521  -26.7443   22.1105 H   0  0  0  0  0  0
  -19.6843  -25.6185   21.1137 H   0  0  0  0  0  0
  -19.6662  -27.3186   20.6550 H   0  0  0  0  0  0
  -17.4123  -26.6750   21.3868 H   0  0  0  0  0  0
  -18.0345  -26.0135   22.8843 H   0  0  0  0  0  0
  -19.7776  -30.7280   24.2201 H   0  0  0  0  0  0
  -17.4796  -31.5999   24.5445 H   0  0  0  0  0  0
  -15.5195  -30.2678   23.7772 H   0  0  0  0  0  0
  -15.8639  -28.0780   22.6688 H   0  0  0  0  0  0
  -24.5935  -30.7005   25.7789 H   0  0  0  0  0  0
  -24.8886  -32.2777   26.5085 H   0  0  0  0  0  0
  -25.8139  -30.8775   27.0212 H   0  0  0  0  0  0
  -26.2826  -29.6886   24.1261 H   0  0  0  0  0  0
  -27.3948  -29.7344   25.4755 H   0  0  0  0  0  0
  -27.8743  -30.4357   23.9457 H   0  0  0  0  0  0
  -27.2672  -33.3695   26.2103 H   0  0  0  0  0  0
  -28.3811  -32.6997   25.0283 H   0  0  0  0  0  0
  -28.0785  -31.8547   26.5388 H   0  0  0  0  0  0
  -28.2691  -38.0049   24.7544 H   0  0  0  0  0  0
  -28.1004  -36.2606   24.6339 H   0  0  0  0  0  0
  -27.2300  -37.1516   25.8903 H   0  0  0  0  0  0
  -20.9468  -29.8905   21.6799 H   0  0  0  0  0  0
  -26.0225  -38.2928   24.1419 H   0  0  0  0  0  0
  -30.8335  -20.1821   20.9609 H   0  0  0  0  0  0
  -26.7978  -21.5573   21.5689 H   0  0  0  0  0  0
  -27.8168  -16.4309   19.7092 H   0  0  0  0  0  0
  -25.8162  -18.3664   18.5375 H   0  0  0  0  0  0
  -27.6345  -23.4461   20.2199 H   0  0  0  0  0  0
  -26.2224  -16.3884   16.8193 H   0  0  0  0  0  0
  -24.8411  -16.1147   17.9020 H   0  0  0  0  0  0
  -26.3742  -15.3494   18.1975 H   0  0  0  0  0  0
  -29.5542  -25.3580   21.6860 H   0  0  0  0  0  0
  -27.9136  -25.3797   22.1194 H   0  0  0  0  0  0
  -25.1804  -19.8493   21.6695 H   0  0  0  0  0  0
  -25.3522  -18.4156   20.8232 H   0  0  0  0  0  0
  -29.0062  -15.8946   21.0834 H   0  0  0  0  0  0
  1 25  1  0  0  0
  1 30  2  0  0  0
  1 85  1  0  0  0
  2  3  1  0  0  0
  2 25  1  0  0  0
  2 87  1  0  0  0
  2 88  1  0  0  0
  3  4  1  0  0  0
  3 89  1  0  0  0
  3 90  1  0  0  0
  4  5  1  0  0  0
  4 91  1  0  0  0
  4 92  1  0  0  0
  5  6  1  0  0  0
  5 26  1  0  0  0
  5 93  1  0  0  0
  6 25  1  0  0  0
  6 94  1  0  0  0
  6 95  1  0  0  0
  7  8  2  0  0  0
  7 26  1  0  0  0
  7 29  1  0  0  0
  8  9  1  0  0  0
  8 22  1  0  0  0
  9 10  1  0  0  0
  9 27  2  0  0  0
 10 11  2  0  0  0
 10 15  1  0  0  0
 11 12  1  0  0  0
 11 96  1  0  0  0
 12 13  2  0  0  0
 12 97  1  0  0  0
 13 14  1  0  0  0
 13 31  1  0  0  0
 14 15  2  0  0  0
 14 98  1  0  0  0
 15 99  1  0  0  0
 16 17  2  0  0  0
 16 21  1  0  0  0
 16 31  1  0  0  0
 17 18  1  0  0  0
 17100  1  0  0  0
 18 19  2  0  0  0
 18101  1  0  0  0
 19 20  1  0  0  0
 19 24  1  0  0  0
 20 21  2  0  0  0
 20102  1  0  0  0
 21 23  1  0  0  0
 22 28  1  0  0  0
 22 32  2  0  0  0
 26 27  1  0  0  0
 28103  1  0  0  0
 28104  1  0  0  0
 29105  1  0  0  0
 29106  1  0  0  0
 33 34  1  0  0  0
 33 66  1  0  0  0
 33 70  2  0  0  0
 34 36  1  0  0  0
 34 59  1  0  0  0
 34107  1  0  0  0
 35 44  2  0  0  0
 35 45  1  0  0  0
 35 68  1  0  0  0
 36 56  1  0  0  0
 36108  1  0  0  0
 37 39  1  0  0  0
 37 47  1  0  0  0
 37 66  1  0  0  0
 37109  1  0  0  0
 38 43  2  0  0  0
 38 46  1  0  0  0
 38 47  1  0  0  0
 39 64  1  0  0  0
 39 67  2  0  0  0
 40 52  1  0  0  0
 40 53  2  0  0  0
 40 58  1  0  0  0
 41110  1  0  0  0
 41111  1  0  0  0
 41112  1  0  0  0
 41 48  1  0  0  0
 42 43  1  0  0  0
 42 66  1  0  0  0
 42113  1  0  0  0
 42114  1  0  0  0
 43 44  1  0  0  0
 44115  1  0  0  0
 45 46  2  0  0  0
 45116  1  0  0  0
 46117  1  0  0  0
 47118  1  0  0  0
 47119  1  0  0  0
 48 56  1  0  0  0
 48 65  1  0  0  0
 48120  1  0  0  0
 49 50  1  0  0  0
 49 53  1  0  0  0
 49 64  1  0  0  0
 49121  1  0  0  0
 50 51  1  0  0  0
 50122  1  0  0  0
 50123  1  0  0  0
 51 52  1  0  0  0
 51124  1  0  0  0
 51125  1  0  0  0
 52126  1  0  0  0
 52127  1  0  0  0
 53 54  1  0  0  0
 54 55  2  0  0  0
 54128  1  0  0  0
 55 57  1  0  0  0
 55129  1  0  0  0
 56 69  2  0  0  0
 57 58  2  0  0  0
 57130  1  0  0  0
 58131  1  0  0  0
 59 60  1  0  0  0
 59 61  1  0  0  0
 59 62  1  0  0  0
 60132  1  0  0  0
 60133  1  0  0  0
 60134  1  0  0  0
 61135  1  0  0  0
 61136  1  0  0  0
 61137  1  0  0  0
 62138  1  0  0  0
 62139  1  0  0  0
 62140  1  0  0  0
 63 65  1  0  0  0
 63141  1  0  0  0
 63142  1  0  0  0
 63143  1  0  0  0
 64144  1  0  0  0
 65145  1  0  0  0
 68 82  1  0  0  0
 71 73  2  0  0  0
 71 75  1  0  0  0
 71146  1  0  0  0
 72 75  2  0  0  0
 72 76  1  0  0  0
 72147  1  0  0  0
 73 74  1  0  0  0
 73 80  1  0  0  0
 74 76  2  0  0  0
 74 77  1  0  0  0
 75 83  1  0  0  0
 76 84  1  0  0  0
 77 78  2  0  0  0
 77148  1  0  0  0
 78 81  1  0  0  0
 78149  1  0  0  0
 79 82  1  0  0  0
 79 83  2  0  0  0
 79150  1  0  0  0
 80 85  1  0  0  0
 80 86  2  0  0  0
 81151  1  0  0  0
 81152  1  0  0  0
 81153  1  0  0  0
 82154  1  0  0  0
 82155  1  0  0  0
 84156  1  0  0  0
 84157  1  0  0  0
 85158  1  0  0  0
M  ISO  4   1 100  68 101  82 101  85 100
M  END
> <chiral flag>
0

> <version>
0

> <s_m_source_file>
/data/baiqing/PycharmProjects/Reinvent-master-3.2/result/LINK_invent/BTK/process_docking_weight1_custom_product_contain_oxygen_bond_distance_aromatic_linkinvent_7_9_3/rearranged_h_0114.sdf

> <i_m_source_file_index>
20

> <r_mmod_Potential_Energy-OPLS-2005>
307.298126220703

> <r_mmod_Stretch_Energy-OPLS-2005>
177.515655517578

> <r_mmod_Bend_Energy-OPLS-2005>
202.174285888672

> <r_mmod_Torsional_Energy-OPLS-2005>
308.367889404297

> <r_mmod_Improper_Torsional_Energy-OPLS-2005>
13.3527173995972

> <r_mmod_Van_der_Waal_Energy-OPLS-2005>
159.031784057617

> <r_mmod_Electrostatic_Energy-OPLS-2005>
-455.564300537109

> <r_mmod_Solvation_Energy-OPLS-2005>
-227.837249755859

> <b_mmod_Minimization_Converged-OPLS-2005>
0

> <r_mmod_RMS_Derivative-OPLS-2005>
10.5955095291138

$$$$
20
                    3D
 Structure written by MMmdl.
158166  0  0  1  0            999 V2000
  -30.6190  -14.7303   20.4233 C   0  0  0  0  0  0
  -30.4133  -12.4263   19.4702 C   0  0  0  0  0  0
  -29.5005  -12.5191   18.2302 C   0  0  0  0  0  0
  -28.0236  -12.3913   18.6399 C   0  0  0  0  0  0
  -27.6508  -13.2595   19.8695 C   0  0  2  0  0  0
  -28.7006  -13.1698   21.0011 C   0  0  0  0  0  0
  -25.2517  -13.8287   20.5778 C   0  0  0  0  0  0
  -24.1851  -13.0488   20.9248 C   0  0  0  0  0  0
  -24.6440  -11.6972   20.8739 C   0  0  0  0  0  0
  -23.9095  -10.4334   21.0388 C   0  0  0  0  0  0
  -24.3620   -9.4232   21.9171 C   0  0  0  0  0  0
  -23.6309   -8.2260   22.0719 C   0  0  0  0  0  0
  -22.4275   -8.0292   21.3510 C   0  0  0  0  0  0
  -21.9930   -9.0281   20.4601 C   0  0  0  0  0  0
  -22.7268  -10.2157   20.3050 C   0  0  0  0  0  0
  -21.6878   -6.0759   22.5281 C   0  0  0  0  0  0
  -21.4061   -6.5652   23.8222 C   0  0  0  0  0  0
  -21.3679   -5.6758   24.9157 C   0  0  0  0  0  0
  -21.6061   -4.3035   24.7183 C   0  0  0  0  0  0
  -21.8800   -3.8154   23.4299 C   0  0  0  0  0  0
  -21.9184   -4.6998   22.3365 C   0  0  0  0  0  0
  -22.7841  -13.5201   21.1870 C   0  0  0  0  0  0
  -22.1670   -4.2204   21.0942 F   0  0  0  0  0  0
  -21.5608   -3.4498   25.7684 F   0  0  0  0  0  0
  -30.0055  -13.4969   20.4146 N   0  0  0  0  0  0
  -26.3000  -12.9581   20.3389 N   0  0  0  0  0  0
  -25.9380  -11.6682   20.5760 N   0  0  0  0  0  0
  -22.0501  -12.8155   22.0416 N   0  0  0  0  0  0
  -25.4025  -15.2038   20.4164 N   0  0  0  0  0  0
  -31.7809  -14.8380   20.0233 O   0  0  0  0  0  0
  -21.6624   -6.8907   21.4236 O   0  0  0  0  0  0
  -22.3534  -14.5534   20.6710 O   0  0  0  0  0  0
  -24.6373  -31.8572   23.1998 C   0  0  0  0  0  0
  -25.9204  -32.4728   23.8349 C   0  0  1  0  0  0
  -27.2203  -27.2699   20.0441 C   0  0  0  0  0  0
  -25.5988  -33.8520   24.2242 N   0  0  0  0  0  0
  -23.4268  -30.4917   21.5463 C   0  0  2  0  0  0
  -24.8609  -28.9260   20.1135 C   0  0  0  0  0  0
  -22.7521  -29.4715   22.4926 C   0  0  0  0  0  0
  -18.0302  -28.1245   22.8521 C   0  0  0  0  0  0
  -24.1482  -36.7238   23.2647 C   0  0  0  0  0  0
  -25.9800  -30.7571   21.3864 C   0  0  0  0  0  0
  -26.0411  -29.3860   20.7089 C   0  0  0  0  0  0
  -27.2204  -28.5660   20.6718 C   0  0  0  0  0  0
  -26.0070  -26.8850   19.4284 C   0  0  0  0  0  0
  -24.8394  -27.6771   19.4808 C   0  0  0  0  0  0
  -23.6377  -29.8246   20.1661 C   0  0  0  0  0  0
  -25.4115  -36.3039   24.0349 C   0  0  1  0  0  0
  -20.5924  -28.3650   23.1104 C   0  0  2  0  0  0
  -20.6882  -26.9459   22.4990 C   0  0  0  0  0  0
  -19.5626  -26.6263   21.5113 C   0  0  0  0  0  0
  -18.1983  -26.7705   22.1841 C   0  0  0  0  0  0
  -19.1566  -28.8755   23.2818 C   0  0  0  0  0  0
  -18.9475  -30.1368   23.8827 C   0  0  0  0  0  0
  -17.6470  -30.6490   24.0508 C   0  0  0  0  0  0
  -25.9075  -34.9417   23.5082 C   0  0  0  0  0  0
  -16.5362  -29.8980   23.6299 C   0  0  0  0  0  0
  -16.7274  -28.6367   23.0381 C   0  0  0  0  0  0
  -26.4510  -31.6573   25.0758 C   0  0  0  0  0  0
  -25.3701  -31.3752   26.1455 C   0  0  0  0  0  0
  -27.0379  -30.2978   24.6306 C   0  0  0  0  0  0
  -27.6057  -32.4333   25.7503 C   0  0  0  0  0  0
  -27.5565  -37.1790   24.8468 C   0  0  0  0  0  0
  -21.4225  -29.3154   22.3684 N   0  0  0  0  0  0
  -26.4264  -37.3759   23.9427 N   0  0  0  0  0  0
  -24.7011  -31.0550   22.0996 N   0  0  0  0  0  0
  -23.4227  -28.8217   23.2970 O   0  0  0  0  0  0
  -28.3426  -26.3924   20.0454 O   0  0  0  0  0  0
  -26.5637  -34.8898   22.4644 O   0  0  0  0  0  0
  -23.5500  -32.1426   23.7306 O   0  0  0  0  0  0
  -29.5286  -18.4649   20.5093 C   0  0  0  0  0  0
  -28.9302  -19.3401   18.3222 C   0  0  0  0  0  0
  -29.4316  -16.9590   18.6035 C   0  0  0  0  0  0
  -29.1905  -19.6219   19.6870 C   0  0  0  0  0  0
  -29.6777  -17.1102   19.9821 C   0  0  0  0  0  0
  -28.9967  -18.0249   17.7841 C   0  0  0  0  0  0
  -29.1013  -21.0942   20.1737 C   0  0  0  0  0  0
  -29.1835  -22.3125   19.5075 C   0  0  0  0  0  0
  -26.4051  -18.2045   15.6538 C   0  0  0  0  0  0
  -29.1532  -23.7891   20.1227 C   0  0  0  0  0  0
  -27.9045  -18.5563   15.6502 C   0  0  0  0  0  0
  -28.2720  -24.9903   19.4849 C   0  0  0  0  0  0
  -29.8788  -15.8573   20.7590 N   0  0  0  0  0  0
  -28.6708  -17.6780   16.4812 O   0  0  0  0  0  0
  -31.4640  -12.4852   19.1784 H   0  0  0  0  0  0
  -30.2939  -11.4549   19.9504 H   0  0  0  0  0  0
  -29.7499  -11.7281   17.5213 H   0  0  0  0  0  0
  -29.6661  -13.4631   17.7094 H   0  0  0  0  0  0
  -27.8301  -11.3415   18.8588 H   0  0  0  0  0  0
  -27.3744  -12.6397   17.8018 H   0  0  0  0  0  0
  -27.6505  -14.2924   19.5139 H   0  0  0  0  0  0
  -28.7253  -12.1735   21.4491 H   0  0  0  0  0  0
  -28.4526  -13.8660   21.8036 H   0  0  0  0  0  0
  -25.2754   -9.5745   22.4755 H   0  0  0  0  0  0
  -24.0053   -7.4628   22.7396 H   0  0  0  0  0  0
  -21.0888   -8.8810   19.8859 H   0  0  0  0  0  0
  -22.3746  -10.9705   19.6184 H   0  0  0  0  0  0
  -21.2129   -7.6164   23.9804 H   0  0  0  0  0  0
  -21.1521   -6.0431   25.9066 H   0  0  0  0  0  0
  -22.0561   -2.7633   23.2724 H   0  0  0  0  0  0
  -22.4107  -11.9856   22.4874 H   0  0  0  0  0  0
  -21.1121  -13.1141   22.2632 H   0  0  0  0  0  0
  -24.6215  -15.8362   20.5493 H   0  0  0  0  0  0
  -26.2096  -15.6571   20.0092 H   0  0  0  0  0  0
  -26.7305  -32.5322   23.1120 H   0  0  0  0  0  0
  -25.0124  -33.9634   25.0383 H   0  0  0  0  0  0
  -22.7202  -31.3152   21.4030 H   0  0  0  0  0  0
  -23.3743  -35.9562   23.3288 H   0  0  0  0  0  0
  -24.3545  -36.8849   22.2050 H   0  0  0  0  0  0
  -23.7218  -37.6434   23.6660 H   0  0  0  0  0  0
  -26.1475  -31.5260   20.6293 H   0  0  0  0  0  0
  -26.8494  -30.7792   22.0300 H   0  0  0  0  0  0
  -28.1253  -28.9212   21.1407 H   0  0  0  0  0  0
  -25.9153  -25.9595   18.8850 H   0  0  0  0  0  0
  -23.9231  -27.3206   19.0305 H   0  0  0  0  0  0
  -23.7706  -30.6028   19.4101 H   0  0  0  0  0  0
  -22.7505  -29.2682   19.8619 H   0  0  0  0  0  0
  -25.1297  -36.1855   25.0842 H   0  0  0  0  0  0
  -21.0051  -28.3062   24.1196 H   0  0  0  0  0  0
  -20.6235  -26.2141   23.3040 H   0  0  0  0  0  0
  -21.6625  -26.7783   22.0390 H   0  0  0  0  0  0
  -19.6748  -25.6126   21.1187 H   0  0  0  0  0  0
  -19.6188  -27.3029   20.6553 H   0  0  0  0  0  0
  -17.4087  -26.6181   21.4473 H   0  0  0  0  0  0
  -18.0663  -25.9993   22.9439 H   0  0  0  0  0  0
  -19.7959  -30.7180   24.2163 H   0  0  0  0  0  0
  -17.5006  -31.6183   24.5086 H   0  0  0  0  0  0
  -15.5354  -30.2895   23.7589 H   0  0  0  0  0  0
  -15.8670  -28.0649   22.7145 H   0  0  0  0  0  0
  -24.5906  -30.7059   25.7785 H   0  0  0  0  0  0
  -24.8861  -32.2930   26.4809 H   0  0  0  0  0  0
  -25.8017  -30.8990   27.0266 H   0  0  0  0  0  0
  -26.3015  -29.6686   24.1278 H   0  0  0  0  0  0
  -27.3965  -29.7274   25.4872 H   0  0  0  0  0  0
  -27.8919  -30.4193   23.9642 H   0  0  0  0  0  0
  -27.2679  -33.3654   26.2022 H   0  0  0  0  0  0
  -28.3884  -32.6853   25.0343 H   0  0  0  0  0  0
  -28.0702  -31.8494   26.5444 H   0  0  0  0  0  0
  -28.2615  -38.0058   24.7539 H   0  0  0  0  0  0
  -28.1063  -36.2616   24.6301 H   0  0  0  0  0  0
  -27.2301  -37.1421   25.8874 H   0  0  0  0  0  0
  -20.9365  -29.9108   21.7132 H   0  0  0  0  0  0
  -26.0127  -38.2819   24.1432 H   0  0  0  0  0  0
  -29.6540  -18.6276   21.5740 H   0  0  0  0  0  0
  -28.6609  -20.1739   17.6983 H   0  0  0  0  0  0
  -29.5085  -15.9730   18.1655 H   0  0  0  0  0  0
  -28.9192  -21.1742   21.2336 H   0  0  0  0  0  0
  -29.3623  -22.2924   18.4371 H   0  0  0  0  0  0
  -25.8588  -18.8410   14.9562 H   0  0  0  0  0  0
  -25.9589  -18.3559   16.6374 H   0  0  0  0  0  0
  -26.2142  -17.1726   15.3512 H   0  0  0  0  0  0
  -30.1978  -24.1074   20.1178 H   0  0  0  0  0  0
  -28.8753  -23.7028   21.1721 H   0  0  0  0  0  0
  -28.0300  -19.6068   15.8844 H   0  0  0  0  0  0
  -28.2880  -18.4497   14.6362 H   0  0  0  0  0  0
  -28.5188  -25.0665   18.4211 H   0  0  0  0  0  0
  -27.2547  -24.6139   19.5302 H   0  0  0  0  0  0
  -29.1170  -15.6488   21.3871 H   0  0  0  0  0  0
  1 25  1  0  0  0
  1 30  2  0  0  0
  1 83  1  0  0  0
  2  3  1  0  0  0
  2 25  1  0  0  0
  2 85  1  0  0  0
  2 86  1  0  0  0
  3  4  1  0  0  0
  3 87  1  0  0  0
  3 88  1  0  0  0
  4  5  1  0  0  0
  4 89  1  0  0  0
  4 90  1  0  0  0
  5  6  1  0  0  0
  5 26  1  0  0  0
  5 91  1  0  0  0
  6 25  1  0  0  0
  6 92  1  0  0  0
  6 93  1  0  0  0
  7  8  2  0  0  0
  7 26  1  0  0  0
  7 29  1  0  0  0
  8  9  1  0  0  0
  8 22  1  0  0  0
  9 10  1  0  0  0
  9 27  2  0  0  0
 10 11  2  0  0  0
 10 15  1  0  0  0
 11 12  1  0  0  0
 11 94  1  0  0  0
 12 13  2  0  0  0
 12 95  1  0  0  0
 13 14  1  0  0  0
 13 31  1  0  0  0
 14 15  2  0  0  0
 14 96  1  0  0  0
 15 97  1  0  0  0
 16 17  2  0  0  0
 16 21  1  0  0  0
 16 31  1  0  0  0
 17 18  1  0  0  0
 17 98  1  0  0  0
 18 19  2  0  0  0
 18 99  1  0  0  0
 19 20  1  0  0  0
 19 24  1  0  0  0
 20 21  2  0  0  0
 20100  1  0  0  0
 21 23  1  0  0  0
 22 28  1  0  0  0
 22 32  2  0  0  0
 26 27  1  0  0  0
 28101  1  0  0  0
 28102  1  0  0  0
 29103  1  0  0  0
 29104  1  0  0  0
 33 34  1  0  0  0
 33 66  1  0  0  0
 33 70  2  0  0  0
 34 36  1  0  0  0
 34 59  1  0  0  0
 34105  1  0  0  0
 35 44  2  0  0  0
 35 45  1  0  0  0
 35 68  1  0  0  0
 36 56  1  0  0  0
 36106  1  0  0  0
 37 39  1  0  0  0
 37 47  1  0  0  0
 37 66  1  0  0  0
 37107  1  0  0  0
 38 43  2  0  0  0
 38 46  1  0  0  0
 38 47  1  0  0  0
 39 64  1  0  0  0
 39 67  2  0  0  0
 40 52  1  0  0  0
 40 53  2  0  0  0
 40 58  1  0  0  0
 41108  1  0  0  0
 41109  1  0  0  0
 41110  1  0  0  0
 41 48  1  0  0  0
 42 43  1  0  0  0
 42 66  1  0  0  0
 42111  1  0  0  0
 42112  1  0  0  0
 43 44  1  0  0  0
 44113  1  0  0  0
 45 46  2  0  0  0
 45114  1  0  0  0
 46115  1  0  0  0
 47116  1  0  0  0
 47117  1  0  0  0
 48 56  1  0  0  0
 48 65  1  0  0  0
 48118  1  0  0  0
 49 50  1  0  0  0
 49 53  1  0  0  0
 49 64  1  0  0  0
 49119  1  0  0  0
 50 51  1  0  0  0
 50120  1  0  0  0
 50121  1  0  0  0
 51 52  1  0  0  0
 51122  1  0  0  0
 51123  1  0  0  0
 52124  1  0  0  0
 52125  1  0  0  0
 53 54  1  0  0  0
 54 55  2  0  0  0
 54126  1  0  0  0
 55 57  1  0  0  0
 55127  1  0  0  0
 56 69  2  0  0  0
 57 58  2  0  0  0
 57128  1  0  0  0
 58129  1  0  0  0
 59 60  1  0  0  0
 59 61  1  0  0  0
 59 62  1  0  0  0
 60130  1  0  0  0
 60131  1  0  0  0
 60132  1  0  0  0
 61133  1  0  0  0
 61134  1  0  0  0
 61135  1  0  0  0
 62136  1  0  0  0
 62137  1  0  0  0
 62138  1  0  0  0
 63 65  1  0  0  0
 63139  1  0  0  0
 63140  1  0  0  0
 63141  1  0  0  0
 64142  1  0  0  0
 65143  1  0  0  0
 68 82  1  0  0  0
 71 74  2  0  0  0
 71 75  1  0  0  0
 71144  1  0  0  0
 72 74  1  0  0  0
 72 76  2  0  0  0
 72145  1  0  0  0
 73 75  2  0  0  0
 73 76  1  0  0  0
 73146  1  0  0  0
 74 77  1  0  0  0
 75 83  1  0  0  0
 76 84  1  0  0  0
 77 78  2  0  0  0
 77147  1  0  0  0
 78 80  1  0  0  0
 78148  1  0  0  0
 79 81  1  0  0  0
 79149  1  0  0  0
 79150  1  0  0  0
 79151  1  0  0  0
 80 82  1  0  0  0
 80152  1  0  0  0
 80153  1  0  0  0
 81 84  1  0  0  0
 81154  1  0  0  0
 81155  1  0  0  0
 82156  1  0  0  0
 82157  1  0  0  0
 83158  1  0  0  0
M  ISO  4   1 100  68 101  82 101  83 100
M  END
> <chiral flag>
0

> <version>
0

> <s_m_source_file>
/data/baiqing/PycharmProjects/Reinvent-master-3.2/result/LINK_invent/BTK/process_docking_weight1_custom_product_contain_oxygen_bond_distance_aromatic_linkinvent_7_9_3/rearranged_h_0114.sdf

> <i_m_source_file_index>
21

> <r_mmod_Potential_Energy-OPLS-2005>
228.368225097656

> <r_mmod_Stretch_Energy-OPLS-2005>
133.194839477539

> <r_mmod_Bend_Energy-OPLS-2005>
178.507995605469

> <r_mmod_Torsional_Energy-OPLS-2005>
248.953643798828

> <r_mmod_Improper_Torsional_Energy-OPLS-2005>
6.71690893173218

> <r_mmod_Van_der_Waal_Energy-OPLS-2005>
142.378814697266

> <r_mmod_Electrostatic_Energy-OPLS-2005>
-346.939025878906

> <r_mmod_Solvation_Energy-OPLS-2005>
-213.489944458008

> <b_mmod_Minimization_Converged-OPLS-2005>
0

> <r_mmod_RMS_Derivative-OPLS-2005>
8.49693870544434

$$$$
21
                    3D
 Structure written by MMmdl.
151159  0  0  1  0            999 V2000
  -30.5574  -14.8228   20.5022 C   0  0  0  0  0  0
  -30.4560  -12.5207   19.4772 C   0  0  0  0  0  0
  -29.5142  -12.5627   18.2468 C   0  0  0  0  0  0
  -28.0397  -12.3591   18.6518 C   0  0  0  0  0  0
  -27.6506  -13.2219   19.8803 C   0  0  2  0  0  0
  -28.7038  -13.0791   21.0009 C   0  0  0  0  0  0
  -25.2575  -13.8189   20.5809 C   0  0  0  0  0  0
  -24.1820  -13.0427   20.9184 C   0  0  0  0  0  0
  -24.6403  -11.6898   20.8721 C   0  0  0  0  0  0
  -23.9077  -10.4277   21.0384 C   0  0  0  0  0  0
  -24.3631   -9.4199   21.9178 C   0  0  0  0  0  0
  -23.6305   -8.2243   22.0757 C   0  0  0  0  0  0
  -22.4289   -8.0281   21.3547 C   0  0  0  0  0  0
  -21.9924   -9.0248   20.4647 C   0  0  0  0  0  0
  -22.7255  -10.2123   20.3037 C   0  0  0  0  0  0
  -21.6860   -6.0747   22.5270 C   0  0  0  0  0  0
  -21.4023   -6.5655   23.8208 C   0  0  0  0  0  0
  -21.3639   -5.6806   24.9163 C   0  0  0  0  0  0
  -21.6027   -4.3064   24.7204 C   0  0  0  0  0  0
  -21.8834   -3.8161   23.4334 C   0  0  0  0  0  0
  -21.9206   -4.6981   22.3389 C   0  0  0  0  0  0
  -22.7847  -13.5216   21.1887 C   0  0  0  0  0  0
  -22.1679   -4.2176   21.0965 F   0  0  0  0  0  0
  -21.5603   -3.4541   25.7714 F   0  0  0  0  0  0
  -29.9877  -13.5486   20.4473 N   0  0  0  0  0  0
  -26.2998  -12.9354   20.3475 N   0  0  0  0  0  0
  -25.9330  -11.6494   20.5773 N   0  0  0  0  0  0
  -22.0501  -12.8152   22.0407 N   0  0  0  0  0  0
  -25.4347  -15.1915   20.4384 N   0  0  0  0  0  0
  -31.7277  -14.9602   20.1237 O   0  0  0  0  0  0
  -21.6653   -6.8885   21.4231 O   0  0  0  0  0  0
  -22.3532  -14.5552   20.6791 O   0  0  0  0  0  0
  -24.6346  -31.8545   23.1999 C   0  0  0  0  0  0
  -25.9172  -32.4760   23.8339 C   0  0  1  0  0  0
  -27.2304  -27.2454   20.1203 C   0  0  0  0  0  0
  -25.5978  -33.8555   24.2292 N   0  0  0  0  0  0
  -23.4311  -30.4791   21.5421 C   0  0  2  0  0  0
  -24.8825  -28.9280   20.1099 C   0  0  0  0  0  0
  -22.7517  -29.4600   22.4889 C   0  0  0  0  0  0
  -18.0294  -28.1392   22.8466 C   0  0  0  0  0  0
  -24.1464  -36.7218   23.2625 C   0  0  0  0  0  0
  -25.9811  -30.7637   21.3832 C   0  0  0  0  0  0
  -26.0584  -29.3859   20.7195 C   0  0  0  0  0  0
  -27.2327  -28.5563   20.7166 C   0  0  0  0  0  0
  -26.0155  -26.8589   19.5001 C   0  0  0  0  0  0
  -24.8665  -27.6718   19.4895 C   0  0  0  0  0  0
  -23.6542  -29.8181   20.1574 C   0  0  0  0  0  0
  -25.4093  -36.3058   24.0340 C   0  0  1  0  0  0
  -20.5900  -28.3698   23.1255 C   0  0  2  0  0  0
  -20.6766  -26.9415   22.5392 C   0  0  0  0  0  0
  -19.5746  -26.6394   21.5182 C   0  0  0  0  0  0
  -18.1932  -26.7936   22.1615 C   0  0  0  0  0  0
  -19.1549  -28.8860   23.2849 C   0  0  0  0  0  0
  -18.9474  -30.1460   23.8875 C   0  0  0  0  0  0
  -17.6477  -30.6590   24.0557 C   0  0  0  0  0  0
  -25.9054  -34.9430   23.5100 C   0  0  0  0  0  0
  -16.5365  -29.9086   23.6335 C   0  0  0  0  0  0
  -16.7277  -28.6499   23.0352 C   0  0  0  0  0  0
  -26.4559  -31.6574   25.0714 C   0  0  0  0  0  0
  -25.3800  -31.3711   26.1450 C   0  0  0  0  0  0
  -27.0403  -30.2989   24.6190 C   0  0  0  0  0  0
  -27.6125  -32.4295   25.7487 C   0  0  0  0  0  0
  -27.5570  -37.1741   24.8452 C   0  0  0  0  0  0
  -21.4215  -29.3045   22.3648 N   0  0  0  0  0  0
  -26.4240  -37.3789   23.9471 N   0  0  0  0  0  0
  -24.7005  -31.0493   22.0983 N   0  0  0  0  0  0
  -23.4207  -28.8129   23.2980 O   0  0  0  0  0  0
  -28.3019  -26.3049   20.1937 O   0  0  0  0  0  0
  -26.5587  -34.8911   22.4649 O   0  0  0  0  0  0
  -23.5492  -32.1385   23.7285 O   0  0  0  0  0  0
  -30.6532  -19.9069   21.1465 C   0  0  0  0  0  0
  -30.8673  -18.4765   21.3868 C   0  0  0  0  0  0
  -30.0186  -17.6210   20.6935 C   0  0  0  0  0  0
  -29.6212  -20.2587   20.2956 C   0  0  0  0  0  0
  -28.3244  -25.2020   19.2931 C   0  0  0  0  0  0
  -29.6552  -16.1331   20.9084 C   0  0  0  0  0  0
  -28.6347  -23.8304   19.2850 C   0  0  0  0  0  0
  -29.1674  -22.8368   20.3011 C   0  0  0  0  0  0
  -31.8872  -18.0162   22.3897 C   0  0  0  0  0  0
  -28.5272  -15.9958   21.4625 N   0  0  0  0  0  0
  -29.1643  -21.5158   19.8413 N   0  0  0  0  0  0
  -29.5821  -23.1325   21.4238 O   0  0  0  0  0  0
  -28.4097  -23.2673   18.0816 O   0  0  0  0  0  0
  -28.9557  -18.6951   19.7197 S   0  0  0  0  0  0
  -31.4839  -12.6997   19.1587 H   0  0  0  0  0  0
  -30.4610  -11.5257   19.9263 H   0  0  0  0  0  0
  -29.8081  -11.8148   17.5101 H   0  0  0  0  0  0
  -29.6180  -13.5307   17.7533 H   0  0  0  0  0  0
  -27.8914  -11.3027   18.8793 H   0  0  0  0  0  0
  -27.3805  -12.5859   17.8138 H   0  0  0  0  0  0
  -27.6581  -14.2569   19.5426 H   0  0  0  0  0  0
  -28.7774  -12.0369   21.3134 H   0  0  0  0  0  0
  -28.4208  -13.6025   21.9116 H   0  0  0  0  0  0
  -25.2780   -9.5670   22.4758 H   0  0  0  0  0  0
  -24.0027   -7.4620   22.7460 H   0  0  0  0  0  0
  -21.0871   -8.8737   19.8936 H   0  0  0  0  0  0
  -22.3715  -10.9650   19.6135 H   0  0  0  0  0  0
  -21.2038   -7.6170   23.9708 H   0  0  0  0  0  0
  -21.1437   -6.0537   25.9063 H   0  0  0  0  0  0
  -22.0641   -2.7635   23.2810 H   0  0  0  0  0  0
  -22.4121  -11.9770   22.4706 H   0  0  0  0  0  0
  -21.1111  -13.1128   22.2655 H   0  0  0  0  0  0
  -24.7007  -15.8583   20.6497 H   0  0  0  0  0  0
  -26.3579  -15.6131   20.3903 H   0  0  0  0  0  0
  -26.7221  -32.5433   23.1049 H   0  0  0  0  0  0
  -25.0243  -33.9700   25.0519 H   0  0  0  0  0  0
  -22.7260  -31.2998   21.3962 H   0  0  0  0  0  0
  -23.3791  -35.9481   23.3253 H   0  0  0  0  0  0
  -24.3554  -36.8859   22.2041 H   0  0  0  0  0  0
  -23.7128  -37.6370   23.6660 H   0  0  0  0  0  0
  -26.1206  -31.5324   20.6222 H   0  0  0  0  0  0
  -26.8554  -30.8132   22.0200 H   0  0  0  0  0  0
  -28.1299  -28.9016   21.2115 H   0  0  0  0  0  0
  -25.9123  -25.8867   19.0428 H   0  0  0  0  0  0
  -23.9628  -27.3149   19.0144 H   0  0  0  0  0  0
  -23.7867  -30.5959   19.4034 H   0  0  0  0  0  0
  -22.7706  -29.2557   19.8483 H   0  0  0  0  0  0
  -25.1257  -36.1868   25.0828 H   0  0  0  0  0  0
  -20.9988  -28.3281   24.1373 H   0  0  0  0  0  0
  -20.5623  -26.2316   23.3597 H   0  0  0  0  0  0
  -21.6647  -26.7402   22.1231 H   0  0  0  0  0  0
  -19.6896  -25.6300   21.1205 H   0  0  0  0  0  0
  -19.6670  -27.3197   20.6703 H   0  0  0  0  0  0
  -17.4190  -26.6671   21.4034 H   0  0  0  0  0  0
  -18.0335  -26.0087   22.9019 H   0  0  0  0  0  0
  -19.7957  -30.7267   24.2261 H   0  0  0  0  0  0
  -17.5038  -31.6283   24.5147 H   0  0  0  0  0  0
  -15.5366  -30.2978   23.7673 H   0  0  0  0  0  0
  -15.8680  -28.0805   22.7087 H   0  0  0  0  0  0
  -24.6028  -30.6973   25.7818 H   0  0  0  0  0  0
  -24.8931  -32.2867   26.4823 H   0  0  0  0  0  0
  -25.8185  -30.8976   27.0249 H   0  0  0  0  0  0
  -26.3001  -29.6731   24.1197 H   0  0  0  0  0  0
  -27.4071  -29.7245   25.4704 H   0  0  0  0  0  0
  -27.8882  -30.4253   23.9452 H   0  0  0  0  0  0
  -27.2795  -33.3654   26.1992 H   0  0  0  0  0  0
  -28.4013  -32.6754   25.0356 H   0  0  0  0  0  0
  -28.0718  -31.8443   26.5464 H   0  0  0  0  0  0
  -28.2520  -38.0110   24.7671 H   0  0  0  0  0  0
  -28.1150  -36.2659   24.6088 H   0  0  0  0  0  0
  -27.2319  -37.1151   25.8855 H   0  0  0  0  0  0
  -20.9396  -29.8785   21.6876 H   0  0  0  0  0  0
  -26.0102  -38.2819   24.1645 H   0  0  0  0  0  0
  -31.2701  -20.6433   21.6402 H   0  0  0  0  0  0
  -27.9966  -25.5952   18.3404 H   0  0  0  0  0  0
  -32.8983  -18.0806   21.9869 H   0  0  0  0  0  0
  -31.7228  -16.9873   22.7057 H   0  0  0  0  0  0
  -31.8534  -18.6296   23.2917 H   0  0  0  0  0  0
  -28.1284  -16.9033   21.6709 H   0  0  0  0  0  0
  -28.7165  -21.4942   18.9324 H   0  0  0  0  0  0
  -28.0744  -23.9431   17.5081 H   0  0  0  0  0  0
  1 25  1  0  0  0
  1 30  2  0  0  0
  1 76  1  0  0  0
  2  3  1  0  0  0
  2 25  1  0  0  0
  2 85  1  0  0  0
  2 86  1  0  0  0
  3  4  1  0  0  0
  3 87  1  0  0  0
  3 88  1  0  0  0
  4  5  1  0  0  0
  4 89  1  0  0  0
  4 90  1  0  0  0
  5  6  1  0  0  0
  5 26  1  0  0  0
  5 91  1  0  0  0
  6 25  1  0  0  0
  6 92  1  0  0  0
  6 93  1  0  0  0
  7  8  2  0  0  0
  7 26  1  0  0  0
  7 29  1  0  0  0
  8  9  1  0  0  0
  8 22  1  0  0  0
  9 10  1  0  0  0
  9 27  2  0  0  0
 10 11  2  0  0  0
 10 15  1  0  0  0
 11 12  1  0  0  0
 11 94  1  0  0  0
 12 13  2  0  0  0
 12 95  1  0  0  0
 13 14  1  0  0  0
 13 31  1  0  0  0
 14 15  2  0  0  0
 14 96  1  0  0  0
 15 97  1  0  0  0
 16 17  2  0  0  0
 16 21  1  0  0  0
 16 31  1  0  0  0
 17 18  1  0  0  0
 17 98  1  0  0  0
 18 19  2  0  0  0
 18 99  1  0  0  0
 19 20  1  0  0  0
 19 24  1  0  0  0
 20 21  2  0  0  0
 20100  1  0  0  0
 21 23  1  0  0  0
 22 28  1  0  0  0
 22 32  2  0  0  0
 26 27  1  0  0  0
 28101  1  0  0  0
 28102  1  0  0  0
 29103  1  0  0  0
 29104  1  0  0  0
 33 34  1  0  0  0
 33 66  1  0  0  0
 33 70  2  0  0  0
 34 36  1  0  0  0
 34 59  1  0  0  0
 34105  1  0  0  0
 35 44  2  0  0  0
 35 45  1  0  0  0
 35 68  1  0  0  0
 36 56  1  0  0  0
 36106  1  0  0  0
 37 39  1  0  0  0
 37 47  1  0  0  0
 37 66  1  0  0  0
 37107  1  0  0  0
 38 43  2  0  0  0
 38 46  1  0  0  0
 38 47  1  0  0  0
 39 64  1  0  0  0
 39 67  2  0  0  0
 40 52  1  0  0  0
 40 53  2  0  0  0
 40 58  1  0  0  0
 41108  1  0  0  0
 41109  1  0  0  0
 41110  1  0  0  0
 41 48  1  0  0  0
 42 43  1  0  0  0
 42 66  1  0  0  0
 42111  1  0  0  0
 42112  1  0  0  0
 43 44  1  0  0  0
 44113  1  0  0  0
 45 46  2  0  0  0
 45114  1  0  0  0
 46115  1  0  0  0
 47116  1  0  0  0
 47117  1  0  0  0
 48 56  1  0  0  0
 48 65  1  0  0  0
 48118  1  0  0  0
 49 50  1  0  0  0
 49 53  1  0  0  0
 49 64  1  0  0  0
 49119  1  0  0  0
 50 51  1  0  0  0
 50120  1  0  0  0
 50121  1  0  0  0
 51 52  1  0  0  0
 51122  1  0  0  0
 51123  1  0  0  0
 52124  1  0  0  0
 52125  1  0  0  0
 53 54  1  0  0  0
 54 55  2  0  0  0
 54126  1  0  0  0
 55 57  1  0  0  0
 55127  1  0  0  0
 56 69  2  0  0  0
 57 58  2  0  0  0
 57128  1  0  0  0
 58129  1  0  0  0
 59 60  1  0  0  0
 59 61  1  0  0  0
 59 62  1  0  0  0
 60130  1  0  0  0
 60131  1  0  0  0
 60132  1  0  0  0
 61133  1  0  0  0
 61134  1  0  0  0
 61135  1  0  0  0
 62136  1  0  0  0
 62137  1  0  0  0
 62138  1  0  0  0
 63 65  1  0  0  0
 63139  1  0  0  0
 63140  1  0  0  0
 63141  1  0  0  0
 64142  1  0  0  0
 65143  1  0  0  0
 68 75  1  0  0  0
 71 72  1  0  0  0
 71 74  2  0  0  0
 71144  1  0  0  0
 72 73  2  0  0  0
 72 79  1  0  0  0
 73 76  1  0  0  0
 73 84  1  0  0  0
 74 81  1  0  0  0
 74 84  1  0  0  0
 75 77  2  0  0  0
 75145  1  0  0  0
 76 80  2  0  0  0
 77 78  1  0  0  0
 77 83  1  0  0  0
 78 81  1  0  0  0
 78 82  2  0  0  0
 79146  1  0  0  0
 79147  1  0  0  0
 79148  1  0  0  0
 80149  1  0  0  0
 81150  1  0  0  0
 83151  1  0  0  0
M  ISO  4   1 100  68 101  75 101  76 100
M  END
> <chiral flag>
0

> <version>
0

> <s_m_source_file>
/data/baiqing/PycharmProjects/Reinvent-master-3.2/result/LINK_invent/BTK/process_docking_weight1_custom_product_contain_oxygen_bond_distance_aromatic_linkinvent_7_9_3/rearranged_h_0114.sdf

> <i_m_source_file_index>
22

> <r_mmod_Potential_Energy-OPLS-2005>
390.858245849609

> <r_mmod_Stretch_Energy-OPLS-2005>
149.646255493164

> <r_mmod_Bend_Energy-OPLS-2005>
269.570434570312

> <r_mmod_Torsional_Energy-OPLS-2005>
209.634170532227

> <r_mmod_Improper_Torsional_Energy-OPLS-2005>
6.45400094985962

> <r_mmod_Van_der_Waal_Energy-OPLS-2005>
137.56591796875

> <r_mmod_Electrostatic_Energy-OPLS-2005>
-268.385345458984

> <r_mmod_Solvation_Energy-OPLS-2005>
-221.477996826172

> <b_mmod_Minimization_Converged-OPLS-2005>
0

> <r_mmod_RMS_Derivative-OPLS-2005>
3.16288924217224

$$$$
22
                    3D
 Structure written by MMmdl.
158166  0  0  1  0            999 V2000
  -30.7073  -14.6344   20.4280 C   0  0  0  0  0  0
  -30.4020  -12.3858   19.4772 C   0  0  0  0  0  0
  -29.5018  -12.5008   18.2317 C   0  0  0  0  0  0
  -28.0206  -12.3434   18.6228 C   0  0  0  0  0  0
  -27.6306  -13.2257   19.8389 C   0  0  2  0  0  0
  -28.6743  -13.1500   20.9692 C   0  0  0  0  0  0
  -25.2257  -13.7883   20.5344 C   0  0  0  0  0  0
  -24.1672  -13.0278   20.9270 C   0  0  0  0  0  0
  -24.6318  -11.6768   20.8885 C   0  0  0  0  0  0
  -23.9053  -10.4137   21.0447 C   0  0  0  0  0  0
  -24.3553   -9.4029   21.9217 C   0  0  0  0  0  0
  -23.6193   -8.2080   22.0785 C   0  0  0  0  0  0
  -22.4152   -8.0176   21.3594 C   0  0  0  0  0  0
  -21.9862   -9.0157   20.4674 C   0  0  0  0  0  0
  -22.7231  -10.1997   20.3092 C   0  0  0  0  0  0
  -21.6751   -6.0634   22.5290 C   0  0  0  0  0  0
  -21.3855   -6.5556   23.8220 C   0  0  0  0  0  0
  -21.3583   -5.6747   24.9220 C   0  0  0  0  0  0
  -21.6031   -4.3026   24.7290 C   0  0  0  0  0  0
  -21.8859   -3.8072   23.4462 C   0  0  0  0  0  0
  -21.9154   -4.6870   22.3475 C   0  0  0  0  0  0
  -22.7716  -13.5171   21.1887 C   0  0  0  0  0  0
  -22.1682   -4.2021   21.1063 F   0  0  0  0  0  0
  -21.5639   -3.4554   25.7850 F   0  0  0  0  0  0
  -29.9948  -13.4580   20.4136 N   0  0  0  0  0  0
  -26.2845  -12.9230   20.3148 N   0  0  0  0  0  0
  -25.9249  -11.6431   20.5842 N   0  0  0  0  0  0
  -22.0297  -12.8435   22.0576 N   0  0  0  0  0  0
  -25.3615  -15.1436   20.3090 N   0  0  0  0  0  0
  -31.9108  -14.6021   20.1933 O   0  0  0  0  0  0
  -21.6548   -6.8773   21.4257 O   0  0  0  0  0  0
  -22.3454  -14.5448   20.6636 O   0  0  0  0  0  0
  -24.6227  -31.8616   23.2079 C   0  0  0  0  0  0
  -25.9084  -32.4802   23.8381 C   0  0  1  0  0  0
  -27.2367  -27.3885   20.0874 C   0  0  0  0  0  0
  -25.5908  -33.8580   24.2330 N   0  0  0  0  0  0
  -23.4139  -30.4848   21.5480 C   0  0  2  0  0  0
  -24.8588  -28.9463   20.1152 C   0  0  0  0  0  0
  -22.7441  -29.4618   22.4937 C   0  0  0  0  0  0
  -18.0281  -28.1379   22.8476 C   0  0  0  0  0  0
  -24.1469  -36.7275   23.2648 C   0  0  0  0  0  0
  -25.9484  -30.8125   21.3721 C   0  0  0  0  0  0
  -26.0271  -29.4463   20.7078 C   0  0  0  0  0  0
  -27.2205  -28.6795   20.6816 C   0  0  0  0  0  0
  -26.0512  -26.9183   19.4823 C   0  0  0  0  0  0
  -24.8705  -27.6836   19.4979 C   0  0  0  0  0  0
  -23.6285  -29.8226   20.1604 C   0  0  0  0  0  0
  -25.4093  -36.3074   24.0348 C   0  0  1  0  0  0
  -20.5882  -28.3645   23.1277 C   0  0  2  0  0  0
  -20.6756  -26.9369   22.5402 C   0  0  0  0  0  0
  -19.5730  -26.6380   21.5199 C   0  0  0  0  0  0
  -18.1919  -26.7917   22.1623 C   0  0  0  0  0  0
  -19.1543  -28.8828   23.2880 C   0  0  0  0  0  0
  -18.9465  -30.1434   23.8892 C   0  0  0  0  0  0
  -17.6465  -30.6578   24.0548 C   0  0  0  0  0  0
  -25.9049  -34.9450   23.5157 C   0  0  0  0  0  0
  -16.5350  -29.9078   23.6324 C   0  0  0  0  0  0
  -16.7264  -28.6495   23.0345 C   0  0  0  0  0  0
  -26.4505  -31.6598   25.0742 C   0  0  0  0  0  0
  -25.3748  -31.3693   26.1485 C   0  0  0  0  0  0
  -27.0353  -30.3009   24.6202 C   0  0  0  0  0  0
  -27.6079  -32.4330   25.7512 C   0  0  0  0  0  0
  -27.5569  -37.1804   24.8476 C   0  0  0  0  0  0
  -21.4168  -29.3038   22.3673 N   0  0  0  0  0  0
  -26.4267  -37.3763   23.9442 N   0  0  0  0  0  0
  -24.6807  -31.0672   22.1000 N   0  0  0  0  0  0
  -23.4178  -28.8160   23.3000 O   0  0  0  0  0  0
  -28.3788  -26.5962   20.0463 O   0  0  0  0  0  0
  -26.5607  -34.8919   22.4720 O   0  0  0  0  0  0
  -23.5422  -32.1327   23.7498 O   0  0  0  0  0  0
  -27.1786  -17.7550   20.7930 C   0  0  0  0  0  0
  -26.9900  -20.0341   19.9946 C   0  0  0  0  0  0
  -29.1790  -19.0649   20.4576 C   0  0  0  0  0  0
  -26.3890  -18.8026   20.2937 C   0  0  0  0  0  0
  -28.5773  -17.7984   20.7835 C   0  0  0  0  0  0
  -28.3883  -20.2239   20.1332 C   0  0  0  0  0  0
  -24.9435  -18.6166   20.1046 C   0  0  0  0  0  0
  -29.2560  -16.4587   21.0592 C   0  0  0  0  0  0
  -24.4389  -17.9618   19.0451 C   0  0  0  0  0  0
  -28.6822  -24.0516   19.7983 C   0  0  0  0  0  0
  -22.9702  -17.7221   18.7812 C   0  0  0  0  0  0
  -28.2441  -25.2812   20.6578 C   0  0  0  0  0  0
  -28.1530  -22.6644   20.2781 C   0  0  0  0  0  0
  -30.0853  -15.8916   20.2598 N   0  0  0  0  0  0
  -29.3651  -24.1720   18.7739 O   0  0  0  0  0  0
  -28.9492  -21.4889   19.9072 O   0  0  0  0  0  0
  -31.4506  -12.4414   19.1845 H   0  0  0  0  0  0
  -30.2875  -11.4059   19.9370 H   0  0  0  0  0  0
  -29.7813  -11.7531   17.4908 H   0  0  0  0  0  0
  -29.6489  -13.4739   17.7626 H   0  0  0  0  0  0
  -27.8523  -11.2966   18.8664 H   0  0  0  0  0  0
  -27.3794  -12.5618   17.7674 H   0  0  0  0  0  0
  -27.6238  -14.2472   19.4719 H   0  0  0  0  0  0
  -28.6822  -12.1543   21.4118 H   0  0  0  0  0  0
  -28.4253  -13.8284   21.7778 H   0  0  0  0  0  0
  -25.2620   -9.5427   22.4912 H   0  0  0  0  0  0
  -23.9767   -7.4470   22.7578 H   0  0  0  0  0  0
  -21.0753   -8.8749   19.8997 H   0  0  0  0  0  0
  -22.3692  -10.9580   19.6273 H   0  0  0  0  0  0
  -21.1745   -7.6020   23.9718 H   0  0  0  0  0  0
  -21.1367   -6.0448   25.9134 H   0  0  0  0  0  0
  -22.0700   -2.7528   23.3042 H   0  0  0  0  0  0
  -22.3779  -12.0232   22.5233 H   0  0  0  0  0  0
  -21.0981  -13.1700   22.2669 H   0  0  0  0  0  0
  -24.5384  -15.7357   20.2883 H   0  0  0  0  0  0
  -26.1429  -15.5384   19.8022 H   0  0  0  0  0  0
  -26.7141  -32.5487   23.1129 H   0  0  0  0  0  0
  -25.0022  -33.9723   25.0447 H   0  0  0  0  0  0
  -22.7092  -31.3047   21.4085 H   0  0  0  0  0  0
  -23.3755  -35.9591   23.3339 H   0  0  0  0  0  0
  -24.3514  -36.8862   22.2055 H   0  0  0  0  0  0
  -23.7223  -37.6480   23.6643 H   0  0  0  0  0  0
  -26.0863  -31.5889   20.6183 H   0  0  0  0  0  0
  -26.8212  -30.8374   22.0133 H   0  0  0  0  0  0
  -28.1240  -29.0749   21.1242 H   0  0  0  0  0  0
  -26.0482  -25.9616   18.9770 H   0  0  0  0  0  0
  -23.9771  -27.3043   19.0211 H   0  0  0  0  0  0
  -23.7416  -30.6033   19.4038 H   0  0  0  0  0  0
  -22.7510  -29.2458   19.8567 H   0  0  0  0  0  0
  -25.1289  -36.1909   25.0830 H   0  0  0  0  0  0
  -20.9956  -28.3250   24.1407 H   0  0  0  0  0  0
  -20.5602  -26.2286   23.3603 H   0  0  0  0  0  0
  -21.6637  -26.7371   22.1253 H   0  0  0  0  0  0
  -19.6870  -25.6291   21.1236 H   0  0  0  0  0  0
  -19.6702  -27.3191   20.6721 H   0  0  0  0  0  0
  -17.4196  -26.6633   21.4043 H   0  0  0  0  0  0
  -18.0325  -26.0060   22.9014 H   0  0  0  0  0  0
  -19.7941  -30.7220   24.2295 H   0  0  0  0  0  0
  -17.5029  -31.6265   24.5137 H   0  0  0  0  0  0
  -15.5352  -30.2979   23.7647 H   0  0  0  0  0  0
  -15.8666  -28.0801   22.7076 H   0  0  0  0  0  0
  -24.5960  -30.7007   25.7810 H   0  0  0  0  0  0
  -24.8917  -32.2837   26.4923 H   0  0  0  0  0  0
  -25.8098  -30.8880   27.0252 H   0  0  0  0  0  0
  -26.2909  -29.6744   24.1298 H   0  0  0  0  0  0
  -27.4081  -29.7291   25.4715 H   0  0  0  0  0  0
  -27.8764  -30.4273   23.9386 H   0  0  0  0  0  0
  -27.2689  -33.3615   26.2107 H   0  0  0  0  0  0
  -28.3869  -32.6910   25.0327 H   0  0  0  0  0  0
  -28.0751  -31.8444   26.5416 H   0  0  0  0  0  0
  -28.2632  -38.0062   24.7504 H   0  0  0  0  0  0
  -28.1027  -36.2613   24.6331 H   0  0  0  0  0  0
  -27.2291  -37.1488   25.8873 H   0  0  0  0  0  0
  -20.9317  -29.8752   21.6905 H   0  0  0  0  0  0
  -26.0182  -38.2846   24.1422 H   0  0  0  0  0  0
  -26.7085  -16.8600   21.1416 H   0  0  0  0  0  0
  -26.3422  -20.8155   19.6243 H   0  0  0  0  0  0
  -30.2573  -19.1395   20.4753 H   0  0  0  0  0  0
  -24.2871  -19.0270   20.8573 H   0  0  0  0  0  0
  -28.9443  -15.9716   21.9890 H   0  0  0  0  0  0
  -25.1095  -17.5559   18.3014 H   0  0  0  0  0  0
  -22.3611  -18.0481   19.6201 H   0  0  0  0  0  0
  -22.7853  -16.6593   18.6220 H   0  0  0  0  0  0
  -22.6616  -18.2598   17.8868 H   0  0  0  0  0  0
  -28.8782  -25.2740   21.5420 H   0  0  0  0  0  0
  -27.2260  -25.1202   21.0115 H   0  0  0  0  0  0
  -27.1410  -22.6164   19.8804 H   0  0  0  0  0  0
  -28.0740  -22.6926   21.3662 H   0  0  0  0  0  0
  1 25  1  0  0  0
  1 30  2  0  0  0
  1 84  1  0  0  0
  2  3  1  0  0  0
  2 25  1  0  0  0
  2 87  1  0  0  0
  2 88  1  0  0  0
  3  4  1  0  0  0
  3 89  1  0  0  0
  3 90  1  0  0  0
  4  5  1  0  0  0
  4 91  1  0  0  0
  4 92  1  0  0  0
  5  6  1  0  0  0
  5 26  1  0  0  0
  5 93  1  0  0  0
  6 25  1  0  0  0
  6 94  1  0  0  0
  6 95  1  0  0  0
  7  8  2  0  0  0
  7 26  1  0  0  0
  7 29  1  0  0  0
  8  9  1  0  0  0
  8 22  1  0  0  0
  9 10  1  0  0  0
  9 27  2  0  0  0
 10 11  2  0  0  0
 10 15  1  0  0  0
 11 12  1  0  0  0
 11 96  1  0  0  0
 12 13  2  0  0  0
 12 97  1  0  0  0
 13 14  1  0  0  0
 13 31  1  0  0  0
 14 15  2  0  0  0
 14 98  1  0  0  0
 15 99  1  0  0  0
 16 17  2  0  0  0
 16 21  1  0  0  0
 16 31  1  0  0  0
 17 18  1  0  0  0
 17100  1  0  0  0
 18 19  2  0  0  0
 18101  1  0  0  0
 19 20  1  0  0  0
 19 24  1  0  0  0
 20 21  2  0  0  0
 20102  1  0  0  0
 21 23  1  0  0  0
 22 28  1  0  0  0
 22 32  2  0  0  0
 26 27  1  0  0  0
 28103  1  0  0  0
 28104  1  0  0  0
 29105  1  0  0  0
 29106  1  0  0  0
 33 34  1  0  0  0
 33 66  1  0  0  0
 33 70  2  0  0  0
 34 36  1  0  0  0
 34 59  1  0  0  0
 34107  1  0  0  0
 35 44  2  0  0  0
 35 45  1  0  0  0
 35 68  1  0  0  0
 36 56  1  0  0  0
 36108  1  0  0  0
 37 39  1  0  0  0
 37 47  1  0  0  0
 37 66  1  0  0  0
 37109  1  0  0  0
 38 43  2  0  0  0
 38 46  1  0  0  0
 38 47  1  0  0  0
 39 64  1  0  0  0
 39 67  2  0  0  0
 40 52  1  0  0  0
 40 53  2  0  0  0
 40 58  1  0  0  0
 41110  1  0  0  0
 41111  1  0  0  0
 41112  1  0  0  0
 41 48  1  0  0  0
 42 43  1  0  0  0
 42 66  1  0  0  0
 42113  1  0  0  0
 42114  1  0  0  0
 43 44  1  0  0  0
 44115  1  0  0  0
 45 46  2  0  0  0
 45116  1  0  0  0
 46117  1  0  0  0
 47118  1  0  0  0
 47119  1  0  0  0
 48 56  1  0  0  0
 48 65  1  0  0  0
 48120  1  0  0  0
 49 50  1  0  0  0
 49 53  1  0  0  0
 49 64  1  0  0  0
 49121  1  0  0  0
 50 51  1  0  0  0
 50122  1  0  0  0
 50123  1  0  0  0
 51 52  1  0  0  0
 51124  1  0  0  0
 51125  1  0  0  0
 52126  1  0  0  0
 52127  1  0  0  0
 53 54  1  0  0  0
 54 55  2  0  0  0
 54128  1  0  0  0
 55 57  1  0  0  0
 55129  1  0  0  0
 56 69  2  0  0  0
 57 58  2  0  0  0
 57130  1  0  0  0
 58131  1  0  0  0
 59 60  1  0  0  0
 59 61  1  0  0  0
 59 62  1  0  0  0
 60132  1  0  0  0
 60133  1  0  0  0
 60134  1  0  0  0
 61135  1  0  0  0
 61136  1  0  0  0
 61137  1  0  0  0
 62138  1  0  0  0
 62139  1  0  0  0
 62140  1  0  0  0
 63 65  1  0  0  0
 63141  1  0  0  0
 63142  1  0  0  0
 63143  1  0  0  0
 64144  1  0  0  0
 65145  1  0  0  0
 68 82  1  0  0  0
 71 74  2  0  0  0
 71 75  1  0  0  0
 71146  1  0  0  0
 72 74  1  0  0  0
 72 76  2  0  0  0
 72147  1  0  0  0
 73 75  2  0  0  0
 73 76  1  0  0  0
 73148  1  0  0  0
 74 77  1  0  0  0
 75 78  1  0  0  0
 76 86  1  0  0  0
 77 79  2  0  0  0
 77149  1  0  0  0
 78 84  2  0  0  0
 78150  1  0  0  0
 79 81  1  0  0  0
 79151  1  0  0  0
 80 82  1  0  0  0
 80 83  1  0  0  0
 80 85  2  0  0  0
 81152  1  0  0  0
 81153  1  0  0  0
 81154  1  0  0  0
 82155  1  0  0  0
 82156  1  0  0  0
 83 86  1  0  0  0
 83157  1  0  0  0
 83158  1  0  0  0
M  ISO  4   1 100  68 101  82 101  84 100
M  END
> <chiral flag>
0

> <version>
0

> <s_m_source_file>
/data/baiqing/PycharmProjects/Reinvent-master-3.2/result/LINK_invent/BTK/process_docking_weight1_custom_product_contain_oxygen_bond_distance_aromatic_linkinvent_7_9_3/rearranged_h_0114.sdf

> <i_m_source_file_index>
23

> <r_mmod_Potential_Energy-OPLS-2005>
172.443252563477

> <r_mmod_Stretch_Energy-OPLS-2005>
64.7917251586914

> <r_mmod_Bend_Energy-OPLS-2005>
167.198043823242

> <r_mmod_Torsional_Energy-OPLS-2005>
256.200408935547

> <r_mmod_Improper_Torsional_Energy-OPLS-2005>
15.4879846572876

> <r_mmod_Van_der_Waal_Energy-OPLS-2005>
143.805541992188

> <r_mmod_Electrostatic_Energy-OPLS-2005>
-310.7099609375

> <r_mmod_Solvation_Energy-OPLS-2005>
-211.379959106445

> <b_mmod_Minimization_Converged-OPLS-2005>
0

> <r_mmod_RMS_Derivative-OPLS-2005>
8.73708057403564

$$$$
23
                    3D
 Structure written by MMmdl.
155163  0  0  1  0            999 V2000
  -30.5184  -14.8991   20.4380 C   0  0  0  0  0  0
  -30.4501  -12.5547   19.4946 C   0  0  0  0  0  0
  -29.5281  -12.5432   18.2517 C   0  0  0  0  0  0
  -28.0555  -12.3354   18.6583 C   0  0  0  0  0  0
  -27.6383  -13.2414   19.8469 C   0  0  2  0  0  0
  -28.6794  -13.2107   20.9865 C   0  0  0  0  0  0
  -25.2488  -13.8203   20.5685 C   0  0  0  0  0  0
  -24.1787  -13.0436   20.9204 C   0  0  0  0  0  0
  -24.6395  -11.6920   20.8720 C   0  0  0  0  0  0
  -23.9069  -10.4295   21.0386 C   0  0  0  0  0  0
  -24.3617   -9.4217   21.9169 C   0  0  0  0  0  0
  -23.6296   -8.2247   22.0745 C   0  0  0  0  0  0
  -22.4275   -8.0277   21.3543 C   0  0  0  0  0  0
  -21.9911   -9.0245   20.4642 C   0  0  0  0  0  0
  -22.7238  -10.2124   20.3045 C   0  0  0  0  0  0
  -21.6858   -6.0734   22.5284 C   0  0  0  0  0  0
  -21.4014   -6.5629   23.8220 C   0  0  0  0  0  0
  -21.3663   -5.6782   24.9178 C   0  0  0  0  0  0
  -21.6053   -4.3051   24.7228 C   0  0  0  0  0  0
  -21.8814   -3.8142   23.4352 C   0  0  0  0  0  0
  -21.9191   -4.6956   22.3409 C   0  0  0  0  0  0
  -22.7808  -13.5219   21.1854 C   0  0  0  0  0  0
  -22.1661   -4.2135   21.0984 F   0  0  0  0  0  0
  -21.5631   -3.4537   25.7741 F   0  0  0  0  0  0
  -29.9674  -13.6231   20.4107 N   0  0  0  0  0  0
  -26.2922  -12.9425   20.3247 N   0  0  0  0  0  0
  -25.9336  -11.6562   20.5717 N   0  0  0  0  0  0
  -22.0432  -12.8241   22.0417 N   0  0  0  0  0  0
  -25.4136  -15.1931   20.4134 N   0  0  0  0  0  0
  -31.6998  -15.0332   20.1005 O   0  0  0  0  0  0
  -21.6643   -6.8878   21.4243 O   0  0  0  0  0  0
  -22.3499  -14.5520   20.6686 O   0  0  0  0  0  0
  -24.6415  -31.8453   23.1891 C   0  0  0  0  0  0
  -25.9190  -32.4706   23.8279 C   0  0  1  0  0  0
  -27.2192  -27.1412   20.1490 C   0  0  0  0  0  0
  -25.5945  -33.8513   24.2191 N   0  0  0  0  0  0
  -23.4454  -30.4643   21.5347 C   0  0  2  0  0  0
  -24.8953  -28.8939   20.1068 C   0  0  0  0  0  0
  -22.7565  -29.4549   22.4864 C   0  0  0  0  0  0
  -18.0299  -28.1410   22.8483 C   0  0  0  0  0  0
  -24.1492  -36.7255   23.2640 C   0  0  0  0  0  0
  -26.0006  -30.7205   21.3883 C   0  0  0  0  0  0
  -26.0702  -29.3330   20.7280 C   0  0  0  0  0  0
  -27.2284  -28.4706   20.7361 C   0  0  0  0  0  0
  -26.0142  -26.8016   19.4911 C   0  0  0  0  0  0
  -24.8809  -27.6421   19.4736 C   0  0  0  0  0  0
  -23.6706  -29.7939   20.1532 C   0  0  0  0  0  0
  -25.4130  -36.3045   24.0314 C   0  0  1  0  0  0
  -20.5914  -28.3728   23.1244 C   0  0  2  0  0  0
  -20.6792  -26.9427   22.5417 C   0  0  0  0  0  0
  -19.5763  -26.6381   21.5233 C   0  0  0  0  0  0
  -18.1943  -26.7945   22.1635 C   0  0  0  0  0  0
  -19.1560  -28.8887   23.2856 C   0  0  0  0  0  0
  -18.9470  -30.1482   23.8883 C   0  0  0  0  0  0
  -17.6466  -30.6601   24.0561 C   0  0  0  0  0  0
  -25.9083  -34.9416   23.5065 C   0  0  0  0  0  0
  -16.5355  -29.9094   23.6341 C   0  0  0  0  0  0
  -16.7283  -28.6514   23.0358 C   0  0  0  0  0  0
  -26.4496  -31.6575   25.0724 C   0  0  0  0  0  0
  -25.3669  -31.3781   26.1413 C   0  0  0  0  0  0
  -27.0332  -30.2959   24.6316 C   0  0  0  0  0  0
  -27.6052  -32.4320   25.7493 C   0  0  0  0  0  0
  -27.5586  -37.1776   24.8450 C   0  0  0  0  0  0
  -21.4256  -29.3044   22.3609 N   0  0  0  0  0  0
  -26.4287  -37.3764   23.9412 N   0  0  0  0  0  0
  -24.7153  -31.0312   22.0925 N   0  0  0  0  0  0
  -23.4211  -28.8113   23.3022 O   0  0  0  0  0  0
  -28.2828  -26.1746   20.2753 O   0  0  0  0  0  0
  -26.5676  -34.8904   22.4650 O   0  0  0  0  0  0
  -23.5536  -32.1319   23.7118 O   0  0  0  0  0  0
  -30.5871  -18.3839   19.9366 C   0  0  0  0  0  0
  -29.2486  -20.5650   20.2566 C   0  0  0  0  0  0
  -29.6378  -17.5153   20.5530 C   0  0  0  0  0  0
  -28.3110  -19.7085   20.9383 C   0  0  0  0  0  0
  -30.3943  -19.8168   19.7922 C   0  0  0  0  0  0
  -28.5012  -18.2491   21.0374 C   0  0  0  0  0  0
  -29.1051  -22.1336   19.9208 C   0  0  0  0  0  0
  -28.4254  -23.3004   20.3548 C   0  0  0  0  0  0
  -25.2670  -20.6688   22.8386 C   0  0  0  0  0  0
  -28.3456  -24.7709   19.6177 C   0  0  0  0  0  0
  -26.2144  -19.6705   22.1744 C   0  0  0  0  0  0
  -29.6666  -15.9919   20.7045 N   0  0  0  0  0  0
  -27.2082  -20.3801   21.4451 O   0  0  0  0  0  0
  -31.3661  -20.5031   19.1435 F   0  0  0  0  0  0
  -27.5456  -17.4634   21.5914 F   0  0  0  0  0  0
  -31.4856  -12.7184   19.1914 H   0  0  0  0  0  0
  -30.4377  -11.5842   19.9935 H   0  0  0  0  0  0
  -29.8410  -11.7631   17.5572 H   0  0  0  0  0  0
  -29.6297  -13.4890   17.7160 H   0  0  0  0  0  0
  -27.9368  -11.2868   18.9342 H   0  0  0  0  0  0
  -27.3969  -12.5013   17.8040 H   0  0  0  0  0  0
  -27.6177  -14.2573   19.4514 H   0  0  0  0  0  0
  -28.7495  -12.2141   21.4239 H   0  0  0  0  0  0
  -28.3821  -13.8783   21.7968 H   0  0  0  0  0  0
  -25.2753   -9.5707   22.4748 H   0  0  0  0  0  0
  -24.0005   -7.4650   22.7476 H   0  0  0  0  0  0
  -21.0831   -8.8764   19.8966 H   0  0  0  0  0  0
  -22.3681  -10.9657   19.6154 H   0  0  0  0  0  0
  -21.2004   -7.6138   23.9729 H   0  0  0  0  0  0
  -21.1491   -6.0506   25.9084 H   0  0  0  0  0  0
  -22.0591   -2.7603   23.2851 H   0  0  0  0  0  0
  -22.4027  -11.9921   22.4858 H   0  0  0  0  0  0
  -21.1048  -13.1291   22.2576 H   0  0  0  0  0  0
  -24.6442  -15.8392   20.5471 H   0  0  0  0  0  0
  -26.2687  -15.6531   20.1320 H   0  0  0  0  0  0
  -26.7262  -32.5302   23.1013 H   0  0  0  0  0  0
  -25.0026  -33.9634   25.0291 H   0  0  0  0  0  0
  -22.7467  -31.2892   21.3822 H   0  0  0  0  0  0
  -23.3779  -35.9557   23.3268 H   0  0  0  0  0  0
  -24.3585  -36.8928   22.2061 H   0  0  0  0  0  0
  -23.7201  -37.6423   23.6698 H   0  0  0  0  0  0
  -26.1573  -31.4769   20.6182 H   0  0  0  0  0  0
  -26.8713  -30.7683   22.0309 H   0  0  0  0  0  0
  -28.1210  -28.8021   21.2490 H   0  0  0  0  0  0
  -25.8862  -25.8415   19.0203 H   0  0  0  0  0  0
  -23.9809  -27.2987   18.9818 H   0  0  0  0  0  0
  -23.8007  -30.5680   19.3961 H   0  0  0  0  0  0
  -22.7866  -29.2317   19.8481 H   0  0  0  0  0  0
  -25.1313  -36.1874   25.0803 H   0  0  0  0  0  0
  -21.0002  -28.3324   24.1369 H   0  0  0  0  0  0
  -20.5708  -26.2335   23.3641 H   0  0  0  0  0  0
  -21.6655  -26.7453   22.1194 H   0  0  0  0  0  0
  -19.6918  -25.6287   21.1281 H   0  0  0  0  0  0
  -19.6702  -27.3177   20.6757 H   0  0  0  0  0  0
  -17.4213  -26.6696   21.4038 H   0  0  0  0  0  0
  -18.0324  -26.0092   22.9033 H   0  0  0  0  0  0
  -19.7944  -30.7309   24.2245 H   0  0  0  0  0  0
  -17.5015  -31.6283   24.5159 H   0  0  0  0  0  0
  -15.5356  -30.2992   23.7679 H   0  0  0  0  0  0
  -15.8680  -28.0831   22.7086 H   0  0  0  0  0  0
  -24.5828  -30.7168   25.7704 H   0  0  0  0  0  0
  -24.8877  -32.2974   26.4793 H   0  0  0  0  0  0
  -25.7919  -30.8947   27.0219 H   0  0  0  0  0  0
  -26.2934  -29.6705   24.1310 H   0  0  0  0  0  0
  -27.3896  -29.7247   25.4896 H   0  0  0  0  0  0
  -27.8872  -30.4166   23.9653 H   0  0  0  0  0  0
  -27.2677  -33.3639   26.2037 H   0  0  0  0  0  0
  -28.3878  -32.6852   25.0329 H   0  0  0  0  0  0
  -28.0702  -31.8459   26.5429 H   0  0  0  0  0  0
  -28.2569  -38.0107   24.7564 H   0  0  0  0  0  0
  -28.1119  -36.2647   24.6201 H   0  0  0  0  0  0
  -27.2314  -37.1326   25.8850 H   0  0  0  0  0  0
  -20.9469  -29.8722   21.6760 H   0  0  0  0  0  0
  -26.0155  -38.2823   24.1460 H   0  0  0  0  0  0
  -31.4875  -17.9512   19.5242 H   0  0  0  0  0  0
  -29.6762  -22.3468   19.0288 H   0  0  0  0  0  0
  -27.8159  -23.2201   21.2433 H   0  0  0  0  0  0
  -24.4754  -20.1396   23.3705 H   0  0  0  0  0  0
  -24.7994  -21.3288   22.1079 H   0  0  0  0  0  0
  -25.8014  -21.2852   23.5621 H   0  0  0  0  0  0
  -27.5535  -24.6715   18.8821 H   0  0  0  0  0  0
  -29.2434  -24.8110   19.0009 H   0  0  0  0  0  0
  -25.6523  -19.0186   21.5026 H   0  0  0  0  0  0
  -26.6581  -19.0630   22.9640 H   0  0  0  0  0  0
  -28.7841  -15.6527   21.0583 H   0  0  0  0  0  0
  1 25  1  0  0  0
  1 30  2  0  0  0
  1 82  1  0  0  0
  2  3  1  0  0  0
  2 25  1  0  0  0
  2 86  1  0  0  0
  2 87  1  0  0  0
  3  4  1  0  0  0
  3 88  1  0  0  0
  3 89  1  0  0  0
  4  5  1  0  0  0
  4 90  1  0  0  0
  4 91  1  0  0  0
  5  6  1  0  0  0
  5 26  1  0  0  0
  5 92  1  0  0  0
  6 25  1  0  0  0
  6 93  1  0  0  0
  6 94  1  0  0  0
  7  8  2  0  0  0
  7 26  1  0  0  0
  7 29  1  0  0  0
  8  9  1  0  0  0
  8 22  1  0  0  0
  9 10  1  0  0  0
  9 27  2  0  0  0
 10 11  2  0  0  0
 10 15  1  0  0  0
 11 12  1  0  0  0
 11 95  1  0  0  0
 12 13  2  0  0  0
 12 96  1  0  0  0
 13 14  1  0  0  0
 13 31  1  0  0  0
 14 15  2  0  0  0
 14 97  1  0  0  0
 15 98  1  0  0  0
 16 17  2  0  0  0
 16 21  1  0  0  0
 16 31  1  0  0  0
 17 18  1  0  0  0
 17 99  1  0  0  0
 18 19  2  0  0  0
 18100  1  0  0  0
 19 20  1  0  0  0
 19 24  1  0  0  0
 20 21  2  0  0  0
 20101  1  0  0  0
 21 23  1  0  0  0
 22 28  1  0  0  0
 22 32  2  0  0  0
 26 27  1  0  0  0
 28102  1  0  0  0
 28103  1  0  0  0
 29104  1  0  0  0
 29105  1  0  0  0
 33 34  1  0  0  0
 33 66  1  0  0  0
 33 70  2  0  0  0
 34 36  1  0  0  0
 34 59  1  0  0  0
 34106  1  0  0  0
 35 44  2  0  0  0
 35 45  1  0  0  0
 35 68  1  0  0  0
 36 56  1  0  0  0
 36107  1  0  0  0
 37 39  1  0  0  0
 37 47  1  0  0  0
 37 66  1  0  0  0
 37108  1  0  0  0
 38 43  2  0  0  0
 38 46  1  0  0  0
 38 47  1  0  0  0
 39 64  1  0  0  0
 39 67  2  0  0  0
 40 52  1  0  0  0
 40 53  2  0  0  0
 40 58  1  0  0  0
 41109  1  0  0  0
 41110  1  0  0  0
 41111  1  0  0  0
 41 48  1  0  0  0
 42 43  1  0  0  0
 42 66  1  0  0  0
 42112  1  0  0  0
 42113  1  0  0  0
 43 44  1  0  0  0
 44114  1  0  0  0
 45 46  2  0  0  0
 45115  1  0  0  0
 46116  1  0  0  0
 47117  1  0  0  0
 47118  1  0  0  0
 48 56  1  0  0  0
 48 65  1  0  0  0
 48119  1  0  0  0
 49 50  1  0  0  0
 49 53  1  0  0  0
 49 64  1  0  0  0
 49120  1  0  0  0
 50 51  1  0  0  0
 50121  1  0  0  0
 50122  1  0  0  0
 51 52  1  0  0  0
 51123  1  0  0  0
 51124  1  0  0  0
 52125  1  0  0  0
 52126  1  0  0  0
 53 54  1  0  0  0
 54 55  2  0  0  0
 54127  1  0  0  0
 55 57  1  0  0  0
 55128  1  0  0  0
 56 69  2  0  0  0
 57 58  2  0  0  0
 57129  1  0  0  0
 58130  1  0  0  0
 59 60  1  0  0  0
 59 61  1  0  0  0
 59 62  1  0  0  0
 60131  1  0  0  0
 60132  1  0  0  0
 60133  1  0  0  0
 61134  1  0  0  0
 61135  1  0  0  0
 61136  1  0  0  0
 62137  1  0  0  0
 62138  1  0  0  0
 62139  1  0  0  0
 63 65  1  0  0  0
 63140  1  0  0  0
 63141  1  0  0  0
 63142  1  0  0  0
 64143  1  0  0  0
 65144  1  0  0  0
 68 80  1  0  0  0
 71 73  2  0  0  0
 71 75  1  0  0  0
 71145  1  0  0  0
 72 74  1  0  0  0
 72 75  2  0  0  0
 72 77  1  0  0  0
 73 76  1  0  0  0
 73 82  1  0  0  0
 74 76  2  0  0  0
 74 83  1  0  0  0
 75 84  1  0  0  0
 76 85  1  0  0  0
 77 78  2  0  0  0
 77146  1  0  0  0
 78 80  1  0  0  0
 78147  1  0  0  0
 79 81  1  0  0  0
 79148  1  0  0  0
 79149  1  0  0  0
 79150  1  0  0  0
 80151  1  0  0  0
 80152  1  0  0  0
 81 83  1  0  0  0
 81153  1  0  0  0
 81154  1  0  0  0
 82155  1  0  0  0
M  ISO  4   1 100  68 101  80 101  82 100
M  END
> <chiral flag>
0

> <version>
0

> <s_m_source_file>
/data/baiqing/PycharmProjects/Reinvent-master-3.2/result/LINK_invent/BTK/process_docking_weight1_custom_product_contain_oxygen_bond_distance_aromatic_linkinvent_7_9_3/rearranged_h_0114.sdf

> <i_m_source_file_index>
24

> <r_mmod_Potential_Energy-OPLS-2005>
468.111663818359

> <r_mmod_Stretch_Energy-OPLS-2005>
221.386169433594

> <r_mmod_Bend_Energy-OPLS-2005>
278.420227050781

> <r_mmod_Torsional_Energy-OPLS-2005>
216.192321777344

> <r_mmod_Improper_Torsional_Energy-OPLS-2005>
4.88209438323975

> <r_mmod_Van_der_Waal_Energy-OPLS-2005>
139.399261474609

> <r_mmod_Electrostatic_Energy-OPLS-2005>
-363.880035400391

> <r_mmod_Solvation_Energy-OPLS-2005>
-202.08251953125

> <b_mmod_Minimization_Converged-OPLS-2005>
0

> <r_mmod_RMS_Derivative-OPLS-2005>
1.95815622806549

$$$$
24
                    3D
 Structure written by MMmdl.
161169  0  0  1  0            999 V2000
  -30.6357  -14.6863   20.3855 C   0  0  0  0  0  0
  -30.4313  -12.3922   19.4554 C   0  0  0  0  0  0
  -29.4970  -12.4052   18.2242 C   0  0  0  0  0  0
  -28.0203  -12.2854   18.6486 C   0  0  0  0  0  0
  -27.6387  -13.2084   19.8374 C   0  0  2  0  0  0
  -28.6915  -13.1660   20.9623 C   0  0  0  0  0  0
  -25.2537  -13.8111   20.5778 C   0  0  0  0  0  0
  -24.1797  -13.0384   20.9229 C   0  0  0  0  0  0
  -24.6374  -11.6874   20.8747 C   0  0  0  0  0  0
  -23.9075  -10.4266   21.0392 C   0  0  0  0  0  0
  -24.3629   -9.4181   21.9172 C   0  0  0  0  0  0
  -23.6295   -8.2226   22.0747 C   0  0  0  0  0  0
  -22.4283   -8.0270   21.3531 C   0  0  0  0  0  0
  -21.9918   -9.0254   20.4636 C   0  0  0  0  0  0
  -22.7256  -10.2124   20.3032 C   0  0  0  0  0  0
  -21.6859   -6.0727   22.5275 C   0  0  0  0  0  0
  -21.4021   -6.5646   23.8205 C   0  0  0  0  0  0
  -21.3657   -5.6803   24.9166 C   0  0  0  0  0  0
  -21.6046   -4.3069   24.7222 C   0  0  0  0  0  0
  -21.8821   -3.8142   23.4349 C   0  0  0  0  0  0
  -21.9207   -4.6958   22.3402 C   0  0  0  0  0  0
  -22.7830  -13.5195   21.1880 C   0  0  0  0  0  0
  -22.1665   -4.2143   21.0977 F   0  0  0  0  0  0
  -21.5621   -3.4552   25.7731 F   0  0  0  0  0  0
  -29.9893  -13.4772   20.3535 N   0  0  0  0  0  0
  -26.2937  -12.9304   20.3290 N   0  0  0  0  0  0
  -25.9308  -11.6478   20.5797 N   0  0  0  0  0  0
  -22.0477  -12.8171   22.0415 N   0  0  0  0  0  0
  -25.4272  -15.1814   20.4367 N   0  0  0  0  0  0
  -31.8672  -14.7314   20.3125 O   0  0  0  0  0  0
  -21.6645   -6.8862   21.4230 O   0  0  0  0  0  0
  -22.3536  -14.5512   20.6725 O   0  0  0  0  0  0
  -24.6247  -31.8623   23.2044 C   0  0  0  0  0  0
  -25.9105  -32.4783   23.8366 C   0  0  1  0  0  0
  -27.2163  -27.3223   20.1254 C   0  0  0  0  0  0
  -25.5942  -33.8582   24.2293 N   0  0  0  0  0  0
  -23.4181  -30.4875   21.5459 C   0  0  2  0  0  0
  -24.8639  -28.9502   20.1075 C   0  0  0  0  0  0
  -22.7470  -29.4640   22.4923 C   0  0  0  0  0  0
  -18.0291  -28.1382   22.8487 C   0  0  0  0  0  0
  -24.1496  -36.7297   23.2640 C   0  0  0  0  0  0
  -25.9596  -30.7940   21.3772 C   0  0  0  0  0  0
  -26.0329  -29.4238   20.7176 C   0  0  0  0  0  0
  -27.2121  -28.6203   20.7209 C   0  0  0  0  0  0
  -26.0305  -26.9164   19.4659 C   0  0  0  0  0  0
  -24.8652  -27.7028   19.4700 C   0  0  0  0  0  0
  -23.6313  -29.8281   20.1593 C   0  0  0  0  0  0
  -25.4120  -36.3083   24.0336 C   0  0  1  0  0  0
  -20.5892  -28.3691   23.1280 C   0  0  2  0  0  0
  -20.6779  -26.9414   22.5406 C   0  0  0  0  0  0
  -19.5748  -26.6383   21.5216 C   0  0  0  0  0  0
  -18.1931  -26.7926   22.1627 C   0  0  0  0  0  0
  -19.1542  -28.8854   23.2877 C   0  0  0  0  0  0
  -18.9459  -30.1457   23.8888 C   0  0  0  0  0  0
  -17.6457  -30.6585   24.0561 C   0  0  0  0  0  0
  -25.9059  -34.9452   23.5109 C   0  0  0  0  0  0
  -16.5351  -29.9077   23.6332 C   0  0  0  0  0  0
  -16.7277  -28.6498   23.0351 C   0  0  0  0  0  0
  -26.4501  -31.6580   25.0732 C   0  0  0  0  0  0
  -25.3729  -31.3730   26.1461 C   0  0  0  0  0  0
  -27.0342  -30.2998   24.6195 C   0  0  0  0  0  0
  -27.6058  -32.4320   25.7487 C   0  0  0  0  0  0
  -27.5587  -37.1798   24.8463 C   0  0  0  0  0  0
  -21.4185  -29.3046   22.3665 N   0  0  0  0  0  0
  -26.4293  -37.3777   23.9416 N   0  0  0  0  0  0
  -24.6858  -31.0642   22.0992 N   0  0  0  0  0  0
  -23.4197  -28.8182   23.2998 O   0  0  0  0  0  0
  -28.3129  -26.4494   20.2175 O   0  0  0  0  0  0
  -26.5613  -34.8916   22.4670 O   0  0  0  0  0  0
  -23.5417  -32.1411   23.7383 O   0  0  0  0  0  0
  -28.5380  -19.3191   20.1729 C   0  0  0  0  0  0
  -30.6301  -17.7667   21.2019 C   0  0  0  0  0  0
  -28.6069  -17.9225   19.8966 C   0  0  0  0  0  0
  -29.5253  -19.9911   20.9238 C   0  0  0  0  0  0
  -29.6923  -17.0999   20.3676 C   0  0  0  0  0  0
  -30.5520  -19.1667   21.4669 C   0  0  0  0  0  0
  -26.4292  -17.7251   16.7789 C   0  0  0  0  0  0
  -27.4605  -17.8833   17.6231 C   0  0  0  0  0  0
  -28.9833  -23.9434   20.6496 C   0  0  0  0  0  0
  -30.1063  -15.8020   18.3608 C   0  0  0  0  0  0
  -27.4669  -17.3780   19.0500 C   0  0  0  0  0  0
  -28.6684  -22.4081   20.4274 C   0  0  0  0  0  0
  -28.0319  -25.0109   19.9885 C   0  0  0  0  0  0
  -29.5261  -21.4092   21.1421 N   0  0  0  0  0  0
  -29.9284  -15.7447   19.8287 N   0  0  0  0  0  0
  -29.9549  -24.2824   21.3366 O   0  0  0  0  0  0
  -31.5105  -19.7409   22.2338 F   0  0  0  0  0  0
  -31.4719  -12.5078   19.1438 H   0  0  0  0  0  0
  -30.3733  -11.4322   19.9677 H   0  0  0  0  0  0
  -29.7459  -11.5747   17.5628 H   0  0  0  0  0  0
  -29.6437  -13.2984   17.6229 H   0  0  0  0  0  0
  -27.8535  -11.2451   18.9314 H   0  0  0  0  0  0
  -27.3683  -12.4740   17.7957 H   0  0  0  0  0  0
  -27.6262  -14.2136   19.4336 H   0  0  0  0  0  0
  -28.7144  -12.1826   21.4344 H   0  0  0  0  0  0
  -28.4502  -13.8900   21.7434 H   0  0  0  0  0  0
  -25.2765   -9.5675   22.4750 H   0  0  0  0  0  0
  -24.0000   -7.4636   22.7479 H   0  0  0  0  0  0
  -21.0835   -8.8809   19.8981 H   0  0  0  0  0  0
  -22.3711  -10.9683   19.6165 H   0  0  0  0  0  0
  -21.2008   -7.6158   23.9701 H   0  0  0  0  0  0
  -21.1469   -6.0527   25.9062 H   0  0  0  0  0  0
  -22.0600   -2.7609   23.2863 H   0  0  0  0  0  0
  -22.4121  -11.9830   22.4782 H   0  0  0  0  0  0
  -21.1106  -13.1201   22.2678 H   0  0  0  0  0  0
  -24.6720  -15.8444   20.5648 H   0  0  0  0  0  0
  -26.3085  -15.6162   20.2051 H   0  0  0  0  0  0
  -26.7178  -32.5461   23.1116 H   0  0  0  0  0  0
  -25.0079  -33.9721   25.0432 H   0  0  0  0  0  0
  -22.7121  -31.3088   21.4076 H   0  0  0  0  0  0
  -23.3753  -35.9631   23.3288 H   0  0  0  0  0  0
  -24.3589  -36.8920   22.2056 H   0  0  0  0  0  0
  -23.7242  -37.6498   23.6660 H   0  0  0  0  0  0
  -26.0970  -31.5605   20.6134 H   0  0  0  0  0  0
  -26.8377  -30.8358   22.0092 H   0  0  0  0  0  0
  -28.1024  -28.9751   21.2218 H   0  0  0  0  0  0
  -25.9643  -25.9721   18.9480 H   0  0  0  0  0  0
  -23.9731  -27.3376   18.9788 H   0  0  0  0  0  0
  -23.7461  -30.6075   19.4053 H   0  0  0  0  0  0
  -22.7511  -29.2573   19.8580 H   0  0  0  0  0  0
  -25.1289  -36.1936   25.0826 H   0  0  0  0  0  0
  -20.9992  -28.3267   24.1400 H   0  0  0  0  0  0
  -20.5693  -26.2300   23.3605 H   0  0  0  0  0  0
  -21.6643  -26.7448   22.1189 H   0  0  0  0  0  0
  -19.6911  -25.6298   21.1234 H   0  0  0  0  0  0
  -19.6681  -27.3200   20.6753 H   0  0  0  0  0  0
  -17.4203  -26.6674   21.4031 H   0  0  0  0  0  0
  -18.0330  -26.0068   22.9023 H   0  0  0  0  0  0
  -19.7939  -30.7280   24.2240 H   0  0  0  0  0  0
  -17.5015  -31.6258   24.5170 H   0  0  0  0  0  0
  -15.5349  -30.2975   23.7668 H   0  0  0  0  0  0
  -15.8678  -28.0827   22.7049 H   0  0  0  0  0  0
  -24.5867  -30.7135   25.7778 H   0  0  0  0  0  0
  -24.8987  -32.2914   26.4926 H   0  0  0  0  0  0
  -25.8049  -30.8853   27.0205 H   0  0  0  0  0  0
  -26.2927  -29.6734   24.1231 H   0  0  0  0  0  0
  -27.4038  -29.7268   25.4708 H   0  0  0  0  0  0
  -27.8795  -30.4267   23.9426 H   0  0  0  0  0  0
  -27.2663  -33.3604   26.2079 H   0  0  0  0  0  0
  -28.3849  -32.6897   25.0302 H   0  0  0  0  0  0
  -28.0749  -31.8441   26.5381 H   0  0  0  0  0  0
  -28.2587  -38.0108   24.7523 H   0  0  0  0  0  0
  -28.1087  -36.2642   24.6259 H   0  0  0  0  0  0
  -27.2306  -37.1409   25.8860 H   0  0  0  0  0  0
  -20.9355  -29.8764   21.6878 H   0  0  0  0  0  0
  -26.0174  -38.2849   24.1410 H   0  0  0  0  0  0
  -27.7099  -19.8842   19.7714 H   0  0  0  0  0  0
  -31.4799  -17.2243   21.5928 H   0  0  0  0  0  0
  -26.4720  -18.1003   15.7670 H   0  0  0  0  0  0
  -25.5266  -17.2178   17.0885 H   0  0  0  0  0  0
  -28.3568  -18.3860   17.2858 H   0  0  0  0  0  0
  -30.3733  -16.8068   18.0276 H   0  0  0  0  0  0
  -29.1950  -15.5138   17.8396 H   0  0  0  0  0  0
  -30.9074  -15.1627   17.9821 H   0  0  0  0  0  0
  -26.5234  -17.6626   19.5177 H   0  0  0  0  0  0
  -27.4729  -16.2953   19.0258 H   0  0  0  0  0  0
  -28.7284  -22.2130   19.3566 H   0  0  0  0  0  0
  -27.6268  -22.2468   20.7086 H   0  0  0  0  0  0
  -27.0393  -24.7699   20.3700 H   0  0  0  0  0  0
  -28.0178  -24.8259   18.9148 H   0  0  0  0  0  0
  -30.3091  -21.7964   21.6629 H   0  0  0  0  0  0
  1 25  1  0  0  0
  1 30  2  0  0  0
  1 85  1  0  0  0
  2  3  1  0  0  0
  2 25  1  0  0  0
  2 88  1  0  0  0
  2 89  1  0  0  0
  3  4  1  0  0  0
  3 90  1  0  0  0
  3 91  1  0  0  0
  4  5  1  0  0  0
  4 92  1  0  0  0
  4 93  1  0  0  0
  5  6  1  0  0  0
  5 26  1  0  0  0
  5 94  1  0  0  0
  6 25  1  0  0  0
  6 95  1  0  0  0
  6 96  1  0  0  0
  7  8  2  0  0  0
  7 26  1  0  0  0
  7 29  1  0  0  0
  8  9  1  0  0  0
  8 22  1  0  0  0
  9 10  1  0  0  0
  9 27  2  0  0  0
 10 11  2  0  0  0
 10 15  1  0  0  0
 11 12  1  0  0  0
 11 97  1  0  0  0
 12 13  2  0  0  0
 12 98  1  0  0  0
 13 14  1  0  0  0
 13 31  1  0  0  0
 14 15  2  0  0  0
 14 99  1  0  0  0
 15100  1  0  0  0
 16 17  2  0  0  0
 16 21  1  0  0  0
 16 31  1  0  0  0
 17 18  1  0  0  0
 17101  1  0  0  0
 18 19  2  0  0  0
 18102  1  0  0  0
 19 20  1  0  0  0
 19 24  1  0  0  0
 20 21  2  0  0  0
 20103  1  0  0  0
 21 23  1  0  0  0
 22 28  1  0  0  0
 22 32  2  0  0  0
 26 27  1  0  0  0
 28104  1  0  0  0
 28105  1  0  0  0
 29106  1  0  0  0
 29107  1  0  0  0
 33 34  1  0  0  0
 33 66  1  0  0  0
 33 70  2  0  0  0
 34 36  1  0  0  0
 34 59  1  0  0  0
 34108  1  0  0  0
 35 44  2  0  0  0
 35 45  1  0  0  0
 35 68  1  0  0  0
 36 56  1  0  0  0
 36109  1  0  0  0
 37 39  1  0  0  0
 37 47  1  0  0  0
 37 66  1  0  0  0
 37110  1  0  0  0
 38 43  2  0  0  0
 38 46  1  0  0  0
 38 47  1  0  0  0
 39 64  1  0  0  0
 39 67  2  0  0  0
 40 52  1  0  0  0
 40 53  2  0  0  0
 40 58  1  0  0  0
 41111  1  0  0  0
 41112  1  0  0  0
 41113  1  0  0  0
 41 48  1  0  0  0
 42 43  1  0  0  0
 42 66  1  0  0  0
 42114  1  0  0  0
 42115  1  0  0  0
 43 44  1  0  0  0
 44116  1  0  0  0
 45 46  2  0  0  0
 45117  1  0  0  0
 46118  1  0  0  0
 47119  1  0  0  0
 47120  1  0  0  0
 48 56  1  0  0  0
 48 65  1  0  0  0
 48121  1  0  0  0
 49 50  1  0  0  0
 49 53  1  0  0  0
 49 64  1  0  0  0
 49122  1  0  0  0
 50 51  1  0  0  0
 50123  1  0  0  0
 50124  1  0  0  0
 51 52  1  0  0  0
 51125  1  0  0  0
 51126  1  0  0  0
 52127  1  0  0  0
 52128  1  0  0  0
 53 54  1  0  0  0
 54 55  2  0  0  0
 54129  1  0  0  0
 55 57  1  0  0  0
 55130  1  0  0  0
 56 69  2  0  0  0
 57 58  2  0  0  0
 57131  1  0  0  0
 58132  1  0  0  0
 59 60  1  0  0  0
 59 61  1  0  0  0
 59 62  1  0  0  0
 60133  1  0  0  0
 60134  1  0  0  0
 60135  1  0  0  0
 61136  1  0  0  0
 61137  1  0  0  0
 61138  1  0  0  0
 62139  1  0  0  0
 62140  1  0  0  0
 62141  1  0  0  0
 63 65  1  0  0  0
 63142  1  0  0  0
 63143  1  0  0  0
 63144  1  0  0  0
 64145  1  0  0  0
 65146  1  0  0  0
 68 83  1  0  0  0
 71 73  2  0  0  0
 71 74  1  0  0  0
 71147  1  0  0  0
 72 75  2  0  0  0
 72 76  1  0  0  0
 72148  1  0  0  0
 73 75  1  0  0  0
 73 81  1  0  0  0
 74 76  2  0  0  0
 74 84  1  0  0  0
 75 85  1  0  0  0
 76 87  1  0  0  0
 77 78  2  0  0  0
 77149  1  0  0  0
 77150  1  0  0  0
 78 81  1  0  0  0
 78151  1  0  0  0
 79 82  1  0  0  0
 79 83  1  0  0  0
 79 86  2  0  0  0
 80 85  1  0  0  0
 80152  1  0  0  0
 80153  1  0  0  0
 80154  1  0  0  0
 81155  1  0  0  0
 81156  1  0  0  0
 82 84  1  0  0  0
 82157  1  0  0  0
 82158  1  0  0  0
 83159  1  0  0  0
 83160  1  0  0  0
 84161  1  0  0  0
M  ISO  4   1 100  68 101  83 101  85 100
M  END
> <chiral flag>
0

> <version>
0

> <s_m_source_file>
/data/baiqing/PycharmProjects/Reinvent-master-3.2/result/LINK_invent/BTK/process_docking_weight1_custom_product_contain_oxygen_bond_distance_aromatic_linkinvent_7_9_3/rearranged_h_0114.sdf

> <i_m_source_file_index>
25

> <r_mmod_Potential_Energy-OPLS-2005>
356.705657958984

> <r_mmod_Stretch_Energy-OPLS-2005>
84.3788528442383

> <r_mmod_Bend_Energy-OPLS-2005>
156.5712890625

> <r_mmod_Torsional_Energy-OPLS-2005>
314.164398193359

> <r_mmod_Improper_Torsional_Energy-OPLS-2005>
29.2463436126709

> <r_mmod_Van_der_Waal_Energy-OPLS-2005>
149.673049926758

> <r_mmod_Electrostatic_Energy-OPLS-2005>
-233.625457763672

> <r_mmod_Solvation_Energy-OPLS-2005>
-218.979476928711

> <b_mmod_Minimization_Converged-OPLS-2005>
0

> <r_mmod_RMS_Derivative-OPLS-2005>
2.95284152030945

$$$$
25
                    3D
 Structure written by MMmdl.
168177  0  0  1  0            999 V2000
  -30.6867  -14.4660   20.6076 C   0  0  0  0  0  0
  -30.4382  -12.3136   19.4178 C   0  0  0  0  0  0
  -29.4992  -12.5125   18.2084 C   0  0  0  0  0  0
  -28.0188  -12.3769   18.6182 C   0  0  0  0  0  0
  -27.6686  -13.2028   19.8839 C   0  0  2  0  0  0
  -28.7089  -12.9475   20.9977 C   0  0  0  0  0  0
  -25.2607  -13.8150   20.5659 C   0  0  0  0  0  0
  -24.1852  -13.0438   20.9179 C   0  0  0  0  0  0
  -24.6402  -11.6902   20.8747 C   0  0  0  0  0  0
  -23.9068  -10.4285   21.0408 C   0  0  0  0  0  0
  -24.3619   -9.4206   21.9182 C   0  0  0  0  0  0
  -23.6296   -8.2240   22.0749 C   0  0  0  0  0  0
  -22.4276   -8.0273   21.3538 C   0  0  0  0  0  0
  -21.9914   -9.0244   20.4642 C   0  0  0  0  0  0
  -22.7238  -10.2126   20.3056 C   0  0  0  0  0  0
  -21.6853   -6.0735   22.5269 C   0  0  0  0  0  0
  -21.4012   -6.5633   23.8203 C   0  0  0  0  0  0
  -21.3666   -5.6783   24.9164 C   0  0  0  0  0  0
  -21.6048   -4.3046   24.7212 C   0  0  0  0  0  0
  -21.8825   -3.8145   23.4332 C   0  0  0  0  0  0
  -21.9197   -4.6965   22.3392 C   0  0  0  0  0  0
  -22.7881  -13.5239   21.1839 C   0  0  0  0  0  0
  -22.1663   -4.2155   21.0970 F   0  0  0  0  0  0
  -21.5640   -3.4533   25.7729 F   0  0  0  0  0  0
  -30.0474  -13.2711   20.4641 N   0  0  0  0  0  0
  -26.3061  -12.9317   20.3417 N   0  0  0  0  0  0
  -25.9336  -11.6480   20.5800 N   0  0  0  0  0  0
  -22.0523  -12.8232   22.0394 N   0  0  0  0  0  0
  -25.4324  -15.1853   20.3991 N   0  0  0  0  0  0
  -31.7680  -14.7205   20.0678 O   0  0  0  0  0  0
  -21.6639   -6.8872   21.4230 O   0  0  0  0  0  0
  -22.3547  -14.5532   20.6676 O   0  0  0  0  0  0
  -24.6140  -31.8692   23.2108 C   0  0  0  0  0  0
  -25.9041  -32.4821   23.8400 C   0  0  1  0  0  0
  -27.2325  -27.4422   20.0938 C   0  0  0  0  0  0
  -25.5920  -33.8619   24.2347 N   0  0  0  0  0  0
  -23.4031  -30.4925   21.5503 C   0  0  2  0  0  0
  -24.8521  -28.9613   20.1109 C   0  0  0  0  0  0
  -22.7424  -29.4645   22.4975 C   0  0  0  0  0  0
  -18.0287  -28.1373   22.8471 C   0  0  0  0  0  0
  -24.1494  -36.7297   23.2635 C   0  0  0  0  0  0
  -25.9306  -30.8355   21.3658 C   0  0  0  0  0  0
  -26.0108  -29.4711   20.7124 C   0  0  0  0  0  0
  -27.2074  -28.7166   20.7061 C   0  0  0  0  0  0
  -26.0644  -26.9481   19.4825 C   0  0  0  0  0  0
  -24.8732  -27.6981   19.4931 C   0  0  0  0  0  0
  -23.6132  -29.8284   20.1624 C   0  0  0  0  0  0
  -25.4114  -36.3105   24.0347 C   0  0  1  0  0  0
  -20.5868  -28.3645   23.1317 C   0  0  2  0  0  0
  -20.6776  -26.9383   22.5411 C   0  0  0  0  0  0
  -19.5763  -26.6366   21.5202 C   0  0  0  0  0  0
  -18.1937  -26.7916   22.1600 C   0  0  0  0  0  0
  -19.1532  -28.8822   23.2891 C   0  0  0  0  0  0
  -18.9465  -30.1425   23.8909 C   0  0  0  0  0  0
  -17.6472  -30.6577   24.0554 C   0  0  0  0  0  0
  -25.9034  -34.9473   23.5130 C   0  0  0  0  0  0
  -16.5361  -29.9084   23.6316 C   0  0  0  0  0  0
  -16.7275  -28.6499   23.0331 C   0  0  0  0  0  0
  -26.4475  -31.6579   25.0708 C   0  0  0  0  0  0
  -25.3754  -31.3709   26.1469 C   0  0  0  0  0  0
  -27.0282  -30.3026   24.6043 C   0  0  0  0  0  0
  -27.6067  -32.4270   25.7476 C   0  0  0  0  0  0
  -27.5592  -37.1805   24.8472 C   0  0  0  0  0  0
  -21.4145  -29.3027   22.3737 N   0  0  0  0  0  0
  -26.4304  -37.3786   23.9407 N   0  0  0  0  0  0
  -24.6667  -31.0793   22.1011 N   0  0  0  0  0  0
  -23.4205  -28.8182   23.3003 O   0  0  0  0  0  0
  -28.3590  -26.6513   20.0957 O   0  0  0  0  0  0
  -26.5571  -34.8925   22.4679 O   0  0  0  0  0  0
  -23.5335  -32.1433   23.7514 O   0  0  0  0  0  0
  -30.1850  -18.9362   20.1430 C   0  0  0  0  0  0
  -30.5273  -17.5737   20.3193 C   0  0  0  0  0  0
  -28.4028  -18.6878   21.7623 C   0  0  0  0  0  0
  -29.1145  -19.5074   20.8645 C   0  0  0  0  0  0
  -28.7441  -17.3305   21.9716 C   0  0  0  0  0  0
  -29.8020  -16.7507   21.2200 C   0  0  0  0  0  0
  -28.5297  -23.3583   20.9180 C   0  0  0  0  0  0
  -29.1910  -24.5357   21.1586 C   0  0  0  0  0  0
  -29.2210  -22.0547   21.0483 C   0  0  0  0  0  0
  -30.6610  -24.5304   21.4273 C   0  0  0  0  0  0
  -28.6340  -20.8940   20.6566 C   0  0  0  0  0  0
  -27.9472  -16.5109   22.9095 C   0  0  0  0  0  0
  -26.6666  -16.7340   23.2535 C   0  0  0  0  0  0
  -30.5504  -22.0383   21.7822 C   0  0  0  0  0  0
  -31.4217  -23.2085   21.3232 C   0  0  0  0  0  0
  -27.0289  -23.3531   20.6233 C   0  0  0  0  0  0
  -25.8875  -15.8814   24.2304 C   0  0  0  0  0  0
  -28.5174  -25.9176   21.3189 C   0  0  0  0  0  0
  -30.0348  -15.3459   21.3891 N   0  0  0  0  0  0
  -31.3130  -25.5424   21.7023 O   0  0  0  0  0  0
  -31.4778  -12.4410   19.1108 H   0  0  0  0  0  0
  -30.3670  -11.2940   19.8005 H   0  0  0  0  0  0
  -29.7350  -11.7868   17.4290 H   0  0  0  0  0  0
  -29.6671  -13.4976   17.7704 H   0  0  0  0  0  0
  -27.8208  -11.3202   18.8024 H   0  0  0  0  0  0
  -27.3699  -12.6641   17.7895 H   0  0  0  0  0  0
  -27.7224  -14.2564   19.6072 H   0  0  0  0  0  0
  -28.6842  -11.8996   21.2987 H   0  0  0  0  0  0
  -28.4505  -13.5041   21.8992 H   0  0  0  0  0  0
  -25.2763   -9.5694   22.4753 H   0  0  0  0  0  0
  -24.0016   -7.4635   22.7460 H   0  0  0  0  0  0
  -21.0851   -8.8755   19.8941 H   0  0  0  0  0  0
  -22.3689  -10.9666   19.6169 H   0  0  0  0  0  0
  -21.1985   -7.6133   23.9718 H   0  0  0  0  0  0
  -21.1490   -6.0500   25.9069 H   0  0  0  0  0  0
  -22.0603   -2.7611   23.2821 H   0  0  0  0  0  0
  -22.4129  -11.9893   22.4798 H   0  0  0  0  0  0
  -21.1131  -13.1252   22.2571 H   0  0  0  0  0  0
  -24.6816  -15.8491   20.5477 H   0  0  0  0  0  0
  -26.3083  -15.6282   20.1548 H   0  0  0  0  0  0
  -26.7118  -32.5539   23.1169 H   0  0  0  0  0  0
  -25.0149  -33.9793   25.0552 H   0  0  0  0  0  0
  -22.6892  -31.3077   21.4127 H   0  0  0  0  0  0
  -23.3769  -35.9616   23.3288 H   0  0  0  0  0  0
  -24.3612  -36.8904   22.2055 H   0  0  0  0  0  0
  -23.7229  -37.6497   23.6643 H   0  0  0  0  0  0
  -26.0416  -31.6060   20.6012 H   0  0  0  0  0  0
  -26.8193  -30.8889   21.9838 H   0  0  0  0  0  0
  -28.1015  -29.1020   21.1735 H   0  0  0  0  0  0
  -26.0718  -25.9749   19.0123 H   0  0  0  0  0  0
  -23.9835  -27.2995   19.0254 H   0  0  0  0  0  0
  -23.7278  -30.6089   19.4083 H   0  0  0  0  0  0
  -22.7361  -29.2538   19.8597 H   0  0  0  0  0  0
  -25.1297  -36.1968   25.0841 H   0  0  0  0  0  0
  -20.9955  -28.3198   24.1439 H   0  0  0  0  0  0
  -20.5660  -26.2258   23.3585 H   0  0  0  0  0  0
  -21.6649  -26.7417   22.1213 H   0  0  0  0  0  0
  -19.6927  -25.6272   21.1239 H   0  0  0  0  0  0
  -19.6732  -27.3172   20.6728 H   0  0  0  0  0  0
  -17.4210  -26.6662   21.3998 H   0  0  0  0  0  0
  -18.0332  -26.0064   22.8998 H   0  0  0  0  0  0
  -19.7950  -30.7229   24.2293 H   0  0  0  0  0  0
  -17.5037  -31.6272   24.5132 H   0  0  0  0  0  0
  -15.5360  -30.2996   23.7637 H   0  0  0  0  0  0
  -15.8669  -28.0832   22.7026 H   0  0  0  0  0  0
  -24.5914  -30.7061   25.7823 H   0  0  0  0  0  0
  -24.8971  -32.2885   26.4906 H   0  0  0  0  0  0
  -25.8112  -30.8890   27.0231 H   0  0  0  0  0  0
  -26.2809  -29.6805   24.1101 H   0  0  0  0  0  0
  -27.4088  -29.7226   25.4458 H   0  0  0  0  0  0
  -27.8630  -30.4354   23.9157 H   0  0  0  0  0  0
  -27.2706  -33.3566   26.2082 H   0  0  0  0  0  0
  -28.3878  -32.6819   25.0299 H   0  0  0  0  0  0
  -28.0725  -31.8362   26.5369 H   0  0  0  0  0  0
  -28.2598  -38.0111   24.7509 H   0  0  0  0  0  0
  -28.1095  -36.2636   24.6301 H   0  0  0  0  0  0
  -27.2318  -37.1464   25.8880 H   0  0  0  0  0  0
  -20.9291  -29.8784   21.6998 H   0  0  0  0  0  0
  -26.0190  -38.2860   24.1430 H   0  0  0  0  0  0
  -30.7356  -19.5363   19.4318 H   0  0  0  0  0  0
  -31.3397  -17.1708   19.7322 H   0  0  0  0  0  0
  -27.5803  -19.1267   22.3080 H   0  0  0  0  0  0
  -27.6762  -20.9323   20.1596 H   0  0  0  0  0  0
  -28.4533  -15.6777   23.3760 H   0  0  0  0  0  0
  -26.1188  -17.5576   22.8185 H   0  0  0  0  0  0
  -31.0919  -21.1057   21.6261 H   0  0  0  0  0  0
  -30.3552  -22.1089   22.8528 H   0  0  0  0  0  0
  -32.3336  -23.2589   21.9193 H   0  0  0  0  0  0
  -31.7262  -23.0688   20.2859 H   0  0  0  0  0  0
  -26.5517  -24.3277   20.6572 H   0  0  0  0  0  0
  -26.5060  -22.7154   21.3373 H   0  0  0  0  0  0
  -26.8468  -22.9605   19.6212 H   0  0  0  0  0  0
  -26.5029  -15.0811   24.6432 H   0  0  0  0  0  0
  -25.0301  -15.4306   23.7299 H   0  0  0  0  0  0
  -25.5219  -16.4944   25.0549 H   0  0  0  0  0  0
  -29.0777  -26.5476   22.0115 H   0  0  0  0  0  0
  -27.5636  -25.7824   21.8313 H   0  0  0  0  0  0
  -29.3226  -14.8957   21.9413 H   0  0  0  0  0  0
  1 25  1  0  0  0
  1 30  2  0  0  0
  1 89  1  0  0  0
  2  3  1  0  0  0
  2 25  1  0  0  0
  2 91  1  0  0  0
  2 92  1  0  0  0
  3  4  1  0  0  0
  3 93  1  0  0  0
  3 94  1  0  0  0
  4  5  1  0  0  0
  4 95  1  0  0  0
  4 96  1  0  0  0
  5  6  1  0  0  0
  5 26  1  0  0  0
  5 97  1  0  0  0
  6 25  1  0  0  0
  6 98  1  0  0  0
  6 99  1  0  0  0
  7  8  2  0  0  0
  7 26  1  0  0  0
  7 29  1  0  0  0
  8  9  1  0  0  0
  8 22  1  0  0  0
  9 10  1  0  0  0
  9 27  2  0  0  0
 10 11  2  0  0  0
 10 15  1  0  0  0
 11 12  1  0  0  0
 11100  1  0  0  0
 12 13  2  0  0  0
 12101  1  0  0  0
 13 14  1  0  0  0
 13 31  1  0  0  0
 14 15  2  0  0  0
 14102  1  0  0  0
 15103  1  0  0  0
 16 17  2  0  0  0
 16 21  1  0  0  0
 16 31  1  0  0  0
 17 18  1  0  0  0
 17104  1  0  0  0
 18 19  2  0  0  0
 18105  1  0  0  0
 19 20  1  0  0  0
 19 24  1  0  0  0
 20 21  2  0  0  0
 20106  1  0  0  0
 21 23  1  0  0  0
 22 28  1  0  0  0
 22 32  2  0  0  0
 26 27  1  0  0  0
 28107  1  0  0  0
 28108  1  0  0  0
 29109  1  0  0  0
 29110  1  0  0  0
 33 34  1  0  0  0
 33 66  1  0  0  0
 33 70  2  0  0  0
 34 36  1  0  0  0
 34 59  1  0  0  0
 34111  1  0  0  0
 35 44  2  0  0  0
 35 45  1  0  0  0
 35 68  1  0  0  0
 36 56  1  0  0  0
 36112  1  0  0  0
 37 39  1  0  0  0
 37 47  1  0  0  0
 37 66  1  0  0  0
 37113  1  0  0  0
 38 43  2  0  0  0
 38 46  1  0  0  0
 38 47  1  0  0  0
 39 64  1  0  0  0
 39 67  2  0  0  0
 40 52  1  0  0  0
 40 53  2  0  0  0
 40 58  1  0  0  0
 41114  1  0  0  0
 41115  1  0  0  0
 41116  1  0  0  0
 41 48  1  0  0  0
 42 43  1  0  0  0
 42 66  1  0  0  0
 42117  1  0  0  0
 42118  1  0  0  0
 43 44  1  0  0  0
 44119  1  0  0  0
 45 46  2  0  0  0
 45120  1  0  0  0
 46121  1  0  0  0
 47122  1  0  0  0
 47123  1  0  0  0
 48 56  1  0  0  0
 48 65  1  0  0  0
 48124  1  0  0  0
 49 50  1  0  0  0
 49 53  1  0  0  0
 49 64  1  0  0  0
 49125  1  0  0  0
 50 51  1  0  0  0
 50126  1  0  0  0
 50127  1  0  0  0
 51 52  1  0  0  0
 51128  1  0  0  0
 51129  1  0  0  0
 52130  1  0  0  0
 52131  1  0  0  0
 53 54  1  0  0  0
 54 55  2  0  0  0
 54132  1  0  0  0
 55 57  1  0  0  0
 55133  1  0  0  0
 56 69  2  0  0  0
 57 58  2  0  0  0
 57134  1  0  0  0
 58135  1  0  0  0
 59 60  1  0  0  0
 59 61  1  0  0  0
 59 62  1  0  0  0
 60136  1  0  0  0
 60137  1  0  0  0
 60138  1  0  0  0
 61139  1  0  0  0
 61140  1  0  0  0
 61141  1  0  0  0
 62142  1  0  0  0
 62143  1  0  0  0
 62144  1  0  0  0
 63 65  1  0  0  0
 63145  1  0  0  0
 63146  1  0  0  0
 63147  1  0  0  0
 64148  1  0  0  0
 65149  1  0  0  0
 68 88  1  0  0  0
 71 72  2  0  0  0
 71 74  1  0  0  0
 71150  1  0  0  0
 72 76  1  0  0  0
 72151  1  0  0  0
 73 74  2  0  0  0
 73 75  1  0  0  0
 73152  1  0  0  0
 74 81  1  0  0  0
 75 76  2  0  0  0
 75 82  1  0  0  0
 76 89  1  0  0  0
 77 78  2  0  0  0
 77 79  1  0  0  0
 77 86  1  0  0  0
 78 80  1  0  0  0
 78 88  1  0  0  0
 79 81  2  0  0  0
 79 84  1  0  0  0
 80 85  1  0  0  0
 80 90  2  0  0  0
 81153  1  0  0  0
 82 83  2  0  0  0
 82154  1  0  0  0
 83 87  1  0  0  0
 83155  1  0  0  0
 84 85  1  0  0  0
 84156  1  0  0  0
 84157  1  0  0  0
 85158  1  0  0  0
 85159  1  0  0  0
 86160  1  0  0  0
 86161  1  0  0  0
 86162  1  0  0  0
 87163  1  0  0  0
 87164  1  0  0  0
 87165  1  0  0  0
 88166  1  0  0  0
 88167  1  0  0  0
 89168  1  0  0  0
M  ISO  4   1 100  68 101  88 101  89 100
M  END
> <chiral flag>
0

> <version>
0

> <s_m_source_file>
/data/baiqing/PycharmProjects/Reinvent-master-3.2/result/LINK_invent/BTK/process_docking_weight1_custom_product_contain_oxygen_bond_distance_aromatic_linkinvent_7_9_3/rearranged_h_0114.sdf

> <i_m_source_file_index>
26

> <r_mmod_Potential_Energy-OPLS-2005>
25.7904987335205

> <r_mmod_Stretch_Energy-OPLS-2005>
45.4290237426758

> <r_mmod_Bend_Energy-OPLS-2005>
112.078300476074

> <r_mmod_Torsional_Energy-OPLS-2005>
277.560455322266

> <r_mmod_Improper_Torsional_Energy-OPLS-2005>
4.65457153320312

> <r_mmod_Van_der_Waal_Energy-OPLS-2005>
168.779907226562

> <r_mmod_Electrostatic_Energy-OPLS-2005>
-391.075653076172

> <r_mmod_Solvation_Energy-OPLS-2005>
-203.459701538086

> <b_mmod_Minimization_Converged-OPLS-2005>
0

> <r_mmod_RMS_Derivative-OPLS-2005>
1.90884828567505

$$$$
26
                    3D
 Structure written by MMmdl.
164173  0  0  1  0            999 V2000
  -30.6753  -14.7001   20.4908 C   0  0  0  0  0  0
  -30.4082  -12.4409   19.4598 C   0  0  0  0  0  0
  -29.4951  -12.5175   18.2207 C   0  0  0  0  0  0
  -28.0245  -12.3345   18.6430 C   0  0  0  0  0  0
  -27.6353  -13.2345   19.8458 C   0  0  2  0  0  0
  -28.6815  -13.1963   20.9804 C   0  0  0  0  0  0
  -25.2480  -13.8215   20.5695 C   0  0  0  0  0  0
  -24.1785  -13.0450   20.9219 C   0  0  0  0  0  0
  -24.6371  -11.6938   20.8747 C   0  0  0  0  0  0
  -23.9044  -10.4305   21.0386 C   0  0  0  0  0  0
  -24.3614   -9.4236   21.9175 C   0  0  0  0  0  0
  -23.6300   -8.2265   22.0755 C   0  0  0  0  0  0
  -22.4285   -8.0277   21.3548 C   0  0  0  0  0  0
  -21.9903   -9.0238   20.4656 C   0  0  0  0  0  0
  -22.7202  -10.2130   20.3046 C   0  0  0  0  0  0
  -21.6858   -6.0716   22.5274 C   0  0  0  0  0  0
  -21.4030   -6.5624   23.8207 C   0  0  0  0  0  0
  -21.3671   -5.6779   24.9179 C   0  0  0  0  0  0
  -21.6040   -4.3041   24.7224 C   0  0  0  0  0  0
  -21.8830   -3.8127   23.4349 C   0  0  0  0  0  0
  -21.9207   -4.6944   22.3405 C   0  0  0  0  0  0
  -22.7809  -13.5231   21.1892 C   0  0  0  0  0  0
  -22.1665   -4.2127   21.0982 F   0  0  0  0  0  0
  -21.5637   -3.4532   25.7744 F   0  0  0  0  0  0
  -29.9792  -13.5199   20.3791 N   0  0  0  0  0  0
  -26.2906  -12.9421   20.3286 N   0  0  0  0  0  0
  -25.9310  -11.6568   20.5765 N   0  0  0  0  0  0
  -22.0456  -12.8216   22.0454 N   0  0  0  0  0  0
  -25.4154  -15.1936   20.4079 N   0  0  0  0  0  0
  -31.8786  -14.6993   20.2165 O   0  0  0  0  0  0
  -21.6659   -6.8862   21.4238 O   0  0  0  0  0  0
  -22.3510  -14.5545   20.6757 O   0  0  0  0  0  0
  -24.6231  -31.8583   23.2013 C   0  0  0  0  0  0
  -25.9075  -32.4772   23.8345 C   0  0  1  0  0  0
  -27.2408  -27.3183   20.1168 C   0  0  0  0  0  0
  -25.5887  -33.8572   24.2265 N   0  0  0  0  0  0
  -23.4190  -30.4801   21.5414 C   0  0  2  0  0  0
  -24.8683  -28.9296   20.1092 C   0  0  0  0  0  0
  -22.7460  -29.4627   22.4934 C   0  0  0  0  0  0
  -18.0283  -28.1401   22.8487 C   0  0  0  0  0  0
  -24.1476  -36.7295   23.2649 C   0  0  0  0  0  0
  -25.9577  -30.7874   21.3727 C   0  0  0  0  0  0
  -26.0312  -29.4127   20.7178 C   0  0  0  0  0  0
  -27.2137  -28.6168   20.7147 C   0  0  0  0  0  0
  -26.0530  -26.8875   19.4794 C   0  0  0  0  0  0
  -24.8815  -27.6719   19.4834 C   0  0  0  0  0  0
  -23.6341  -29.8093   20.1573 C   0  0  0  0  0  0
  -25.4104  -36.3084   24.0338 C   0  0  1  0  0  0
  -20.5891  -28.3702   23.1276 C   0  0  2  0  0  0
  -20.6780  -26.9428   22.5413 C   0  0  0  0  0  0
  -19.5753  -26.6399   21.5216 C   0  0  0  0  0  0
  -18.1925  -26.7945   22.1624 C   0  0  0  0  0  0
  -19.1541  -28.8872   23.2877 C   0  0  0  0  0  0
  -18.9465  -30.1483   23.8881 C   0  0  0  0  0  0
  -17.6466  -30.6601   24.0583 C   0  0  0  0  0  0
  -25.9043  -34.9451   23.5114 C   0  0  0  0  0  0
  -16.5358  -29.9104   23.6344 C   0  0  0  0  0  0
  -16.7273  -28.6532   23.0342 C   0  0  0  0  0  0
  -26.4471  -31.6582   25.0712 C   0  0  0  0  0  0
  -25.3722  -31.3706   26.1458 C   0  0  0  0  0  0
  -27.0319  -30.3011   24.6165 C   0  0  0  0  0  0
  -27.6027  -32.4329   25.7457 C   0  0  0  0  0  0
  -27.5576  -37.1801   24.8475 C   0  0  0  0  0  0
  -21.4181  -29.3045   22.3660 N   0  0  0  0  0  0
  -26.4283  -37.3779   23.9420 N   0  0  0  0  0  0
  -24.6850  -31.0599   22.0948 N   0  0  0  0  0  0
  -23.4184  -28.8198   23.3041 O   0  0  0  0  0  0
  -28.3972  -26.5209   20.1932 O   0  0  0  0  0  0
  -26.5627  -34.8921   22.4692 O   0  0  0  0  0  0
  -23.5393  -32.1375   23.7343 O   0  0  0  0  0  0
  -29.2182  -20.7928   21.3410 C   0  0  0  0  0  0
  -30.2525  -20.5635   19.1984 C   0  0  0  0  0  0
  -29.3109  -19.3672   21.5561 C   0  0  0  0  0  0
  -29.9712  -18.5119   20.6028 C   0  0  0  0  0  0
  -30.3872  -19.1553   19.3946 C   0  0  0  0  0  0
  -29.7512  -21.4449   20.1958 C   0  0  0  0  0  0
  -31.1893  -23.3965   19.8997 C   0  0  0  0  0  0
  -28.0724  -19.4159   23.7651 C   0  0  0  0  0  0
  -28.7580  -18.7786   22.8005 C   0  0  0  0  0  0
  -30.5524  -17.1122   20.9765 C   0  0  0  0  0  0
  -31.4615  -24.6549   20.7110 C   0  0  0  0  0  0
  -30.2266  -24.7334   21.5963 C   0  0  0  0  0  0
  -29.1484  -24.0248   20.7627 C   0  0  2  0  0  0
  -31.1148  -18.3607   18.3209 C   0  0  0  0  0  0
  -28.4598  -25.0951   19.7772 C   0  0  0  0  0  0
  -29.9325  -22.9156   20.0873 N   0  0  0  0  0  0
  -29.9883  -15.8953   20.6410 N   0  0  0  0  0  0
  -32.0674  -22.9161   19.1770 O   0  0  0  0  0  0
  -31.6119  -17.1599   21.6101 O   0  0  0  0  0  0
  -31.4559  -12.5260   19.1654 H   0  0  0  0  0  0
  -30.3125  -11.4668   19.9428 H   0  0  0  0  0  0
  -29.7753  -11.7537   17.4942 H   0  0  0  0  0  0
  -29.6216  -13.4812   17.7241 H   0  0  0  0  0  0
  -27.8908  -11.2842   18.9065 H   0  0  0  0  0  0
  -27.3558  -12.5214   17.8004 H   0  0  0  0  0  0
  -27.6249  -14.2508   19.4552 H   0  0  0  0  0  0
  -28.7181  -12.2182   21.4597 H   0  0  0  0  0  0
  -28.4207  -13.9131   21.7623 H   0  0  0  0  0  0
  -25.2747   -9.5764   22.4755 H   0  0  0  0  0  0
  -24.0025   -7.4679   22.7479 H   0  0  0  0  0  0
  -21.0831   -8.8723   19.8973 H   0  0  0  0  0  0
  -22.3607  -10.9665   19.6169 H   0  0  0  0  0  0
  -21.2015   -7.6132   23.9711 H   0  0  0  0  0  0
  -21.1488   -6.0509   25.9080 H   0  0  0  0  0  0
  -22.0606   -2.7587   23.2856 H   0  0  0  0  0  0
  -22.4032  -11.9831   22.4786 H   0  0  0  0  0  0
  -21.1107  -13.1288   22.2720 H   0  0  0  0  0  0
  -24.6391  -15.8397   20.4939 H   0  0  0  0  0  0
  -26.2564  -15.6334   20.0590 H   0  0  0  0  0  0
  -26.7135  -32.5424   23.1084 H   0  0  0  0  0  0
  -24.9986  -33.9718   25.0383 H   0  0  0  0  0  0
  -22.7126  -31.2996   21.3984 H   0  0  0  0  0  0
  -23.3734  -35.9632   23.3311 H   0  0  0  0  0  0
  -24.3575  -36.8909   22.2064 H   0  0  0  0  0  0
  -23.7222  -37.6497   23.6664 H   0  0  0  0  0  0
  -26.0871  -31.5487   20.6033 H   0  0  0  0  0  0
  -26.8383  -30.8362   22.0013 H   0  0  0  0  0  0
  -28.1062  -28.9900   21.1990 H   0  0  0  0  0  0
  -25.9919  -25.9403   18.9693 H   0  0  0  0  0  0
  -23.9922  -27.2962   18.9963 H   0  0  0  0  0  0
  -23.7490  -30.5852   19.3986 H   0  0  0  0  0  0
  -22.7543  -29.2368   19.8582 H   0  0  0  0  0  0
  -25.1279  -36.1932   25.0828 H   0  0  0  0  0  0
  -20.9978  -28.3271   24.1400 H   0  0  0  0  0  0
  -20.5672  -26.2319   23.3620 H   0  0  0  0  0  0
  -21.6646  -26.7461   22.1214 H   0  0  0  0  0  0
  -19.6912  -25.6304   21.1251 H   0  0  0  0  0  0
  -19.6678  -27.3208   20.6745 H   0  0  0  0  0  0
  -17.4205  -26.6692   21.4024 H   0  0  0  0  0  0
  -18.0324  -26.0092   22.9027 H   0  0  0  0  0  0
  -19.7947  -30.7320   24.2207 H   0  0  0  0  0  0
  -17.5026  -31.6266   24.5209 H   0  0  0  0  0  0
  -15.5362  -30.3005   23.7695 H   0  0  0  0  0  0
  -15.8673  -28.0876   22.7030 H   0  0  0  0  0  0
  -24.5906  -30.7036   25.7806 H   0  0  0  0  0  0
  -24.8909  -32.2865   26.4896 H   0  0  0  0  0  0
  -25.8083  -30.8890   27.0224 H   0  0  0  0  0  0
  -26.2889  -29.6748   24.1221 H   0  0  0  0  0  0
  -27.4051  -29.7284   25.4665 H   0  0  0  0  0  0
  -27.8741  -30.4311   23.9363 H   0  0  0  0  0  0
  -27.2643  -33.3648   26.2002 H   0  0  0  0  0  0
  -28.3833  -32.6862   25.0265 H   0  0  0  0  0  0
  -28.0698  -31.8474   26.5389 H   0  0  0  0  0  0
  -28.2610  -38.0085   24.7517 H   0  0  0  0  0  0
  -28.1050  -36.2620   24.6293 H   0  0  0  0  0  0
  -27.2310  -37.1448   25.8885 H   0  0  0  0  0  0
  -20.9351  -29.8729   21.6843 H   0  0  0  0  0  0
  -26.0159  -38.2856   24.1411 H   0  0  0  0  0  0
  -28.8168  -21.4227   22.1205 H   0  0  0  0  0  0
  -30.6470  -20.9939   18.2865 H   0  0  0  0  0  0
  -27.7162  -18.8720   24.6303 H   0  0  0  0  0  0
  -27.8460  -20.4690   23.7325 H   0  0  0  0  0  0
  -28.9102  -17.7202   22.9554 H   0  0  0  0  0  0
  -31.5575  -25.5198   20.0544 H   0  0  0  0  0  0
  -32.3762  -24.5598   21.2990 H   0  0  0  0  0  0
  -29.9718  -25.7524   21.8848 H   0  0  0  0  0  0
  -30.4096  -24.1823   22.5203 H   0  0  0  0  0  0
  -28.3883  -23.6155   21.4277 H   0  0  0  0  0  0
  -32.1171  -18.1048   18.6685 H   0  0  0  0  0  0
  -31.2181  -18.9315   17.3963 H   0  0  0  0  0  0
  -30.5830  -17.4373   18.0841 H   0  0  0  0  0  0
  -27.4872  -24.6819   19.5331 H   0  0  0  0  0  0
  -29.0025  -25.0992   18.8301 H   0  0  0  0  0  0
  -29.0019  -15.8917   20.4446 H   0  0  0  0  0  0
  1 25  1  0  0  0
  1 30  2  0  0  0
  1 87  1  0  0  0
  2  3  1  0  0  0
  2 25  1  0  0  0
  2 90  1  0  0  0
  2 91  1  0  0  0
  3  4  1  0  0  0
  3 92  1  0  0  0
  3 93  1  0  0  0
  4  5  1  0  0  0
  4 94  1  0  0  0
  4 95  1  0  0  0
  5  6  1  0  0  0
  5 26  1  0  0  0
  5 96  1  0  0  0
  6 25  1  0  0  0
  6 97  1  0  0  0
  6 98  1  0  0  0
  7  8  2  0  0  0
  7 26  1  0  0  0
  7 29  1  0  0  0
  8  9  1  0  0  0
  8 22  1  0  0  0
  9 10  1  0  0  0
  9 27  2  0  0  0
 10 11  2  0  0  0
 10 15  1  0  0  0
 11 12  1  0  0  0
 11 99  1  0  0  0
 12 13  2  0  0  0
 12100  1  0  0  0
 13 14  1  0  0  0
 13 31  1  0  0  0
 14 15  2  0  0  0
 14101  1  0  0  0
 15102  1  0  0  0
 16 17  2  0  0  0
 16 21  1  0  0  0
 16 31  1  0  0  0
 17 18  1  0  0  0
 17103  1  0  0  0
 18 19  2  0  0  0
 18104  1  0  0  0
 19 20  1  0  0  0
 19 24  1  0  0  0
 20 21  2  0  0  0
 20105  1  0  0  0
 21 23  1  0  0  0
 22 28  1  0  0  0
 22 32  2  0  0  0
 26 27  1  0  0  0
 28106  1  0  0  0
 28107  1  0  0  0
 29108  1  0  0  0
 29109  1  0  0  0
 33 34  1  0  0  0
 33 66  1  0  0  0
 33 70  2  0  0  0
 34 36  1  0  0  0
 34 59  1  0  0  0
 34110  1  0  0  0
 35 44  2  0  0  0
 35 45  1  0  0  0
 35 68  1  0  0  0
 36 56  1  0  0  0
 36111  1  0  0  0
 37 39  1  0  0  0
 37 47  1  0  0  0
 37 66  1  0  0  0
 37112  1  0  0  0
 38 43  2  0  0  0
 38 46  1  0  0  0
 38 47  1  0  0  0
 39 64  1  0  0  0
 39 67  2  0  0  0
 40 52  1  0  0  0
 40 53  2  0  0  0
 40 58  1  0  0  0
 41113  1  0  0  0
 41114  1  0  0  0
 41115  1  0  0  0
 41 48  1  0  0  0
 42 43  1  0  0  0
 42 66  1  0  0  0
 42116  1  0  0  0
 42117  1  0  0  0
 43 44  1  0  0  0
 44118  1  0  0  0
 45 46  2  0  0  0
 45119  1  0  0  0
 46120  1  0  0  0
 47121  1  0  0  0
 47122  1  0  0  0
 48 56  1  0  0  0
 48 65  1  0  0  0
 48123  1  0  0  0
 49 50  1  0  0  0
 49 53  1  0  0  0
 49 64  1  0  0  0
 49124  1  0  0  0
 50 51  1  0  0  0
 50125  1  0  0  0
 50126  1  0  0  0
 51 52  1  0  0  0
 51127  1  0  0  0
 51128  1  0  0  0
 52129  1  0  0  0
 52130  1  0  0  0
 53 54  1  0  0  0
 54 55  2  0  0  0
 54131  1  0  0  0
 55 57  1  0  0  0
 55132  1  0  0  0
 56 69  2  0  0  0
 57 58  2  0  0  0
 57133  1  0  0  0
 58134  1  0  0  0
 59 60  1  0  0  0
 59 61  1  0  0  0
 59 62  1  0  0  0
 60135  1  0  0  0
 60136  1  0  0  0
 60137  1  0  0  0
 61138  1  0  0  0
 61139  1  0  0  0
 61140  1  0  0  0
 62141  1  0  0  0
 62142  1  0  0  0
 62143  1  0  0  0
 63 65  1  0  0  0
 63144  1  0  0  0
 63145  1  0  0  0
 63146  1  0  0  0
 64147  1  0  0  0
 65148  1  0  0  0
 68 85  1  0  0  0
 71 73  2  0  0  0
 71 76  1  0  0  0
 71149  1  0  0  0
 72 75  1  0  0  0
 72 76  2  0  0  0
 72150  1  0  0  0
 73 74  1  0  0  0
 73 79  1  0  0  0
 74 75  2  0  0  0
 74 80  1  0  0  0
 75 84  1  0  0  0
 76 86  1  0  0  0
 77 81  1  0  0  0
 77 86  1  0  0  0
 77 88  2  0  0  0
 78 79  2  0  0  0
 78151  1  0  0  0
 78152  1  0  0  0
 79153  1  0  0  0
 80 87  1  0  0  0
 80 89  2  0  0  0
 81 82  1  0  0  0
 81154  1  0  0  0
 81155  1  0  0  0
 82 83  1  0  0  0
 82156  1  0  0  0
 82157  1  0  0  0
 83 85  1  0  0  0
 83 86  1  0  0  0
 83158  1  0  0  0
 84159  1  0  0  0
 84160  1  0  0  0
 84161  1  0  0  0
 85162  1  0  0  0
 85163  1  0  0  0
 87164  1  0  0  0
M  ISO  4   1 100  68 101  85 101  87 100
M  END
> <chiral flag>
0

> <version>
0

> <s_m_source_file>
/data/baiqing/PycharmProjects/Reinvent-master-3.2/result/LINK_invent/BTK/process_docking_weight1_custom_product_contain_oxygen_bond_distance_aromatic_linkinvent_7_9_3/rearranged_h_0114.sdf

> <i_m_source_file_index>
27

> <r_mmod_Potential_Energy-OPLS-2005>
288.763061523438

> <r_mmod_Stretch_Energy-OPLS-2005>
103.791412353516

> <r_mmod_Bend_Energy-OPLS-2005>
199.529205322266

> <r_mmod_Torsional_Energy-OPLS-2005>
359.124450683594

> <r_mmod_Improper_Torsional_Energy-OPLS-2005>
11.6975317001343

> <r_mmod_Van_der_Waal_Energy-OPLS-2005>
157.243087768555

> <r_mmod_Electrostatic_Energy-OPLS-2005>
-372.1279296875

> <r_mmod_Solvation_Energy-OPLS-2005>
-234.780181884766

> <b_mmod_Minimization_Converged-OPLS-2005>
0

> <r_mmod_RMS_Derivative-OPLS-2005>
3.59663224220276

$$$$
27
                    3D
 Structure written by MMmdl.
170178  0  0  1  0            999 V2000
  -30.7410  -14.4440   20.5133 C   0  0  0  0  0  0
  -30.4010  -12.2718   19.4391 C   0  0  0  0  0  0
  -29.4920  -12.4906   18.2116 C   0  0  0  0  0  0
  -28.0098  -12.3701   18.6140 C   0  0  0  0  0  0
  -27.6559  -13.2190   19.8653 C   0  0  2  0  0  0
  -28.6953  -13.0264   20.9921 C   0  0  0  0  0  0
  -25.2561  -13.8196   20.5695 C   0  0  0  0  0  0
  -24.1827  -13.0442   20.9171 C   0  0  0  0  0  0
  -24.6406  -11.6918   20.8721 C   0  0  0  0  0  0
  -23.9078  -10.4294   21.0397 C   0  0  0  0  0  0
  -24.3629   -9.4208   21.9176 C   0  0  0  0  0  0
  -23.6298   -8.2243   22.0755 C   0  0  0  0  0  0
  -22.4276   -8.0283   21.3544 C   0  0  0  0  0  0
  -21.9915   -9.0260   20.4645 C   0  0  0  0  0  0
  -22.7251  -10.2134   20.3051 C   0  0  0  0  0  0
  -21.6855   -6.0736   22.5281 C   0  0  0  0  0  0
  -21.4024   -6.5641   23.8215 C   0  0  0  0  0  0
  -21.3660   -5.6797   24.9180 C   0  0  0  0  0  0
  -21.6040   -4.3059   24.7230 C   0  0  0  0  0  0
  -21.8824   -3.8147   23.4352 C   0  0  0  0  0  0
  -21.9200   -4.6963   22.3407 C   0  0  0  0  0  0
  -22.7851  -13.5224   21.1840 C   0  0  0  0  0  0
  -22.1667   -4.2147   21.0989 F   0  0  0  0  0  0
  -21.5618   -3.4544   25.7742 F   0  0  0  0  0  0
  -30.0324  -13.2852   20.4412 N   0  0  0  0  0  0
  -26.2994  -12.9395   20.3318 N   0  0  0  0  0  0
  -25.9332  -11.6535   20.5734 N   0  0  0  0  0  0
  -22.0509  -12.8205   22.0408 N   0  0  0  0  0  0
  -25.4287  -15.1921   20.4172 N   0  0  0  0  0  0
  -31.9133  -14.5048   20.1336 O   0  0  0  0  0  0
  -21.6644   -6.8878   21.4241 O   0  0  0  0  0  0
  -22.3531  -14.5528   20.6700 O   0  0  0  0  0  0
  -24.6116  -31.8711   23.2144 C   0  0  0  0  0  0
  -25.9032  -32.4837   23.8417 C   0  0  1  0  0  0
  -27.2253  -27.4490   20.0927 C   0  0  0  0  0  0
  -25.5911  -33.8640   24.2346 N   0  0  0  0  0  0
  -23.3971  -30.4971   21.5546 C   0  0  2  0  0  0
  -24.8401  -28.9694   20.1156 C   0  0  0  0  0  0
  -22.7383  -29.4680   22.5003 C   0  0  0  0  0  0
  -18.0274  -28.1364   22.8489 C   0  0  0  0  0  0
  -24.1488  -36.7318   23.2635 C   0  0  0  0  0  0
  -25.9257  -30.8381   21.3696 C   0  0  0  0  0  0
  -25.9987  -29.4737   20.7195 C   0  0  0  0  0  0
  -27.1905  -28.7163   20.7145 C   0  0  0  0  0  0
  -26.0531  -26.9734   19.4556 C   0  0  0  0  0  0
  -24.8611  -27.7165   19.4837 C   0  0  0  0  0  0
  -23.6027  -29.8345   20.1673 C   0  0  0  0  0  0
  -25.4115  -36.3129   24.0338 C   0  0  1  0  0  0
  -20.5858  -28.3657   23.1317 C   0  0  2  0  0  0
  -20.6766  -26.9395   22.5415 C   0  0  0  0  0  0
  -19.5751  -26.6378   21.5204 C   0  0  0  0  0  0
  -18.1926  -26.7916   22.1608 C   0  0  0  0  0  0
  -19.1519  -28.8825   23.2903 C   0  0  0  0  0  0
  -18.9452  -30.1431   23.8914 C   0  0  0  0  0  0
  -17.6456  -30.6575   24.0564 C   0  0  0  0  0  0
  -25.9041  -34.9492   23.5135 C   0  0  0  0  0  0
  -16.5347  -29.9077   23.6323 C   0  0  0  0  0  0
  -16.7266  -28.6490   23.0352 C   0  0  0  0  0  0
  -26.4478  -31.6603   25.0726 C   0  0  0  0  0  0
  -25.3752  -31.3701   26.1467 C   0  0  0  0  0  0
  -27.0311  -30.3049   24.6097 C   0  0  0  0  0  0
  -27.6054  -32.4320   25.7487 C   0  0  0  0  0  0
  -27.5596  -37.1811   24.8462 C   0  0  0  0  0  0
  -21.4119  -29.3029   22.3723 N   0  0  0  0  0  0
  -26.4300  -37.3810   23.9417 N   0  0  0  0  0  0
  -24.6627  -31.0832   22.1039 N   0  0  0  0  0  0
  -23.4161  -28.8225   23.3039 O   0  0  0  0  0  0
  -28.4048  -26.7337   20.0983 O   0  0  0  0  0  0
  -26.5591  -34.8934   22.4687 O   0  0  0  0  0  0
  -23.5314  -32.1467   23.7549 O   0  0  0  0  0  0
  -29.6708  -18.7430   21.5149 C   0  0  0  0  0  0
  -29.5002  -20.3500   19.2438 C   0  0  0  0  0  0
  -29.8977  -18.1640   20.2493 C   0  0  0  0  0  0
  -29.7521  -18.9749   19.0960 C   0  0  0  0  0  0
  -29.4118  -20.1249   21.6679 C   0  0  0  0  0  0
  -29.3853  -20.9642   20.5155 C   0  0  0  0  0  0
  -30.3513  -16.7689   20.1299 C   0  0  0  0  0  0
  -30.0072  -15.6665   20.8358 C   0  0  0  0  0  0
  -29.4585  -24.6237   19.7642 C   0  0  0  0  0  0
  -28.3638  -25.3656   19.9785 C   0  0  0  0  0  0
  -28.6240  -17.7883   15.5445 C   0  0  0  0  0  0
  -28.5146  -24.1630   23.8756 C   0  0  0  0  0  0
  -29.8774  -18.4422   17.6696 C   0  0  0  0  0  0
  -29.4147  -23.1381   19.4765 C   0  0  0  0  0  0
  -28.5087  -18.2918   16.9884 C   0  0  0  0  0  0
  -29.3297  -22.8839   23.6507 C   0  0  0  0  0  0
  -28.4509  -21.6820   23.2667 C   0  0  0  0  0  0
  -29.2920  -22.3398   20.6523 O   0  0  0  0  0  0
  -29.2652  -20.5508   22.9739 O   0  0  0  0  0  0
  -31.4510  -12.3199   19.1442 H   0  0  0  0  0  0
  -30.2557  -11.2718   19.8514 H   0  0  0  0  0  0
  -29.7249  -11.7644   17.4318 H   0  0  0  0  0  0
  -29.6796  -13.4765   17.7808 H   0  0  0  0  0  0
  -27.8069  -11.3168   18.8120 H   0  0  0  0  0  0
  -27.3704  -12.6508   17.7759 H   0  0  0  0  0  0
  -27.6944  -14.2640   19.5569 H   0  0  0  0  0  0
  -28.6540  -12.0055   21.3736 H   0  0  0  0  0  0
  -28.4712  -13.6666   21.8453 H   0  0  0  0  0  0
  -25.2780   -9.5675   22.4743 H   0  0  0  0  0  0
  -24.0005   -7.4643   22.7483 H   0  0  0  0  0  0
  -21.0843   -8.8789   19.8956 H   0  0  0  0  0  0
  -22.3716  -10.9675   19.6162 H   0  0  0  0  0  0
  -21.2023   -7.6153   23.9711 H   0  0  0  0  0  0
  -21.1471   -6.0534   25.9081 H   0  0  0  0  0  0
  -22.0599   -2.7607   23.2865 H   0  0  0  0  0  0
  -22.4160  -11.9880   22.4789 H   0  0  0  0  0  0
  -21.1122  -13.1215   22.2616 H   0  0  0  0  0  0
  -24.6678  -15.8508   20.5389 H   0  0  0  0  0  0
  -26.2948  -15.6332   20.1341 H   0  0  0  0  0  0
  -26.7097  -32.5556   23.1181 H   0  0  0  0  0  0
  -25.0102  -33.9822   25.0515 H   0  0  0  0  0  0
  -22.6859  -31.3145   21.4203 H   0  0  0  0  0  0
  -23.3768  -35.9631   23.3284 H   0  0  0  0  0  0
  -24.3589  -36.8946   22.2053 H   0  0  0  0  0  0
  -23.7214  -37.6510   23.6652 H   0  0  0  0  0  0
  -26.0418  -31.6048   20.6024 H   0  0  0  0  0  0
  -26.8136  -30.8888   21.9877 H   0  0  0  0  0  0
  -28.0854  -29.1007   21.1853 H   0  0  0  0  0  0
  -26.0388  -26.0371   18.9186 H   0  0  0  0  0  0
  -23.9751  -27.3302   18.9988 H   0  0  0  0  0  0
  -23.7083  -30.6113   19.4091 H   0  0  0  0  0  0
  -22.7270  -29.2538   19.8721 H   0  0  0  0  0  0
  -25.1287  -36.2003   25.0833 H   0  0  0  0  0  0
  -20.9965  -28.3227   24.1431 H   0  0  0  0  0  0
  -20.5669  -26.2268   23.3600 H   0  0  0  0  0  0
  -21.6641  -26.7434   22.1216 H   0  0  0  0  0  0
  -19.6921  -25.6294   21.1226 H   0  0  0  0  0  0
  -19.6695  -27.3190   20.6733 H   0  0  0  0  0  0
  -17.4204  -26.6670   21.4000 H   0  0  0  0  0  0
  -18.0322  -26.0044   22.8987 H   0  0  0  0  0  0
  -19.7932  -30.7237   24.2290 H   0  0  0  0  0  0
  -17.5017  -31.6258   24.5160 H   0  0  0  0  0  0
  -15.5350  -30.2991   23.7634 H   0  0  0  0  0  0
  -15.8663  -28.0815   22.7065 H   0  0  0  0  0  0
  -24.5927  -30.7048   25.7801 H   0  0  0  0  0  0
  -24.8932  -32.2848   26.4922 H   0  0  0  0  0  0
  -25.8101  -30.8862   27.0219 H   0  0  0  0  0  0
  -26.2846  -29.6806   24.1165 H   0  0  0  0  0  0
  -27.4108  -29.7293   25.4554 H   0  0  0  0  0  0
  -27.8676  -30.4378   23.9230 H   0  0  0  0  0  0
  -27.2669  -33.3599   26.2114 H   0  0  0  0  0  0
  -28.3831  -32.6914   25.0291 H   0  0  0  0  0  0
  -28.0759  -31.8413   26.5361 H   0  0  0  0  0  0
  -28.2598  -38.0126   24.7558 H   0  0  0  0  0  0
  -28.1108  -36.2663   24.6226 H   0  0  0  0  0  0
  -27.2320  -37.1397   25.8865 H   0  0  0  0  0  0
  -20.9270  -29.8748   21.6951 H   0  0  0  0  0  0
  -26.0195  -38.2887   24.1445 H   0  0  0  0  0  0
  -29.7551  -18.1288   22.4002 H   0  0  0  0  0  0
  -29.4340  -20.9249   18.3332 H   0  0  0  0  0  0
  -31.1260  -16.6508   19.3856 H   0  0  0  0  0  0
  -29.2470  -15.7027   21.6003 H   0  0  0  0  0  0
  -30.4331  -25.0904   19.7521 H   0  0  0  0  0  0
  -27.3804  -24.9261   20.0549 H   0  0  0  0  0  0
  -27.6404  -17.7052   15.0810 H   0  0  0  0  0  0
  -29.0926  -16.8044   15.5058 H   0  0  0  0  0  0
  -29.2207  -18.4675   14.9345 H   0  0  0  0  0  0
  -29.1594  -24.9869   24.1811 H   0  0  0  0  0  0
  -27.7625  -24.0233   24.6526 H   0  0  0  0  0  0
  -28.0016  -24.4659   22.9623 H   0  0  0  0  0  0
  -30.4052  -17.4928   17.6187 H   0  0  0  0  0  0
  -30.4952  -19.1391   17.0994 H   0  0  0  0  0  0
  -30.3258  -22.8930   18.9286 H   0  0  0  0  0  0
  -28.5655  -22.9500   18.8172 H   0  0  0  0  0  0
  -27.8916  -17.6005   17.5637 H   0  0  0  0  0  0
  -27.9845  -19.2484   16.9925 H   0  0  0  0  0  0
  -29.8895  -22.6449   24.5554 H   0  0  0  0  0  0
  -30.0766  -23.0713   22.8798 H   0  0  0  0  0  0
  -27.7488  -21.9176   22.4666 H   0  0  0  0  0  0
  -27.8274  -21.4157   24.1207 H   0  0  0  0  0  0
  1 25  1  0  0  0
  1 30  2  0  0  0
  1 78  1  0  0  0
  2  3  1  0  0  0
  2 25  1  0  0  0
  2 90  1  0  0  0
  2 91  1  0  0  0
  3  4  1  0  0  0
  3 92  1  0  0  0
  3 93  1  0  0  0
  4  5  1  0  0  0
  4 94  1  0  0  0
  4 95  1  0  0  0
  5  6  1  0  0  0
  5 26  1  0  0  0
  5 96  1  0  0  0
  6 25  1  0  0  0
  6 97  1  0  0  0
  6 98  1  0  0  0
  7  8  2  0  0  0
  7 26  1  0  0  0
  7 29  1  0  0  0
  8  9  1  0  0  0
  8 22  1  0  0  0
  9 10  1  0  0  0
  9 27  2  0  0  0
 10 11  2  0  0  0
 10 15  1  0  0  0
 11 12  1  0  0  0
 11 99  1  0  0  0
 12 13  2  0  0  0
 12100  1  0  0  0
 13 14  1  0  0  0
 13 31  1  0  0  0
 14 15  2  0  0  0
 14101  1  0  0  0
 15102  1  0  0  0
 16 17  2  0  0  0
 16 21  1  0  0  0
 16 31  1  0  0  0
 17 18  1  0  0  0
 17103  1  0  0  0
 18 19  2  0  0  0
 18104  1  0  0  0
 19 20  1  0  0  0
 19 24  1  0  0  0
 20 21  2  0  0  0
 20105  1  0  0  0
 21 23  1  0  0  0
 22 28  1  0  0  0
 22 32  2  0  0  0
 26 27  1  0  0  0
 28106  1  0  0  0
 28107  1  0  0  0
 29108  1  0  0  0
 29109  1  0  0  0
 33 34  1  0  0  0
 33 66  1  0  0  0
 33 70  2  0  0  0
 34 36  1  0  0  0
 34 59  1  0  0  0
 34110  1  0  0  0
 35 44  2  0  0  0
 35 45  1  0  0  0
 35 68  1  0  0  0
 36 56  1  0  0  0
 36111  1  0  0  0
 37 39  1  0  0  0
 37 47  1  0  0  0
 37 66  1  0  0  0
 37112  1  0  0  0
 38 43  2  0  0  0
 38 46  1  0  0  0
 38 47  1  0  0  0
 39 64  1  0  0  0
 39 67  2  0  0  0
 40 52  1  0  0  0
 40 53  2  0  0  0
 40 58  1  0  0  0
 41113  1  0  0  0
 41114  1  0  0  0
 41115  1  0  0  0
 41 48  1  0  0  0
 42 43  1  0  0  0
 42 66  1  0  0  0
 42116  1  0  0  0
 42117  1  0  0  0
 43 44  1  0  0  0
 44118  1  0  0  0
 45 46  2  0  0  0
 45119  1  0  0  0
 46120  1  0  0  0
 47121  1  0  0  0
 47122  1  0  0  0
 48 56  1  0  0  0
 48 65  1  0  0  0
 48123  1  0  0  0
 49 50  1  0  0  0
 49 53  1  0  0  0
 49 64  1  0  0  0
 49124  1  0  0  0
 50 51  1  0  0  0
 50125  1  0  0  0
 50126  1  0  0  0
 51 52  1  0  0  0
 51127  1  0  0  0
 51128  1  0  0  0
 52129  1  0  0  0
 52130  1  0  0  0
 53 54  1  0  0  0
 54 55  2  0  0  0
 54131  1  0  0  0
 55 57  1  0  0  0
 55132  1  0  0  0
 56 69  2  0  0  0
 57 58  2  0  0  0
 57133  1  0  0  0
 58134  1  0  0  0
 59 60  1  0  0  0
 59 61  1  0  0  0
 59 62  1  0  0  0
 60135  1  0  0  0
 60136  1  0  0  0
 60137  1  0  0  0
 61138  1  0  0  0
 61139  1  0  0  0
 61140  1  0  0  0
 62141  1  0  0  0
 62142  1  0  0  0
 62143  1  0  0  0
 63 65  1  0  0  0
 63144  1  0  0  0
 63145  1  0  0  0
 63146  1  0  0  0
 64147  1  0  0  0
 65148  1  0  0  0
 68 80  1  0  0  0
 71 73  2  0  0  0
 71 75  1  0  0  0
 71149  1  0  0  0
 72 74  2  0  0  0
 72 76  1  0  0  0
 72150  1  0  0  0
 73 74  1  0  0  0
 73 77  1  0  0  0
 74 83  1  0  0  0
 75 76  2  0  0  0
 75 89  1  0  0  0
 76 88  1  0  0  0
 77 78  2  0  0  0
 77151  1  0  0  0
 78152  1  0  0  0
 79 80  2  0  0  0
 79 84  1  0  0  0
 79153  1  0  0  0
 80154  1  0  0  0
 81 85  1  0  0  0
 81155  1  0  0  0
 81156  1  0  0  0
 81157  1  0  0  0
 82 86  1  0  0  0
 82158  1  0  0  0
 82159  1  0  0  0
 82160  1  0  0  0
 83 85  1  0  0  0
 83161  1  0  0  0
 83162  1  0  0  0
 84 88  1  0  0  0
 84163  1  0  0  0
 84164  1  0  0  0
 85165  1  0  0  0
 85166  1  0  0  0
 86 87  1  0  0  0
 86167  1  0  0  0
 86168  1  0  0  0
 87 89  1  0  0  0
 87169  1  0  0  0
 87170  1  0  0  0
M  ISO  4   1 100  68 101  78 100  80 101
M  END
> <chiral flag>
0

> <version>
0

> <s_m_source_file>
/data/baiqing/PycharmProjects/Reinvent-master-3.2/result/LINK_invent/BTK/process_docking_weight1_custom_product_contain_oxygen_bond_distance_aromatic_linkinvent_7_9_3/rearranged_h_0114.sdf

> <i_m_source_file_index>
28

> <r_mmod_Potential_Energy-OPLS-2005>
38.7209854125977

> <r_mmod_Stretch_Energy-OPLS-2005>
36.2520294189453

> <r_mmod_Bend_Energy-OPLS-2005>
121.819534301758

> <r_mmod_Torsional_Energy-OPLS-2005>
214.126129150391

> <r_mmod_Improper_Torsional_Energy-OPLS-2005>
5.73553991317749

> <r_mmod_Van_der_Waal_Energy-OPLS-2005>
173.769256591797

> <r_mmod_Electrostatic_Energy-OPLS-2005>
-339.943511962891

> <r_mmod_Solvation_Energy-OPLS-2005>
-190.829040527344

> <b_mmod_Minimization_Converged-OPLS-2005>
0

> <r_mmod_RMS_Derivative-OPLS-2005>
1.24467885494232

$$$$
28
                    3D
 Structure written by MMmdl.
154162  0  0  1  0            999 V2000
  -30.6180  -14.7185   20.4691 C   0  0  0  0  0  0
  -30.4339  -12.4357   19.4854 C   0  0  0  0  0  0
  -29.5150  -12.5141   18.2444 C   0  0  0  0  0  0
  -28.0388  -12.3468   18.6506 C   0  0  0  0  0  0
  -27.6483  -13.2343   19.8629 C   0  0  2  0  0  0
  -28.6896  -13.1422   21.0027 C   0  0  0  0  0  0
  -25.2524  -13.8210   20.5708 C   0  0  0  0  0  0
  -24.1805  -13.0451   20.9196 C   0  0  0  0  0  0
  -24.6399  -11.6928   20.8734 C   0  0  0  0  0  0
  -23.9080  -10.4297   21.0404 C   0  0  0  0  0  0
  -24.3627   -9.4209   21.9182 C   0  0  0  0  0  0
  -23.6293   -8.2248   22.0752 C   0  0  0  0  0  0
  -22.4272   -8.0287   21.3550 C   0  0  0  0  0  0
  -21.9913   -9.0265   20.4653 C   0  0  0  0  0  0
  -22.7250  -10.2139   20.3061 C   0  0  0  0  0  0
  -21.6854   -6.0738   22.5284 C   0  0  0  0  0  0
  -21.4019   -6.5642   23.8218 C   0  0  0  0  0  0
  -21.3655   -5.6793   24.9179 C   0  0  0  0  0  0
  -21.6038   -4.3055   24.7222 C   0  0  0  0  0  0
  -21.8817   -3.8149   23.4344 C   0  0  0  0  0  0
  -21.9193   -4.6967   22.3403 C   0  0  0  0  0  0
  -22.7829  -13.5233   21.1864 C   0  0  0  0  0  0
  -22.1659   -4.2155   21.0976 F   0  0  0  0  0  0
  -21.5625   -3.4534   25.7732 F   0  0  0  0  0  0
  -30.0010  -13.4874   20.4374 N   0  0  0  0  0  0
  -26.2963  -12.9427   20.3320 N   0  0  0  0  0  0
  -25.9333  -11.6564   20.5756 N   0  0  0  0  0  0
  -22.0475  -12.8225   22.0423 N   0  0  0  0  0  0
  -25.4218  -15.1935   20.4157 N   0  0  0  0  0  0
  -31.7795  -14.8328   20.0673 O   0  0  0  0  0  0
  -21.6643   -6.8881   21.4246 O   0  0  0  0  0  0
  -22.3515  -14.5541   20.6710 O   0  0  0  0  0  0
  -24.6312  -31.8560   23.2005 C   0  0  0  0  0  0
  -25.9138  -32.4761   23.8352 C   0  0  1  0  0  0
  -27.2132  -27.2579   20.1273 C   0  0  0  0  0  0
  -25.5932  -33.8563   24.2269 N   0  0  0  0  0  0
  -23.4276  -30.4818   21.5436 C   0  0  2  0  0  0
  -24.8750  -28.9370   20.1060 C   0  0  0  0  0  0
  -22.7510  -29.4606   22.4903 C   0  0  0  0  0  0
  -18.0294  -28.1389   22.8473 C   0  0  0  0  0  0
  -24.1487  -36.7287   23.2638 C   0  0  0  0  0  0
  -25.9759  -30.7667   21.3849 C   0  0  0  0  0  0
  -26.0468  -29.3910   20.7244 C   0  0  0  0  0  0
  -27.2166  -28.5626   20.7304 C   0  0  0  0  0  0
  -26.0241  -26.8945   19.4487 C   0  0  0  0  0  0
  -24.8696  -27.6967   19.4559 C   0  0  0  0  0  0
  -23.6461  -29.8224   20.1571 C   0  0  0  0  0  0
  -25.4113  -36.3072   24.0324 C   0  0  1  0  0  0
  -20.5898  -28.3698   23.1254 C   0  0  2  0  0  0
  -20.6778  -26.9414   22.5402 C   0  0  0  0  0  0
  -19.5753  -26.6380   21.5206 C   0  0  0  0  0  0
  -18.1935  -26.7926   22.1620 C   0  0  0  0  0  0
  -19.1547  -28.8861   23.2860 C   0  0  0  0  0  0
  -18.9472  -30.1460   23.8886 C   0  0  0  0  0  0
  -17.6469  -30.6585   24.0561 C   0  0  0  0  0  0
  -25.9055  -34.9442   23.5097 C   0  0  0  0  0  0
  -16.5360  -29.9085   23.6329 C   0  0  0  0  0  0
  -16.7279  -28.6504   23.0348 C   0  0  0  0  0  0
  -26.4503  -31.6586   25.0742 C   0  0  0  0  0  0
  -25.3717  -31.3747   26.1457 C   0  0  0  0  0  0
  -27.0355  -30.2996   24.6248 C   0  0  0  0  0  0
  -27.6051  -32.4335   25.7519 C   0  0  0  0  0  0
  -27.5576  -37.1799   24.8463 C   0  0  0  0  0  0
  -21.4216  -29.3048   22.3646 N   0  0  0  0  0  0
  -26.4289  -37.3768   23.9406 N   0  0  0  0  0  0
  -24.6970  -31.0531   22.0987 N   0  0  0  0  0  0
  -23.4213  -28.8135   23.2992 O   0  0  0  0  0  0
  -28.2847  -26.3309   20.2221 O   0  0  0  0  0  0
  -26.5628  -34.8908   22.4667 O   0  0  0  0  0  0
  -23.5459  -32.1391   23.7295 O   0  0  0  0  0  0
  -29.5432  -19.6637   18.7713 C   0  0  0  0  0  0
  -29.8758  -17.2326   18.7817 C   0  0  0  0  0  0
  -29.6619  -18.4465   20.8754 C   0  0  0  0  0  0
  -29.7236  -18.4458   18.0726 C   0  0  0  0  0  0
  -29.5207  -19.7221   20.1830 C   0  0  0  0  0  0
  -29.8480  -17.1754   20.1925 C   0  0  0  0  0  0
  -29.4401  -19.3971   15.7583 C   0  0  0  0  0  0
  -29.7297  -18.3890   16.5995 C   0  0  0  0  0  0
  -28.7797  -22.3551   20.1598 C   0  0  0  0  0  0
  -28.7758  -23.6756   20.5963 C   0  0  0  0  0  0
  -29.3769  -21.1189   20.8697 C   0  0  0  0  0  0
  -27.9970  -24.8824   19.9228 C   0  0  0  0  0  0
  -29.8823  -15.8367   20.8306 N   0  0  0  0  0  0
  -29.7321  -21.2294   22.0465 O   0  0  0  0  0  0
  -31.4783  -12.5489   19.1877 H   0  0  0  0  0  0
  -30.3665  -11.4519   19.9523 H   0  0  0  0  0  0
  -29.7910  -11.7469   17.5196 H   0  0  0  0  0  0
  -29.6535  -13.4729   17.7419 H   0  0  0  0  0  0
  -27.8842  -11.2956   18.8969 H   0  0  0  0  0  0
  -27.3877  -12.5590   17.8013 H   0  0  0  0  0  0
  -27.6519  -14.2623   19.4997 H   0  0  0  0  0  0
  -28.7128  -12.1362   21.4236 H   0  0  0  0  0  0
  -28.4251  -13.8077   21.8257 H   0  0  0  0  0  0
  -25.2773   -9.5683   22.4752 H   0  0  0  0  0  0
  -24.0007   -7.4639   22.7462 H   0  0  0  0  0  0
  -21.0845   -8.8791   19.8957 H   0  0  0  0  0  0
  -22.3714  -10.9679   19.6167 H   0  0  0  0  0  0
  -21.2021   -7.6149   23.9722 H   0  0  0  0  0  0
  -21.1479   -6.0523   25.9082 H   0  0  0  0  0  0
  -22.0598   -2.7609   23.2844 H   0  0  0  0  0  0
  -22.4093  -11.9899   22.4833 H   0  0  0  0  0  0
  -21.1088  -13.1249   22.2615 H   0  0  0  0  0  0
  -24.6577  -15.8490   20.5390 H   0  0  0  0  0  0
  -26.2746  -15.6350   20.0956 H   0  0  0  0  0  0
  -26.7203  -32.5412   23.1094 H   0  0  0  0  0  0
  -25.0067  -33.9710   25.0404 H   0  0  0  0  0  0
  -22.7232  -31.3040   21.4012 H   0  0  0  0  0  0
  -23.3745  -35.9624   23.3304 H   0  0  0  0  0  0
  -24.3575  -36.8912   22.2053 H   0  0  0  0  0  0
  -23.7246  -37.6488   23.6667 H   0  0  0  0  0  0
  -26.1194  -31.5272   20.6162 H   0  0  0  0  0  0
  -26.8512  -30.8126   22.0207 H   0  0  0  0  0  0
  -28.1061  -28.8999   21.2438 H   0  0  0  0  0  0
  -25.9427  -25.9615   18.9116 H   0  0  0  0  0  0
  -23.9781  -27.3509   18.9505 H   0  0  0  0  0  0
  -23.7695  -30.6018   19.4045 H   0  0  0  0  0  0
  -22.7648  -29.2565   19.8498 H   0  0  0  0  0  0
  -25.1293  -36.1924   25.0816 H   0  0  0  0  0  0
  -20.9987  -28.3284   24.1375 H   0  0  0  0  0  0
  -20.5663  -26.2320   23.3615 H   0  0  0  0  0  0
  -21.6649  -26.7425   22.1208 H   0  0  0  0  0  0
  -19.6914  -25.6288   21.1244 H   0  0  0  0  0  0
  -19.6686  -27.3180   20.6727 H   0  0  0  0  0  0
  -17.4200  -26.6658   21.4032 H   0  0  0  0  0  0
  -18.0343  -26.0081   22.9029 H   0  0  0  0  0  0
  -19.7951  -30.7271   24.2257 H   0  0  0  0  0  0
  -17.5028  -31.6262   24.5165 H   0  0  0  0  0  0
  -15.5361  -30.2983   23.7657 H   0  0  0  0  0  0
  -15.8681  -28.0817   22.7069 H   0  0  0  0  0  0
  -24.5889  -30.7105   25.7781 H   0  0  0  0  0  0
  -24.8919  -32.2925   26.4865 H   0  0  0  0  0  0
  -25.8022  -30.8932   27.0246 H   0  0  0  0  0  0
  -26.2952  -29.6742   24.1245 H   0  0  0  0  0  0
  -27.3993  -29.7264   25.4787 H   0  0  0  0  0  0
  -27.8850  -30.4262   23.9532 H   0  0  0  0  0  0
  -27.2647  -33.3634   26.2086 H   0  0  0  0  0  0
  -28.3863  -32.6898   25.0350 H   0  0  0  0  0  0
  -28.0715  -31.8472   26.5447 H   0  0  0  0  0  0
  -28.2589  -38.0098   24.7501 H   0  0  0  0  0  0
  -28.1073  -36.2626   24.6296 H   0  0  0  0  0  0
  -27.2293  -37.1457   25.8866 H   0  0  0  0  0  0
  -20.9406  -29.8801   21.6874 H   0  0  0  0  0  0
  -26.0166  -38.2840   24.1408 H   0  0  0  0  0  0
  -29.4546  -20.5814   18.2114 H   0  0  0  0  0  0
  -29.9819  -16.3176   18.2159 H   0  0  0  0  0  0
  -29.6283  -18.4509   21.9565 H   0  0  0  0  0  0
  -29.4836  -19.2440   14.6891 H   0  0  0  0  0  0
  -29.1555  -20.3819   16.0970 H   0  0  0  0  0  0
  -30.0025  -17.4379   16.1614 H   0  0  0  0  0  0
  -28.2660  -22.1472   19.2336 H   0  0  0  0  0  0
  -29.2897  -23.9153   21.5166 H   0  0  0  0  0  0
  -26.9814  -24.6696   20.2561 H   0  0  0  0  0  0
  -28.0021  -24.7377   18.8421 H   0  0  0  0  0  0
  -29.0754  -15.6273   21.3997 H   0  0  0  0  0  0
  1 25  1  0  0  0
  1 30  2  0  0  0
  1 83  1  0  0  0
  2  3  1  0  0  0
  2 25  1  0  0  0
  2 85  1  0  0  0
  2 86  1  0  0  0
  3  4  1  0  0  0
  3 87  1  0  0  0
  3 88  1  0  0  0
  4  5  1  0  0  0
  4 89  1  0  0  0
  4 90  1  0  0  0
  5  6  1  0  0  0
  5 26  1  0  0  0
  5 91  1  0  0  0
  6 25  1  0  0  0
  6 92  1  0  0  0
  6 93  1  0  0  0
  7  8  2  0  0  0
  7 26  1  0  0  0
  7 29  1  0  0  0
  8  9  1  0  0  0
  8 22  1  0  0  0
  9 10  1  0  0  0
  9 27  2  0  0  0
 10 11  2  0  0  0
 10 15  1  0  0  0
 11 12  1  0  0  0
 11 94  1  0  0  0
 12 13  2  0  0  0
 12 95  1  0  0  0
 13 14  1  0  0  0
 13 31  1  0  0  0
 14 15  2  0  0  0
 14 96  1  0  0  0
 15 97  1  0  0  0
 16 17  2  0  0  0
 16 21  1  0  0  0
 16 31  1  0  0  0
 17 18  1  0  0  0
 17 98  1  0  0  0
 18 19  2  0  0  0
 18 99  1  0  0  0
 19 20  1  0  0  0
 19 24  1  0  0  0
 20 21  2  0  0  0
 20100  1  0  0  0
 21 23  1  0  0  0
 22 28  1  0  0  0
 22 32  2  0  0  0
 26 27  1  0  0  0
 28101  1  0  0  0
 28102  1  0  0  0
 29103  1  0  0  0
 29104  1  0  0  0
 33 34  1  0  0  0
 33 66  1  0  0  0
 33 70  2  0  0  0
 34 36  1  0  0  0
 34 59  1  0  0  0
 34105  1  0  0  0
 35 44  2  0  0  0
 35 45  1  0  0  0
 35 68  1  0  0  0
 36 56  1  0  0  0
 36106  1  0  0  0
 37 39  1  0  0  0
 37 47  1  0  0  0
 37 66  1  0  0  0
 37107  1  0  0  0
 38 43  2  0  0  0
 38 46  1  0  0  0
 38 47  1  0  0  0
 39 64  1  0  0  0
 39 67  2  0  0  0
 40 52  1  0  0  0
 40 53  2  0  0  0
 40 58  1  0  0  0
 41108  1  0  0  0
 41109  1  0  0  0
 41110  1  0  0  0
 41 48  1  0  0  0
 42 43  1  0  0  0
 42 66  1  0  0  0
 42111  1  0  0  0
 42112  1  0  0  0
 43 44  1  0  0  0
 44113  1  0  0  0
 45 46  2  0  0  0
 45114  1  0  0  0
 46115  1  0  0  0
 47116  1  0  0  0
 47117  1  0  0  0
 48 56  1  0  0  0
 48 65  1  0  0  0
 48118  1  0  0  0
 49 50  1  0  0  0
 49 53  1  0  0  0
 49 64  1  0  0  0
 49119  1  0  0  0
 50 51  1  0  0  0
 50120  1  0  0  0
 50121  1  0  0  0
 51 52  1  0  0  0
 51122  1  0  0  0
 51123  1  0  0  0
 52124  1  0  0  0
 52125  1  0  0  0
 53 54  1  0  0  0
 54 55  2  0  0  0
 54126  1  0  0  0
 55 57  1  0  0  0
 55127  1  0  0  0
 56 69  2  0  0  0
 57 58  2  0  0  0
 57128  1  0  0  0
 58129  1  0  0  0
 59 60  1  0  0  0
 59 61  1  0  0  0
 59 62  1  0  0  0
 60130  1  0  0  0
 60131  1  0  0  0
 60132  1  0  0  0
 61133  1  0  0  0
 61134  1  0  0  0
 61135  1  0  0  0
 62136  1  0  0  0
 62137  1  0  0  0
 62138  1  0  0  0
 63 65  1  0  0  0
 63139  1  0  0  0
 63140  1  0  0  0
 63141  1  0  0  0
 64142  1  0  0  0
 65143  1  0  0  0
 68 82  1  0  0  0
 71 74  2  0  0  0
 71 75  1  0  0  0
 71144  1  0  0  0
 72 74  1  0  0  0
 72 76  2  0  0  0
 72145  1  0  0  0
 73 75  2  0  0  0
 73 76  1  0  0  0
 73146  1  0  0  0
 74 78  1  0  0  0
 75 81  1  0  0  0
 76 83  1  0  0  0
 77 78  2  0  0  0
 77147  1  0  0  0
 77148  1  0  0  0
 78149  1  0  0  0
 79 80  2  0  0  0
 79 81  1  0  0  0
 79150  1  0  0  0
 80 82  1  0  0  0
 80151  1  0  0  0
 81 84  2  0  0  0
 82152  1  0  0  0
 82153  1  0  0  0
 83154  1  0  0  0
M  ISO  4   1 100  68 101  82 101  83 100
M  END
> <chiral flag>
0

> <version>
0

> <s_m_source_file>
/data/baiqing/PycharmProjects/Reinvent-master-3.2/result/LINK_invent/BTK/process_docking_weight1_custom_product_contain_oxygen_bond_distance_aromatic_linkinvent_7_9_3/rearranged_h_0114.sdf

> <i_m_source_file_index>
29

> <r_mmod_Potential_Energy-OPLS-2005>
147.58268737793

> <r_mmod_Stretch_Energy-OPLS-2005>
120.64217376709

> <r_mmod_Bend_Energy-OPLS-2005>
153.757415771484

> <r_mmod_Torsional_Energy-OPLS-2005>
241.994506835938

> <r_mmod_Improper_Torsional_Energy-OPLS-2005>
5.51797294616699

> <r_mmod_Van_der_Waal_Energy-OPLS-2005>
147.870315551758

> <r_mmod_Electrostatic_Energy-OPLS-2005>
-380.273712158203

> <r_mmod_Solvation_Energy-OPLS-2005>
-225.313842773438

> <b_mmod_Minimization_Converged-OPLS-2005>
0

> <r_mmod_RMS_Derivative-OPLS-2005>
1.20972108840942

$$$$
29
                    3D
 Structure written by MMmdl.
156164  0  0  1  0            999 V2000
  -30.6795  -14.4980   20.5288 C   0  0  0  0  0  0
  -30.4256  -12.3043   19.4411 C   0  0  0  0  0  0
  -29.5018  -12.4933   18.2180 C   0  0  0  0  0  0
  -28.0196  -12.3696   18.6238 C   0  0  0  0  0  0
  -27.6636  -13.2101   19.8787 C   0  0  2  0  0  0
  -28.7045  -13.0031   21.0045 C   0  0  0  0  0  0
  -25.2590  -13.8171   20.5687 C   0  0  0  0  0  0
  -24.1835  -13.0448   20.9165 C   0  0  0  0  0  0
  -24.6391  -11.6911   20.8725 C   0  0  0  0  0  0
  -23.9053  -10.4292   21.0387 C   0  0  0  0  0  0
  -24.3598   -9.4209   21.9169 C   0  0  0  0  0  0
  -23.6277   -8.2248   22.0744 C   0  0  0  0  0  0
  -22.4270   -8.0274   21.3533 C   0  0  0  0  0  0
  -21.9895   -9.0250   20.4645 C   0  0  0  0  0  0
  -22.7219  -10.2131   20.3046 C   0  0  0  0  0  0
  -21.6854   -6.0729   22.5271 C   0  0  0  0  0  0
  -21.4019   -6.5636   23.8202 C   0  0  0  0  0  0
  -21.3661   -5.6785   24.9162 C   0  0  0  0  0  0
  -21.6045   -4.3048   24.7214 C   0  0  0  0  0  0
  -21.8823   -3.8143   23.4333 C   0  0  0  0  0  0
  -21.9194   -4.6958   22.3391 C   0  0  0  0  0  0
  -22.7865  -13.5255   21.1838 C   0  0  0  0  0  0
  -22.1663   -4.2141   21.0967 F   0  0  0  0  0  0
  -21.5629   -3.4533   25.7727 F   0  0  0  0  0  0
  -30.0363  -13.3000   20.4542 N   0  0  0  0  0  0
  -26.3033  -12.9345   20.3387 N   0  0  0  0  0  0
  -25.9325  -11.6505   20.5777 N   0  0  0  0  0  0
  -22.0505  -12.8262   22.0403 N   0  0  0  0  0  0
  -25.4330  -15.1888   20.4114 N   0  0  0  0  0  0
  -31.8143  -14.6792   20.0799 O   0  0  0  0  0  0
  -21.6636   -6.8872   21.4234 O   0  0  0  0  0  0
  -22.3553  -14.5566   20.6688 O   0  0  0  0  0  0
  -24.6156  -31.8677   23.2096 C   0  0  0  0  0  0
  -25.9040  -32.4825   23.8400 C   0  0  1  0  0  0
  -27.2279  -27.4153   20.1073 C   0  0  0  0  0  0
  -25.5903  -33.8624   24.2339 N   0  0  0  0  0  0
  -23.4054  -30.4909   21.5497 C   0  0  2  0  0  0
  -24.8528  -28.9587   20.1117 C   0  0  0  0  0  0
  -22.7423  -29.4655   22.4979 C   0  0  0  0  0  0
  -18.0275  -28.1383   22.8488 C   0  0  0  0  0  0
  -24.1489  -36.7310   23.2642 C   0  0  0  0  0  0
  -25.9361  -30.8286   21.3661 C   0  0  0  0  0  0
  -26.0146  -29.4631   20.7110 C   0  0  0  0  0  0
  -27.2084  -28.7000   20.7028 C   0  0  0  0  0  0
  -26.0535  -26.9405   19.4833 C   0  0  0  0  0  0
  -24.8686  -27.6983   19.4915 C   0  0  0  0  0  0
  -23.6149  -29.8256   20.1635 C   0  0  0  0  0  0
  -25.4112  -36.3118   24.0346 C   0  0  1  0  0  0
  -20.5866  -28.3674   23.1320 C   0  0  2  0  0  0
  -20.6764  -26.9410   22.5422 C   0  0  0  0  0  0
  -19.5745  -26.6388   21.5214 C   0  0  0  0  0  0
  -18.1923  -26.7929   22.1622 C   0  0  0  0  0  0
  -19.1525  -28.8845   23.2898 C   0  0  0  0  0  0
  -18.9449  -30.1448   23.8911 C   0  0  0  0  0  0
  -17.6452  -30.6586   24.0561 C   0  0  0  0  0  0
  -25.9034  -34.9481   23.5137 C   0  0  0  0  0  0
  -16.5343  -29.9089   23.6324 C   0  0  0  0  0  0
  -16.7262  -28.6506   23.0347 C   0  0  0  0  0  0
  -26.4468  -31.6602   25.0727 C   0  0  0  0  0  0
  -25.3739  -31.3697   26.1477 C   0  0  0  0  0  0
  -27.0294  -30.3045   24.6097 C   0  0  0  0  0  0
  -27.6048  -32.4324   25.7479 C   0  0  0  0  0  0
  -27.5587  -37.1813   24.8470 C   0  0  0  0  0  0
  -21.4146  -29.3037   22.3722 N   0  0  0  0  0  0
  -26.4302  -37.3802   23.9411 N   0  0  0  0  0  0
  -24.6706  -31.0767   22.1001 N   0  0  0  0  0  0
  -23.4191  -28.8198   23.3025 O   0  0  0  0  0  0
  -28.3626  -26.6246   20.1310 O   0  0  0  0  0  0
  -26.5581  -34.8933   22.4689 O   0  0  0  0  0  0
  -23.5344  -32.1431   23.7484 O   0  0  0  0  0  0
  -29.5264  -18.0001   20.8636 C   0  0  0  0  0  0
  -29.5306  -16.6867   18.8131 C   0  0  0  0  0  0
  -29.7042  -16.7453   20.2152 C   0  0  0  0  0  0
  -28.9293  -19.0568   18.7465 C   0  0  0  0  0  0
  -29.1796  -19.1779   20.1409 C   0  0  0  0  0  0
  -29.1356  -17.8256   18.0921 C   0  0  0  0  0  0
  -29.0590  -24.1874   20.1860 C   0  0  0  0  0  0
  -28.6360  -22.7849   20.7184 C   0  0  0  0  0  0
  -28.1788  -25.3320   20.7564 C   0  0  0  0  0  0
  -29.5741  -21.5942   20.3820 C   0  0  0  0  0  0
  -28.3920  -20.1031   17.9954 N   0  0  0  0  0  0
  -29.9356  -15.5392   20.9629 N   0  0  0  0  0  0
  -28.9858  -20.3598   20.8474 O   0  0  0  0  0  0
  -28.8949  -17.7243   16.7611 F   0  0  0  0  0  0
  -31.4716  -12.3997   19.1434 H   0  0  0  0  0  0
  -30.3223  -11.2969   19.8476 H   0  0  0  0  0  0
  -29.7392  -11.7549   17.4520 H   0  0  0  0  0  0
  -29.6799  -13.4674   17.7622 H   0  0  0  0  0  0
  -27.8206  -11.3153   18.8193 H   0  0  0  0  0  0
  -27.3757  -12.6519   17.7890 H   0  0  0  0  0  0
  -27.7052  -14.2564   19.5760 H   0  0  0  0  0  0
  -28.6784  -11.9740   21.3651 H   0  0  0  0  0  0
  -28.4694  -13.6211   21.8717 H   0  0  0  0  0  0
  -25.2735   -9.5701   22.4749 H   0  0  0  0  0  0
  -23.9985   -7.4648   22.7471 H   0  0  0  0  0  0
  -21.0818   -8.8768   19.8969 H   0  0  0  0  0  0
  -22.3657  -10.9664   19.6162 H   0  0  0  0  0  0
  -21.2023   -7.6146   23.9707 H   0  0  0  0  0  0
  -21.1481   -6.0511   25.9062 H   0  0  0  0  0  0
  -22.0608   -2.7608   23.2825 H   0  0  0  0  0  0
  -22.4088  -11.9897   22.4770 H   0  0  0  0  0  0
  -21.1131  -13.1310   22.2614 H   0  0  0  0  0  0
  -24.6705  -15.8474   20.5242 H   0  0  0  0  0  0
  -26.2933  -15.6286   20.1113 H   0  0  0  0  0  0
  -26.7111  -32.5533   23.1164 H   0  0  0  0  0  0
  -25.0072  -33.9791   25.0497 H   0  0  0  0  0  0
  -22.6935  -31.3072   21.4116 H   0  0  0  0  0  0
  -23.3758  -35.9635   23.3318 H   0  0  0  0  0  0
  -24.3582  -36.8901   22.2053 H   0  0  0  0  0  0
  -23.7232  -37.6520   23.6636 H   0  0  0  0  0  0
  -26.0521  -31.5963   20.6004 H   0  0  0  0  0  0
  -26.8224  -30.8806   21.9864 H   0  0  0  0  0  0
  -28.1032  -29.0796   21.1756 H   0  0  0  0  0  0
  -26.0485  -25.9753   18.9957 H   0  0  0  0  0  0
  -23.9780  -27.3086   19.0178 H   0  0  0  0  0  0
  -23.7224  -30.6013   19.4044 H   0  0  0  0  0  0
  -22.7393  -29.2449   19.8679 H   0  0  0  0  0  0
  -25.1288  -36.1988   25.0838 H   0  0  0  0  0  0
  -20.9952  -28.3241   24.1443 H   0  0  0  0  0  0
  -20.5680  -26.2278   23.3607 H   0  0  0  0  0  0
  -21.6634  -26.7463   22.1211 H   0  0  0  0  0  0
  -19.6910  -25.6301   21.1238 H   0  0  0  0  0  0
  -19.6691  -27.3203   20.6748 H   0  0  0  0  0  0
  -17.4198  -26.6683   21.4017 H   0  0  0  0  0  0
  -18.0319  -26.0071   22.9018 H   0  0  0  0  0  0
  -19.7925  -30.7254   24.2294 H   0  0  0  0  0  0
  -17.5010  -31.6267   24.5162 H   0  0  0  0  0  0
  -15.5345  -30.2996   23.7647 H   0  0  0  0  0  0
  -15.8661  -28.0830   22.7061 H   0  0  0  0  0  0
  -24.5919  -30.7034   25.7815 H   0  0  0  0  0  0
  -24.8920  -32.2844   26.4940 H   0  0  0  0  0  0
  -25.8105  -30.8861   27.0225 H   0  0  0  0  0  0
  -26.2829  -29.6810   24.1160 H   0  0  0  0  0  0
  -27.4075  -29.7276   25.4548 H   0  0  0  0  0  0
  -27.8666  -30.4365   23.9238 H   0  0  0  0  0  0
  -27.2672  -33.3622   26.2069 H   0  0  0  0  0  0
  -28.3840  -32.6887   25.0288 H   0  0  0  0  0  0
  -28.0733  -31.8440   26.5378 H   0  0  0  0  0  0
  -28.2619  -38.0098   24.7512 H   0  0  0  0  0  0
  -28.1069  -36.2630   24.6303 H   0  0  0  0  0  0
  -27.2302  -37.1472   25.8874 H   0  0  0  0  0  0
  -20.9314  -29.8747   21.6930 H   0  0  0  0  0  0
  -26.0195  -38.2886   24.1399 H   0  0  0  0  0  0
  -29.6460  -18.0670   21.9355 H   0  0  0  0  0  0
  -29.6371  -15.7578   18.2747 H   0  0  0  0  0  0
  -28.9920  -24.1882   19.0973 H   0  0  0  0  0  0
  -30.1041  -24.3810   20.4307 H   0  0  0  0  0  0
  -27.6392  -22.5626   20.3341 H   0  0  0  0  0  0
  -28.5301  -22.8330   21.8029 H   0  0  0  0  0  0
  -28.4034  -25.4497   21.8174 H   0  0  0  0  0  0
  -27.1407  -24.9995   20.7254 H   0  0  0  0  0  0
  -30.5223  -21.7279   20.9036 H   0  0  0  0  0  0
  -29.8329  -21.5993   19.3257 H   0  0  0  0  0  0
  -27.8261  -20.7703   18.5061 H   0  0  0  0  0  0
  -27.9685  -19.8221   17.1176 H   0  0  0  0  0  0
  -29.1791  -15.2767   21.5785 H   0  0  0  0  0  0
  1 25  1  0  0  0
  1 30  2  0  0  0
  1 82  1  0  0  0
  2  3  1  0  0  0
  2 25  1  0  0  0
  2 85  1  0  0  0
  2 86  1  0  0  0
  3  4  1  0  0  0
  3 87  1  0  0  0
  3 88  1  0  0  0
  4  5  1  0  0  0
  4 89  1  0  0  0
  4 90  1  0  0  0
  5  6  1  0  0  0
  5 26  1  0  0  0
  5 91  1  0  0  0
  6 25  1  0  0  0
  6 92  1  0  0  0
  6 93  1  0  0  0
  7  8  2  0  0  0
  7 26  1  0  0  0
  7 29  1  0  0  0
  8  9  1  0  0  0
  8 22  1  0  0  0
  9 10  1  0  0  0
  9 27  2  0  0  0
 10 11  2  0  0  0
 10 15  1  0  0  0
 11 12  1  0  0  0
 11 94  1  0  0  0
 12 13  2  0  0  0
 12 95  1  0  0  0
 13 14  1  0  0  0
 13 31  1  0  0  0
 14 15  2  0  0  0
 14 96  1  0  0  0
 15 97  1  0  0  0
 16 17  2  0  0  0
 16 21  1  0  0  0
 16 31  1  0  0  0
 17 18  1  0  0  0
 17 98  1  0  0  0
 18 19  2  0  0  0
 18 99  1  0  0  0
 19 20  1  0  0  0
 19 24  1  0  0  0
 20 21  2  0  0  0
 20100  1  0  0  0
 21 23  1  0  0  0
 22 28  1  0  0  0
 22 32  2  0  0  0
 26 27  1  0  0  0
 28101  1  0  0  0
 28102  1  0  0  0
 29103  1  0  0  0
 29104  1  0  0  0
 33 34  1  0  0  0
 33 66  1  0  0  0
 33 70  2  0  0  0
 34 36  1  0  0  0
 34 59  1  0  0  0
 34105  1  0  0  0
 35 44  2  0  0  0
 35 45  1  0  0  0
 35 68  1  0  0  0
 36 56  1  0  0  0
 36106  1  0  0  0
 37 39  1  0  0  0
 37 47  1  0  0  0
 37 66  1  0  0  0
 37107  1  0  0  0
 38 43  2  0  0  0
 38 46  1  0  0  0
 38 47  1  0  0  0
 39 64  1  0  0  0
 39 67  2  0  0  0
 40 52  1  0  0  0
 40 53  2  0  0  0
 40 58  1  0  0  0
 41108  1  0  0  0
 41109  1  0  0  0
 41110  1  0  0  0
 41 48  1  0  0  0
 42 43  1  0  0  0
 42 66  1  0  0  0
 42111  1  0  0  0
 42112  1  0  0  0
 43 44  1  0  0  0
 44113  1  0  0  0
 45 46  2  0  0  0
 45114  1  0  0  0
 46115  1  0  0  0
 47116  1  0  0  0
 47117  1  0  0  0
 48 56  1  0  0  0
 48 65  1  0  0  0
 48118  1  0  0  0
 49 50  1  0  0  0
 49 53  1  0  0  0
 49 64  1  0  0  0
 49119  1  0  0  0
 50 51  1  0  0  0
 50120  1  0  0  0
 50121  1  0  0  0
 51 52  1  0  0  0
 51122  1  0  0  0
 51123  1  0  0  0
 52124  1  0  0  0
 52125  1  0  0  0
 53 54  1  0  0  0
 54 55  2  0  0  0
 54126  1  0  0  0
 55 57  1  0  0  0
 55127  1  0  0  0
 56 69  2  0  0  0
 57 58  2  0  0  0
 57128  1  0  0  0
 58129  1  0  0  0
 59 60  1  0  0  0
 59 61  1  0  0  0
 59 62  1  0  0  0
 60130  1  0  0  0
 60131  1  0  0  0
 60132  1  0  0  0
 61133  1  0  0  0
 61134  1  0  0  0
 61135  1  0  0  0
 62136  1  0  0  0
 62137  1  0  0  0
 62138  1  0  0  0
 63 65  1  0  0  0
 63139  1  0  0  0
 63140  1  0  0  0
 63141  1  0  0  0
 64142  1  0  0  0
 65143  1  0  0  0
 68 79  1  0  0  0
 71 73  2  0  0  0
 71 75  1  0  0  0
 71144  1  0  0  0
 72 73  1  0  0  0
 72 76  2  0  0  0
 72145  1  0  0  0
 73 82  1  0  0  0
 74 75  2  0  0  0
 74 76  1  0  0  0
 74 81  1  0  0  0
 75 83  1  0  0  0
 76 84  1  0  0  0
 77 78  1  0  0  0
 77 79  1  0  0  0
 77146  1  0  0  0
 77147  1  0  0  0
 78 80  1  0  0  0
 78148  1  0  0  0
 78149  1  0  0  0
 79150  1  0  0  0
 79151  1  0  0  0
 80 83  1  0  0  0
 80152  1  0  0  0
 80153  1  0  0  0
 81154  1  0  0  0
 81155  1  0  0  0
 82156  1  0  0  0
M  ISO  4   1 100  68 101  79 101  82 100
M  END
> <chiral flag>
0

> <version>
0

> <s_m_source_file>
/data/baiqing/PycharmProjects/Reinvent-master-3.2/result/LINK_invent/BTK/process_docking_weight1_custom_product_contain_oxygen_bond_distance_aromatic_linkinvent_7_9_3/rearranged_h_0114.sdf

> <i_m_source_file_index>
30

> <r_mmod_Potential_Energy-OPLS-2005>
25.5048236846924

> <r_mmod_Stretch_Energy-OPLS-2005>
43.6525115966797

> <r_mmod_Bend_Energy-OPLS-2005>
102.263824462891

> <r_mmod_Torsional_Energy-OPLS-2005>
289.358703613281

> <r_mmod_Improper_Torsional_Energy-OPLS-2005>
11.4707527160645

> <r_mmod_Van_der_Waal_Energy-OPLS-2005>
152.591735839844

> <r_mmod_Electrostatic_Energy-OPLS-2005>
-377.663269042969

> <r_mmod_Solvation_Energy-OPLS-2005>
-213.456970214844

> <b_mmod_Minimization_Converged-OPLS-2005>
0

> <r_mmod_RMS_Derivative-OPLS-2005>
1.32981932163239

$$$$
30
                    3D
 Structure written by MMmdl.
163171  0  0  1  0            999 V2000
  -30.6845  -14.5355   20.5029 C   0  0  0  0  0  0
  -30.4290  -12.3304   19.4447 C   0  0  0  0  0  0
  -29.4982  -12.4835   18.2241 C   0  0  0  0  0  0
  -28.0256  -12.3338   18.6441 C   0  0  0  0  0  0
  -27.6585  -13.2076   19.8728 C   0  0  2  0  0  0
  -28.7025  -13.0462   21.0011 C   0  0  0  0  0  0
  -25.2597  -13.8171   20.5714 C   0  0  0  0  0  0
  -24.1839  -13.0460   20.9205 C   0  0  0  0  0  0
  -24.6378  -11.6919   20.8762 C   0  0  0  0  0  0
  -23.9035  -10.4313   21.0420 C   0  0  0  0  0  0
  -24.3592   -9.4214   21.9175 C   0  0  0  0  0  0
  -23.6271   -8.2259   22.0751 C   0  0  0  0  0  0
  -22.4256   -8.0304   21.3559 C   0  0  0  0  0  0
  -21.9886   -9.0276   20.4669 C   0  0  0  0  0  0
  -22.7215  -10.2155   20.3070 C   0  0  0  0  0  0
  -21.6852   -6.0745   22.5287 C   0  0  0  0  0  0
  -21.4029   -6.5653   23.8223 C   0  0  0  0  0  0
  -21.3661   -5.6791   24.9172 C   0  0  0  0  0  0
  -21.6039   -4.3053   24.7224 C   0  0  0  0  0  0
  -21.8821   -3.8148   23.4352 C   0  0  0  0  0  0
  -21.9200   -4.6971   22.3414 C   0  0  0  0  0  0
  -22.7861  -13.5268   21.1816 C   0  0  0  0  0  0
  -22.1651   -4.2150   21.0992 F   0  0  0  0  0  0
  -21.5604   -3.4519   25.7723 F   0  0  0  0  0  0
  -30.0323  -13.3395   20.4417 N   0  0  0  0  0  0
  -26.3017  -12.9327   20.3402 N   0  0  0  0  0  0
  -25.9305  -11.6485   20.5810 N   0  0  0  0  0  0
  -22.0461  -12.8348   22.0410 N   0  0  0  0  0  0
  -25.4352  -15.1901   20.4134 N   0  0  0  0  0  0
  -31.8361  -14.6825   20.0852 O   0  0  0  0  0  0
  -21.6646   -6.8887   21.4247 O   0  0  0  0  0  0
  -22.3559  -14.5533   20.6602 O   0  0  0  0  0  0
  -24.6126  -31.8663   23.2057 C   0  0  0  0  0  0
  -25.9022  -32.4811   23.8362 C   0  0  1  0  0  0
  -27.2551  -27.4306   20.0989 C   0  0  0  0  0  0
  -25.5882  -33.8607   24.2299 N   0  0  0  0  0  0
  -23.4021  -30.4836   21.5464 C   0  0  2  0  0  0
  -24.8518  -28.9407   20.1149 C   0  0  0  0  0  0
  -22.7398  -29.4643   22.4998 C   0  0  0  0  0  0
  -18.0275  -28.1359   22.8492 C   0  0  0  0  0  0
  -24.1485  -36.7315   23.2639 C   0  0  0  0  0  0
  -25.9274  -30.8281   21.3597 C   0  0  0  0  0  0
  -26.0059  -29.4593   20.7114 C   0  0  0  0  0  0
  -27.2017  -28.7084   20.7036 C   0  0  0  0  0  0
  -26.0819  -26.9232   19.4955 C   0  0  0  0  0  0
  -24.8851  -27.6717   19.5056 C   0  0  0  0  0  0
  -23.6107  -29.8051   20.1636 C   0  0  0  0  0  0
  -25.4105  -36.3106   24.0337 C   0  0  1  0  0  0
  -20.5858  -28.3649   23.1318 C   0  0  2  0  0  0
  -20.6744  -26.9374   22.5440 C   0  0  0  0  0  0
  -19.5751  -26.6361   21.5206 C   0  0  0  0  0  0
  -18.1915  -26.7901   22.1602 C   0  0  0  0  0  0
  -19.1518  -28.8819   23.2902 C   0  0  0  0  0  0
  -18.9446  -30.1418   23.8915 C   0  0  0  0  0  0
  -17.6453  -30.6562   24.0564 C   0  0  0  0  0  0
  -25.9038  -34.9472   23.5124 C   0  0  0  0  0  0
  -16.5349  -29.9067   23.6321 C   0  0  0  0  0  0
  -16.7267  -28.6485   23.0347 C   0  0  0  0  0  0
  -26.4460  -31.6607   25.0697 C   0  0  0  0  0  0
  -25.3749  -31.3766   26.1480 C   0  0  0  0  0  0
  -27.0247  -30.3028   24.6081 C   0  0  0  0  0  0
  -27.6049  -32.4333   25.7417 C   0  0  0  0  0  0
  -27.5593  -37.1798   24.8456 C   0  0  0  0  0  0
  -21.4129  -29.3018   22.3730 N   0  0  0  0  0  0
  -26.4296  -37.3788   23.9419 N   0  0  0  0  0  0
  -24.6653  -31.0753   22.0956 N   0  0  0  0  0  0
  -23.4167  -28.8214   23.3060 O   0  0  0  0  0  0
  -28.4605  -26.7537   20.1438 O   0  0  0  0  0  0
  -26.5601  -34.8938   22.4686 O   0  0  0  0  0  0
  -23.5319  -32.1401   23.7460 O   0  0  0  0  0  0
  -29.6212  -16.7569   18.7164 C   0  0  0  0  0  0
  -29.5825  -19.1783   18.5470 C   0  0  0  0  0  0
  -29.9402  -18.1156   20.7157 C   0  0  0  0  0  0
  -29.4769  -17.9176   17.9256 C   0  0  0  0  0  0
  -29.8676  -16.8314   20.1084 C   0  0  0  0  0  0
  -29.7943  -19.3079   19.9408 C   0  0  0  0  0  0
  -29.2296  -17.8088   16.4607 C   0  0  0  0  0  0
  -29.0556  -21.6490   20.1725 C   0  0  0  0  0  0
  -28.5018  -18.9493   15.7770 C   0  0  0  0  0  0
  -31.0551  -20.8996   21.3895 C   0  0  0  0  0  0
  -29.5209  -23.1335   20.2119 C   0  0  0  0  0  0
  -28.4118  -24.2368   20.3342 C   0  0  0  0  0  0
  -28.6792  -25.5038   19.4710 C   0  0  0  0  0  0
  -29.5741  -16.8017   15.7776 N   0  0  0  0  0  0
  -29.9487  -15.6112   20.8670 N   0  0  0  0  0  0
  -29.9217  -20.6362   20.4974 N   0  0  0  0  0  0
  -27.8999  -21.4134   19.8052 O   0  0  0  0  0  0
  -31.4693  -12.4368   19.1328 H   0  0  0  0  0  0
  -30.3512  -11.3290   19.8733 H   0  0  0  0  0  0
  -29.7424  -11.7307   17.4738 H   0  0  0  0  0  0
  -29.6552  -13.4533   17.7496 H   0  0  0  0  0  0
  -27.8685  -11.2812   18.8826 H   0  0  0  0  0  0
  -27.3654  -12.5534   17.8051 H   0  0  0  0  0  0
  -27.6862  -14.2441   19.5381 H   0  0  0  0  0  0
  -28.6870  -12.0286   21.3940 H   0  0  0  0  0  0
  -28.4673  -13.6938   21.8474 H   0  0  0  0  0  0
  -25.2725   -9.5657   22.4737 H   0  0  0  0  0  0
  -23.9966   -7.4635   22.7454 H   0  0  0  0  0  0
  -21.0811   -8.8792   19.8982 H   0  0  0  0  0  0
  -22.3654  -10.9681   19.6189 H   0  0  0  0  0  0
  -21.2031   -7.6166   23.9737 H   0  0  0  0  0  0
  -21.1467   -6.0514   25.9073 H   0  0  0  0  0  0
  -22.0590   -2.7608   23.2863 H   0  0  0  0  0  0
  -22.4058  -12.0074   22.4902 H   0  0  0  0  0  0
  -21.1049  -13.1391   22.2471 H   0  0  0  0  0  0
  -24.6701  -15.8454   20.5293 H   0  0  0  0  0  0
  -26.2909  -15.6366   20.1079 H   0  0  0  0  0  0
  -26.7084  -32.5519   23.1118 H   0  0  0  0  0  0
  -25.0048  -33.9761   25.0453 H   0  0  0  0  0  0
  -22.6911  -31.2985   21.4018 H   0  0  0  0  0  0
  -23.3738  -35.9657   23.3302 H   0  0  0  0  0  0
  -24.3587  -36.8927   22.2055 H   0  0  0  0  0  0
  -23.7247  -37.6524   23.6652 H   0  0  0  0  0  0
  -26.0415  -31.5921   20.5895 H   0  0  0  0  0  0
  -26.8141  -30.8835   21.9792 H   0  0  0  0  0  0
  -28.0918  -29.1104   21.1681 H   0  0  0  0  0  0
  -26.0734  -25.9512   19.0241 H   0  0  0  0  0  0
  -23.9975  -27.2634   19.0427 H   0  0  0  0  0  0
  -23.7113  -30.5740   19.3968 H   0  0  0  0  0  0
  -22.7372  -29.2185   19.8750 H   0  0  0  0  0  0
  -25.1285  -36.1969   25.0828 H   0  0  0  0  0  0
  -20.9954  -28.3217   24.1436 H   0  0  0  0  0  0
  -20.5599  -26.2258   23.3633 H   0  0  0  0  0  0
  -21.6625  -26.7378   22.1287 H   0  0  0  0  0  0
  -19.6917  -25.6274   21.1219 H   0  0  0  0  0  0
  -19.6717  -27.3181   20.6745 H   0  0  0  0  0  0
  -17.4208  -26.6683   21.3972 H   0  0  0  0  0  0
  -18.0301  -26.0021   22.8980 H   0  0  0  0  0  0
  -19.7923  -30.7210   24.2314 H   0  0  0  0  0  0
  -17.5009  -31.6245   24.5166 H   0  0  0  0  0  0
  -15.5349  -30.2980   23.7624 H   0  0  0  0  0  0
  -15.8663  -28.0806   22.7054 H   0  0  0  0  0  0
  -24.5906  -30.7107   25.7880 H   0  0  0  0  0  0
  -24.8960  -32.2939   26.4907 H   0  0  0  0  0  0
  -25.8122  -30.8979   27.0246 H   0  0  0  0  0  0
  -26.2755  -29.6802   24.1169 H   0  0  0  0  0  0
  -27.4029  -29.7276   25.4546 H   0  0  0  0  0  0
  -27.8602  -30.4328   23.9193 H   0  0  0  0  0  0
  -27.2671  -33.3611   26.2045 H   0  0  0  0  0  0
  -28.3797  -32.6936   25.0194 H   0  0  0  0  0  0
  -28.0780  -31.8436   26.5277 H   0  0  0  0  0  0
  -28.2633  -38.0074   24.7484 H   0  0  0  0  0  0
  -28.1062  -36.2613   24.6279 H   0  0  0  0  0  0
  -27.2326  -37.1454   25.8862 H   0  0  0  0  0  0
  -20.9282  -29.8708   21.6926 H   0  0  0  0  0  0
  -26.0186  -38.2867   24.1420 H   0  0  0  0  0  0
  -29.5194  -15.7894   18.2488 H   0  0  0  0  0  0
  -29.5107  -20.0707   17.9416 H   0  0  0  0  0  0
  -30.1058  -18.1893   21.7813 H   0  0  0  0  0  0
  -27.6649  -19.2923   16.3859 H   0  0  0  0  0  0
  -28.1019  -18.6241   14.8165 H   0  0  0  0  0  0
  -29.1742  -19.7899   15.6009 H   0  0  0  0  0  0
  -31.5545  -19.9903   21.7230 H   0  0  0  0  0  0
  -30.7313  -21.4317   22.2858 H   0  0  0  0  0  0
  -31.8134  -21.4989   20.8841 H   0  0  0  0  0  0
  -30.0462  -23.2735   19.2662 H   0  0  0  0  0  0
  -30.2675  -23.3123   20.9856 H   0  0  0  0  0  0
  -28.3434  -24.5253   21.3824 H   0  0  0  0  0  0
  -27.4230  -23.8546   20.0808 H   0  0  0  0  0  0
  -28.1729  -25.4506   18.5073 H   0  0  0  0  0  0
  -29.7417  -25.5316   19.2245 H   0  0  0  0  0  0
  -30.0510  -16.1145   16.3486 H   0  0  0  0  0  0
  -29.1339  -15.4026   21.4256 H   0  0  0  0  0  0
  1 25  1  0  0  0
  1 30  2  0  0  0
  1 85  1  0  0  0
  2  3  1  0  0  0
  2 25  1  0  0  0
  2 88  1  0  0  0
  2 89  1  0  0  0
  3  4  1  0  0  0
  3 90  1  0  0  0
  3 91  1  0  0  0
  4  5  1  0  0  0
  4 92  1  0  0  0
  4 93  1  0  0  0
  5  6  1  0  0  0
  5 26  1  0  0  0
  5 94  1  0  0  0
  6 25  1  0  0  0
  6 95  1  0  0  0
  6 96  1  0  0  0
  7  8  2  0  0  0
  7 26  1  0  0  0
  7 29  1  0  0  0
  8  9  1  0  0  0
  8 22  1  0  0  0
  9 10  1  0  0  0
  9 27  2  0  0  0
 10 11  2  0  0  0
 10 15  1  0  0  0
 11 12  1  0  0  0
 11 97  1  0  0  0
 12 13  2  0  0  0
 12 98  1  0  0  0
 13 14  1  0  0  0
 13 31  1  0  0  0
 14 15  2  0  0  0
 14 99  1  0  0  0
 15100  1  0  0  0
 16 17  2  0  0  0
 16 21  1  0  0  0
 16 31  1  0  0  0
 17 18  1  0  0  0
 17101  1  0  0  0
 18 19  2  0  0  0
 18102  1  0  0  0
 19 20  1  0  0  0
 19 24  1  0  0  0
 20 21  2  0  0  0
 20103  1  0  0  0
 21 23  1  0  0  0
 22 28  1  0  0  0
 22 32  2  0  0  0
 26 27  1  0  0  0
 28104  1  0  0  0
 28105  1  0  0  0
 29106  1  0  0  0
 29107  1  0  0  0
 33 34  1  0  0  0
 33 66  1  0  0  0
 33 70  2  0  0  0
 34 36  1  0  0  0
 34 59  1  0  0  0
 34108  1  0  0  0
 35 44  2  0  0  0
 35 45  1  0  0  0
 35 68  1  0  0  0
 36 56  1  0  0  0
 36109  1  0  0  0
 37 39  1  0  0  0
 37 47  1  0  0  0
 37 66  1  0  0  0
 37110  1  0  0  0
 38 43  2  0  0  0
 38 46  1  0  0  0
 38 47  1  0  0  0
 39 64  1  0  0  0
 39 67  2  0  0  0
 40 52  1  0  0  0
 40 53  2  0  0  0
 40 58  1  0  0  0
 41111  1  0  0  0
 41112  1  0  0  0
 41113  1  0  0  0
 41 48  1  0  0  0
 42 43  1  0  0  0
 42 66  1  0  0  0
 42114  1  0  0  0
 42115  1  0  0  0
 43 44  1  0  0  0
 44116  1  0  0  0
 45 46  2  0  0  0
 45117  1  0  0  0
 46118  1  0  0  0
 47119  1  0  0  0
 47120  1  0  0  0
 48 56  1  0  0  0
 48 65  1  0  0  0
 48121  1  0  0  0
 49 50  1  0  0  0
 49 53  1  0  0  0
 49 64  1  0  0  0
 49122  1  0  0  0
 50 51  1  0  0  0
 50123  1  0  0  0
 50124  1  0  0  0
 51 52  1  0  0  0
 51125  1  0  0  0
 51126  1  0  0  0
 52127  1  0  0  0
 52128  1  0  0  0
 53 54  1  0  0  0
 54 55  2  0  0  0
 54129  1  0  0  0
 55 57  1  0  0  0
 55130  1  0  0  0
 56 69  2  0  0  0
 57 58  2  0  0  0
 57131  1  0  0  0
 58132  1  0  0  0
 59 60  1  0  0  0
 59 61  1  0  0  0
 59 62  1  0  0  0
 60133  1  0  0  0
 60134  1  0  0  0
 60135  1  0  0  0
 61136  1  0  0  0
 61137  1  0  0  0
 61138  1  0  0  0
 62139  1  0  0  0
 62140  1  0  0  0
 62141  1  0  0  0
 63 65  1  0  0  0
 63142  1  0  0  0
 63143  1  0  0  0
 63144  1  0  0  0
 64145  1  0  0  0
 65146  1  0  0  0
 68 83  1  0  0  0
 71 74  2  0  0  0
 71 75  1  0  0  0
 71147  1  0  0  0
 72 74  1  0  0  0
 72 76  2  0  0  0
 72148  1  0  0  0
 73 75  2  0  0  0
 73 76  1  0  0  0
 73149  1  0  0  0
 74 77  1  0  0  0
 75 85  1  0  0  0
 76 86  1  0  0  0
 77 79  1  0  0  0
 77 84  2  0  0  0
 78 81  1  0  0  0
 78 86  1  0  0  0
 78 87  2  0  0  0
 79150  1  0  0  0
 79151  1  0  0  0
 79152  1  0  0  0
 80 86  1  0  0  0
 80153  1  0  0  0
 80154  1  0  0  0
 80155  1  0  0  0
 81 82  1  0  0  0
 81156  1  0  0  0
 81157  1  0  0  0
 82 83  1  0  0  0
 82158  1  0  0  0
 82159  1  0  0  0
 83160  1  0  0  0
 83161  1  0  0  0
 84162  1  0  0  0
 85163  1  0  0  0
M  ISO  4   1 100  68 101  83 101  85 100
M  END
> <chiral flag>
0

> <version>
0

> <s_m_source_file>
/data/baiqing/PycharmProjects/Reinvent-master-3.2/result/LINK_invent/BTK/process_docking_weight1_custom_product_contain_oxygen_bond_distance_aromatic_linkinvent_7_9_3/rearranged_h_0114.sdf

> <i_m_source_file_index>
31

> <r_mmod_Potential_Energy-OPLS-2005>
34.6552886962891

> <r_mmod_Stretch_Energy-OPLS-2005>
48.7003326416016

> <r_mmod_Bend_Energy-OPLS-2005>
117.688858032227

> <r_mmod_Torsional_Energy-OPLS-2005>
315.80908203125

> <r_mmod_Improper_Torsional_Energy-OPLS-2005>
6.59607696533203

> <r_mmod_Van_der_Waal_Energy-OPLS-2005>
161.560043334961

> <r_mmod_Electrostatic_Energy-OPLS-2005>
-402.785461425781

> <r_mmod_Solvation_Energy-OPLS-2005>
-233.666107177734

> <b_mmod_Minimization_Converged-OPLS-2005>
0

> <r_mmod_RMS_Derivative-OPLS-2005>
3.83869600296021

$$$$
31
                    3D
 Structure written by MMmdl.
154162  0  0  1  0            999 V2000
  -30.5347  -14.9669   20.3399 C   0  0  0  0  0  0
  -30.4507  -12.5784   19.4881 C   0  0  0  0  0  0
  -29.5260  -12.4134   18.2585 C   0  0  0  0  0  0
  -28.0426  -12.2865   18.6724 C   0  0  0  0  0  0
  -27.6196  -13.2328   19.8301 C   0  0  2  0  0  0
  -28.6775  -13.2991   20.9479 C   0  0  0  0  0  0
  -25.2472  -13.8168   20.5823 C   0  0  0  0  0  0
  -24.1748  -13.0411   20.9254 C   0  0  0  0  0  0
  -24.6342  -11.6888   20.8785 C   0  0  0  0  0  0
  -23.9028  -10.4267   21.0422 C   0  0  0  0  0  0
  -24.3585   -9.4177   21.9189 C   0  0  0  0  0  0
  -23.6267   -8.2209   22.0748 C   0  0  0  0  0  0
  -22.4252   -8.0249   21.3536 C   0  0  0  0  0  0
  -21.9880   -9.0225   20.4644 C   0  0  0  0  0  0
  -22.7204  -10.2109   20.3063 C   0  0  0  0  0  0
  -21.6840   -6.0707   22.5277 C   0  0  0  0  0  0
  -21.3998   -6.5618   23.8207 C   0  0  0  0  0  0
  -21.3665   -5.6782   24.9176 C   0  0  0  0  0  0
  -21.6052   -4.3045   24.7235 C   0  0  0  0  0  0
  -21.8818   -3.8124   23.4358 C   0  0  0  0  0  0
  -21.9188   -4.6935   22.3406 C   0  0  0  0  0  0
  -22.7778  -13.5201   21.1904 C   0  0  0  0  0  0
  -22.1662   -4.2115   21.0988 F   0  0  0  0  0  0
  -21.5639   -3.4536   25.7753 F   0  0  0  0  0  0
  -29.9378  -13.7059   20.3119 N   0  0  0  0  0  0
  -26.2857  -12.9347   20.3328 N   0  0  0  0  0  0
  -25.9276  -11.6498   20.5812 N   0  0  0  0  0  0
  -22.0420  -12.8195   22.0460 N   0  0  0  0  0  0
  -25.4240  -15.1906   20.4386 N   0  0  0  0  0  0
  -31.7673  -15.0057   20.2623 O   0  0  0  0  0  0
  -21.6622   -6.8844   21.4234 O   0  0  0  0  0  0
  -22.3471  -14.5510   20.6752 O   0  0  0  0  0  0
  -24.6417  -31.8458   23.1904 C   0  0  0  0  0  0
  -25.9197  -32.4703   23.8286 C   0  0  1  0  0  0
  -27.2117  -27.1462   20.1641 C   0  0  0  0  0  0
  -25.5959  -33.8511   24.2203 N   0  0  0  0  0  0
  -23.4444  -30.4666   21.5347 C   0  0  2  0  0  0
  -24.8948  -28.8969   20.1117 C   0  0  0  0  0  0
  -22.7558  -29.4559   22.4858 C   0  0  0  0  0  0
  -18.0300  -28.1391   22.8473 C   0  0  0  0  0  0
  -24.1494  -36.7254   23.2641 C   0  0  0  0  0  0
  -26.0000  -30.7239   21.3895 C   0  0  0  0  0  0
  -26.0713  -29.3359   20.7329 C   0  0  0  0  0  0
  -27.2333  -28.4771   20.7423 C   0  0  0  0  0  0
  -26.0159  -26.8133   19.4906 C   0  0  0  0  0  0
  -24.8797  -27.6484   19.4736 C   0  0  0  0  0  0
  -23.6705  -29.7976   20.1534 C   0  0  0  0  0  0
  -25.4124  -36.3036   24.0317 C   0  0  1  0  0  0
  -20.5912  -28.3715   23.1234 C   0  0  2  0  0  0
  -20.6786  -26.9420   22.5401 C   0  0  0  0  0  0
  -19.5762  -26.6378   21.5207 C   0  0  0  0  0  0
  -18.1943  -26.7928   22.1619 C   0  0  0  0  0  0
  -19.1558  -28.8868   23.2848 C   0  0  0  0  0  0
  -18.9477  -30.1464   23.8872 C   0  0  0  0  0  0
  -17.6476  -30.6590   24.0553 C   0  0  0  0  0  0
  -25.9076  -34.9410   23.5070 C   0  0  0  0  0  0
  -16.5365  -29.9079   23.6339 C   0  0  0  0  0  0
  -16.7285  -28.6498   23.0360 C   0  0  0  0  0  0
  -26.4527  -31.6567   25.0719 C   0  0  0  0  0  0
  -25.3712  -31.3753   26.1414 C   0  0  0  0  0  0
  -27.0393  -30.2963   24.6300 C   0  0  0  0  0  0
  -27.6067  -32.4328   25.7495 C   0  0  0  0  0  0
  -27.5579  -37.1780   24.8464 C   0  0  0  0  0  0
  -21.4251  -29.3049   22.3606 N   0  0  0  0  0  0
  -26.4286  -37.3750   23.9413 N   0  0  0  0  0  0
  -24.7146  -31.0331   22.0931 N   0  0  0  0  0  0
  -23.4207  -28.8102   23.3003 O   0  0  0  0  0  0
  -28.2529  -26.1522   20.2095 O   0  0  0  0  0  0
  -26.5656  -34.8900   22.4644 O   0  0  0  0  0  0
  -23.5540  -32.1333   23.7134 O   0  0  0  0  0  0
  -28.7957  -19.5357   21.6380 C   0  0  0  0  0  0
  -30.0424  -18.6829   19.4315 C   0  0  0  0  0  0
  -29.0931  -18.1163   21.5091 C   0  0  0  0  0  0
  -29.7183  -17.5943   20.3298 C   0  0  0  0  0  0
  -29.0825  -20.5348   20.6488 C   0  0  0  0  0  0
  -28.1351  -17.4733   23.7576 C   0  0  0  0  0  0
  -28.6998  -17.1728   22.5759 C   0  0  0  0  0  0
  -28.5877  -22.0470   20.8302 C   0  0  0  0  0  0
  -28.6876  -23.3163   20.2122 C   0  0  0  0  0  0
  -29.4865  -16.0060   18.4704 C   0  0  0  0  0  0
  -27.9040  -24.6991   20.6286 C   0  0  0  0  0  0
  -29.7547  -20.0414   19.5654 N   0  0  0  0  0  0
  -29.7832  -16.1099   19.9102 N   0  0  0  0  0  0
  -31.4742  -12.7562   19.1543 H   0  0  0  0  0  0
  -30.4823  -11.6606   20.0767 H   0  0  0  0  0  0
  -29.8187  -11.5213   17.7027 H   0  0  0  0  0  0
  -29.6704  -13.2281   17.5530 H   0  0  0  0  0  0
  -27.8970  -11.2529   18.9872 H   0  0  0  0  0  0
  -27.3931  -12.4283   17.8077 H   0  0  0  0  0  0
  -27.5406  -14.2248   19.3971 H   0  0  0  0  0  0
  -28.7788  -12.3390   21.4540 H   0  0  0  0  0  0
  -28.3825  -14.0238   21.7071 H   0  0  0  0  0  0
  -25.2723   -9.5650   22.4771 H   0  0  0  0  0  0
  -23.9966   -7.4592   22.7468 H   0  0  0  0  0  0
  -21.0806   -8.8744   19.8956 H   0  0  0  0  0  0
  -22.3653  -10.9649   19.6179 H   0  0  0  0  0  0
  -21.1976   -7.6124   23.9698 H   0  0  0  0  0  0
  -21.1500   -6.0519   25.9079 H   0  0  0  0  0  0
  -22.0594   -2.7583   23.2879 H   0  0  0  0  0  0
  -22.4024  -11.9852   22.4855 H   0  0  0  0  0  0
  -21.1041  -13.1232   22.2676 H   0  0  0  0  0  0
  -24.6795  -15.8577   20.6096 H   0  0  0  0  0  0
  -26.3084  -15.6309   20.2205 H   0  0  0  0  0  0
  -26.7258  -32.5312   23.1012 H   0  0  0  0  0  0
  -25.0091  -33.9636   25.0339 H   0  0  0  0  0  0
  -22.7461  -31.2923   21.3813 H   0  0  0  0  0  0
  -23.3765  -35.9578   23.3289 H   0  0  0  0  0  0
  -24.3581  -36.8900   22.2060 H   0  0  0  0  0  0
  -23.7238  -37.6443   23.6683 H   0  0  0  0  0  0
  -26.1563  -31.4788   20.6180 H   0  0  0  0  0  0
  -26.8705  -30.7725   22.0323 H   0  0  0  0  0  0
  -28.1270  -28.8064   21.2527 H   0  0  0  0  0  0
  -25.9340  -25.8653   18.9798 H   0  0  0  0  0  0
  -23.9848  -27.3114   18.9685 H   0  0  0  0  0  0
  -23.8039  -30.5727   19.3978 H   0  0  0  0  0  0
  -22.7866  -29.2384   19.8426 H   0  0  0  0  0  0
  -25.1311  -36.1866   25.0808 H   0  0  0  0  0  0
  -21.0005  -28.3301   24.1356 H   0  0  0  0  0  0
  -20.5681  -26.2327   23.3618 H   0  0  0  0  0  0
  -21.6650  -26.7426   22.1197 H   0  0  0  0  0  0
  -19.6926  -25.6284   21.1251 H   0  0  0  0  0  0
  -19.6701  -27.3172   20.6724 H   0  0  0  0  0  0
  -17.4211  -26.6667   21.4026 H   0  0  0  0  0  0
  -18.0347  -26.0075   22.9024 H   0  0  0  0  0  0
  -19.7956  -30.7286   24.2234 H   0  0  0  0  0  0
  -17.5029  -31.6268   24.5156 H   0  0  0  0  0  0
  -15.5364  -30.2975   23.7677 H   0  0  0  0  0  0
  -15.8684  -28.0805   22.7097 H   0  0  0  0  0  0
  -24.5880  -30.7123   25.7717 H   0  0  0  0  0  0
  -24.8917  -32.2938   26.4807 H   0  0  0  0  0  0
  -25.7986  -30.8927   27.0211 H   0  0  0  0  0  0
  -26.3009  -29.6682   24.1304 H   0  0  0  0  0  0
  -27.4003  -29.7269   25.4875 H   0  0  0  0  0  0
  -27.8919  -30.4202   23.9618 H   0  0  0  0  0  0
  -27.2672  -33.3652   26.2015 H   0  0  0  0  0  0
  -28.3900  -32.6851   25.0333 H   0  0  0  0  0  0
  -28.0707  -31.8487   26.5454 H   0  0  0  0  0  0
  -28.2577  -38.0095   24.7528 H   0  0  0  0  0  0
  -28.1094  -36.2627   24.6266 H   0  0  0  0  0  0
  -27.2297  -37.1390   25.8864 H   0  0  0  0  0  0
  -20.9451  -29.8764   21.6791 H   0  0  0  0  0  0
  -26.0156  -38.2816   24.1427 H   0  0  0  0  0  0
  -28.2757  -19.8802   22.5180 H   0  0  0  0  0  0
  -30.5127  -18.4515   18.4873 H   0  0  0  0  0  0
  -27.8921  -16.6872   24.4584 H   0  0  0  0  0  0
  -27.9041  -18.4821   24.0613 H   0  0  0  0  0  0
  -28.8885  -16.1292   22.3860 H   0  0  0  0  0  0
  -27.9393  -22.1004   21.6931 H   0  0  0  0  0  0
  -29.3094  -23.3920   19.3326 H   0  0  0  0  0  0
  -30.3983  -16.0877   17.8758 H   0  0  0  0  0  0
  -28.7928  -16.7778   18.1367 H   0  0  0  0  0  0
  -29.0002  -15.0850   18.1870 H   0  0  0  0  0  0
  -27.8811  -24.7092   21.7184 H   0  0  0  0  0  0
  -26.8711  -24.4972   20.3534 H   0  0  0  0  0  0
  1 25  1  0  0  0
  1 30  2  0  0  0
  1 83  1  0  0  0
  2  3  1  0  0  0
  2 25  1  0  0  0
  2 84  1  0  0  0
  2 85  1  0  0  0
  3  4  1  0  0  0
  3 86  1  0  0  0
  3 87  1  0  0  0
  4  5  1  0  0  0
  4 88  1  0  0  0
  4 89  1  0  0  0
  5  6  1  0  0  0
  5 26  1  0  0  0
  5 90  1  0  0  0
  6 25  1  0  0  0
  6 91  1  0  0  0
  6 92  1  0  0  0
  7  8  2  0  0  0
  7 26  1  0  0  0
  7 29  1  0  0  0
  8  9  1  0  0  0
  8 22  1  0  0  0
  9 10  1  0  0  0
  9 27  2  0  0  0
 10 11  2  0  0  0
 10 15  1  0  0  0
 11 12  1  0  0  0
 11 93  1  0  0  0
 12 13  2  0  0  0
 12 94  1  0  0  0
 13 14  1  0  0  0
 13 31  1  0  0  0
 14 15  2  0  0  0
 14 95  1  0  0  0
 15 96  1  0  0  0
 16 17  2  0  0  0
 16 21  1  0  0  0
 16 31  1  0  0  0
 17 18  1  0  0  0
 17 97  1  0  0  0
 18 19  2  0  0  0
 18 98  1  0  0  0
 19 20  1  0  0  0
 19 24  1  0  0  0
 20 21  2  0  0  0
 20 99  1  0  0  0
 21 23  1  0  0  0
 22 28  1  0  0  0
 22 32  2  0  0  0
 26 27  1  0  0  0
 28100  1  0  0  0
 28101  1  0  0  0
 29102  1  0  0  0
 29103  1  0  0  0
 33 34  1  0  0  0
 33 66  1  0  0  0
 33 70  2  0  0  0
 34 36  1  0  0  0
 34 59  1  0  0  0
 34104  1  0  0  0
 35 44  2  0  0  0
 35 45  1  0  0  0
 35 68  1  0  0  0
 36 56  1  0  0  0
 36105  1  0  0  0
 37 39  1  0  0  0
 37 47  1  0  0  0
 37 66  1  0  0  0
 37106  1  0  0  0
 38 43  2  0  0  0
 38 46  1  0  0  0
 38 47  1  0  0  0
 39 64  1  0  0  0
 39 67  2  0  0  0
 40 52  1  0  0  0
 40 53  2  0  0  0
 40 58  1  0  0  0
 41107  1  0  0  0
 41108  1  0  0  0
 41109  1  0  0  0
 41 48  1  0  0  0
 42 43  1  0  0  0
 42 66  1  0  0  0
 42110  1  0  0  0
 42111  1  0  0  0
 43 44  1  0  0  0
 44112  1  0  0  0
 45 46  2  0  0  0
 45113  1  0  0  0
 46114  1  0  0  0
 47115  1  0  0  0
 47116  1  0  0  0
 48 56  1  0  0  0
 48 65  1  0  0  0
 48117  1  0  0  0
 49 50  1  0  0  0
 49 53  1  0  0  0
 49 64  1  0  0  0
 49118  1  0  0  0
 50 51  1  0  0  0
 50119  1  0  0  0
 50120  1  0  0  0
 51 52  1  0  0  0
 51121  1  0  0  0
 51122  1  0  0  0
 52123  1  0  0  0
 52124  1  0  0  0
 53 54  1  0  0  0
 54 55  2  0  0  0
 54125  1  0  0  0
 55 57  1  0  0  0
 55126  1  0  0  0
 56 69  2  0  0  0
 57 58  2  0  0  0
 57127  1  0  0  0
 58128  1  0  0  0
 59 60  1  0  0  0
 59 61  1  0  0  0
 59 62  1  0  0  0
 60129  1  0  0  0
 60130  1  0  0  0
 60131  1  0  0  0
 61132  1  0  0  0
 61133  1  0  0  0
 61134  1  0  0  0
 62135  1  0  0  0
 62136  1  0  0  0
 62137  1  0  0  0
 63 65  1  0  0  0
 63138  1  0  0  0
 63139  1  0  0  0
 63140  1  0  0  0
 64141  1  0  0  0
 65142  1  0  0  0
 68 81  1  0  0  0
 71 73  2  0  0  0
 71 75  1  0  0  0
 71143  1  0  0  0
 72 74  2  0  0  0
 72 82  1  0  0  0
 72144  1  0  0  0
 73 74  1  0  0  0
 73 77  1  0  0  0
 74 83  1  0  0  0
 75 78  1  0  0  0
 75 82  2  0  0  0
 76 77  2  0  0  0
 76145  1  0  0  0
 76146  1  0  0  0
 77147  1  0  0  0
 78 79  2  0  0  0
 78148  1  0  0  0
 79 81  1  0  0  0
 79149  1  0  0  0
 80 83  1  0  0  0
 80150  1  0  0  0
 80151  1  0  0  0
 80152  1  0  0  0
 81153  1  0  0  0
 81154  1  0  0  0
M  ISO  4   1 100  68 101  81 101  83 100
M  END
> <chiral flag>
0

> <version>
0

> <s_m_source_file>
/data/baiqing/PycharmProjects/Reinvent-master-3.2/result/LINK_invent/BTK/process_docking_weight1_custom_product_contain_oxygen_bond_distance_aromatic_linkinvent_7_9_3/rearranged_h_0114.sdf

> <i_m_source_file_index>
32

> <r_mmod_Potential_Energy-OPLS-2005>
492.211791992188

> <r_mmod_Stretch_Energy-OPLS-2005>
224.130065917969

> <r_mmod_Bend_Energy-OPLS-2005>
256.404724121094

> <r_mmod_Torsional_Energy-OPLS-2005>
339.064788818359

> <r_mmod_Improper_Torsional_Energy-OPLS-2005>
22.710090637207

> <r_mmod_Van_der_Waal_Energy-OPLS-2005>
149.445236206055

> <r_mmod_Electrostatic_Energy-OPLS-2005>
-500.452606201172

> <r_mmod_Solvation_Energy-OPLS-2005>
-205.458755493164

> <b_mmod_Minimization_Converged-OPLS-2005>
0

> <r_mmod_RMS_Derivative-OPLS-2005>
1.22180783748627

$$$$
32
                    3D
 Structure written by MMmdl.
162171  0  0  1  0            999 V2000
  -30.5630  -14.7728   20.4521 C   0  0  0  0  0  0
  -30.4504  -12.4614   19.4837 C   0  0  0  0  0  0
  -29.5244  -12.4857   18.2456 C   0  0  0  0  0  0
  -28.0437  -12.3301   18.6511 C   0  0  0  0  0  0
  -27.6478  -13.2214   19.8588 C   0  0  2  0  0  0
  -28.6926  -13.1382   20.9925 C   0  0  0  0  0  0
  -25.2547  -13.8171   20.5689 C   0  0  0  0  0  0
  -24.1825  -13.0435   20.9203 C   0  0  0  0  0  0
  -24.6398  -11.6905   20.8755 C   0  0  0  0  0  0
  -23.9069  -10.4289   21.0415 C   0  0  0  0  0  0
  -24.3621   -9.4205   21.9192 C   0  0  0  0  0  0
  -23.6293   -8.2245   22.0764 C   0  0  0  0  0  0
  -22.4278   -8.0284   21.3546 C   0  0  0  0  0  0
  -21.9912   -9.0259   20.4648 C   0  0  0  0  0  0
  -22.7246  -10.2135   20.3058 C   0  0  0  0  0  0
  -21.6852   -6.0741   22.5281 C   0  0  0  0  0  0
  -21.4013   -6.5647   23.8215 C   0  0  0  0  0  0
  -21.3658   -5.6799   24.9176 C   0  0  0  0  0  0
  -21.6047   -4.3062   24.7224 C   0  0  0  0  0  0
  -21.8818   -3.8152   23.4346 C   0  0  0  0  0  0
  -21.9191   -4.6969   22.3402 C   0  0  0  0  0  0
  -22.7847  -13.5229   21.1851 C   0  0  0  0  0  0
  -22.1658   -4.2158   21.0977 F   0  0  0  0  0  0
  -21.5631   -3.4542   25.7734 F   0  0  0  0  0  0
  -29.9924  -13.5164   20.4171 N   0  0  0  0  0  0
  -26.2971  -12.9355   20.3304 N   0  0  0  0  0  0
  -25.9328  -11.6512   20.5771 N   0  0  0  0  0  0
  -22.0470  -12.8230   22.0393 N   0  0  0  0  0  0
  -25.4256  -15.1895   20.4104 N   0  0  0  0  0  0
  -31.7388  -14.9264   20.1058 O   0  0  0  0  0  0
  -21.6641   -6.8882   21.4242 O   0  0  0  0  0  0
  -22.3547  -14.5540   20.6693 O   0  0  0  0  0  0
  -24.6329  -31.8542   23.1976 C   0  0  0  0  0  0
  -25.9151  -32.4756   23.8324 C   0  0  1  0  0  0
  -27.2275  -27.2564   20.1189 C   0  0  0  0  0  0
  -25.5938  -33.8556   24.2248 N   0  0  0  0  0  0
  -23.4311  -30.4767   21.5414 C   0  0  2  0  0  0
  -24.8807  -28.9251   20.1074 C   0  0  0  0  0  0
  -22.7508  -29.4600   22.4901 C   0  0  0  0  0  0
  -18.0287  -28.1396   22.8503 C   0  0  0  0  0  0
  -24.1480  -36.7273   23.2643 C   0  0  0  0  0  0
  -25.9779  -30.7661   21.3775 C   0  0  0  0  0  0
  -26.0533  -29.3874   20.7190 C   0  0  0  0  0  0
  -27.2275  -28.5633   20.7202 C   0  0  0  0  0  0
  -26.0236  -26.8613   19.4904 C   0  0  0  0  0  0
  -24.8708  -27.6695   19.4830 C   0  0  0  0  0  0
  -23.6512  -29.8119   20.1571 C   0  0  0  0  0  0
  -25.4113  -36.3072   24.0324 C   0  0  1  0  0  0
  -20.5897  -28.3715   23.1271 C   0  0  2  0  0  0
  -20.6780  -26.9432   22.5416 C   0  0  0  0  0  0
  -19.5746  -26.6397   21.5229 C   0  0  0  0  0  0
  -18.1925  -26.7945   22.1637 C   0  0  0  0  0  0
  -19.1544  -28.8870   23.2885 C   0  0  0  0  0  0
  -18.9466  -30.1470   23.8909 C   0  0  0  0  0  0
  -17.6465  -30.6604   24.0568 C   0  0  0  0  0  0
  -25.9060  -34.9443   23.5089 C   0  0  0  0  0  0
  -16.5355  -29.9103   23.6333 C   0  0  0  0  0  0
  -16.7274  -28.6510   23.0373 C   0  0  0  0  0  0
  -26.4520  -31.6586   25.0715 C   0  0  0  0  0  0
  -25.3737  -31.3713   26.1422 C   0  0  0  0  0  0
  -27.0390  -30.3016   24.6195 C   0  0  0  0  0  0
  -27.6062  -32.4338   25.7500 C   0  0  0  0  0  0
  -27.5569  -37.1792   24.8471 C   0  0  0  0  0  0
  -21.4210  -29.3058   22.3648 N   0  0  0  0  0  0
  -26.4283  -37.3775   23.9415 N   0  0  0  0  0  0
  -24.7001  -31.0494   22.0960 N   0  0  0  0  0  0
  -23.4196  -28.8135   23.3008 O   0  0  0  0  0  0
  -28.2887  -26.3168   20.2083 O   0  0  0  0  0  0
  -26.5628  -34.8923   22.4654 O   0  0  0  0  0  0
  -23.5471  -32.1366   23.7261 O   0  0  0  0  0  0
  -29.9048  -19.7334   21.0914 C   0  0  0  0  0  0
  -30.2168  -18.3265   21.2471 C   0  0  0  0  0  0
  -28.5071  -19.1792   19.2554 C   0  0  0  0  0  0
  -28.8146  -17.7867   19.3880 C   0  0  0  0  0  0
  -28.9918  -20.2222   20.1043 C   0  0  0  0  0  0
  -29.6759  -17.2901   20.4156 C   0  0  0  0  0  0
  -28.7091  -23.9522   19.1176 C   0  0  0  0  0  0
  -29.0568  -22.8833   20.1417 C   0  0  0  0  0  0
  -26.7606  -22.0183   18.1089 C   0  0  0  0  0  0
  -28.8093  -15.9821   17.6680 C   0  0  0  0  0  0
  -28.1723  -16.9046   18.4042 C   0  0  0  0  0  0
  -28.4286  -25.3237   19.2095 C   0  0  0  0  0  0
  -28.8597  -23.4493   17.6668 C   0  0  0  0  0  0
  -27.9736  -22.2632   17.2176 C   0  0  0  0  0  0
  -27.0173  -21.7056   19.5877 C   0  0  0  0  0  0
  -28.4569  -21.6278   19.9402 N   0  0  0  0  0  0
  -29.7191  -15.8343   20.7537 N   0  0  0  0  0  0
  -29.8775  -23.0628   21.0453 O   0  0  0  0  0  0
  -25.6156  -22.0728   17.6562 O   0  0  0  0  0  0
  -31.4885  -12.6077   19.1806 H   0  0  0  0  0  0
  -30.4169  -11.4860   19.9715 H   0  0  0  0  0  0
  -29.8040  -11.6915   17.5525 H   0  0  0  0  0  0
  -29.6672  -13.4171   17.7007 H   0  0  0  0  0  0
  -27.8835  -11.2809   18.9021 H   0  0  0  0  0  0
  -27.3960  -12.5390   17.7991 H   0  0  0  0  0  0
  -27.6428  -14.2450   19.4914 H   0  0  0  0  0  0
  -28.7359  -12.1291   21.4052 H   0  0  0  0  0  0
  -28.4205  -13.7908   21.8233 H   0  0  0  0  0  0
  -25.2764   -9.5686   22.4766 H   0  0  0  0  0  0
  -24.0002   -7.4643   22.7490 H   0  0  0  0  0  0
  -21.0845   -8.8789   19.8946 H   0  0  0  0  0  0
  -22.3718  -10.9684   19.6167 H   0  0  0  0  0  0
  -21.2005   -7.6155   23.9723 H   0  0  0  0  0  0
  -21.1482   -6.0527   25.9083 H   0  0  0  0  0  0
  -22.0596   -2.7613   23.2848 H   0  0  0  0  0  0
  -22.4071  -11.9884   22.4781 H   0  0  0  0  0  0
  -21.1092  -13.1279   22.2595 H   0  0  0  0  0  0
  -24.6594  -15.8435   20.5247 H   0  0  0  0  0  0
  -26.2677  -15.6246   20.0585 H   0  0  0  0  0  0
  -26.7216  -32.5406   23.1065 H   0  0  0  0  0  0
  -25.0082  -33.9696   25.0392 H   0  0  0  0  0  0
  -22.7288  -31.3000   21.3944 H   0  0  0  0  0  0
  -23.3755  -35.9589   23.3306 H   0  0  0  0  0  0
  -24.3560  -36.8898   22.2057 H   0  0  0  0  0  0
  -23.7219  -37.6465   23.6669 H   0  0  0  0  0  0
  -26.1120  -31.5256   20.6061 H   0  0  0  0  0  0
  -26.8582  -30.8210   22.0067 H   0  0  0  0  0  0
  -28.1210  -28.9067   21.2219 H   0  0  0  0  0  0
  -25.9412  -25.8867   19.0316 H   0  0  0  0  0  0
  -23.9708  -27.3058   19.0067 H   0  0  0  0  0  0
  -23.7746  -30.5905   19.4032 H   0  0  0  0  0  0
  -22.7701  -29.2453   19.8503 H   0  0  0  0  0  0
  -25.1295  -36.1912   25.0814 H   0  0  0  0  0  0
  -20.9989  -28.3305   24.1392 H   0  0  0  0  0  0
  -20.5706  -26.2322   23.3618 H   0  0  0  0  0  0
  -21.6641  -26.7465   22.1197 H   0  0  0  0  0  0
  -19.6907  -25.6308   21.1250 H   0  0  0  0  0  0
  -19.6681  -27.3219   20.6766 H   0  0  0  0  0  0
  -17.4200  -26.6715   21.4032 H   0  0  0  0  0  0
  -18.0307  -26.0082   22.9023 H   0  0  0  0  0  0
  -19.7940  -30.7285   24.2287 H   0  0  0  0  0  0
  -17.5019  -31.6284   24.5167 H   0  0  0  0  0  0
  -15.5358  -30.3013   23.7648 H   0  0  0  0  0  0
  -15.8673  -28.0824   22.7103 H   0  0  0  0  0  0
  -24.5933  -30.7048   25.7730 H   0  0  0  0  0  0
  -24.8903  -32.2868   26.4838 H   0  0  0  0  0  0
  -25.8048  -30.8891   27.0204 H   0  0  0  0  0  0
  -26.2982  -29.6743   24.1223 H   0  0  0  0  0  0
  -27.4105  -29.7290   25.4705 H   0  0  0  0  0  0
  -27.8835  -30.4323   23.9425 H   0  0  0  0  0  0
  -27.2678  -33.3659   26.2040 H   0  0  0  0  0  0
  -28.3901  -32.6869   25.0349 H   0  0  0  0  0  0
  -28.0704  -31.8485   26.5453 H   0  0  0  0  0  0
  -28.2594  -38.0086   24.7525 H   0  0  0  0  0  0
  -28.1060  -36.2613   24.6299 H   0  0  0  0  0  0
  -27.2274  -37.1443   25.8872 H   0  0  0  0  0  0
  -20.9385  -29.8775   21.6855 H   0  0  0  0  0  0
  -26.0155  -38.2836   24.1442 H   0  0  0  0  0  0
  -30.3298  -20.4328   21.7978 H   0  0  0  0  0  0
  -30.8470  -18.0404   22.0770 H   0  0  0  0  0  0
  -27.8344  -19.4384   18.4519 H   0  0  0  0  0  0
  -28.2691  -15.3618   16.9669 H   0  0  0  0  0  0
  -29.8768  -15.8353   17.7485 H   0  0  0  0  0  0
  -27.1036  -17.0184   18.2838 H   0  0  0  0  0  0
  -28.2830  -25.8403   18.2708 H   0  0  0  0  0  0
  -29.9055  -23.1712   17.5262 H   0  0  0  0  0  0
  -28.6968  -24.2579   16.9540 H   0  0  0  0  0  0
  -27.6395  -22.4150   16.1912 H   0  0  0  0  0  0
  -28.5643  -21.3473   17.2066 H   0  0  0  0  0  0
  -26.4985  -20.7836   19.8497 H   0  0  0  0  0  0
  -26.5245  -22.4735   20.1869 H   0  0  0  0  0  0
  -28.8128  -15.4791   21.0145 H   0  0  0  0  0  0
  1 25  1  0  0  0
  1 30  2  0  0  0
  1 87  1  0  0  0
  2  3  1  0  0  0
  2 25  1  0  0  0
  2 90  1  0  0  0
  2 91  1  0  0  0
  3  4  1  0  0  0
  3 92  1  0  0  0
  3 93  1  0  0  0
  4  5  1  0  0  0
  4 94  1  0  0  0
  4 95  1  0  0  0
  5  6  1  0  0  0
  5 26  1  0  0  0
  5 96  1  0  0  0
  6 25  1  0  0  0
  6 97  1  0  0  0
  6 98  1  0  0  0
  7  8  2  0  0  0
  7 26  1  0  0  0
  7 29  1  0  0  0
  8  9  1  0  0  0
  8 22  1  0  0  0
  9 10  1  0  0  0
  9 27  2  0  0  0
 10 11  2  0  0  0
 10 15  1  0  0  0
 11 12  1  0  0  0
 11 99  1  0  0  0
 12 13  2  0  0  0
 12100  1  0  0  0
 13 14  1  0  0  0
 13 31  1  0  0  0
 14 15  2  0  0  0
 14101  1  0  0  0
 15102  1  0  0  0
 16 17  2  0  0  0
 16 21  1  0  0  0
 16 31  1  0  0  0
 17 18  1  0  0  0
 17103  1  0  0  0
 18 19  2  0  0  0
 18104  1  0  0  0
 19 20  1  0  0  0
 19 24  1  0  0  0
 20 21  2  0  0  0
 20105  1  0  0  0
 21 23  1  0  0  0
 22 28  1  0  0  0
 22 32  2  0  0  0
 26 27  1  0  0  0
 28106  1  0  0  0
 28107  1  0  0  0
 29108  1  0  0  0
 29109  1  0  0  0
 33 34  1  0  0  0
 33 66  1  0  0  0
 33 70  2  0  0  0
 34 36  1  0  0  0
 34 59  1  0  0  0
 34110  1  0  0  0
 35 44  2  0  0  0
 35 45  1  0  0  0
 35 68  1  0  0  0
 36 56  1  0  0  0
 36111  1  0  0  0
 37 39  1  0  0  0
 37 47  1  0  0  0
 37 66  1  0  0  0
 37112  1  0  0  0
 38 43  2  0  0  0
 38 46  1  0  0  0
 38 47  1  0  0  0
 39 64  1  0  0  0
 39 67  2  0  0  0
 40 52  1  0  0  0
 40 53  2  0  0  0
 40 58  1  0  0  0
 41113  1  0  0  0
 41114  1  0  0  0
 41115  1  0  0  0
 41 48  1  0  0  0
 42 43  1  0  0  0
 42 66  1  0  0  0
 42116  1  0  0  0
 42117  1  0  0  0
 43 44  1  0  0  0
 44118  1  0  0  0
 45 46  2  0  0  0
 45119  1  0  0  0
 46120  1  0  0  0
 47121  1  0  0  0
 47122  1  0  0  0
 48 56  1  0  0  0
 48 65  1  0  0  0
 48123  1  0  0  0
 49 50  1  0  0  0
 49 53  1  0  0  0
 49 64  1  0  0  0
 49124  1  0  0  0
 50 51  1  0  0  0
 50125  1  0  0  0
 50126  1  0  0  0
 51 52  1  0  0  0
 51127  1  0  0  0
 51128  1  0  0  0
 52129  1  0  0  0
 52130  1  0  0  0
 53 54  1  0  0  0
 54 55  2  0  0  0
 54131  1  0  0  0
 55 57  1  0  0  0
 55132  1  0  0  0
 56 69  2  0  0  0
 57 58  2  0  0  0
 57133  1  0  0  0
 58134  1  0  0  0
 59 60  1  0  0  0
 59 61  1  0  0  0
 59 62  1  0  0  0
 60135  1  0  0  0
 60136  1  0  0  0
 60137  1  0  0  0
 61138  1  0  0  0
 61139  1  0  0  0
 61140  1  0  0  0
 62141  1  0  0  0
 62142  1  0  0  0
 62143  1  0  0  0
 63 65  1  0  0  0
 63144  1  0  0  0
 63145  1  0  0  0
 63146  1  0  0  0
 64147  1  0  0  0
 65148  1  0  0  0
 68 82  1  0  0  0
 71 72  2  0  0  0
 71 75  1  0  0  0
 71149  1  0  0  0
 72 76  1  0  0  0
 72150  1  0  0  0
 73 74  1  0  0  0
 73 75  2  0  0  0
 73151  1  0  0  0
 74 76  2  0  0  0
 74 81  1  0  0  0
 75 86  1  0  0  0
 76 87  1  0  0  0
 77 78  1  0  0  0
 77 82  2  0  0  0
 77 83  1  0  0  0
 78 86  1  0  0  0
 78 88  2  0  0  0
 79 84  1  0  0  0
 79 85  1  0  0  0
 79 89  2  0  0  0
 80 81  2  0  0  0
 80152  1  0  0  0
 80153  1  0  0  0
 81154  1  0  0  0
 82155  1  0  0  0
 83 84  1  0  0  0
 83156  1  0  0  0
 83157  1  0  0  0
 84158  1  0  0  0
 84159  1  0  0  0
 85 86  1  0  0  0
 85160  1  0  0  0
 85161  1  0  0  0
 87162  1  0  0  0
M  ISO  4   1 100  68 101  82 101  87 100
M  END
> <chiral flag>
0

> <version>
0

> <s_m_source_file>
/data/baiqing/PycharmProjects/Reinvent-master-3.2/result/LINK_invent/BTK/process_docking_weight1_custom_product_contain_oxygen_bond_distance_aromatic_linkinvent_7_9_3/rearranged_h_0114.sdf

> <i_m_source_file_index>
33

> <r_mmod_Potential_Energy-OPLS-2005>
387.831451416016

> <r_mmod_Stretch_Energy-OPLS-2005>
135.509628295898

> <r_mmod_Bend_Energy-OPLS-2005>
237.225341796875

> <r_mmod_Torsional_Energy-OPLS-2005>
376.066650390625

> <r_mmod_Improper_Torsional_Energy-OPLS-2005>
7.94677114486694

> <r_mmod_Van_der_Waal_Energy-OPLS-2005>
157.333145141602

> <r_mmod_Electrostatic_Energy-OPLS-2005>
-389.490325927734

> <r_mmod_Solvation_Energy-OPLS-2005>
-235.494354248047

> <b_mmod_Minimization_Converged-OPLS-2005>
0

> <r_mmod_RMS_Derivative-OPLS-2005>
1.06550085544586

$$$$
33
                    3D
 Structure written by MMmdl.
163171  0  0  1  0            999 V2000
  -30.6868  -14.5358   20.6283 C   0  0  0  0  0  0
  -30.4346  -12.3672   19.4276 C   0  0  0  0  0  0
  -29.5016  -12.5423   18.2095 C   0  0  0  0  0  0
  -28.0244  -12.3755   18.6169 C   0  0  0  0  0  0
  -27.6639  -13.2070   19.8753 C   0  0  2  0  0  0
  -28.7032  -12.9796   20.9927 C   0  0  0  0  0  0
  -25.2610  -13.8149   20.5670 C   0  0  0  0  0  0
  -24.1854  -13.0428   20.9141 C   0  0  0  0  0  0
  -24.6409  -11.6895   20.8703 C   0  0  0  0  0  0
  -23.9072  -10.4288   21.0386 C   0  0  0  0  0  0
  -24.3630   -9.4208   21.9173 C   0  0  0  0  0  0
  -23.6301   -8.2247   22.0755 C   0  0  0  0  0  0
  -22.4282   -8.0286   21.3549 C   0  0  0  0  0  0
  -21.9912   -9.0254   20.4649 C   0  0  0  0  0  0
  -22.7237  -10.2131   20.3046 C   0  0  0  0  0  0
  -21.6848   -6.0740   22.5273 C   0  0  0  0  0  0
  -21.4007   -6.5639   23.8207 C   0  0  0  0  0  0
  -21.3663   -5.6792   24.9172 C   0  0  0  0  0  0
  -21.6050   -4.3056   24.7217 C   0  0  0  0  0  0
  -21.8819   -3.8151   23.4333 C   0  0  0  0  0  0
  -21.9182   -4.6968   22.3391 C   0  0  0  0  0  0
  -22.7883  -13.5233   21.1816 C   0  0  0  0  0  0
  -22.1648   -4.2157   21.0969 F   0  0  0  0  0  0
  -21.5643   -3.4540   25.7724 F   0  0  0  0  0  0
  -30.0315  -13.3424   20.4601 N   0  0  0  0  0  0
  -26.3042  -12.9318   20.3342 N   0  0  0  0  0  0
  -25.9336  -11.6474   20.5725 N   0  0  0  0  0  0
  -22.0529  -12.8238   22.0387 N   0  0  0  0  0  0
  -25.4340  -15.1874   20.4140 N   0  0  0  0  0  0
  -31.7659  -14.7488   20.0678 O   0  0  0  0  0  0
  -21.6646   -6.8889   21.4243 O   0  0  0  0  0  0
  -22.3561  -14.5536   20.6667 O   0  0  0  0  0  0
  -24.6212  -31.8654   23.2076 C   0  0  0  0  0  0
  -25.9086  -32.4805   23.8390 C   0  0  1  0  0  0
  -27.2293  -27.3730   20.1017 C   0  0  0  0  0  0
  -25.5920  -33.8605   24.2317 N   0  0  0  0  0  0
  -23.4118  -30.4906   21.5496 C   0  0  2  0  0  0
  -24.8574  -28.9542   20.1133 C   0  0  0  0  0  0
  -22.7442  -29.4661   22.4965 C   0  0  0  0  0  0
  -18.0281  -28.1382   22.8497 C   0  0  0  0  0  0
  -24.1487  -36.7311   23.2631 C   0  0  0  0  0  0
  -25.9485  -30.8098   21.3728 C   0  0  0  0  0  0
  -26.0231  -29.4416   20.7167 C   0  0  0  0  0  0
  -27.2097  -28.6596   20.7088 C   0  0  0  0  0  0
  -26.0404  -26.9311   19.4704 C   0  0  0  0  0  0
  -24.8648  -27.7010   19.4850 C   0  0  0  0  0  0
  -23.6229  -29.8267   20.1641 C   0  0  0  0  0  0
  -25.4104  -36.3103   24.0337 C   0  0  1  0  0  0
  -20.5879  -28.3688   23.1292 C   0  0  2  0  0  0
  -20.6774  -26.9420   22.5405 C   0  0  0  0  0  0
  -19.5745  -26.6390   21.5216 C   0  0  0  0  0  0
  -18.1927  -26.7927   22.1634 C   0  0  0  0  0  0
  -19.1531  -28.8851   23.2894 C   0  0  0  0  0  0
  -18.9454  -30.1450   23.8916 C   0  0  0  0  0  0
  -17.6457  -30.6589   24.0561 C   0  0  0  0  0  0
  -25.9044  -34.9468   23.5124 C   0  0  0  0  0  0
  -16.5351  -29.9088   23.6321 C   0  0  0  0  0  0
  -16.7269  -28.6498   23.0359 C   0  0  0  0  0  0
  -26.4488  -31.6594   25.0737 C   0  0  0  0  0  0
  -25.3737  -31.3733   26.1480 C   0  0  0  0  0  0
  -27.0300  -30.3013   24.6158 C   0  0  0  0  0  0
  -27.6073  -32.4304   25.7491 C   0  0  0  0  0  0
  -27.5592  -37.1791   24.8448 C   0  0  0  0  0  0
  -21.4165  -29.3053   22.3696 N   0  0  0  0  0  0
  -26.4280  -37.3798   23.9429 N   0  0  0  0  0  0
  -24.6792  -31.0705   22.1007 N   0  0  0  0  0  0
  -23.4183  -28.8197   23.3026 O   0  0  0  0  0  0
  -28.3691  -26.5676   20.1521 O   0  0  0  0  0  0
  -26.5610  -34.8925   22.4688 O   0  0  0  0  0  0
  -23.5385  -32.1440   23.7430 O   0  0  0  0  0  0
  -30.8964  -17.8203   19.3408 C   0  0  0  0  0  0
  -29.9095  -19.3279   20.9524 C   0  0  0  0  0  0
  -30.2348  -17.9913   20.5700 C   0  0  0  0  0  0
  -31.2536  -18.9246   18.5302 C   0  0  0  0  0  0
  -30.1904  -20.4652   20.1417 C   0  0  0  0  0  0
  -30.8518  -20.2416   18.9019 C   0  0  0  0  0  0
  -32.3037  -17.5323   16.7006 C   0  0  0  0  0  0
  -29.8952  -16.8583   21.4988 C   0  0  0  0  0  0
  -32.0767  -18.7042   17.3210 C   0  0  0  0  0  0
  -30.0472  -15.4968   21.5492 C   0  0  0  0  0  0
  -29.2520  -24.1694   20.3566 C   0  0  0  0  0  0
  -30.7519  -22.7485   16.2259 C   0  0  0  0  0  0
  -28.1911  -25.1600   19.7984 C   0  0  0  0  0  0
  -29.1768  -22.7001   19.8354 C   0  0  0  0  0  0
  -30.4400  -21.4051   16.8894 C   0  0  0  0  0  0
  -30.1138  -24.5301   21.1678 O   0  0  0  0  0  0
  -29.9095  -21.7421   20.6458 O   0  0  0  0  0  0
  -31.1811  -21.3156   18.1073 O   0  0  0  0  0  0
  -31.4767  -12.4855   19.1267 H   0  0  0  0  0  0
  -30.3600  -11.3515   19.8192 H   0  0  0  0  0  0
  -29.7612  -11.8239   17.4310 H   0  0  0  0  0  0
  -29.6520  -13.5317   17.7737 H   0  0  0  0  0  0
  -27.8476  -11.3169   18.8094 H   0  0  0  0  0  0
  -27.3718  -12.6469   17.7863 H   0  0  0  0  0  0
  -27.7104  -14.2578   19.5894 H   0  0  0  0  0  0
  -28.7086  -11.9309   21.2929 H   0  0  0  0  0  0
  -28.4105  -13.5182   21.8912 H   0  0  0  0  0  0
  -25.2784   -9.5681   22.4745 H   0  0  0  0  0  0
  -24.0003   -7.4646   22.7485 H   0  0  0  0  0  0
  -21.0837   -8.8772   19.8964 H   0  0  0  0  0  0
  -22.3694  -10.9673   19.6160 H   0  0  0  0  0  0
  -21.2001   -7.6152   23.9707 H   0  0  0  0  0  0
  -21.1487   -6.0527   25.9074 H   0  0  0  0  0  0
  -22.0600   -2.7610   23.2822 H   0  0  0  0  0  0
  -22.4139  -11.9886   22.4758 H   0  0  0  0  0  0
  -21.1157  -13.1279   22.2613 H   0  0  0  0  0  0
  -24.6770  -15.8491   20.5466 H   0  0  0  0  0  0
  -26.3030  -15.6297   20.1406 H   0  0  0  0  0  0
  -26.7156  -32.5492   23.1146 H   0  0  0  0  0  0
  -25.0052  -33.9760   25.0451 H   0  0  0  0  0  0
  -22.7035  -31.3099   21.4099 H   0  0  0  0  0  0
  -23.3765  -35.9622   23.3242 H   0  0  0  0  0  0
  -24.3599  -36.8982   22.2056 H   0  0  0  0  0  0
  -23.7210  -37.6487   23.6680 H   0  0  0  0  0  0
  -26.0715  -31.5735   20.6036 H   0  0  0  0  0  0
  -26.8325  -30.8603   21.9969 H   0  0  0  0  0  0
  -28.1037  -29.0290   21.1923 H   0  0  0  0  0  0
  -25.9825  -25.9831   18.9570 H   0  0  0  0  0  0
  -23.9718  -27.3241   19.0053 H   0  0  0  0  0  0
  -23.7354  -30.6029   19.4065 H   0  0  0  0  0  0
  -22.7451  -29.2509   19.8656 H   0  0  0  0  0  0
  -25.1272  -36.1954   25.0827 H   0  0  0  0  0  0
  -20.9975  -28.3263   24.1412 H   0  0  0  0  0  0
  -20.5687  -26.2305   23.3604 H   0  0  0  0  0  0
  -21.6639  -26.7466   22.1185 H   0  0  0  0  0  0
  -19.6905  -25.6303   21.1241 H   0  0  0  0  0  0
  -19.6669  -27.3200   20.6744 H   0  0  0  0  0  0
  -17.4194  -26.6675   21.4040 H   0  0  0  0  0  0
  -18.0333  -26.0068   22.9026 H   0  0  0  0  0  0
  -19.7930  -30.7254   24.2303 H   0  0  0  0  0  0
  -17.5013  -31.6275   24.5151 H   0  0  0  0  0  0
  -15.5347  -30.2995   23.7638 H   0  0  0  0  0  0
  -15.8669  -28.0811   22.7084 H   0  0  0  0  0  0
  -24.5847  -30.7168   25.7790 H   0  0  0  0  0  0
  -24.9012  -32.2912   26.4989 H   0  0  0  0  0  0
  -25.8054  -30.8811   27.0205 H   0  0  0  0  0  0
  -26.2849  -29.6782   24.1197 H   0  0  0  0  0  0
  -27.4016  -29.7249   25.4643 H   0  0  0  0  0  0
  -27.8722  -30.4290   23.9351 H   0  0  0  0  0  0
  -27.2716  -33.3607   26.2084 H   0  0  0  0  0  0
  -28.3876  -32.6858   25.0308 H   0  0  0  0  0  0
  -28.0752  -31.8416   26.5392 H   0  0  0  0  0  0
  -28.2552  -38.0147   24.7590 H   0  0  0  0  0  0
  -28.1154  -36.2691   24.6146 H   0  0  0  0  0  0
  -27.2336  -37.1273   25.8852 H   0  0  0  0  0  0
  -20.9339  -29.8773   21.6908 H   0  0  0  0  0  0
  -26.0169  -38.2863   24.1480 H   0  0  0  0  0  0
  -31.1842  -16.8312   19.0367 H   0  0  0  0  0  0
  -29.4304  -19.4958   21.9065 H   0  0  0  0  0  0
  -32.9448  -17.4907   15.8321 H   0  0  0  0  0  0
  -31.8698  -16.5995   17.0279 H   0  0  0  0  0  0
  -29.3783  -17.2249   22.3752 H   0  0  0  0  0  0
  -32.5673  -19.5786   16.9148 H   0  0  0  0  0  0
  -29.6505  -15.0646   22.4546 H   0  0  0  0  0  0
  -30.1865  -22.8611   15.3003 H   0  0  0  0  0  0
  -31.8109  -22.8238   15.9789 H   0  0  0  0  0  0
  -30.4960  -23.5871   16.8733 H   0  0  0  0  0  0
  -27.2389  -24.7973   20.1854 H   0  0  0  0  0  0
  -28.1616  -25.0636   18.7128 H   0  0  0  0  0  0
  -29.5293  -22.7331   18.8137 H   0  0  0  0  0  0
  -28.1317  -22.3938   19.7957 H   0  0  0  0  0  0
  -30.6864  -20.6035   16.1957 H   0  0  0  0  0  0
  -29.3701  -21.3267   17.0885 H   0  0  0  0  0  0
  1 25  1  0  0  0
  1 30  2  0  0  0
  1 80  1  0  0  0
  2  3  1  0  0  0
  2 25  1  0  0  0
  2 89  1  0  0  0
  2 90  1  0  0  0
  3  4  1  0  0  0
  3 91  1  0  0  0
  3 92  1  0  0  0
  4  5  1  0  0  0
  4 93  1  0  0  0
  4 94  1  0  0  0
  5  6  1  0  0  0
  5 26  1  0  0  0
  5 95  1  0  0  0
  6 25  1  0  0  0
  6 96  1  0  0  0
  6 97  1  0  0  0
  7  8  2  0  0  0
  7 26  1  0  0  0
  7 29  1  0  0  0
  8  9  1  0  0  0
  8 22  1  0  0  0
  9 10  1  0  0  0
  9 27  2  0  0  0
 10 11  2  0  0  0
 10 15  1  0  0  0
 11 12  1  0  0  0
 11 98  1  0  0  0
 12 13  2  0  0  0
 12 99  1  0  0  0
 13 14  1  0  0  0
 13 31  1  0  0  0
 14 15  2  0  0  0
 14100  1  0  0  0
 15101  1  0  0  0
 16 17  2  0  0  0
 16 21  1  0  0  0
 16 31  1  0  0  0
 17 18  1  0  0  0
 17102  1  0  0  0
 18 19  2  0  0  0
 18103  1  0  0  0
 19 20  1  0  0  0
 19 24  1  0  0  0
 20 21  2  0  0  0
 20104  1  0  0  0
 21 23  1  0  0  0
 22 28  1  0  0  0
 22 32  2  0  0  0
 26 27  1  0  0  0
 28105  1  0  0  0
 28106  1  0  0  0
 29107  1  0  0  0
 29108  1  0  0  0
 33 34  1  0  0  0
 33 66  1  0  0  0
 33 70  2  0  0  0
 34 36  1  0  0  0
 34 59  1  0  0  0
 34109  1  0  0  0
 35 44  2  0  0  0
 35 45  1  0  0  0
 35 68  1  0  0  0
 36 56  1  0  0  0
 36110  1  0  0  0
 37 39  1  0  0  0
 37 47  1  0  0  0
 37 66  1  0  0  0
 37111  1  0  0  0
 38 43  2  0  0  0
 38 46  1  0  0  0
 38 47  1  0  0  0
 39 64  1  0  0  0
 39 67  2  0  0  0
 40 52  1  0  0  0
 40 53  2  0  0  0
 40 58  1  0  0  0
 41112  1  0  0  0
 41113  1  0  0  0
 41114  1  0  0  0
 41 48  1  0  0  0
 42 43  1  0  0  0
 42 66  1  0  0  0
 42115  1  0  0  0
 42116  1  0  0  0
 43 44  1  0  0  0
 44117  1  0  0  0
 45 46  2  0  0  0
 45118  1  0  0  0
 46119  1  0  0  0
 47120  1  0  0  0
 47121  1  0  0  0
 48 56  1  0  0  0
 48 65  1  0  0  0
 48122  1  0  0  0
 49 50  1  0  0  0
 49 53  1  0  0  0
 49 64  1  0  0  0
 49123  1  0  0  0
 50 51  1  0  0  0
 50124  1  0  0  0
 50125  1  0  0  0
 51 52  1  0  0  0
 51126  1  0  0  0
 51127  1  0  0  0
 52128  1  0  0  0
 52129  1  0  0  0
 53 54  1  0  0  0
 54 55  2  0  0  0
 54130  1  0  0  0
 55 57  1  0  0  0
 55131  1  0  0  0
 56 69  2  0  0  0
 57 58  2  0  0  0
 57132  1  0  0  0
 58133  1  0  0  0
 59 60  1  0  0  0
 59 61  1  0  0  0
 59 62  1  0  0  0
 60134  1  0  0  0
 60135  1  0  0  0
 60136  1  0  0  0
 61137  1  0  0  0
 61138  1  0  0  0
 61139  1  0  0  0
 62140  1  0  0  0
 62141  1  0  0  0
 62142  1  0  0  0
 63 65  1  0  0  0
 63143  1  0  0  0
 63144  1  0  0  0
 63145  1  0  0  0
 64146  1  0  0  0
 65147  1  0  0  0
 68 83  1  0  0  0
 71 73  2  0  0  0
 71 74  1  0  0  0
 71148  1  0  0  0
 72 73  1  0  0  0
 72 75  2  0  0  0
 72149  1  0  0  0
 73 78  1  0  0  0
 74 76  2  0  0  0
 74 79  1  0  0  0
 75 76  1  0  0  0
 75 87  1  0  0  0
 76 88  1  0  0  0
 77 79  2  0  0  0
 77150  1  0  0  0
 77151  1  0  0  0
 78 80  2  0  0  0
 78152  1  0  0  0
 79153  1  0  0  0
 80154  1  0  0  0
 81 83  1  0  0  0
 81 84  1  0  0  0
 81 86  2  0  0  0
 82 85  1  0  0  0
 82155  1  0  0  0
 82156  1  0  0  0
 82157  1  0  0  0
 83158  1  0  0  0
 83159  1  0  0  0
 84 87  1  0  0  0
 84160  1  0  0  0
 84161  1  0  0  0
 85 88  1  0  0  0
 85162  1  0  0  0
 85163  1  0  0  0
M  ISO  4   1 100  68 101  80 100  83 101
M  END
> <chiral flag>
0

> <version>
0

> <s_m_source_file>
/data/baiqing/PycharmProjects/Reinvent-master-3.2/result/LINK_invent/BTK/process_docking_weight1_custom_product_contain_oxygen_bond_distance_aromatic_linkinvent_7_9_3/rearranged_h_0114.sdf

> <i_m_source_file_index>
34

> <r_mmod_Potential_Energy-OPLS-2005>
108.542320251465

> <r_mmod_Stretch_Energy-OPLS-2005>
60.8781929016113

> <r_mmod_Bend_Energy-OPLS-2005>
156.180511474609

> <r_mmod_Torsional_Energy-OPLS-2005>
229.449752807617

> <r_mmod_Improper_Torsional_Energy-OPLS-2005>
2.72205471992493

> <r_mmod_Van_der_Waal_Energy-OPLS-2005>
162.658966064453

> <r_mmod_Electrostatic_Energy-OPLS-2005>
-292.409637451172

> <r_mmod_Solvation_Energy-OPLS-2005>
-234.770874023438

> <b_mmod_Minimization_Converged-OPLS-2005>
0

> <r_mmod_RMS_Derivative-OPLS-2005>
1.31284391880035

$$$$
34
                    3D
 Structure written by MMmdl.
157165  0  0  1  0            999 V2000
  -30.6067  -14.8075   20.4030 C   0  0  0  0  0  0
  -30.4289  -12.4915   19.4839 C   0  0  0  0  0  0
  -29.5111  -12.5061   18.2426 C   0  0  0  0  0  0
  -28.0413  -12.3137   18.6668 C   0  0  0  0  0  0
  -27.6317  -13.2339   19.8475 C   0  0  2  0  0  0
  -28.6778  -13.2263   20.9792 C   0  0  0  0  0  0
  -25.2457  -13.8051   20.5935 C   0  0  0  0  0  0
  -24.1756  -13.0278   20.9284 C   0  0  0  0  0  0
  -24.6388  -11.6797   20.8787 C   0  0  0  0  0  0
  -23.9056  -10.4195   21.0396 C   0  0  0  0  0  0
  -24.3593   -9.4113   21.9186 C   0  0  0  0  0  0
  -23.6243   -8.2169   22.0765 C   0  0  0  0  0  0
  -22.4233   -8.0228   21.3540 C   0  0  0  0  0  0
  -21.9873   -9.0201   20.4634 C   0  0  0  0  0  0
  -22.7232  -10.2060   20.3027 C   0  0  0  0  0  0
  -21.6820   -6.0668   22.5272 C   0  0  0  0  0  0
  -21.3973   -6.5578   23.8203 C   0  0  0  0  0  0
  -21.3679   -5.6765   24.9189 C   0  0  0  0  0  0
  -21.6069   -4.3024   24.7265 C   0  0  0  0  0  0
  -21.8804   -3.8079   23.4392 C   0  0  0  0  0  0
  -21.9163   -4.6884   22.3419 C   0  0  0  0  0  0
  -22.7778  -13.5071   21.1911 C   0  0  0  0  0  0
  -22.1650   -4.2058   21.1009 F   0  0  0  0  0  0
  -21.5657   -3.4520   25.7783 F   0  0  0  0  0  0
  -29.9718  -13.5792   20.3873 N   0  0  0  0  0  0
  -26.2910  -12.9341   20.3359 N   0  0  0  0  0  0
  -25.9344  -11.6454   20.5801 N   0  0  0  0  0  0
  -22.0381  -12.8099   22.0465 N   0  0  0  0  0  0
  -25.3939  -15.1788   20.4761 N   0  0  0  0  0  0
  -31.8128  -14.8401   20.1395 O   0  0  0  0  0  0
  -21.6624   -6.8806   21.4226 O   0  0  0  0  0  0
  -22.3500  -14.5417   20.6794 O   0  0  0  0  0  0
  -24.6291  -31.8503   23.1941 C   0  0  0  0  0  0
  -25.9105  -32.4736   23.8306 C   0  0  1  0  0  0
  -27.2465  -27.2611   20.1332 C   0  0  0  0  0  0
  -25.5888  -33.8537   24.2217 N   0  0  0  0  0  0
  -23.4281  -30.4656   21.5351 C   0  0  2  0  0  0
  -24.8840  -28.9010   20.1098 C   0  0  0  0  0  0
  -22.7494  -29.4575   22.4910 C   0  0  0  0  0  0
  -18.0294  -28.1352   22.8491 C   0  0  0  0  0  0
  -24.1494  -36.7283   23.2644 C   0  0  0  0  0  0
  -25.9708  -30.7626   21.3725 C   0  0  0  0  0  0
  -26.0477  -29.3819   20.7202 C   0  0  0  0  0  0
  -27.2246  -28.5711   20.7211 C   0  0  0  0  0  0
  -26.0595  -26.8366   19.5021 C   0  0  0  0  0  0
  -24.8945  -27.6375   19.4929 C   0  0  0  0  0  0
  -23.6485  -29.7843   20.1552 C   0  0  0  0  0  0
  -25.4117  -36.3060   24.0318 C   0  0  1  0  0  0
  -20.5891  -28.3690   23.1281 C   0  0  2  0  0  0
  -20.6770  -26.9375   22.5463 C   0  0  0  0  0  0
  -19.5749  -26.6341   21.5256 C   0  0  0  0  0  0
  -18.1936  -26.7888   22.1653 C   0  0  0  0  0  0
  -19.1535  -28.8849   23.2869 C   0  0  0  0  0  0
  -18.9457  -30.1460   23.8853 C   0  0  0  0  0  0
  -17.6453  -30.6584   24.0554 C   0  0  0  0  0  0
  -25.9044  -34.9424   23.5095 C   0  0  0  0  0  0
  -16.5350  -29.9065   23.6327 C   0  0  0  0  0  0
  -16.7274  -28.6472   23.0351 C   0  0  0  0  0  0
  -26.4491  -31.6575   25.0692 C   0  0  0  0  0  0
  -25.3708  -31.3693   26.1414 C   0  0  0  0  0  0
  -27.0349  -30.2994   24.6165 C   0  0  0  0  0  0
  -27.6053  -32.4321   25.7462 C   0  0  0  0  0  0
  -27.5578  -37.1786   24.8462 C   0  0  0  0  0  0
  -21.4199  -29.3030   22.3651 N   0  0  0  0  0  0
  -26.4301  -37.3749   23.9395 N   0  0  0  0  0  0
  -24.6949  -31.0441   22.0921 N   0  0  0  0  0  0
  -23.4190  -28.8150   23.3026 O   0  0  0  0  0  0
  -28.3827  -26.4275   20.2328 O   0  0  0  0  0  0
  -26.5651  -34.8909   22.4674 O   0  0  0  0  0  0
  -23.5430  -32.1358   23.7204 O   0  0  0  0  0  0
  -29.4484  -17.3349   20.3731 C   0  0  0  0  0  0
  -29.8917  -16.1664   20.4686 C   0  0  0  0  0  0
  -28.6513  -18.6409   20.1910 C   0  0  0  0  0  0
  -27.3076  -18.5045   19.7429 C   0  0  0  0  0  0
  -26.3834  -19.5425   20.0538 C   0  0  0  0  0  0
  -26.8657  -20.7852   20.5385 C   0  0  0  0  0  0
  -28.2612  -21.0471   20.4571 C   0  0  0  0  0  0
  -26.1408  -17.3664   17.8133 C   0  0  0  0  0  0
  -26.9339  -17.3409   18.9003 C   0  0  0  0  0  0
  -24.8691  -19.3401   19.9172 C   0  0  0  0  0  0
  -25.8558  -21.7582   21.1496 C   0  0  0  0  0  0
  -28.5488  -25.0367   19.6775 C   0  0  0  0  0  0
  -28.0523  -23.6661   20.3888 C   0  0  0  0  0  0
  -29.1233  -19.9424   20.4168 N   0  0  0  0  0  0
  -28.8338  -22.3680   20.4014 O   0  0  0  0  0  0
  -31.4670  -12.6143   19.1676 H   0  0  0  0  0  0
  -30.3962  -11.5253   19.9902 H   0  0  0  0  0  0
  -29.8133  -11.7232   17.5463 H   0  0  0  0  0  0
  -29.6240  -13.4492   17.7056 H   0  0  0  0  0  0
  -27.9206  -11.2706   18.9651 H   0  0  0  0  0  0
  -27.3727  -12.4693   17.8197 H   0  0  0  0  0  0
  -27.6015  -14.2426   19.4425 H   0  0  0  0  0  0
  -28.7334  -12.2496   21.4618 H   0  0  0  0  0  0
  -28.4015  -13.9367   21.7586 H   0  0  0  0  0  0
  -25.2723   -9.5550   22.4806 H   0  0  0  0  0  0
  -23.9887   -7.4534   22.7502 H   0  0  0  0  0  0
  -21.0786   -8.8719   19.8956 H   0  0  0  0  0  0
  -22.3693  -10.9614   19.6127 H   0  0  0  0  0  0
  -21.1938   -7.6083   23.9676 H   0  0  0  0  0  0
  -21.1560   -6.0510   25.9101 H   0  0  0  0  0  0
  -22.0586   -2.7541   23.2938 H   0  0  0  0  0  0
  -22.3865  -11.9727   22.4906 H   0  0  0  0  0  0
  -21.1010  -13.1197   22.2591 H   0  0  0  0  0  0
  -24.6093  -15.8074   20.5978 H   0  0  0  0  0  0
  -26.2363  -15.6625   20.1975 H   0  0  0  0  0  0
  -26.7165  -32.5396   23.1062 H   0  0  0  0  0  0
  -25.0017  -33.9674   25.0352 H   0  0  0  0  0  0
  -22.7284  -31.2887   21.3790 H   0  0  0  0  0  0
  -23.3760  -35.9618   23.3312 H   0  0  0  0  0  0
  -24.3595  -36.8904   22.2061 H   0  0  0  0  0  0
  -23.7268  -37.6483   23.6682 H   0  0  0  0  0  0
  -26.1014  -31.5189   20.5982 H   0  0  0  0  0  0
  -26.8528  -30.8258   21.9968 H   0  0  0  0  0  0
  -28.1159  -28.9307   21.2131 H   0  0  0  0  0  0
  -26.0166  -25.8607   19.0422 H   0  0  0  0  0  0
  -24.0015  -27.2629   19.0126 H   0  0  0  0  0  0
  -23.7637  -30.5537   19.3912 H   0  0  0  0  0  0
  -22.7710  -29.2052   19.8634 H   0  0  0  0  0  0
  -25.1315  -36.1910   25.0811 H   0  0  0  0  0  0
  -20.9996  -28.3312   24.1405 H   0  0  0  0  0  0
  -20.5692  -26.2277   23.3683 H   0  0  0  0  0  0
  -21.6626  -26.7409   22.1240 H   0  0  0  0  0  0
  -19.6878  -25.6264   21.1250 H   0  0  0  0  0  0
  -19.6686  -27.3191   20.6818 H   0  0  0  0  0  0
  -17.4195  -26.6624   21.4069 H   0  0  0  0  0  0
  -18.0314  -26.0041   22.9049 H   0  0  0  0  0  0
  -19.7926  -30.7329   24.2171 H   0  0  0  0  0  0
  -17.5004  -31.6281   24.5151 H   0  0  0  0  0  0
  -15.5351  -30.2960   23.7645 H   0  0  0  0  0  0
  -15.8692  -28.0782   22.7046 H   0  0  0  0  0  0
  -24.5907  -30.7035   25.7725 H   0  0  0  0  0  0
  -24.8879  -32.2844   26.4831 H   0  0  0  0  0  0
  -25.8020  -30.8868   27.0194 H   0  0  0  0  0  0
  -26.2927  -29.6725   24.1218 H   0  0  0  0  0  0
  -27.4091  -29.7260   25.4657 H   0  0  0  0  0  0
  -27.8777  -30.4294   23.9380 H   0  0  0  0  0  0
  -27.2680  -33.3632   26.2030 H   0  0  0  0  0  0
  -28.3871  -32.6858   25.0292 H   0  0  0  0  0  0
  -28.0741  -31.8456   26.5380 H   0  0  0  0  0  0
  -28.2586  -38.0079   24.7498 H   0  0  0  0  0  0
  -28.1078  -36.2614   24.6324 H   0  0  0  0  0  0
  -27.2285  -37.1474   25.8855 H   0  0  0  0  0  0
  -20.9385  -29.8713   21.6817 H   0  0  0  0  0  0
  -26.0181  -38.2819   24.1394 H   0  0  0  0  0  0
  -25.9240  -16.4614   17.2610 H   0  0  0  0  0  0
  -25.6979  -18.2830   17.4481 H   0  0  0  0  0  0
  -27.3387  -16.3829   19.1732 H   0  0  0  0  0  0
  -24.4417  -20.0910   19.2521 H   0  0  0  0  0  0
  -24.3738  -19.4295   20.8833 H   0  0  0  0  0  0
  -24.5741  -18.3598   19.5494 H   0  0  0  0  0  0
  -25.2927  -22.2848   20.3799 H   0  0  0  0  0  0
  -26.3211  -22.4719   21.8243 H   0  0  0  0  0  0
  -25.1414  -21.2396   21.7888 H   0  0  0  0  0  0
  -28.2512  -25.0397   18.6288 H   0  0  0  0  0  0
  -29.6320  -24.9380   19.6302 H   0  0  0  0  0  0
  -27.8859  -23.9162   21.4346 H   0  0  0  0  0  0
  -27.0862  -23.4951   19.9284 H   0  0  0  0  0  0
  1 25  1  0  0  0
  1 30  2  0  0  0
  1 72  1  0  0  0
  2  3  1  0  0  0
  2 25  1  0  0  0
  2 86  1  0  0  0
  2 87  1  0  0  0
  3  4  1  0  0  0
  3 88  1  0  0  0
  3 89  1  0  0  0
  4  5  1  0  0  0
  4 90  1  0  0  0
  4 91  1  0  0  0
  5  6  1  0  0  0
  5 26  1  0  0  0
  5 92  1  0  0  0
  6 25  1  0  0  0
  6 93  1  0  0  0
  6 94  1  0  0  0
  7  8  2  0  0  0
  7 26  1  0  0  0
  7 29  1  0  0  0
  8  9  1  0  0  0
  8 22  1  0  0  0
  9 10  1  0  0  0
  9 27  2  0  0  0
 10 11  2  0  0  0
 10 15  1  0  0  0
 11 12  1  0  0  0
 11 95  1  0  0  0
 12 13  2  0  0  0
 12 96  1  0  0  0
 13 14  1  0  0  0
 13 31  1  0  0  0
 14 15  2  0  0  0
 14 97  1  0  0  0
 15 98  1  0  0  0
 16 17  2  0  0  0
 16 21  1  0  0  0
 16 31  1  0  0  0
 17 18  1  0  0  0
 17 99  1  0  0  0
 18 19  2  0  0  0
 18100  1  0  0  0
 19 20  1  0  0  0
 19 24  1  0  0  0
 20 21  2  0  0  0
 20101  1  0  0  0
 21 23  1  0  0  0
 22 28  1  0  0  0
 22 32  2  0  0  0
 26 27  1  0  0  0
 28102  1  0  0  0
 28103  1  0  0  0
 29104  1  0  0  0
 29105  1  0  0  0
 33 34  1  0  0  0
 33 66  1  0  0  0
 33 70  2  0  0  0
 34 36  1  0  0  0
 34 59  1  0  0  0
 34106  1  0  0  0
 35 44  2  0  0  0
 35 45  1  0  0  0
 35 68  1  0  0  0
 36 56  1  0  0  0
 36107  1  0  0  0
 37 39  1  0  0  0
 37 47  1  0  0  0
 37 66  1  0  0  0
 37108  1  0  0  0
 38 43  2  0  0  0
 38 46  1  0  0  0
 38 47  1  0  0  0
 39 64  1  0  0  0
 39 67  2  0  0  0
 40 52  1  0  0  0
 40 53  2  0  0  0
 40 58  1  0  0  0
 41109  1  0  0  0
 41110  1  0  0  0
 41111  1  0  0  0
 41 48  1  0  0  0
 42 43  1  0  0  0
 42 66  1  0  0  0
 42112  1  0  0  0
 42113  1  0  0  0
 43 44  1  0  0  0
 44114  1  0  0  0
 45 46  2  0  0  0
 45115  1  0  0  0
 46116  1  0  0  0
 47117  1  0  0  0
 47118  1  0  0  0
 48 56  1  0  0  0
 48 65  1  0  0  0
 48119  1  0  0  0
 49 50  1  0  0  0
 49 53  1  0  0  0
 49 64  1  0  0  0
 49120  1  0  0  0
 50 51  1  0  0  0
 50121  1  0  0  0
 50122  1  0  0  0
 51 52  1  0  0  0
 51123  1  0  0  0
 51124  1  0  0  0
 52125  1  0  0  0
 52126  1  0  0  0
 53 54  1  0  0  0
 54 55  2  0  0  0
 54127  1  0  0  0
 55 57  1  0  0  0
 55128  1  0  0  0
 56 69  2  0  0  0
 57 58  2  0  0  0
 57129  1  0  0  0
 58130  1  0  0  0
 59 60  1  0  0  0
 59 61  1  0  0  0
 59 62  1  0  0  0
 60131  1  0  0  0
 60132  1  0  0  0
 60133  1  0  0  0
 61134  1  0  0  0
 61135  1  0  0  0
 61136  1  0  0  0
 62137  1  0  0  0
 62138  1  0  0  0
 62139  1  0  0  0
 63 65  1  0  0  0
 63140  1  0  0  0
 63141  1  0  0  0
 63142  1  0  0  0
 64143  1  0  0  0
 65144  1  0  0  0
 68 82  1  0  0  0
 71 72  3  0  0  0
 71 73  1  0  0  0
 73 74  2  0  0  0
 73 84  1  0  0  0
 74 75  1  0  0  0
 74 79  1  0  0  0
 75 76  2  0  0  0
 75 80  1  0  0  0
 76 77  1  0  0  0
 76 81  1  0  0  0
 77 84  2  0  0  0
 77 85  1  0  0  0
 78 79  2  0  0  0
 78145  1  0  0  0
 78146  1  0  0  0
 79147  1  0  0  0
 80148  1  0  0  0
 80149  1  0  0  0
 80150  1  0  0  0
 81151  1  0  0  0
 81152  1  0  0  0
 81153  1  0  0  0
 82 83  1  0  0  0
 82154  1  0  0  0
 82155  1  0  0  0
 83 85  1  0  0  0
 83156  1  0  0  0
 83157  1  0  0  0
M  ISO  4   1 100  68 101  72 100  82 101
M  END
> <chiral flag>
0

> <version>
0

> <s_m_source_file>
/data/baiqing/PycharmProjects/Reinvent-master-3.2/result/LINK_invent/BTK/process_docking_weight1_custom_product_contain_oxygen_bond_distance_aromatic_linkinvent_7_9_3/rearranged_h_0114.sdf

> <i_m_source_file_index>
35

> <r_mmod_Potential_Energy-OPLS-2005>
193.961410522461

> <r_mmod_Stretch_Energy-OPLS-2005>
145.629898071289

> <r_mmod_Bend_Energy-OPLS-2005>
220.940582275391

> <r_mmod_Torsional_Energy-OPLS-2005>
255.953231811523

> <r_mmod_Improper_Torsional_Energy-OPLS-2005>
5.5108699798584

> <r_mmod_Van_der_Waal_Energy-OPLS-2005>
162.2001953125

> <r_mmod_Electrostatic_Energy-OPLS-2005>
-489.879241943359

> <r_mmod_Solvation_Energy-OPLS-2005>
-208.826416015625

> <b_mmod_Minimization_Converged-OPLS-2005>
0

> <r_mmod_RMS_Derivative-OPLS-2005>
5.13000011444092

$$$$
35
                    3D
 Structure written by MMmdl.
157165  0  0  1  0            999 V2000
  -30.6275  -14.5954   20.5142 C   0  0  0  0  0  0
  -30.4349  -12.3700   19.4312 C   0  0  0  0  0  0
  -29.4991  -12.4882   18.2095 C   0  0  0  0  0  0
  -28.0229  -12.3276   18.6297 C   0  0  0  0  0  0
  -27.6484  -13.2040   19.8538 C   0  0  2  0  0  0
  -28.6938  -13.0545   20.9798 C   0  0  0  0  0  0
  -25.2549  -13.8147   20.5663 C   0  0  0  0  0  0
  -24.1814  -13.0426   20.9196 C   0  0  0  0  0  0
  -24.6378  -11.6891   20.8746 C   0  0  0  0  0  0
  -23.9060  -10.4275   21.0412 C   0  0  0  0  0  0
  -24.3607   -9.4182   21.9185 C   0  0  0  0  0  0
  -23.6276   -8.2225   22.0761 C   0  0  0  0  0  0
  -22.4261   -8.0271   21.3550 C   0  0  0  0  0  0
  -21.9895   -9.0252   20.4657 C   0  0  0  0  0  0
  -22.7235  -10.2124   20.3060 C   0  0  0  0  0  0
  -21.6847   -6.0724   22.5280 C   0  0  0  0  0  0
  -21.4021   -6.5636   23.8212 C   0  0  0  0  0  0
  -21.3654   -5.6792   24.9174 C   0  0  0  0  0  0
  -21.6045   -4.3056   24.7232 C   0  0  0  0  0  0
  -21.8814   -3.8143   23.4355 C   0  0  0  0  0  0
  -21.9193   -4.6954   22.3407 C   0  0  0  0  0  0
  -22.7839  -13.5228   21.1866 C   0  0  0  0  0  0
  -22.1654   -4.2136   21.0983 F   0  0  0  0  0  0
  -21.5622   -3.4540   25.7743 F   0  0  0  0  0  0
  -30.0064  -13.3853   20.4054 N   0  0  0  0  0  0
  -26.2952  -12.9299   20.3265 N   0  0  0  0  0  0
  -25.9287  -11.6473   20.5739 N   0  0  0  0  0  0
  -22.0482  -12.8216   22.0427 N   0  0  0  0  0  0
  -25.4270  -15.1867   20.4054 N   0  0  0  0  0  0
  -31.8112  -14.7602   20.2052 O   0  0  0  0  0  0
  -21.6632   -6.8863   21.4241 O   0  0  0  0  0  0
  -22.3525  -14.5542   20.6726 O   0  0  0  0  0  0
  -24.6201  -31.8659   23.2059 C   0  0  0  0  0  0
  -25.9068  -32.4821   23.8379 C   0  0  1  0  0  0
  -27.2327  -27.3802   20.1062 C   0  0  0  0  0  0
  -25.5897  -33.8613   24.2314 N   0  0  0  0  0  0
  -23.4122  -30.4861   21.5496 C   0  0  2  0  0  0
  -24.8637  -28.9475   20.1123 C   0  0  0  0  0  0
  -22.7453  -29.4635   22.4993 C   0  0  0  0  0  0
  -18.0282  -28.1392   22.8507 C   0  0  0  0  0  0
  -24.1481  -36.7302   23.2639 C   0  0  0  0  0  0
  -25.9458  -30.8147   21.3680 C   0  0  0  0  0  0
  -26.0268  -29.4427   20.7179 C   0  0  0  0  0  0
  -27.2172  -28.6651   20.7165 C   0  0  0  0  0  0
  -26.0585  -26.9203   19.4812 C   0  0  0  0  0  0
  -24.8786  -27.6889   19.4855 C   0  0  0  0  0  0
  -23.6249  -29.8172   20.1646 C   0  0  0  0  0  0
  -25.4106  -36.3113   24.0343 C   0  0  1  0  0  0
  -20.5876  -28.3678   23.1324 C   0  0  2  0  0  0
  -20.6765  -26.9411   22.5429 C   0  0  0  0  0  0
  -19.5736  -26.6395   21.5229 C   0  0  0  0  0  0
  -18.1917  -26.7936   22.1641 C   0  0  0  0  0  0
  -19.1534  -28.8853   23.2911 C   0  0  0  0  0  0
  -18.9452  -30.1454   23.8924 C   0  0  0  0  0  0
  -17.6451  -30.6595   24.0565 C   0  0  0  0  0  0
  -25.9039  -34.9473   23.5132 C   0  0  0  0  0  0
  -16.5341  -29.9092   23.6324 C   0  0  0  0  0  0
  -16.7268  -28.6504   23.0358 C   0  0  0  0  0  0
  -26.4471  -31.6600   25.0712 C   0  0  0  0  0  0
  -25.3720  -31.3699   26.1445 C   0  0  0  0  0  0
  -27.0296  -30.3043   24.6086 C   0  0  0  0  0  0
  -27.6063  -32.4299   25.7468 C   0  0  0  0  0  0
  -27.5579  -37.1811   24.8476 C   0  0  0  0  0  0
  -21.4178  -29.3030   22.3730 N   0  0  0  0  0  0
  -26.4298  -37.3792   23.9413 N   0  0  0  0  0  0
  -24.6778  -31.0693   22.0999 N   0  0  0  0  0  0
  -23.4199  -28.8187   23.3064 O   0  0  0  0  0  0
  -28.3226  -26.5219   20.1078 O   0  0  0  0  0  0
  -26.5607  -34.8930   22.4695 O   0  0  0  0  0  0
  -23.5378  -32.1429   23.7416 O   0  0  0  0  0  0
  -29.8585  -15.2979   24.1407 C   0  0  0  0  0  0
  -30.6440  -18.3541   23.1716 C   0  0  0  0  0  0
  -30.2920  -19.5232   22.4725 C   0  0  0  0  0  0
  -30.4923  -17.0784   22.5945 C   0  0  0  0  0  0
  -30.0407  -16.9641   21.2539 C   0  0  0  0  0  0
  -29.7748  -19.4707   21.1549 C   0  0  0  0  0  0
  -29.6639  -18.1652   20.5588 C   0  0  0  0  0  0
  -28.9094  -14.7039   24.8224 C   0  0  0  0  0  0
  -30.7841  -15.9035   23.4291 C   0  0  0  0  0  0
  -28.7147  -24.4220   21.4063 C   0  0  0  0  0  0
  -28.4786  -25.7597   21.2527 C   0  0  0  0  0  0
  -28.8807  -23.2254   20.4353 C   0  0  0  0  0  0
  -29.3503  -21.9133   21.1861 C   0  0  0  0  0  0
  -29.7860  -15.6497   20.7001 N   0  0  0  0  0  0
  -29.3735  -20.6383   20.4708 O   0  0  0  0  0  0
  -29.1522  -18.0588   19.3072 F   0  0  0  0  0  0
  -31.4737  -12.5067   19.1265 H   0  0  0  0  0  0
  -30.3738  -11.3746   19.8728 H   0  0  0  0  0  0
  -29.7577  -11.7361   17.4628 H   0  0  0  0  0  0
  -29.6415  -13.4560   17.7269 H   0  0  0  0  0  0
  -27.8620  -11.2756   18.8682 H   0  0  0  0  0  0
  -27.3647  -12.5488   17.7895 H   0  0  0  0  0  0
  -27.6676  -14.2360   19.5060 H   0  0  0  0  0  0
  -28.6989  -12.0356   21.3714 H   0  0  0  0  0  0
  -28.4469  -13.6983   21.8254 H   0  0  0  0  0  0
  -25.2744   -9.5651   22.4768 H   0  0  0  0  0  0
  -23.9973   -7.4616   22.7477 H   0  0  0  0  0  0
  -21.0823   -8.8780   19.8962 H   0  0  0  0  0  0
  -22.3698  -10.9664   19.6175 H   0  0  0  0  0  0
  -21.2020   -7.6143   23.9714 H   0  0  0  0  0  0
  -21.1477   -6.0521   25.9075 H   0  0  0  0  0  0
  -22.0602   -2.7603   23.2868 H   0  0  0  0  0  0
  -22.4090  -11.9875   22.4804 H   0  0  0  0  0  0
  -21.1118  -13.1265   22.2662 H   0  0  0  0  0  0
  -24.6574  -15.8378   20.5171 H   0  0  0  0  0  0
  -26.2610  -15.6263   20.0399 H   0  0  0  0  0  0
  -26.7146  -32.5533   23.1151 H   0  0  0  0  0  0
  -25.0052  -33.9767   25.0465 H   0  0  0  0  0  0
  -22.7021  -31.3042   21.4094 H   0  0  0  0  0  0
  -23.3755  -35.9625   23.3326 H   0  0  0  0  0  0
  -24.3565  -36.8889   22.2049 H   0  0  0  0  0  0
  -23.7221  -37.6507   23.6633 H   0  0  0  0  0  0
  -26.0572  -31.5772   20.5952 H   0  0  0  0  0  0
  -26.8324  -30.8749   21.9869 H   0  0  0  0  0  0
  -28.1128  -29.0353   21.1972 H   0  0  0  0  0  0
  -26.0593  -25.9475   19.0085 H   0  0  0  0  0  0
  -23.9880  -27.3052   19.0078 H   0  0  0  0  0  0
  -23.7320  -30.5925   19.4060 H   0  0  0  0  0  0
  -22.7479  -29.2392   19.8683 H   0  0  0  0  0  0
  -25.1283  -36.1985   25.0839 H   0  0  0  0  0  0
  -20.9955  -28.3242   24.1448 H   0  0  0  0  0  0
  -20.5673  -26.2282   23.3622 H   0  0  0  0  0  0
  -21.6636  -26.7454   22.1212 H   0  0  0  0  0  0
  -19.6885  -25.6307   21.1246 H   0  0  0  0  0  0
  -19.6665  -27.3220   20.6772 H   0  0  0  0  0  0
  -17.4182  -26.6707   21.4041 H   0  0  0  0  0  0
  -18.0307  -26.0075   22.9035 H   0  0  0  0  0  0
  -19.7923  -30.7275   24.2305 H   0  0  0  0  0  0
  -17.4997  -31.6274   24.5173 H   0  0  0  0  0  0
  -15.5341  -30.2996   23.7631 H   0  0  0  0  0  0
  -15.8673  -28.0819   22.7072 H   0  0  0  0  0  0
  -24.5915  -30.7026   25.7764 H   0  0  0  0  0  0
  -24.8881  -32.2848   26.4877 H   0  0  0  0  0  0
  -25.8055  -30.8876   27.0219 H   0  0  0  0  0  0
  -26.2841  -29.6817   24.1128 H   0  0  0  0  0  0
  -27.4066  -29.7256   25.4529 H   0  0  0  0  0  0
  -27.8672  -30.4368   23.9232 H   0  0  0  0  0  0
  -27.2724  -33.3610   26.2056 H   0  0  0  0  0  0
  -28.3860  -32.6841   25.0274 H   0  0  0  0  0  0
  -28.0746  -31.8410   26.5367 H   0  0  0  0  0  0
  -28.2630  -38.0079   24.7502 H   0  0  0  0  0  0
  -28.1043  -36.2611   24.6335 H   0  0  0  0  0  0
  -27.2293  -37.1501   25.8879 H   0  0  0  0  0  0
  -20.9359  -29.8753   21.6945 H   0  0  0  0  0  0
  -26.0198  -38.2879   24.1396 H   0  0  0  0  0  0
  -30.9997  -18.4399   24.1887 H   0  0  0  0  0  0
  -30.4118  -20.4569   22.9990 H   0  0  0  0  0  0
  -28.3132  -13.9102   24.3944 H   0  0  0  0  0  0
  -28.6859  -14.9851   25.8421 H   0  0  0  0  0  0
  -31.8043  -15.5486   23.4304 H   0  0  0  0  0  0
  -28.7845  -24.1144   22.4404 H   0  0  0  0  0  0
  -28.3867  -26.3869   22.1303 H   0  0  0  0  0  0
  -29.5838  -23.4871   19.6434 H   0  0  0  0  0  0
  -27.9183  -23.0465   19.9553 H   0  0  0  0  0  0
  -28.6982  -21.7769   22.0511 H   0  0  0  0  0  0
  -30.3486  -22.1122   21.5770 H   0  0  0  0  0  0
  -28.8107  -15.4103   20.6336 H   0  0  0  0  0  0
  1 25  1  0  0  0
  1 30  2  0  0  0
  1 84  1  0  0  0
  2  3  1  0  0  0
  2 25  1  0  0  0
  2 87  1  0  0  0
  2 88  1  0  0  0
  3  4  1  0  0  0
  3 89  1  0  0  0
  3 90  1  0  0  0
  4  5  1  0  0  0
  4 91  1  0  0  0
  4 92  1  0  0  0
  5  6  1  0  0  0
  5 26  1  0  0  0
  5 93  1  0  0  0
  6 25  1  0  0  0
  6 94  1  0  0  0
  6 95  1  0  0  0
  7  8  2  0  0  0
  7 26  1  0  0  0
  7 29  1  0  0  0
  8  9  1  0  0  0
  8 22  1  0  0  0
  9 10  1  0  0  0
  9 27  2  0  0  0
 10 11  2  0  0  0
 10 15  1  0  0  0
 11 12  1  0  0  0
 11 96  1  0  0  0
 12 13  2  0  0  0
 12 97  1  0  0  0
 13 14  1  0  0  0
 13 31  1  0  0  0
 14 15  2  0  0  0
 14 98  1  0  0  0
 15 99  1  0  0  0
 16 17  2  0  0  0
 16 21  1  0  0  0
 16 31  1  0  0  0
 17 18  1  0  0  0
 17100  1  0  0  0
 18 19  2  0  0  0
 18101  1  0  0  0
 19 20  1  0  0  0
 19 24  1  0  0  0
 20 21  2  0  0  0
 20102  1  0  0  0
 21 23  1  0  0  0
 22 28  1  0  0  0
 22 32  2  0  0  0
 26 27  1  0  0  0
 28103  1  0  0  0
 28104  1  0  0  0
 29105  1  0  0  0
 29106  1  0  0  0
 33 34  1  0  0  0
 33 66  1  0  0  0
 33 70  2  0  0  0
 34 36  1  0  0  0
 34 59  1  0  0  0
 34107  1  0  0  0
 35 44  2  0  0  0
 35 45  1  0  0  0
 35 68  1  0  0  0
 36 56  1  0  0  0
 36108  1  0  0  0
 37 39  1  0  0  0
 37 47  1  0  0  0
 37 66  1  0  0  0
 37109  1  0  0  0
 38 43  2  0  0  0
 38 46  1  0  0  0
 38 47  1  0  0  0
 39 64  1  0  0  0
 39 67  2  0  0  0
 40 52  1  0  0  0
 40 53  2  0  0  0
 40 58  1  0  0  0
 41110  1  0  0  0
 41111  1  0  0  0
 41112  1  0  0  0
 41 48  1  0  0  0
 42 43  1  0  0  0
 42 66  1  0  0  0
 42113  1  0  0  0
 42114  1  0  0  0
 43 44  1  0  0  0
 44115  1  0  0  0
 45 46  2  0  0  0
 45116  1  0  0  0
 46117  1  0  0  0
 47118  1  0  0  0
 47119  1  0  0  0
 48 56  1  0  0  0
 48 65  1  0  0  0
 48120  1  0  0  0
 49 50  1  0  0  0
 49 53  1  0  0  0
 49 64  1  0  0  0
 49121  1  0  0  0
 50 51  1  0  0  0
 50122  1  0  0  0
 50123  1  0  0  0
 51 52  1  0  0  0
 51124  1  0  0  0
 51125  1  0  0  0
 52126  1  0  0  0
 52127  1  0  0  0
 53 54  1  0  0  0
 54 55  2  0  0  0
 54128  1  0  0  0
 55 57  1  0  0  0
 55129  1  0  0  0
 56 69  2  0  0  0
 57 58  2  0  0  0
 57130  1  0  0  0
 58131  1  0  0  0
 59 60  1  0  0  0
 59 61  1  0  0  0
 59 62  1  0  0  0
 60132  1  0  0  0
 60133  1  0  0  0
 60134  1  0  0  0
 61135  1  0  0  0
 61136  1  0  0  0
 61137  1  0  0  0
 62138  1  0  0  0
 62139  1  0  0  0
 62140  1  0  0  0
 63 65  1  0  0  0
 63141  1  0  0  0
 63142  1  0  0  0
 63143  1  0  0  0
 64144  1  0  0  0
 65145  1  0  0  0
 68 81  1  0  0  0
 71 78  2  0  0  0
 71 79  2  0  0  0
 72 73  2  0  0  0
 72 74  1  0  0  0
 72146  1  0  0  0
 73 76  1  0  0  0
 73147  1  0  0  0
 74 75  2  0  0  0
 74 79  1  0  0  0
 75 77  1  0  0  0
 75 84  1  0  0  0
 76 77  2  0  0  0
 76 85  1  0  0  0
 77 86  1  0  0  0
 78148  1  0  0  0
 78149  1  0  0  0
 79150  1  0  0  0
 80 81  2  0  0  0
 80 82  1  0  0  0
 80151  1  0  0  0
 81152  1  0  0  0
 82 83  1  0  0  0
 82153  1  0  0  0
 82154  1  0  0  0
 83 85  1  0  0  0
 83155  1  0  0  0
 83156  1  0  0  0
 84157  1  0  0  0
M  ISO  4   1 100  68 101  81 101  84 100
M  END
> <chiral flag>
0

> <version>
0

> <s_m_source_file>
/data/baiqing/PycharmProjects/Reinvent-master-3.2/result/LINK_invent/BTK/process_docking_weight1_custom_product_contain_oxygen_bond_distance_aromatic_linkinvent_7_9_3/rearranged_h_0114.sdf

> <i_m_source_file_index>
36

> <r_mmod_Potential_Energy-OPLS-2005>
-34.2316474914551

> <r_mmod_Stretch_Energy-OPLS-2005>
59.8188858032227

> <r_mmod_Bend_Energy-OPLS-2005>
131.265197753906

> <r_mmod_Torsional_Energy-OPLS-2005>
172.972702026367

> <r_mmod_Improper_Torsional_Energy-OPLS-2005>
8.42391300201416

> <r_mmod_Van_der_Waal_Energy-OPLS-2005>
141.174957275391

> <r_mmod_Electrostatic_Energy-OPLS-2005>
-382.727264404297

> <r_mmod_Solvation_Energy-OPLS-2005>
-201.247863769531

> <b_mmod_Minimization_Converged-OPLS-2005>
0

> <r_mmod_RMS_Derivative-OPLS-2005>
1.97993052005768

$$$$
36
                    3D
 Structure written by MMmdl.
158167  0  0  1  0            999 V2000
  -30.5014  -15.0539   20.3940 C   0  0  0  0  0  0
  -30.4522  -12.6638   19.4840 C   0  0  0  0  0  0
  -29.5252  -12.5206   18.2536 C   0  0  0  0  0  0
  -28.0666  -12.2823   18.6917 C   0  0  0  0  0  0
  -27.6220  -13.2460   19.8217 C   0  0  2  0  0  0
  -28.6712  -13.3370   20.9479 C   0  0  0  0  0  0
  -25.2461  -13.8210   20.5751 C   0  0  0  0  0  0
  -24.1763  -13.0438   20.9242 C   0  0  0  0  0  0
  -24.6374  -11.6926   20.8777 C   0  0  0  0  0  0
  -23.9057  -10.4295   21.0422 C   0  0  0  0  0  0
  -24.3613   -9.4205   21.9198 C   0  0  0  0  0  0
  -23.6282   -8.2239   22.0762 C   0  0  0  0  0  0
  -22.4262   -8.0288   21.3551 C   0  0  0  0  0  0
  -21.9896   -9.0261   20.4661 C   0  0  0  0  0  0
  -22.7229  -10.2136   20.3065 C   0  0  0  0  0  0
  -21.6847   -6.0741   22.5282 C   0  0  0  0  0  0
  -21.4019   -6.5641   23.8218 C   0  0  0  0  0  0
  -21.3659   -5.6787   24.9178 C   0  0  0  0  0  0
  -21.6037   -4.3047   24.7219 C   0  0  0  0  0  0
  -21.8819   -3.8145   23.4339 C   0  0  0  0  0  0
  -21.9187   -4.6971   22.3400 C   0  0  0  0  0  0
  -22.7783  -13.5222   21.1880 C   0  0  0  0  0  0
  -22.1657   -4.2152   21.0972 F   0  0  0  0  0  0
  -21.5626   -3.4533   25.7733 F   0  0  0  0  0  0
  -29.9200  -13.7813   20.3159 N   0  0  0  0  0  0
  -26.2859  -12.9427   20.3213 N   0  0  0  0  0  0
  -25.9297  -11.6566   20.5723 N   0  0  0  0  0  0
  -22.0395  -12.8250   22.0433 N   0  0  0  0  0  0
  -25.4151  -15.1949   20.4276 N   0  0  0  0  0  0
  -31.7320  -15.0943   20.2816 O   0  0  0  0  0  0
  -21.6626   -6.8883   21.4240 O   0  0  0  0  0  0
  -22.3487  -14.5520   20.6702 O   0  0  0  0  0  0
  -24.6488  -31.8376   23.1793 C   0  0  0  0  0  0
  -25.9228  -32.4654   23.8223 C   0  0  1  0  0  0
  -27.2260  -27.0690   20.1776 C   0  0  0  0  0  0
  -25.5959  -33.8460   24.2141 N   0  0  0  0  0  0
  -23.4567  -30.4499   21.5266 C   0  0  2  0  0  0
  -24.9070  -28.8518   20.1229 C   0  0  0  0  0  0
  -22.7602  -29.4499   22.4834 C   0  0  0  0  0  0
  -18.0320  -28.1393   22.8478 C   0  0  0  0  0  0
  -24.1500  -36.7235   23.2645 C   0  0  0  0  0  0
  -26.0154  -30.6897   21.3871 C   0  0  0  0  0  0
  -26.0862  -29.2902   20.7388 C   0  0  0  0  0  0
  -27.2468  -28.4190   20.7362 C   0  0  0  0  0  0
  -26.0142  -26.7319   19.5421 C   0  0  0  0  0  0
  -24.8853  -27.5864   19.5110 C   0  0  0  0  0  0
  -23.6887  -29.7651   20.1522 C   0  0  0  0  0  0
  -25.4130  -36.2997   24.0305 C   0  0  1  0  0  0
  -20.5939  -28.3720   23.1231 C   0  0  2  0  0  0
  -20.6800  -26.9414   22.5412 C   0  0  0  0  0  0
  -19.5768  -26.6373   21.5222 C   0  0  0  0  0  0
  -18.1950  -26.7934   22.1629 C   0  0  0  0  0  0
  -19.1579  -28.8876   23.2845 C   0  0  0  0  0  0
  -18.9487  -30.1476   23.8862 C   0  0  0  0  0  0
  -17.6479  -30.6585   24.0559 C   0  0  0  0  0  0
  -25.9087  -34.9379   23.5032 C   0  0  0  0  0  0
  -16.5372  -29.9069   23.6337 C   0  0  0  0  0  0
  -16.7304  -28.6494   23.0348 C   0  0  0  0  0  0
  -26.4531  -31.6542   25.0688 C   0  0  0  0  0  0
  -25.3707  -31.3758   26.1377 C   0  0  0  0  0  0
  -27.0407  -30.2930   24.6317 C   0  0  0  0  0  0
  -27.6051  -32.4321   25.7482 C   0  0  0  0  0  0
  -27.5572  -37.1771   24.8457 C   0  0  0  0  0  0
  -21.4289  -29.3031   22.3590 N   0  0  0  0  0  0
  -26.4287  -37.3713   23.9401 N   0  0  0  0  0  0
  -24.7272  -31.0162   22.0860 N   0  0  0  0  0  0
  -23.4211  -28.8063   23.3020 O   0  0  0  0  0  0
  -28.3206  -26.1160   20.1158 O   0  0  0  0  0  0
  -26.5676  -34.8892   22.4617 O   0  0  0  0  0  0
  -23.5592  -32.1275   23.6980 O   0  0  0  0  0  0
  -29.1382  -20.3693   21.9087 C   0  0  0  0  0  0
  -29.6253  -17.9244   22.0766 C   0  0  0  0  0  0
  -29.4690  -19.0103   19.9247 C   0  0  0  0  0  0
  -29.3506  -19.1875   22.6669 C   0  0  0  0  0  0
  -29.2167  -20.3851   20.5037 C   0  0  0  0  0  0
  -29.6775  -17.7253   20.6805 C   0  0  0  0  0  0
  -29.9281  -21.9657   18.7184 C   0  0  0  0  0  0
  -29.4650  -23.1262   17.8552 C   0  0  0  0  0  0
  -28.0644  -23.3993   18.3829 C   0  0  0  0  0  0
  -28.1792  -23.0743   19.8757 C   0  0  2  0  0  0
  -29.2532  -19.2721   24.1769 C   0  0  0  0  0  0
  -28.3999  -24.6095   20.6170 C   0  0  0  0  0  0
  -29.1600  -21.7870   19.8141 N   0  0  0  0  0  0
  -29.7001  -16.2392   20.2096 N   0  0  0  0  0  0
  -30.9167  -21.2939   18.4048 O   0  0  0  0  0  0
  -31.4759  -12.8560   19.1592 H   0  0  0  0  0  0
  -30.4894  -11.7379   20.0591 H   0  0  0  0  0  0
  -29.8650  -11.7033   17.6168 H   0  0  0  0  0  0
  -29.5811  -13.4245   17.6462 H   0  0  0  0  0  0
  -28.0018  -11.2548   19.0520 H   0  0  0  0  0  0
  -27.3915  -12.3489   17.8376 H   0  0  0  0  0  0
  -27.5614  -14.2271   19.3516 H   0  0  0  0  0  0
  -28.7940  -12.3795   21.4570 H   0  0  0  0  0  0
  -28.3574  -14.0573   21.7044 H   0  0  0  0  0  0
  -25.2756   -9.5687   22.4772 H   0  0  0  0  0  0
  -24.0000   -7.4628   22.7477 H   0  0  0  0  0  0
  -21.0825   -8.8793   19.8957 H   0  0  0  0  0  0
  -22.3701  -10.9688   19.6179 H   0  0  0  0  0  0
  -21.2021   -7.6151   23.9727 H   0  0  0  0  0  0
  -21.1478   -6.0514   25.9080 H   0  0  0  0  0  0
  -22.0594   -2.7610   23.2830 H   0  0  0  0  0  0
  -22.3980  -11.9935   22.4895 H   0  0  0  0  0  0
  -21.1018  -13.1323   22.2590 H   0  0  0  0  0  0
  -24.6559  -15.8517   20.5719 H   0  0  0  0  0  0
  -26.2766  -15.6441   20.1493 H   0  0  0  0  0  0
  -26.7291  -32.5237   23.0948 H   0  0  0  0  0  0
  -25.0075  -33.9570   25.0268 H   0  0  0  0  0  0
  -22.7615  -31.2756   21.3620 H   0  0  0  0  0  0
  -23.3762  -35.9566   23.3289 H   0  0  0  0  0  0
  -24.3587  -36.8894   22.2062 H   0  0  0  0  0  0
  -23.7264  -37.6425   23.6710 H   0  0  0  0  0  0
  -26.1779  -31.4366   20.6093 H   0  0  0  0  0  0
  -26.8828  -30.7459   22.0328 H   0  0  0  0  0  0
  -28.1559  -28.7624   21.2090 H   0  0  0  0  0  0
  -25.9327  -25.7651   19.0671 H   0  0  0  0  0  0
  -23.9844  -27.2429   19.0216 H   0  0  0  0  0  0
  -23.8354  -30.5326   19.3912 H   0  0  0  0  0  0
  -22.8026  -29.2095   19.8407 H   0  0  0  0  0  0
  -25.1328  -36.1809   25.0795 H   0  0  0  0  0  0
  -21.0037  -28.3313   24.1351 H   0  0  0  0  0  0
  -20.5702  -26.2324   23.3631 H   0  0  0  0  0  0
  -21.6662  -26.7410   22.1206 H   0  0  0  0  0  0
  -19.6926  -25.6277   21.1263 H   0  0  0  0  0  0
  -19.6715  -27.3174   20.6744 H   0  0  0  0  0  0
  -17.4229  -26.6701   21.4021 H   0  0  0  0  0  0
  -18.0329  -26.0085   22.9027 H   0  0  0  0  0  0
  -19.7956  -30.7314   24.2206 H   0  0  0  0  0  0
  -17.5019  -31.6262   24.5163 H   0  0  0  0  0  0
  -15.5364  -30.2947   23.7674 H   0  0  0  0  0  0
  -15.8719  -28.0800   22.7059 H   0  0  0  0  0  0
  -24.5881  -30.7118   25.7690 H   0  0  0  0  0  0
  -24.8908  -32.2953   26.4736 H   0  0  0  0  0  0
  -25.7975  -30.8964   27.0197 H   0  0  0  0  0  0
  -26.3037  -29.6632   24.1324 H   0  0  0  0  0  0
  -27.3995  -29.7253   25.4913 H   0  0  0  0  0  0
  -27.8954  -30.4142   23.9661 H   0  0  0  0  0  0
  -27.2631  -33.3634   26.2009 H   0  0  0  0  0  0
  -28.3890  -32.6865   25.0335 H   0  0  0  0  0  0
  -28.0696  -31.8488   26.5444 H   0  0  0  0  0  0
  -28.2569  -38.0084   24.7495 H   0  0  0  0  0  0
  -28.1092  -36.2609   24.6296 H   0  0  0  0  0  0
  -27.2296  -37.1426   25.8862 H   0  0  0  0  0  0
  -20.9507  -29.8716   21.6748 H   0  0  0  0  0  0
  -26.0144  -38.2779   24.1401 H   0  0  0  0  0  0
  -28.9568  -21.3011   22.4277 H   0  0  0  0  0  0
  -29.7340  -17.0677   22.7262 H   0  0  0  0  0  0
  -29.4992  -18.9400   18.8468 H   0  0  0  0  0  0
  -29.4682  -22.8761   16.7942 H   0  0  0  0  0  0
  -30.1220  -23.9817   18.0197 H   0  0  0  0  0  0
  -27.3503  -22.7273   17.9028 H   0  0  0  0  0  0
  -27.7329  -24.4163   18.1778 H   0  0  0  0  0  0
  -27.2129  -22.7027   20.2200 H   0  0  0  0  0  0
  -29.4600  -20.2823   24.5339 H   0  0  0  0  0  0
  -29.9633  -18.5966   24.6562 H   0  0  0  0  0  0
  -28.2482  -18.9964   24.4987 H   0  0  0  0  0  0
  -29.4128  -24.5561   21.0155 H   0  0  0  0  0  0
  -27.7812  -24.5874   21.5142 H   0  0  0  0  0  0
  -28.7992  -15.9667   19.8500 H   0  0  0  0  0  0
  1 25  1  0  0  0
  1 30  2  0  0  0
  1 84  1  0  0  0
  2  3  1  0  0  0
  2 25  1  0  0  0
  2 86  1  0  0  0
  2 87  1  0  0  0
  3  4  1  0  0  0
  3 88  1  0  0  0
  3 89  1  0  0  0
  4  5  1  0  0  0
  4 90  1  0  0  0
  4 91  1  0  0  0
  5  6  1  0  0  0
  5 26  1  0  0  0
  5 92  1  0  0  0
  6 25  1  0  0  0
  6 93  1  0  0  0
  6 94  1  0  0  0
  7  8  2  0  0  0
  7 26  1  0  0  0
  7 29  1  0  0  0
  8  9  1  0  0  0
  8 22  1  0  0  0
  9 10  1  0  0  0
  9 27  2  0  0  0
 10 11  2  0  0  0
 10 15  1  0  0  0
 11 12  1  0  0  0
 11 95  1  0  0  0
 12 13  2  0  0  0
 12 96  1  0  0  0
 13 14  1  0  0  0
 13 31  1  0  0  0
 14 15  2  0  0  0
 14 97  1  0  0  0
 15 98  1  0  0  0
 16 17  2  0  0  0
 16 21  1  0  0  0
 16 31  1  0  0  0
 17 18  1  0  0  0
 17 99  1  0  0  0
 18 19  2  0  0  0
 18100  1  0  0  0
 19 20  1  0  0  0
 19 24  1  0  0  0
 20 21  2  0  0  0
 20101  1  0  0  0
 21 23  1  0  0  0
 22 28  1  0  0  0
 22 32  2  0  0  0
 26 27  1  0  0  0
 28102  1  0  0  0
 28103  1  0  0  0
 29104  1  0  0  0
 29105  1  0  0  0
 33 34  1  0  0  0
 33 66  1  0  0  0
 33 70  2  0  0  0
 34 36  1  0  0  0
 34 59  1  0  0  0
 34106  1  0  0  0
 35 44  2  0  0  0
 35 45  1  0  0  0
 35 68  1  0  0  0
 36 56  1  0  0  0
 36107  1  0  0  0
 37 39  1  0  0  0
 37 47  1  0  0  0
 37 66  1  0  0  0
 37108  1  0  0  0
 38 43  2  0  0  0
 38 46  1  0  0  0
 38 47  1  0  0  0
 39 64  1  0  0  0
 39 67  2  0  0  0
 40 52  1  0  0  0
 40 53  2  0  0  0
 40 58  1  0  0  0
 41109  1  0  0  0
 41110  1  0  0  0
 41111  1  0  0  0
 41 48  1  0  0  0
 42 43  1  0  0  0
 42 66  1  0  0  0
 42112  1  0  0  0
 42113  1  0  0  0
 43 44  1  0  0  0
 44114  1  0  0  0
 45 46  2  0  0  0
 45115  1  0  0  0
 46116  1  0  0  0
 47117  1  0  0  0
 47118  1  0  0  0
 48 56  1  0  0  0
 48 65  1  0  0  0
 48119  1  0  0  0
 49 50  1  0  0  0
 49 53  1  0  0  0
 49 64  1  0  0  0
 49120  1  0  0  0
 50 51  1  0  0  0
 50121  1  0  0  0
 50122  1  0  0  0
 51 52  1  0  0  0
 51123  1  0  0  0
 51124  1  0  0  0
 52125  1  0  0  0
 52126  1  0  0  0
 53 54  1  0  0  0
 54 55  2  0  0  0
 54127  1  0  0  0
 55 57  1  0  0  0
 55128  1  0  0  0
 56 69  2  0  0  0
 57 58  2  0  0  0
 57129  1  0  0  0
 58130  1  0  0  0
 59 60  1  0  0  0
 59 61  1  0  0  0
 59 62  1  0  0  0
 60131  1  0  0  0
 60132  1  0  0  0
 60133  1  0  0  0
 61134  1  0  0  0
 61135  1  0  0  0
 61136  1  0  0  0
 62137  1  0  0  0
 62138  1  0  0  0
 62139  1  0  0  0
 63 65  1  0  0  0
 63140  1  0  0  0
 63141  1  0  0  0
 63142  1  0  0  0
 64143  1  0  0  0
 65144  1  0  0  0
 68 82  1  0  0  0
 71 74  2  0  0  0
 71 75  1  0  0  0
 71145  1  0  0  0
 72 74  1  0  0  0
 72 76  2  0  0  0
 72146  1  0  0  0
 73 75  2  0  0  0
 73 76  1  0  0  0
 73147  1  0  0  0
 74 81  1  0  0  0
 75 83  1  0  0  0
 76 84  1  0  0  0
 77 78  1  0  0  0
 77 83  1  0  0  0
 77 85  2  0  0  0
 78 79  1  0  0  0
 78148  1  0  0  0
 78149  1  0  0  0
 79 80  1  0  0  0
 79150  1  0  0  0
 79151  1  0  0  0
 80 82  1  0  0  0
 80 83  1  0  0  0
 80152  1  0  0  0
 81153  1  0  0  0
 81154  1  0  0  0
 81155  1  0  0  0
 82156  1  0  0  0
 82157  1  0  0  0
 84158  1  0  0  0
M  ISO  4   1 100  68 101  82 101  84 100
M  END
> <chiral flag>
0

> <version>
0

> <s_m_source_file>
/data/baiqing/PycharmProjects/Reinvent-master-3.2/result/LINK_invent/BTK/process_docking_weight1_custom_product_contain_oxygen_bond_distance_aromatic_linkinvent_7_9_3/rearranged_h_0114.sdf

> <i_m_source_file_index>
37

> <r_mmod_Potential_Energy-OPLS-2005>
891.653625488281

> <r_mmod_Stretch_Energy-OPLS-2005>
343.200775146484

> <r_mmod_Bend_Energy-OPLS-2005>
377.257598876953

> <r_mmod_Torsional_Energy-OPLS-2005>
351.14453125

> <r_mmod_Improper_Torsional_Energy-OPLS-2005>
13.541955947876

> <r_mmod_Van_der_Waal_Energy-OPLS-2005>
116.444526672363

> <r_mmod_Electrostatic_Energy-OPLS-2005>
-341.185943603516

> <r_mmod_Solvation_Energy-OPLS-2005>
-229.595306396484

> <b_mmod_Minimization_Converged-OPLS-2005>
0

> <r_mmod_RMS_Derivative-OPLS-2005>
2.12449884414673

$$$$
37
                    3D
 Structure written by MMmdl.
152160  0  0  1  0            999 V2000
  -30.6060  -14.7544   20.5537 C   0  0  0  0  0  0
  -30.4393  -12.4782   19.4841 C   0  0  0  0  0  0
  -29.5117  -12.5288   18.2484 C   0  0  0  0  0  0
  -28.0404  -12.3321   18.6564 C   0  0  0  0  0  0
  -27.6454  -13.2208   19.8630 C   0  0  2  0  0  0
  -28.6828  -13.1099   21.0018 C   0  0  0  0  0  0
  -25.2434  -13.8102   20.5504 C   0  0  0  0  0  0
  -24.1755  -13.0381   20.9124 C   0  0  0  0  0  0
  -24.6370  -11.6874   20.8728 C   0  0  0  0  0  0
  -23.9055  -10.4261   21.0393 C   0  0  0  0  0  0
  -24.3604   -9.4180   21.9182 C   0  0  0  0  0  0
  -23.6260   -8.2230   22.0774 C   0  0  0  0  0  0
  -22.4250   -8.0270   21.3545 C   0  0  0  0  0  0
  -21.9879   -9.0241   20.4652 C   0  0  0  0  0  0
  -22.7213  -10.2114   20.3049 C   0  0  0  0  0  0
  -21.6838   -6.0713   22.5263 C   0  0  0  0  0  0
  -21.4006   -6.5630   23.8195 C   0  0  0  0  0  0
  -21.3656   -5.6793   24.9166 C   0  0  0  0  0  0
  -21.6034   -4.3053   24.7218 C   0  0  0  0  0  0
  -21.8819   -3.8130   23.4347 C   0  0  0  0  0  0
  -21.9187   -4.6942   22.3393 C   0  0  0  0  0  0
  -22.7792  -13.5195   21.1785 C   0  0  0  0  0  0
  -22.1652   -4.2135   21.0972 F   0  0  0  0  0  0
  -21.5642   -3.4537   25.7733 F   0  0  0  0  0  0
  -29.9935  -13.5110   20.4590 N   0  0  0  0  0  0
  -26.2923  -12.9334   20.3278 N   0  0  0  0  0  0
  -25.9315  -11.6493   20.5806 N   0  0  0  0  0  0
  -22.0472  -12.8216   22.0399 N   0  0  0  0  0  0
  -25.3987  -15.1773   20.3641 N   0  0  0  0  0  0
  -31.6938  -14.9391   19.9931 O   0  0  0  0  0  0
  -21.6624   -6.8857   21.4231 O   0  0  0  0  0  0
  -22.3470  -14.5493   20.6633 O   0  0  0  0  0  0
  -24.6353  -31.8493   23.1992 C   0  0  0  0  0  0
  -25.9165  -32.4728   23.8345 C   0  0  1  0  0  0
  -27.2173  -27.2259   20.1579 C   0  0  0  0  0  0
  -25.5960  -33.8523   24.2258 N   0  0  0  0  0  0
  -23.4363  -30.4769   21.5364 C   0  0  2  0  0  0
  -24.8874  -28.9215   20.1101 C   0  0  0  0  0  0
  -22.7528  -29.4596   22.4854 C   0  0  0  0  0  0
  -18.0307  -28.1400   22.8478 C   0  0  0  0  0  0
  -24.1474  -36.7227   23.2661 C   0  0  0  0  0  0
  -25.9878  -30.7580   21.3856 C   0  0  0  0  0  0
  -26.0606  -29.3773   20.7262 C   0  0  0  0  0  0
  -27.2285  -28.5443   20.7377 C   0  0  0  0  0  0
  -26.0289  -26.8551   19.4944 C   0  0  0  0  0  0
  -24.8814  -27.6687   19.4799 C   0  0  0  0  0  0
  -23.6610  -29.8138   20.1514 C   0  0  0  0  0  0
  -25.4111  -36.3036   24.0327 C   0  0  1  0  0  0
  -20.5923  -28.3718   23.1232 C   0  0  2  0  0  0
  -20.6783  -26.9417   22.5401 C   0  0  0  0  0  0
  -19.5755  -26.6374   21.5216 C   0  0  0  0  0  0
  -18.1929  -26.7953   22.1604 C   0  0  0  0  0  0
  -19.1569  -28.8864   23.2862 C   0  0  0  0  0  0
  -18.9497  -30.1477   23.8877 C   0  0  0  0  0  0
  -17.6490  -30.6604   24.0566 C   0  0  0  0  0  0
  -25.9048  -34.9409   23.5071 C   0  0  0  0  0  0
  -16.5377  -29.9088   23.6361 C   0  0  0  0  0  0
  -16.7288  -28.6505   23.0371 C   0  0  0  0  0  0
  -26.4549  -31.6591   25.0741 C   0  0  0  0  0  0
  -25.3771  -31.3711   26.1461 C   0  0  0  0  0  0
  -27.0481  -30.3030   24.6272 C   0  0  0  0  0  0
  -27.6095  -32.4369   25.7516 C   0  0  0  0  0  0
  -27.5544  -37.1760   24.8482 C   0  0  0  0  0  0
  -21.4233  -29.3071   22.3588 N   0  0  0  0  0  0
  -26.4260  -37.3745   23.9431 N   0  0  0  0  0  0
  -24.7054  -31.0469   22.0957 N   0  0  0  0  0  0
  -23.4207  -28.8127   23.2961 O   0  0  0  0  0  0
  -28.2766  -26.2831   20.2253 O   0  0  0  0  0  0
  -26.5621  -34.8885   22.4641 O   0  0  0  0  0  0
  -23.5484  -32.1288   23.7246 O   0  0  0  0  0  0
  -30.2671  -18.5458   20.6161 C   0  0  0  0  0  0
  -29.5440  -17.3632   21.0809 C   0  0  0  0  0  0
  -28.2991  -17.8853   21.3934 C   0  0  0  0  0  0
  -29.4303  -19.6725   20.6997 C   0  0  0  0  0  0
  -26.1134  -17.8899   22.6121 C   0  0  0  0  0  0
  -27.1549  -17.2931   22.0137 C   0  0  0  0  0  0
  -29.9915  -15.9025   21.4941 C   0  0  0  0  0  0
  -28.9570  -23.6372   20.3522 C   0  0  0  0  0  0
  -27.9193  -24.8504   20.6060 C   0  0  0  0  0  0
  -28.5961  -22.1002   20.7333 C   0  0  0  0  0  0
  -29.8598  -15.6119   22.7233 N   0  0  0  0  0  0
  -30.0587  -23.8876   19.8511 O   0  0  0  0  0  0
  -28.2213  -19.2566   21.1700 O   0  0  0  0  0  0
  -29.6269  -21.0452   20.4265 O   0  0  0  0  0  0
  -31.4762  -12.6208   19.1773 H   0  0  0  0  0  0
  -30.4117  -11.4878   19.9421 H   0  0  0  0  0  0
  -29.8024  -11.7667   17.5248 H   0  0  0  0  0  0
  -29.6307  -13.4882   17.7446 H   0  0  0  0  0  0
  -27.9045  -11.2822   18.9197 H   0  0  0  0  0  0
  -27.3801  -12.5179   17.8094 H   0  0  0  0  0  0
  -27.6563  -14.2513   19.5081 H   0  0  0  0  0  0
  -28.7287  -12.0871   21.3816 H   0  0  0  0  0  0
  -28.3675  -13.7159   21.8487 H   0  0  0  0  0  0
  -25.2759   -9.5671   22.4742 H   0  0  0  0  0  0
  -23.9951   -7.4644   22.7526 H   0  0  0  0  0  0
  -21.0796   -8.8732   19.8976 H   0  0  0  0  0  0
  -22.3638  -10.9642   19.6150 H   0  0  0  0  0  0
  -21.1989   -7.6141   23.9688 H   0  0  0  0  0  0
  -21.1478   -6.0529   25.9066 H   0  0  0  0  0  0
  -22.0600   -2.7593   23.2839 H   0  0  0  0  0  0
  -22.4117  -11.9872   22.4746 H   0  0  0  0  0  0
  -21.1132  -13.1280   22.2720 H   0  0  0  0  0  0
  -24.6324  -15.8277   20.5003 H   0  0  0  0  0  0
  -26.2410  -15.6242   20.0299 H   0  0  0  0  0  0
  -26.7207  -32.5367   23.1064 H   0  0  0  0  0  0
  -25.0208  -33.9685   25.0473 H   0  0  0  0  0  0
  -22.7391  -31.3022   21.3828 H   0  0  0  0  0  0
  -23.3749  -35.9541   23.3324 H   0  0  0  0  0  0
  -24.3573  -36.8830   22.2076 H   0  0  0  0  0  0
  -23.7173  -37.6396   23.6688 H   0  0  0  0  0  0
  -26.1422  -31.5199   20.6216 H   0  0  0  0  0  0
  -26.8589  -30.7984   22.0270 H   0  0  0  0  0  0
  -28.1228  -28.8860   21.2381 H   0  0  0  0  0  0
  -25.9658  -25.9052   18.9839 H   0  0  0  0  0  0
  -23.9880  -27.3180   18.9835 H   0  0  0  0  0  0
  -23.7959  -30.5928   19.3993 H   0  0  0  0  0  0
  -22.7784  -29.2527   19.8356 H   0  0  0  0  0  0
  -25.1267  -36.1869   25.0803 H   0  0  0  0  0  0
  -21.0044  -28.3294   24.1337 H   0  0  0  0  0  0
  -20.5706  -26.2302   23.3604 H   0  0  0  0  0  0
  -21.6629  -26.7423   22.1148 H   0  0  0  0  0  0
  -19.6916  -25.6276   21.1243 H   0  0  0  0  0  0
  -19.6718  -27.3188   20.6749 H   0  0  0  0  0  0
  -17.4201  -26.6750   21.4012 H   0  0  0  0  0  0
  -18.0289  -26.0116   22.9000 H   0  0  0  0  0  0
  -19.7994  -30.7307   24.2206 H   0  0  0  0  0  0
  -17.5058  -31.6295   24.5157 H   0  0  0  0  0  0
  -15.5378  -30.2984   23.7737 H   0  0  0  0  0  0
  -15.8685  -28.0831   22.7102 H   0  0  0  0  0  0
  -24.5982  -30.7029   25.7756 H   0  0  0  0  0  0
  -24.8957  -32.2876   26.4880 H   0  0  0  0  0  0
  -25.8100  -30.8889   27.0242 H   0  0  0  0  0  0
  -26.3108  -29.6704   24.1322 H   0  0  0  0  0  0
  -27.4226  -29.7351   25.4805 H   0  0  0  0  0  0
  -27.8931  -30.4346   23.9509 H   0  0  0  0  0  0
  -27.2703  -33.3704   26.2022 H   0  0  0  0  0  0
  -28.3951  -32.6873   25.0366 H   0  0  0  0  0  0
  -28.0726  -31.8542   26.5492 H   0  0  0  0  0  0
  -28.2548  -38.0070   24.7517 H   0  0  0  0  0  0
  -28.1042  -36.2586   24.6314 H   0  0  0  0  0  0
  -27.2264  -37.1363   25.8886 H   0  0  0  0  0  0
  -20.9382  -29.8822   21.6835 H   0  0  0  0  0  0
  -26.0122  -38.2786   24.1519 H   0  0  0  0  0  0
  -31.3077  -18.5732   20.3267 H   0  0  0  0  0  0
  -25.3107  -17.2982   23.0303 H   0  0  0  0  0  0
  -26.0419  -18.9639   22.7050 H   0  0  0  0  0  0
  -27.1298  -16.2137   21.9774 H   0  0  0  0  0  0
  -27.7033  -24.8569   21.6738 H   0  0  0  0  0  0
  -26.9917  -24.5480   20.1281 H   0  0  0  0  0  0
  -27.6667  -21.8378   20.2272 H   0  0  0  0  0  0
  -28.3782  -22.0651   21.8006 H   0  0  0  0  0  0
  -29.4774  -16.3850   23.2545 H   0  0  0  0  0  0
  1 25  1  0  0  0
  1 30  2  0  0  0
  1 77  1  0  0  0
  2  3  1  0  0  0
  2 25  1  0  0  0
  2 85  1  0  0  0
  2 86  1  0  0  0
  3  4  1  0  0  0
  3 87  1  0  0  0
  3 88  1  0  0  0
  4  5  1  0  0  0
  4 89  1  0  0  0
  4 90  1  0  0  0
  5  6  1  0  0  0
  5 26  1  0  0  0
  5 91  1  0  0  0
  6 25  1  0  0  0
  6 92  1  0  0  0
  6 93  1  0  0  0
  7  8  2  0  0  0
  7 26  1  0  0  0
  7 29  1  0  0  0
  8  9  1  0  0  0
  8 22  1  0  0  0
  9 10  1  0  0  0
  9 27  2  0  0  0
 10 11  2  0  0  0
 10 15  1  0  0  0
 11 12  1  0  0  0
 11 94  1  0  0  0
 12 13  2  0  0  0
 12 95  1  0  0  0
 13 14  1  0  0  0
 13 31  1  0  0  0
 14 15  2  0  0  0
 14 96  1  0  0  0
 15 97  1  0  0  0
 16 17  2  0  0  0
 16 21  1  0  0  0
 16 31  1  0  0  0
 17 18  1  0  0  0
 17 98  1  0  0  0
 18 19  2  0  0  0
 18 99  1  0  0  0
 19 20  1  0  0  0
 19 24  1  0  0  0
 20 21  2  0  0  0
 20100  1  0  0  0
 21 23  1  0  0  0
 22 28  1  0  0  0
 22 32  2  0  0  0
 26 27  1  0  0  0
 28101  1  0  0  0
 28102  1  0  0  0
 29103  1  0  0  0
 29104  1  0  0  0
 33 34  1  0  0  0
 33 66  1  0  0  0
 33 70  2  0  0  0
 34 36  1  0  0  0
 34 59  1  0  0  0
 34105  1  0  0  0
 35 44  2  0  0  0
 35 45  1  0  0  0
 35 68  1  0  0  0
 36 56  1  0  0  0
 36106  1  0  0  0
 37 39  1  0  0  0
 37 47  1  0  0  0
 37 66  1  0  0  0
 37107  1  0  0  0
 38 43  2  0  0  0
 38 46  1  0  0  0
 38 47  1  0  0  0
 39 64  1  0  0  0
 39 67  2  0  0  0
 40 52  1  0  0  0
 40 53  2  0  0  0
 40 58  1  0  0  0
 41108  1  0  0  0
 41109  1  0  0  0
 41110  1  0  0  0
 41 48  1  0  0  0
 42 43  1  0  0  0
 42 66  1  0  0  0
 42111  1  0  0  0
 42112  1  0  0  0
 43 44  1  0  0  0
 44113  1  0  0  0
 45 46  2  0  0  0
 45114  1  0  0  0
 46115  1  0  0  0
 47116  1  0  0  0
 47117  1  0  0  0
 48 56  1  0  0  0
 48 65  1  0  0  0
 48118  1  0  0  0
 49 50  1  0  0  0
 49 53  1  0  0  0
 49 64  1  0  0  0
 49119  1  0  0  0
 50 51  1  0  0  0
 50120  1  0  0  0
 50121  1  0  0  0
 51 52  1  0  0  0
 51122  1  0  0  0
 51123  1  0  0  0
 52124  1  0  0  0
 52125  1  0  0  0
 53 54  1  0  0  0
 54 55  2  0  0  0
 54126  1  0  0  0
 55 57  1  0  0  0
 55127  1  0  0  0
 56 69  2  0  0  0
 57 58  2  0  0  0
 57128  1  0  0  0
 58129  1  0  0  0
 59 60  1  0  0  0
 59 61  1  0  0  0
 59 62  1  0  0  0
 60130  1  0  0  0
 60131  1  0  0  0
 60132  1  0  0  0
 61133  1  0  0  0
 61134  1  0  0  0
 61135  1  0  0  0
 62136  1  0  0  0
 62137  1  0  0  0
 62138  1  0  0  0
 63 65  1  0  0  0
 63139  1  0  0  0
 63140  1  0  0  0
 63141  1  0  0  0
 64142  1  0  0  0
 65143  1  0  0  0
 68 79  1  0  0  0
 71 72  1  0  0  0
 71 74  2  0  0  0
 71144  1  0  0  0
 72 73  2  0  0  0
 72 77  1  0  0  0
 73 76  1  0  0  0
 73 83  1  0  0  0
 74 83  1  0  0  0
 74 84  1  0  0  0
 75 76  2  0  0  0
 75145  1  0  0  0
 75146  1  0  0  0
 76147  1  0  0  0
 77 81  2  0  0  0
 78 79  1  0  0  0
 78 80  1  0  0  0
 78 82  2  0  0  0
 79148  1  0  0  0
 79149  1  0  0  0
 80 84  1  0  0  0
 80150  1  0  0  0
 80151  1  0  0  0
 81152  1  0  0  0
M  ISO  4   1 100  68 101  77 100  79 101
M  END
> <chiral flag>
0

> <version>
0

> <s_m_source_file>
/data/baiqing/PycharmProjects/Reinvent-master-3.2/result/LINK_invent/BTK/process_docking_weight1_custom_product_contain_oxygen_bond_distance_aromatic_linkinvent_7_9_3/rearranged_h_0114.sdf

> <i_m_source_file_index>
38

> <r_mmod_Potential_Energy-OPLS-2005>
378.147033691406

> <r_mmod_Stretch_Energy-OPLS-2005>
156.546875

> <r_mmod_Bend_Energy-OPLS-2005>
205.248657226562

> <r_mmod_Torsional_Energy-OPLS-2005>
240.767227172852

> <r_mmod_Improper_Torsional_Energy-OPLS-2005>
5.70824146270752

> <r_mmod_Van_der_Waal_Energy-OPLS-2005>
116.758613586426

> <r_mmod_Electrostatic_Energy-OPLS-2005>
-215.997222900391

> <r_mmod_Solvation_Energy-OPLS-2005>
-232.014068603516

> <b_mmod_Minimization_Converged-OPLS-2005>
0

> <r_mmod_RMS_Derivative-OPLS-2005>
3.82309079170227

$$$$
38
                    3D
 Structure written by MMmdl.
160168  0  0  1  0            999 V2000
  -30.7452  -14.4669   20.6359 C   0  0  0  0  0  0
  -30.4166  -12.3300   19.4219 C   0  0  0  0  0  0
  -29.4912  -12.5131   18.2033 C   0  0  0  0  0  0
  -28.0142  -12.3589   18.6127 C   0  0  0  0  0  0
  -27.6531  -13.1944   19.8668 C   0  0  2  0  0  0
  -28.6935  -13.0117   20.9902 C   0  0  0  0  0  0
  -25.2576  -13.8116   20.5699 C   0  0  0  0  0  0
  -24.1817  -13.0415   20.9192 C   0  0  0  0  0  0
  -24.6361  -11.6880   20.8743 C   0  0  0  0  0  0
  -23.9027  -10.4282   21.0425 C   0  0  0  0  0  0
  -24.3590   -9.4200   21.9199 C   0  0  0  0  0  0
  -23.6282   -8.2229   22.0756 C   0  0  0  0  0  0
  -22.4263   -8.0274   21.3546 C   0  0  0  0  0  0
  -21.9898   -9.0241   20.4646 C   0  0  0  0  0  0
  -22.7210  -10.2127   20.3062 C   0  0  0  0  0  0
  -21.6842   -6.0736   22.5282 C   0  0  0  0  0  0
  -21.4006   -6.5638   23.8221 C   0  0  0  0  0  0
  -21.3658   -5.6794   24.9182 C   0  0  0  0  0  0
  -21.6051   -4.3054   24.7226 C   0  0  0  0  0  0
  -21.8816   -3.8154   23.4346 C   0  0  0  0  0  0
  -21.9187   -4.6973   22.3399 C   0  0  0  0  0  0
  -22.7846  -13.5235   21.1865 C   0  0  0  0  0  0
  -22.1656   -4.2157   21.0979 F   0  0  0  0  0  0
  -21.5636   -3.4539   25.7738 F   0  0  0  0  0  0
  -30.0311  -13.3154   20.4474 N   0  0  0  0  0  0
  -26.2973  -12.9248   20.3315 N   0  0  0  0  0  0
  -25.9273  -11.6425   20.5732 N   0  0  0  0  0  0
  -22.0471  -12.8226   22.0415 N   0  0  0  0  0  0
  -25.4346  -15.1833   20.4170 N   0  0  0  0  0  0
  -31.7997  -14.6936   20.0342 O   0  0  0  0  0  0
  -21.6624   -6.8875   21.4244 O   0  0  0  0  0  0
  -22.3547  -14.5544   20.6717 O   0  0  0  0  0  0
  -24.6147  -31.8666   23.2087 C   0  0  0  0  0  0
  -25.9042  -32.4815   23.8380 C   0  0  1  0  0  0
  -27.2428  -27.4287   20.0885 C   0  0  0  0  0  0
  -25.5900  -33.8611   24.2323 N   0  0  0  0  0  0
  -23.4029  -30.4889   21.5482 C   0  0  2  0  0  0
  -24.8489  -28.9503   20.1139 C   0  0  0  0  0  0
  -22.7416  -29.4648   22.4985 C   0  0  0  0  0  0
  -18.0271  -28.1375   22.8485 C   0  0  0  0  0  0
  -24.1477  -36.7304   23.2635 C   0  0  0  0  0  0
  -25.9302  -30.8298   21.3599 C   0  0  0  0  0  0
  -26.0064  -29.4611   20.7114 C   0  0  0  0  0  0
  -27.2000  -28.7043   20.7006 C   0  0  0  0  0  0
  -26.0590  -26.9263   19.4986 C   0  0  0  0  0  0
  -24.8697  -27.6813   19.5084 C   0  0  0  0  0  0
  -23.6107  -29.8174   20.1637 C   0  0  0  0  0  0
  -25.4097  -36.3108   24.0343 C   0  0  1  0  0  0
  -20.5862  -28.3656   23.1321 C   0  0  2  0  0  0
  -20.6759  -26.9393   22.5422 C   0  0  0  0  0  0
  -19.5742  -26.6380   21.5209 C   0  0  0  0  0  0
  -18.1918  -26.7927   22.1615 C   0  0  0  0  0  0
  -19.1522  -28.8833   23.2902 C   0  0  0  0  0  0
  -18.9451  -30.1440   23.8911 C   0  0  0  0  0  0
  -17.6452  -30.6584   24.0563 C   0  0  0  0  0  0
  -25.9029  -34.9475   23.5131 C   0  0  0  0  0  0
  -16.5339  -29.9089   23.6323 C   0  0  0  0  0  0
  -16.7263  -28.6504   23.0342 C   0  0  0  0  0  0
  -26.4469  -31.6593   25.0707 C   0  0  0  0  0  0
  -25.3747  -31.3710   26.1469 C   0  0  0  0  0  0
  -27.0294  -30.3038   24.6073 C   0  0  0  0  0  0
  -27.6045  -32.4307   25.7474 C   0  0  0  0  0  0
  -27.5583  -37.1793   24.8460 C   0  0  0  0  0  0
  -21.4145  -29.3026   22.3736 N   0  0  0  0  0  0
  -26.4278  -37.3799   23.9425 N   0  0  0  0  0  0
  -24.6674  -31.0766   22.0979 N   0  0  0  0  0  0
  -23.4195  -28.8193   23.3026 O   0  0  0  0  0  0
  -28.4369  -26.7312   20.1164 O   0  0  0  0  0  0
  -26.5585  -34.8930   22.4688 O   0  0  0  0  0  0
  -23.5344  -32.1402   23.7498 O   0  0  0  0  0  0
  -29.1806  -18.7205   19.9581 C   0  0  0  0  0  0
  -30.5923  -17.7411   22.1481 C   0  0  0  0  0  0
  -29.3965  -17.3181   20.0740 C   0  0  0  0  0  0
  -30.0897  -16.7935   21.2154 C   0  0  0  0  0  0
  -29.6892  -19.6482   20.8998 C   0  0  0  0  0  0
  -30.4050  -19.1283   21.9940 C   0  0  0  0  0  0
  -27.6871  -16.7041   18.3408 C   0  0  0  0  0  0
  -28.8318  -16.4715   19.0070 C   0  0  0  0  0  0
  -28.5548  -24.2441   20.0176 C   0  0  0  0  0  0
  -30.4504  -14.9959   22.9285 C   0  0  0  0  0  0
  -29.4179  -23.0941   19.4612 C   0  0  0  0  0  0
  -28.6492  -25.5906   19.2636 C   0  0  0  0  0  0
  -28.9311  -21.6363   19.6843 C   0  0  0  0  0  0
  -30.2485  -15.3730   21.5186 N   0  0  0  0  0  0
  -27.8323  -24.0996   21.0090 O   0  0  0  0  0  0
  -29.5491  -21.0307   20.8276 O   0  0  0  0  0  0
  -30.9217  -19.9732   22.9191 F   0  0  0  0  0  0
  -31.4620  -12.4228   19.1229 H   0  0  0  0  0  0
  -30.3162  -11.3216   19.8258 H   0  0  0  0  0  0
  -29.7398  -11.7848   17.4301 H   0  0  0  0  0  0
  -29.6528  -13.4954   17.7585 H   0  0  0  0  0  0
  -27.8318  -11.3010   18.8060 H   0  0  0  0  0  0
  -27.3633  -12.6309   17.7798 H   0  0  0  0  0  0
  -27.6771  -14.2337   19.5638 H   0  0  0  0  0  0
  -28.6756  -11.9899   21.3703 H   0  0  0  0  0  0
  -28.4147  -13.6436   21.8324 H   0  0  0  0  0  0
  -25.2741   -9.5685   22.4761 H   0  0  0  0  0  0
  -24.0008   -7.4615   22.7463 H   0  0  0  0  0  0
  -21.0837   -8.8751   19.8938 H   0  0  0  0  0  0
  -22.3680  -10.9665   19.6161 H   0  0  0  0  0  0
  -21.1992   -7.6145   23.9722 H   0  0  0  0  0  0
  -21.1482   -6.0524   25.9086 H   0  0  0  0  0  0
  -22.0596   -2.7622   23.2832 H   0  0  0  0  0  0
  -22.4057  -11.9869   22.4794 H   0  0  0  0  0  0
  -21.1091  -13.1268   22.2607 H   0  0  0  0  0  0
  -24.6780  -15.8462   20.5409 H   0  0  0  0  0  0
  -26.2960  -15.6156   20.1063 H   0  0  0  0  0  0
  -26.7115  -32.5529   23.1142 H   0  0  0  0  0  0
  -25.0096  -33.9758   25.0504 H   0  0  0  0  0  0
  -22.6913  -31.3057   21.4087 H   0  0  0  0  0  0
  -23.3752  -35.9621   23.3282 H   0  0  0  0  0  0
  -24.3583  -36.8931   22.2054 H   0  0  0  0  0  0
  -23.7212  -37.6496   23.6655 H   0  0  0  0  0  0
  -26.0387  -31.5924   20.5873 H   0  0  0  0  0  0
  -26.8207  -30.8885   21.9743 H   0  0  0  0  0  0
  -28.0946  -29.0980   21.1618 H   0  0  0  0  0  0
  -26.0270  -25.9470   19.0461 H   0  0  0  0  0  0
  -23.9755  -27.2765   19.0543 H   0  0  0  0  0  0
  -23.7198  -30.5882   19.3996 H   0  0  0  0  0  0
  -22.7343  -29.2358   19.8708 H   0  0  0  0  0  0
  -25.1267  -36.1964   25.0834 H   0  0  0  0  0  0
  -20.9949  -28.3220   24.1441 H   0  0  0  0  0  0
  -20.5653  -26.2266   23.3609 H   0  0  0  0  0  0
  -21.6636  -26.7434   22.1224 H   0  0  0  0  0  0
  -19.6902  -25.6298   21.1230 H   0  0  0  0  0  0
  -19.6687  -27.3199   20.6748 H   0  0  0  0  0  0
  -17.4195  -26.6682   21.4006 H   0  0  0  0  0  0
  -18.0304  -26.0065   22.9006 H   0  0  0  0  0  0
  -19.7929  -30.7242   24.2293 H   0  0  0  0  0  0
  -17.5013  -31.6262   24.5177 H   0  0  0  0  0  0
  -15.5344  -30.2991   23.7648 H   0  0  0  0  0  0
  -15.8662  -28.0834   22.7042 H   0  0  0  0  0  0
  -24.5902  -30.7067   25.7823 H   0  0  0  0  0  0
  -24.8951  -32.2875   26.4920 H   0  0  0  0  0  0
  -25.8108  -30.8882   27.0226 H   0  0  0  0  0  0
  -26.2827  -29.6800   24.1142 H   0  0  0  0  0  0
  -27.4091  -29.7269   25.4515 H   0  0  0  0  0  0
  -27.8652  -30.4357   23.9196 H   0  0  0  0  0  0
  -27.2663  -33.3603   26.2067 H   0  0  0  0  0  0
  -28.3851  -32.6873   25.0300 H   0  0  0  0  0  0
  -28.0714  -31.8420   26.5380 H   0  0  0  0  0  0
  -28.2579  -38.0109   24.7547 H   0  0  0  0  0  0
  -28.1095  -36.2644   24.6227 H   0  0  0  0  0  0
  -27.2319  -37.1393   25.8865 H   0  0  0  0  0  0
  -20.9315  -29.8744   21.6953 H   0  0  0  0  0  0
  -26.0167  -38.2875   24.1444 H   0  0  0  0  0  0
  -28.6253  -19.0801   19.1063 H   0  0  0  0  0  0
  -31.1475  -17.4306   23.0185 H   0  0  0  0  0  0
  -27.3668  -16.0396   17.5507 H   0  0  0  0  0  0
  -27.0460  -17.5444   18.5654 H   0  0  0  0  0  0
  -29.4075  -15.6151   18.6975 H   0  0  0  0  0  0
  -31.4656  -15.2384   23.2473 H   0  0  0  0  0  0
  -30.3141  -13.9288   23.1146 H   0  0  0  0  0  0
  -29.7460  -15.5200   23.5751 H   0  0  0  0  0  0
  -30.4335  -23.2052   19.8402 H   0  0  0  0  0  0
  -29.4856  -23.2623   18.3863 H   0  0  0  0  0  0
  -27.9948  -25.5866   18.3937 H   0  0  0  0  0  0
  -29.6615  -25.6725   18.8678 H   0  0  0  0  0  0
  -29.1941  -21.0935   18.7771 H   0  0  0  0  0  0
  -27.8456  -21.5884   19.7810 H   0  0  0  0  0  0
  1 25  1  0  0  0
  1 30  2  0  0  0
  1 84  1  0  0  0
  2  3  1  0  0  0
  2 25  1  0  0  0
  2 88  1  0  0  0
  2 89  1  0  0  0
  3  4  1  0  0  0
  3 90  1  0  0  0
  3 91  1  0  0  0
  4  5  1  0  0  0
  4 92  1  0  0  0
  4 93  1  0  0  0
  5  6  1  0  0  0
  5 26  1  0  0  0
  5 94  1  0  0  0
  6 25  1  0  0  0
  6 95  1  0  0  0
  6 96  1  0  0  0
  7  8  2  0  0  0
  7 26  1  0  0  0
  7 29  1  0  0  0
  8  9  1  0  0  0
  8 22  1  0  0  0
  9 10  1  0  0  0
  9 27  2  0  0  0
 10 11  2  0  0  0
 10 15  1  0  0  0
 11 12  1  0  0  0
 11 97  1  0  0  0
 12 13  2  0  0  0
 12 98  1  0  0  0
 13 14  1  0  0  0
 13 31  1  0  0  0
 14 15  2  0  0  0
 14 99  1  0  0  0
 15100  1  0  0  0
 16 17  2  0  0  0
 16 21  1  0  0  0
 16 31  1  0  0  0
 17 18  1  0  0  0
 17101  1  0  0  0
 18 19  2  0  0  0
 18102  1  0  0  0
 19 20  1  0  0  0
 19 24  1  0  0  0
 20 21  2  0  0  0
 20103  1  0  0  0
 21 23  1  0  0  0
 22 28  1  0  0  0
 22 32  2  0  0  0
 26 27  1  0  0  0
 28104  1  0  0  0
 28105  1  0  0  0
 29106  1  0  0  0
 29107  1  0  0  0
 33 34  1  0  0  0
 33 66  1  0  0  0
 33 70  2  0  0  0
 34 36  1  0  0  0
 34 59  1  0  0  0
 34108  1  0  0  0
 35 44  2  0  0  0
 35 45  1  0  0  0
 35 68  1  0  0  0
 36 56  1  0  0  0
 36109  1  0  0  0
 37 39  1  0  0  0
 37 47  1  0  0  0
 37 66  1  0  0  0
 37110  1  0  0  0
 38 43  2  0  0  0
 38 46  1  0  0  0
 38 47  1  0  0  0
 39 64  1  0  0  0
 39 67  2  0  0  0
 40 52  1  0  0  0
 40 53  2  0  0  0
 40 58  1  0  0  0
 41111  1  0  0  0
 41112  1  0  0  0
 41113  1  0  0  0
 41 48  1  0  0  0
 42 43  1  0  0  0
 42 66  1  0  0  0
 42114  1  0  0  0
 42115  1  0  0  0
 43 44  1  0  0  0
 44116  1  0  0  0
 45 46  2  0  0  0
 45117  1  0  0  0
 46118  1  0  0  0
 47119  1  0  0  0
 47120  1  0  0  0
 48 56  1  0  0  0
 48 65  1  0  0  0
 48121  1  0  0  0
 49 50  1  0  0  0
 49 53  1  0  0  0
 49 64  1  0  0  0
 49122  1  0  0  0
 50 51  1  0  0  0
 50123  1  0  0  0
 50124  1  0  0  0
 51 52  1  0  0  0
 51125  1  0  0  0
 51126  1  0  0  0
 52127  1  0  0  0
 52128  1  0  0  0
 53 54  1  0  0  0
 54 55  2  0  0  0
 54129  1  0  0  0
 55 57  1  0  0  0
 55130  1  0  0  0
 56 69  2  0  0  0
 57 58  2  0  0  0
 57131  1  0  0  0
 58132  1  0  0  0
 59 60  1  0  0  0
 59 61  1  0  0  0
 59 62  1  0  0  0
 60133  1  0  0  0
 60134  1  0  0  0
 60135  1  0  0  0
 61136  1  0  0  0
 61137  1  0  0  0
 61138  1  0  0  0
 62139  1  0  0  0
 62140  1  0  0  0
 62141  1  0  0  0
 63 65  1  0  0  0
 63142  1  0  0  0
 63143  1  0  0  0
 63144  1  0  0  0
 64145  1  0  0  0
 65146  1  0  0  0
 68 82  1  0  0  0
 71 73  2  0  0  0
 71 75  1  0  0  0
 71147  1  0  0  0
 72 74  2  0  0  0
 72 76  1  0  0  0
 72148  1  0  0  0
 73 74  1  0  0  0
 73 78  1  0  0  0
 74 84  1  0  0  0
 75 76  2  0  0  0
 75 86  1  0  0  0
 76 87  1  0  0  0
 77 78  2  0  0  0
 77149  1  0  0  0
 77150  1  0  0  0
 78151  1  0  0  0
 79 81  1  0  0  0
 79 82  1  0  0  0
 79 85  2  0  0  0
 80 84  1  0  0  0
 80152  1  0  0  0
 80153  1  0  0  0
 80154  1  0  0  0
 81 83  1  0  0  0
 81155  1  0  0  0
 81156  1  0  0  0
 82157  1  0  0  0
 82158  1  0  0  0
 83 86  1  0  0  0
 83159  1  0  0  0
 83160  1  0  0  0
M  ISO  4   1 100  68 101  82 101  84 100
M  END
> <chiral flag>
0

> <version>
0

> <s_m_source_file>
/data/baiqing/PycharmProjects/Reinvent-master-3.2/result/LINK_invent/BTK/process_docking_weight1_custom_product_contain_oxygen_bond_distance_aromatic_linkinvent_7_9_3/rearranged_h_0114.sdf

> <i_m_source_file_index>
39

> <r_mmod_Potential_Energy-OPLS-2005>
143.592254638672

> <r_mmod_Stretch_Energy-OPLS-2005>
48.7539215087891

> <r_mmod_Bend_Energy-OPLS-2005>
129.437438964844

> <r_mmod_Torsional_Energy-OPLS-2005>
287.494232177734

> <r_mmod_Improper_Torsional_Energy-OPLS-2005>
3.70757126808167

> <r_mmod_Van_der_Waal_Energy-OPLS-2005>
163.186187744141

> <r_mmod_Electrostatic_Energy-OPLS-2005>
-284.225921630859

> <r_mmod_Solvation_Energy-OPLS-2005>
-217.4453125

> <b_mmod_Minimization_Converged-OPLS-2005>
0

> <r_mmod_RMS_Derivative-OPLS-2005>
1.46514105796814

$$$$
39
                    3D
 Structure written by MMmdl.
153161  0  0  1  0            999 V2000
  -30.5886  -14.6560   20.4786 C   0  0  0  0  0  0
  -30.4349  -12.4042   19.4339 C   0  0  0  0  0  0
  -29.5033  -12.5353   18.2081 C   0  0  0  0  0  0
  -28.0240  -12.3663   18.6125 C   0  0  0  0  0  0
  -27.6500  -13.2136   19.8601 C   0  0  2  0  0  0
  -28.6948  -13.0539   20.9866 C   0  0  0  0  0  0
  -25.2578  -13.8152   20.5718 C   0  0  0  0  0  0
  -24.1841  -13.0422   20.9210 C   0  0  0  0  0  0
  -24.6398  -11.6882   20.8715 C   0  0  0  0  0  0
  -23.9036  -10.4289   21.0373 C   0  0  0  0  0  0
  -24.3600   -9.4223   21.9157 C   0  0  0  0  0  0
  -23.6300   -8.2245   22.0727 C   0  0  0  0  0  0
  -22.4276   -8.0276   21.3527 C   0  0  0  0  0  0
  -21.9902   -9.0236   20.4609 C   0  0  0  0  0  0
  -22.7199  -10.2135   20.3023 C   0  0  0  0  0  0
  -21.6885   -6.0735   22.5284 C   0  0  0  0  0  0
  -21.4018   -6.5626   23.8213 C   0  0  0  0  0  0
  -21.3677   -5.6784   24.9184 C   0  0  0  0  0  0
  -21.6049   -4.3046   24.7238 C   0  0  0  0  0  0
  -21.8830   -3.8145   23.4370 C   0  0  0  0  0  0
  -21.9210   -4.6966   22.3423 C   0  0  0  0  0  0
  -22.7867  -13.5227   21.1912 C   0  0  0  0  0  0
  -22.1675   -4.2138   21.1001 F   0  0  0  0  0  0
  -21.5647   -3.4534   25.7765 F   0  0  0  0  0  0
  -30.0056  -13.4154   20.4227 N   0  0  0  0  0  0
  -26.2975  -12.9304   20.3307 N   0  0  0  0  0  0
  -25.9307  -11.6466   20.5689 N   0  0  0  0  0  0
  -22.0508  -12.8186   22.0439 N   0  0  0  0  0  0
  -25.4348  -15.1880   20.4134 N   0  0  0  0  0  0
  -31.7544  -14.8312   20.1087 O   0  0  0  0  0  0
  -21.6668   -6.8870   21.4232 O   0  0  0  0  0  0
  -22.3551  -14.5553   20.6783 O   0  0  0  0  0  0
  -24.6214  -31.8636   23.2010 C   0  0  0  0  0  0
  -25.9058  -32.4807   23.8398 C   0  0  1  0  0  0
  -27.2268  -27.3200   20.1320 C   0  0  0  0  0  0
  -25.5881  -33.8614   24.2284 N   0  0  0  0  0  0
  -23.4208  -30.4805   21.5479 C   0  0  2  0  0  0
  -24.8708  -28.9409   20.1094 C   0  0  0  0  0  0
  -22.7485  -29.4631   22.4995 C   0  0  0  0  0  0
  -18.0292  -28.1374   22.8520 C   0  0  0  0  0  0
  -24.1470  -36.7308   23.2650 C   0  0  0  0  0  0
  -25.9587  -30.7907   21.3786 C   0  0  0  0  0  0
  -26.0349  -29.4166   20.7262 C   0  0  0  0  0  0
  -27.2127  -28.6153   20.7331 C   0  0  0  0  0  0
  -26.0467  -26.9063   19.4713 C   0  0  0  0  0  0
  -24.8788  -27.6924   19.4730 C   0  0  0  0  0  0
  -23.6313  -29.8082   20.1666 C   0  0  0  0  0  0
  -25.4106  -36.3103   24.0327 C   0  0  1  0  0  0
  -20.5890  -28.3686   23.1317 C   0  0  2  0  0  0
  -20.6775  -26.9419   22.5435 C   0  0  0  0  0  0
  -19.5735  -26.6399   21.5254 C   0  0  0  0  0  0
  -18.1923  -26.7923   22.1661 C   0  0  0  0  0  0
  -19.1544  -28.8858   23.2917 C   0  0  0  0  0  0
  -18.9465  -30.1480   23.8903 C   0  0  0  0  0  0
  -17.6442  -30.6574   24.0584 C   0  0  0  0  0  0
  -25.9075  -34.9475   23.5134 C   0  0  0  0  0  0
  -16.5351  -29.9070   23.6328 C   0  0  0  0  0  0
  -16.7286  -28.6486   23.0346 C   0  0  0  0  0  0
  -26.4428  -31.6591   25.0758 C   0  0  0  0  0  0
  -25.3625  -31.3738   26.1452 C   0  0  0  0  0  0
  -27.0290  -30.3013   24.6232 C   0  0  0  0  0  0
  -27.6027  -32.4305   25.7496 C   0  0  0  0  0  0
  -27.5593  -37.1787   24.8459 C   0  0  0  0  0  0
  -21.4199  -29.3033   22.3711 N   0  0  0  0  0  0
  -26.4278  -37.3808   23.9433 N   0  0  0  0  0  0
  -24.6870  -31.0619   22.0998 N   0  0  0  0  0  0
  -23.4187  -28.8208   23.3125 O   0  0  0  0  0  0
  -28.3366  -26.4642   20.2092 O   0  0  0  0  0  0
  -26.5673  -34.8932   22.4725 O   0  0  0  0  0  0
  -23.5361  -32.1473   23.7286 O   0  0  0  0  0  0
  -30.7289  -17.8559   19.8253 C   0  0  0  0  0  0
  -28.7760  -17.9501   21.2140 C   0  0  0  0  0  0
  -30.6936  -19.2839   19.6839 C   0  0  0  0  0  0
  -29.7211  -20.0965   20.3576 C   0  0  0  0  0  0
  -29.7846  -17.1475   20.6156 C   0  0  0  0  0  0
  -28.7424  -19.3738   21.1056 C   0  0  0  0  0  0
  -28.9249  -22.4373   20.5441 C   0  0  0  0  0  0
  -31.7459  -19.9185   18.7749 C   0  0  0  0  0  0
  -29.1933  -23.9943   20.6461 C   0  0  0  0  0  0
  -28.1028  -25.0019   20.0903 C   0  0  0  0  0  0
  -29.8388  -21.5406   20.3164 N   0  0  0  0  0  0
  -29.7456  -15.6894   20.8079 N   0  0  0  0  0  0
  -27.7569  -20.0387   21.7605 F   0  0  0  0  0  0
  -31.4745  -12.5388   19.1303 H   0  0  0  0  0  0
  -30.3659  -11.3993   19.8550 H   0  0  0  0  0  0
  -29.7699  -11.8036   17.4447 H   0  0  0  0  0  0
  -29.6513  -13.5146   17.7526 H   0  0  0  0  0  0
  -27.8444  -11.3092   18.8032 H   0  0  0  0  0  0
  -27.3799  -12.6341   17.7737 H   0  0  0  0  0  0
  -27.6628  -14.2543   19.5339 H   0  0  0  0  0  0
  -28.7154  -12.0235   21.3466 H   0  0  0  0  0  0
  -28.4347  -13.6684   21.8491 H   0  0  0  0  0  0
  -25.2748   -9.5746   22.4708 H   0  0  0  0  0  0
  -24.0055   -7.4648   22.7435 H   0  0  0  0  0  0
  -21.0848   -8.8705   19.8893 H   0  0  0  0  0  0
  -22.3626  -10.9662   19.6128 H   0  0  0  0  0  0
  -21.1967   -7.6122   23.9701 H   0  0  0  0  0  0
  -21.1504   -6.0524   25.9085 H   0  0  0  0  0  0
  -22.0588   -2.7595   23.2886 H   0  0  0  0  0  0
  -22.4160  -11.9854   22.4809 H   0  0  0  0  0  0
  -21.1080  -13.1122   22.2568 H   0  0  0  0  0  0
  -24.6635  -15.8393   20.4982 H   0  0  0  0  0  0
  -26.2821  -15.6186   20.0653 H   0  0  0  0  0  0
  -26.7151  -32.5443   23.1179 H   0  0  0  0  0  0
  -24.9885  -33.9809   25.0320 H   0  0  0  0  0  0
  -22.7148  -31.3001   21.4010 H   0  0  0  0  0  0
  -23.3759  -35.9617   23.3274 H   0  0  0  0  0  0
  -24.3594  -36.8986   22.2087 H   0  0  0  0  0  0
  -23.7161  -37.6482   23.6686 H   0  0  0  0  0  0
  -26.0882  -31.5497   20.6061 H   0  0  0  0  0  0
  -26.8383  -30.8462   22.0075 H   0  0  0  0  0  0
  -28.0996  -28.9646   21.2433 H   0  0  0  0  0  0
  -25.9997  -25.9599   18.9579 H   0  0  0  0  0  0
  -23.9912  -27.3270   18.9752 H   0  0  0  0  0  0
  -23.7284  -30.5796   19.4025 H   0  0  0  0  0  0
  -22.7533  -29.2238   19.8807 H   0  0  0  0  0  0
  -25.1271  -36.1999   25.0817 H   0  0  0  0  0  0
  -21.0000  -28.3247   24.1431 H   0  0  0  0  0  0
  -20.5729  -26.2312   23.3649 H   0  0  0  0  0  0
  -21.6637  -26.7464   22.1205 H   0  0  0  0  0  0
  -19.6929  -25.6324   21.1267 H   0  0  0  0  0  0
  -19.6640  -27.3235   20.6808 H   0  0  0  0  0  0
  -17.4210  -26.6723   21.4045 H   0  0  0  0  0  0
  -18.0299  -26.0035   22.9022 H   0  0  0  0  0  0
  -19.7933  -30.7342   24.2219 H   0  0  0  0  0  0
  -17.4973  -31.6232   24.5223 H   0  0  0  0  0  0
  -15.5344  -30.2947   23.7640 H   0  0  0  0  0  0
  -15.8703  -28.0820   22.7002 H   0  0  0  0  0  0
  -24.5770  -30.7158   25.7703 H   0  0  0  0  0  0
  -24.8834  -32.2912   26.4891 H   0  0  0  0  0  0
  -25.7868  -30.8844   27.0229 H   0  0  0  0  0  0
  -26.2912  -29.6754   24.1192 H   0  0  0  0  0  0
  -27.3934  -29.7255   25.4756 H   0  0  0  0  0  0
  -27.8777  -30.4320   23.9510 H   0  0  0  0  0  0
  -27.2707  -33.3600   26.2121 H   0  0  0  0  0  0
  -28.3774  -32.6875   25.0261 H   0  0  0  0  0  0
  -28.0751  -31.8396   26.5352 H   0  0  0  0  0  0
  -28.2560  -38.0128   24.7580 H   0  0  0  0  0  0
  -28.1119  -36.2674   24.6148 H   0  0  0  0  0  0
  -27.2344  -37.1289   25.8863 H   0  0  0  0  0  0
  -20.9401  -29.8722   21.6886 H   0  0  0  0  0  0
  -26.0170  -38.2895   24.1431 H   0  0  0  0  0  0
  -31.4980  -17.3053   19.2999 H   0  0  0  0  0  0
  -27.9965  -17.4788   21.7946 H   0  0  0  0  0  0
  -27.8801  -22.1618   20.7249 H   0  0  0  0  0  0
  -31.8586  -19.3399   17.8564 H   0  0  0  0  0  0
  -32.7183  -19.9529   19.2662 H   0  0  0  0  0  0
  -31.4908  -20.9322   18.4636 H   0  0  0  0  0  0
  -30.1536  -24.2107   20.1793 H   0  0  0  0  0  0
  -29.3241  -24.2210   21.7040 H   0  0  0  0  0  0
  -27.1724  -24.7626   20.6090 H   0  0  0  0  0  0
  -27.9412  -24.7756   19.0366 H   0  0  0  0  0  0
  -28.8704  -15.3454   21.1775 H   0  0  0  0  0  0
  1 25  1  0  0  0
  1 30  2  0  0  0
  1 82  1  0  0  0
  2  3  1  0  0  0
  2 25  1  0  0  0
  2 84  1  0  0  0
  2 85  1  0  0  0
  3  4  1  0  0  0
  3 86  1  0  0  0
  3 87  1  0  0  0
  4  5  1  0  0  0
  4 88  1  0  0  0
  4 89  1  0  0  0
  5  6  1  0  0  0
  5 26  1  0  0  0
  5 90  1  0  0  0
  6 25  1  0  0  0
  6 91  1  0  0  0
  6 92  1  0  0  0
  7  8  2  0  0  0
  7 26  1  0  0  0
  7 29  1  0  0  0
  8  9  1  0  0  0
  8 22  1  0  0  0
  9 10  1  0  0  0
  9 27  2  0  0  0
 10 11  2  0  0  0
 10 15  1  0  0  0
 11 12  1  0  0  0
 11 93  1  0  0  0
 12 13  2  0  0  0
 12 94  1  0  0  0
 13 14  1  0  0  0
 13 31  1  0  0  0
 14 15  2  0  0  0
 14 95  1  0  0  0
 15 96  1  0  0  0
 16 17  2  0  0  0
 16 21  1  0  0  0
 16 31  1  0  0  0
 17 18  1  0  0  0
 17 97  1  0  0  0
 18 19  2  0  0  0
 18 98  1  0  0  0
 19 20  1  0  0  0
 19 24  1  0  0  0
 20 21  2  0  0  0
 20 99  1  0  0  0
 21 23  1  0  0  0
 22 28  1  0  0  0
 22 32  2  0  0  0
 26 27  1  0  0  0
 28100  1  0  0  0
 28101  1  0  0  0
 29102  1  0  0  0
 29103  1  0  0  0
 33 34  1  0  0  0
 33 66  1  0  0  0
 33 70  2  0  0  0
 34 36  1  0  0  0
 34 59  1  0  0  0
 34104  1  0  0  0
 35 44  2  0  0  0
 35 45  1  0  0  0
 35 68  1  0  0  0
 36 56  1  0  0  0
 36105  1  0  0  0
 37 39  1  0  0  0
 37 47  1  0  0  0
 37 66  1  0  0  0
 37106  1  0  0  0
 38 43  2  0  0  0
 38 46  1  0  0  0
 38 47  1  0  0  0
 39 64  1  0  0  0
 39 67  2  0  0  0
 40 52  1  0  0  0
 40 53  2  0  0  0
 40 58  1  0  0  0
 41107  1  0  0  0
 41108  1  0  0  0
 41109  1  0  0  0
 41 48  1  0  0  0
 42 43  1  0  0  0
 42 66  1  0  0  0
 42110  1  0  0  0
 42111  1  0  0  0
 43 44  1  0  0  0
 44112  1  0  0  0
 45 46  2  0  0  0
 45113  1  0  0  0
 46114  1  0  0  0
 47115  1  0  0  0
 47116  1  0  0  0
 48 56  1  0  0  0
 48 65  1  0  0  0
 48117  1  0  0  0
 49 50  1  0  0  0
 49 53  1  0  0  0
 49 64  1  0  0  0
 49118  1  0  0  0
 50 51  1  0  0  0
 50119  1  0  0  0
 50120  1  0  0  0
 51 52  1  0  0  0
 51121  1  0  0  0
 51122  1  0  0  0
 52123  1  0  0  0
 52124  1  0  0  0
 53 54  1  0  0  0
 54 55  2  0  0  0
 54125  1  0  0  0
 55 57  1  0  0  0
 55126  1  0  0  0
 56 69  2  0  0  0
 57 58  2  0  0  0
 57127  1  0  0  0
 58128  1  0  0  0
 59 60  1  0  0  0
 59 61  1  0  0  0
 59 62  1  0  0  0
 60129  1  0  0  0
 60130  1  0  0  0
 60131  1  0  0  0
 61132  1  0  0  0
 61133  1  0  0  0
 61134  1  0  0  0
 62135  1  0  0  0
 62136  1  0  0  0
 62137  1  0  0  0
 63 65  1  0  0  0
 63138  1  0  0  0
 63139  1  0  0  0
 63140  1  0  0  0
 64141  1  0  0  0
 65142  1  0  0  0
 68 80  1  0  0  0
 71 73  2  0  0  0
 71 75  1  0  0  0
 71143  1  0  0  0
 72 75  2  0  0  0
 72 76  1  0  0  0
 72144  1  0  0  0
 73 74  1  0  0  0
 73 78  1  0  0  0
 74 76  2  0  0  0
 74 81  1  0  0  0
 75 82  1  0  0  0
 76 83  1  0  0  0
 77 79  1  0  0  0
 77 81  2  0  0  0
 77145  1  0  0  0
 78146  1  0  0  0
 78147  1  0  0  0
 78148  1  0  0  0
 79 80  1  0  0  0
 79149  1  0  0  0
 79150  1  0  0  0
 80151  1  0  0  0
 80152  1  0  0  0
 82153  1  0  0  0
M  ISO  4   1 100  68 101  80 101  82 100
M  END
> <chiral flag>
0

> <version>
0

> <s_m_source_file>
/data/baiqing/PycharmProjects/Reinvent-master-3.2/result/LINK_invent/BTK/process_docking_weight1_custom_product_contain_oxygen_bond_distance_aromatic_linkinvent_7_9_3/rearranged_h_0114.sdf

> <i_m_source_file_index>
40

> <r_mmod_Potential_Energy-OPLS-2005>
77.0790786743164

> <r_mmod_Stretch_Energy-OPLS-2005>
85.029541015625

> <r_mmod_Bend_Energy-OPLS-2005>
148.811096191406

> <r_mmod_Torsional_Energy-OPLS-2005>
217.88232421875

> <r_mmod_Improper_Torsional_Energy-OPLS-2005>
4.55752801895142

> <r_mmod_Van_der_Waal_Energy-OPLS-2005>
150.482772827148

> <r_mmod_Electrostatic_Energy-OPLS-2005>
-376.236145019531

> <r_mmod_Solvation_Energy-OPLS-2005>
-207.185394287109

> <b_mmod_Minimization_Converged-OPLS-2005>
0

> <r_mmod_RMS_Derivative-OPLS-2005>
4.59802103042603

$$$$
40
                    3D
 Structure written by MMmdl.
169178  0  0  1  0            999 V2000
  -30.6473  -14.7341   20.3829 C   0  0  0  0  0  0
  -30.4351  -12.4297   19.4641 C   0  0  0  0  0  0
  -29.5041  -12.4310   18.2321 C   0  0  0  0  0  0
  -28.0250  -12.3057   18.6538 C   0  0  0  0  0  0
  -27.6328  -13.2161   19.8517 C   0  0  2  0  0  0
  -28.6972  -13.1965   20.9694 C   0  0  0  0  0  0
  -25.2430  -13.8050   20.5683 C   0  0  0  0  0  0
  -24.1739  -13.0338   20.9249 C   0  0  0  0  0  0
  -24.6348  -11.6835   20.8815 C   0  0  0  0  0  0
  -23.9021  -10.4239   21.0440 C   0  0  0  0  0  0
  -24.3578   -9.4158   21.9212 C   0  0  0  0  0  0
  -23.6261   -8.2193   22.0759 C   0  0  0  0  0  0
  -22.4245   -8.0244   21.3545 C   0  0  0  0  0  0
  -21.9883   -9.0212   20.4644 C   0  0  0  0  0  0
  -22.7203  -10.2094   20.3068 C   0  0  0  0  0  0
  -21.6838   -6.0708   22.5281 C   0  0  0  0  0  0
  -21.4000   -6.5619   23.8212 C   0  0  0  0  0  0
  -21.3662   -5.6777   24.9178 C   0  0  0  0  0  0
  -21.6050   -4.3040   24.7233 C   0  0  0  0  0  0
  -21.8813   -3.8126   23.4354 C   0  0  0  0  0  0
  -21.9185   -4.6939   22.3408 C   0  0  0  0  0  0
  -22.7771  -13.5167   21.1873 C   0  0  0  0  0  0
  -22.1654   -4.2127   21.0984 F   0  0  0  0  0  0
  -21.5642   -3.4526   25.7748 F   0  0  0  0  0  0
  -29.9907  -13.5230   20.3519 N   0  0  0  0  0  0
  -26.2902  -12.9271   20.3396 N   0  0  0  0  0  0
  -25.9292  -11.6439   20.5890 N   0  0  0  0  0  0
  -22.0398  -12.8202   22.0447 N   0  0  0  0  0  0
  -25.3962  -15.1730   20.3902 N   0  0  0  0  0  0
  -31.8743  -14.7672   20.2593 O   0  0  0  0  0  0
  -21.6614   -6.8843   21.4240 O   0  0  0  0  0  0
  -22.3488  -14.5477   20.6695 O   0  0  0  0  0  0
  -24.6260  -31.8596   23.2023 C   0  0  0  0  0  0
  -25.9105  -32.4783   23.8356 C   0  0  1  0  0  0
  -27.2278  -27.3144   20.1367 C   0  0  0  0  0  0
  -25.5923  -33.8583   24.2285 N   0  0  0  0  0  0
  -23.4213  -30.4821   21.5441 C   0  0  2  0  0  0
  -24.8715  -28.9351   20.1136 C   0  0  0  0  0  0
  -22.7481  -29.4623   22.4936 C   0  0  0  0  0  0
  -18.0287  -28.1385   22.8486 C   0  0  0  0  0  0
  -24.1486  -36.7288   23.2636 C   0  0  0  0  0  0
  -25.9621  -30.7905   21.3743 C   0  0  0  0  0  0
  -26.0391  -29.4160   20.7211 C   0  0  0  0  0  0
  -27.2221  -28.6178   20.7221 C   0  0  0  0  0  0
  -26.0455  -26.8957   19.4865 C   0  0  0  0  0  0
  -24.8768  -27.6802   19.4853 C   0  0  0  0  0  0
  -23.6383  -29.8144   20.1602 C   0  0  0  0  0  0
  -25.4110  -36.3083   24.0331 C   0  0  1  0  0  0
  -20.5889  -28.3690   23.1278 C   0  0  2  0  0  0
  -20.6774  -26.9414   22.5407 C   0  0  0  0  0  0
  -19.5749  -26.6384   21.5209 C   0  0  0  0  0  0
  -18.1930  -26.7927   22.1623 C   0  0  0  0  0  0
  -19.1539  -28.8854   23.2879 C   0  0  0  0  0  0
  -18.9463  -30.1456   23.8898 C   0  0  0  0  0  0
  -17.6462  -30.6586   24.0564 C   0  0  0  0  0  0
  -25.9050  -34.9454   23.5108 C   0  0  0  0  0  0
  -16.5353  -29.9085   23.6333 C   0  0  0  0  0  0
  -16.7274  -28.6501   23.0356 C   0  0  0  0  0  0
  -26.4492  -31.6590   25.0724 C   0  0  0  0  0  0
  -25.3723  -31.3720   26.1449 C   0  0  0  0  0  0
  -27.0335  -30.3016   24.6174 C   0  0  0  0  0  0
  -27.6061  -32.4317   25.7491 C   0  0  0  0  0  0
  -27.5583  -37.1792   24.8461 C   0  0  0  0  0  0
  -21.4195  -29.3043   22.3673 N   0  0  0  0  0  0
  -26.4285  -37.3782   23.9418 N   0  0  0  0  0  0
  -24.6886  -31.0603   22.0976 N   0  0  0  0  0  0
  -23.4199  -28.8167   23.3024 O   0  0  0  0  0  0
  -28.3294  -26.4447   20.1820 O   0  0  0  0  0  0
  -26.5618  -34.8921   22.4676 O   0  0  0  0  0  0
  -23.5421  -32.1397   23.7345 O   0  0  0  0  0  0
  -31.2166  -19.4406   20.2480 C   0  0  0  0  0  0
  -31.1988  -18.0173   20.1552 C   0  0  0  0  0  0
  -28.9576  -19.4468   20.9936 C   0  0  0  0  0  0
  -28.9276  -18.0141   20.9116 C   0  0  0  0  0  0
  -30.1002  -20.2315   20.6709 C   0  0  0  0  0  0
  -30.0501  -17.2475   20.4684 C   0  0  0  0  0  0
  -29.1477  -22.6808   21.0233 C   0  0  0  0  0  0
  -29.0444  -23.8802   20.3238 C   0  0  0  0  0  0
  -32.0157  -22.9027   19.6067 C   0  0  0  0  0  0
  -28.5273  -21.7178   23.2330 C   0  0  0  0  0  0
  -28.2607  -22.4958   22.1701 C   0  0  0  0  0  0
  -29.8552  -24.1351   19.0512 C   0  0  0  0  0  0
  -31.3780  -24.2437   19.2570 C   0  0  0  0  0  0
  -31.5177  -22.2194   20.8762 C   0  0  0  0  0  0
  -27.6227  -17.3256   21.2416 C   0  0  0  0  0  0
  -29.6730  -15.8910   18.5336 C   0  0  0  0  0  0
  -28.0668  -25.0706   20.6919 C   0  0  0  0  0  0
  -30.1513  -21.6901   20.7413 N   0  0  0  0  0  0
  -29.9188  -15.8569   19.9901 N   0  0  0  0  0  0
  -32.8847  -22.3964   18.8923 O   0  0  0  0  0  0
  -31.4728  -12.5508   19.1478 H   0  0  0  0  0  0
  -30.3878  -11.4734   19.9873 H   0  0  0  0  0  0
  -29.7664  -11.6031   17.5724 H   0  0  0  0  0  0
  -29.6544  -13.3296   17.6377 H   0  0  0  0  0  0
  -27.8618  -11.2623   18.9257 H   0  0  0  0  0  0
  -27.3714  -12.4974   17.8023 H   0  0  0  0  0  0
  -27.5854  -14.2292   19.4734 H   0  0  0  0  0  0
  -28.7374  -12.2219   21.4575 H   0  0  0  0  0  0
  -28.4490  -13.9245   21.7437 H   0  0  0  0  0  0
  -25.2709   -9.5628   22.4806 H   0  0  0  0  0  0
  -23.9965   -7.4570   22.7465 H   0  0  0  0  0  0
  -21.0821   -8.8709   19.8943 H   0  0  0  0  0  0
  -22.3657  -10.9630   19.6178 H   0  0  0  0  0  0
  -21.1980   -7.6125   23.9702 H   0  0  0  0  0  0
  -21.1501   -6.0515   25.9082 H   0  0  0  0  0  0
  -22.0593   -2.7588   23.2854 H   0  0  0  0  0  0
  -22.4010  -11.9900   22.4904 H   0  0  0  0  0  0
  -21.1004  -13.1232   22.2592 H   0  0  0  0  0  0
  -24.6162  -15.8148   20.4774 H   0  0  0  0  0  0
  -26.2309  -15.6050   20.0190 H   0  0  0  0  0  0
  -26.7181  -32.5456   23.1114 H   0  0  0  0  0  0
  -25.0074  -33.9731   25.0431 H   0  0  0  0  0  0
  -22.7154  -31.3027   21.3989 H   0  0  0  0  0  0
  -23.3757  -35.9610   23.3283 H   0  0  0  0  0  0
  -24.3585  -36.8923   22.2055 H   0  0  0  0  0  0
  -23.7224  -37.6480   23.6665 H   0  0  0  0  0  0
  -26.0912  -31.5523   20.6042 H   0  0  0  0  0  0
  -26.8432  -30.8431   22.0023 H   0  0  0  0  0  0
  -28.1161  -28.9807   21.2094 H   0  0  0  0  0  0
  -26.0115  -25.9425   18.9792 H   0  0  0  0  0  0
  -23.9860  -27.3086   18.9973 H   0  0  0  0  0  0
  -23.7582  -30.5901   19.4028 H   0  0  0  0  0  0
  -22.7587  -29.2426   19.8571 H   0  0  0  0  0  0
  -25.1286  -36.1936   25.0822 H   0  0  0  0  0  0
  -20.9981  -28.3262   24.1397 H   0  0  0  0  0  0
  -20.5668  -26.2303   23.3608 H   0  0  0  0  0  0
  -21.6643  -26.7441   22.1201 H   0  0  0  0  0  0
  -19.6911  -25.6293   21.1241 H   0  0  0  0  0  0
  -19.6684  -27.3193   20.6737 H   0  0  0  0  0  0
  -17.4200  -26.6678   21.4028 H   0  0  0  0  0  0
  -18.0335  -26.0067   22.9017 H   0  0  0  0  0  0
  -19.7939  -30.7273   24.2268 H   0  0  0  0  0  0
  -17.5015  -31.6267   24.5164 H   0  0  0  0  0  0
  -15.5354  -30.2987   23.7650 H   0  0  0  0  0  0
  -15.8673  -28.0816   22.7076 H   0  0  0  0  0  0
  -24.5900  -30.7074   25.7765 H   0  0  0  0  0  0
  -24.8910  -32.2881   26.4882 H   0  0  0  0  0  0
  -25.8039  -30.8884   27.0221 H   0  0  0  0  0  0
  -26.2909  -29.6768   24.1199 H   0  0  0  0  0  0
  -27.4041  -29.7272   25.4675 H   0  0  0  0  0  0
  -27.8774  -30.4311   23.9394 H   0  0  0  0  0  0
  -27.2688  -33.3622   26.2072 H   0  0  0  0  0  0
  -28.3866  -32.6870   25.0310 H   0  0  0  0  0  0
  -28.0734  -31.8436   26.5400 H   0  0  0  0  0  0
  -28.2577  -38.0115   24.7548 H   0  0  0  0  0  0
  -28.1105  -36.2649   24.6232 H   0  0  0  0  0  0
  -27.2309  -37.1373   25.8865 H   0  0  0  0  0  0
  -20.9375  -29.8770   21.6885 H   0  0  0  0  0  0
  -26.0165  -38.2851   24.1446 H   0  0  0  0  0  0
  -32.1311  -19.9106   19.9213 H   0  0  0  0  0  0
  -32.0711  -17.5214   19.7522 H   0  0  0  0  0  0
  -28.0528  -19.9523   21.2940 H   0  0  0  0  0  0
  -27.8158  -21.6191   24.0411 H   0  0  0  0  0  0
  -29.4544  -21.1698   23.3207 H   0  0  0  0  0  0
  -27.3048  -23.0015   22.1777 H   0  0  0  0  0  0
  -29.4980  -25.0336   18.5488 H   0  0  0  0  0  0
  -29.6399  -23.3246   18.3528 H   0  0  0  0  0  0
  -31.8466  -24.6164   18.3465 H   0  0  0  0  0  0
  -31.6075  -24.9618   20.0439 H   0  0  0  0  0  0
  -31.5147  -22.9791   21.6588 H   0  0  0  0  0  0
  -32.2415  -21.4873   21.2300 H   0  0  0  0  0  0
  -27.0826  -17.8627   22.0221 H   0  0  0  0  0  0
  -27.7823  -16.3063   21.5940 H   0  0  0  0  0  0
  -26.9962  -17.3054   20.3515 H   0  0  0  0  0  0
  -29.4882  -16.9020   18.1642 H   0  0  0  0  0  0
  -28.8023  -15.3196   18.2337 H   0  0  0  0  0  0
  -30.5284  -15.5171   17.9671 H   0  0  0  0  0  0
  -28.0330  -25.1588   21.7782 H   0  0  0  0  0  0
  -27.0764  -24.7231   20.4045 H   0  0  0  0  0  0
  1 25  1  0  0  0
  1 30  2  0  0  0
  1 89  1  0  0  0
  2  3  1  0  0  0
  2 25  1  0  0  0
  2 91  1  0  0  0
  2 92  1  0  0  0
  3  4  1  0  0  0
  3 93  1  0  0  0
  3 94  1  0  0  0
  4  5  1  0  0  0
  4 95  1  0  0  0
  4 96  1  0  0  0
  5  6  1  0  0  0
  5 26  1  0  0  0
  5 97  1  0  0  0
  6 25  1  0  0  0
  6 98  1  0  0  0
  6 99  1  0  0  0
  7  8  2  0  0  0
  7 26  1  0  0  0
  7 29  1  0  0  0
  8  9  1  0  0  0
  8 22  1  0  0  0
  9 10  1  0  0  0
  9 27  2  0  0  0
 10 11  2  0  0  0
 10 15  1  0  0  0
 11 12  1  0  0  0
 11100  1  0  0  0
 12 13  2  0  0  0
 12101  1  0  0  0
 13 14  1  0  0  0
 13 31  1  0  0  0
 14 15  2  0  0  0
 14102  1  0  0  0
 15103  1  0  0  0
 16 17  2  0  0  0
 16 21  1  0  0  0
 16 31  1  0  0  0
 17 18  1  0  0  0
 17104  1  0  0  0
 18 19  2  0  0  0
 18105  1  0  0  0
 19 20  1  0  0  0
 19 24  1  0  0  0
 20 21  2  0  0  0
 20106  1  0  0  0
 21 23  1  0  0  0
 22 28  1  0  0  0
 22 32  2  0  0  0
 26 27  1  0  0  0
 28107  1  0  0  0
 28108  1  0  0  0
 29109  1  0  0  0
 29110  1  0  0  0
 33 34  1  0  0  0
 33 66  1  0  0  0
 33 70  2  0  0  0
 34 36  1  0  0  0
 34 59  1  0  0  0
 34111  1  0  0  0
 35 44  2  0  0  0
 35 45  1  0  0  0
 35 68  1  0  0  0
 36 56  1  0  0  0
 36112  1  0  0  0
 37 39  1  0  0  0
 37 47  1  0  0  0
 37 66  1  0  0  0
 37113  1  0  0  0
 38 43  2  0  0  0
 38 46  1  0  0  0
 38 47  1  0  0  0
 39 64  1  0  0  0
 39 67  2  0  0  0
 40 52  1  0  0  0
 40 53  2  0  0  0
 40 58  1  0  0  0
 41114  1  0  0  0
 41115  1  0  0  0
 41116  1  0  0  0
 41 48  1  0  0  0
 42 43  1  0  0  0
 42 66  1  0  0  0
 42117  1  0  0  0
 42118  1  0  0  0
 43 44  1  0  0  0
 44119  1  0  0  0
 45 46  2  0  0  0
 45120  1  0  0  0
 46121  1  0  0  0
 47122  1  0  0  0
 47123  1  0  0  0
 48 56  1  0  0  0
 48 65  1  0  0  0
 48124  1  0  0  0
 49 50  1  0  0  0
 49 53  1  0  0  0
 49 64  1  0  0  0
 49125  1  0  0  0
 50 51  1  0  0  0
 50126  1  0  0  0
 50127  1  0  0  0
 51 52  1  0  0  0
 51128  1  0  0  0
 51129  1  0  0  0
 52130  1  0  0  0
 52131  1  0  0  0
 53 54  1  0  0  0
 54 55  2  0  0  0
 54132  1  0  0  0
 55 57  1  0  0  0
 55133  1  0  0  0
 56 69  2  0  0  0
 57 58  2  0  0  0
 57134  1  0  0  0
 58135  1  0  0  0
 59 60  1  0  0  0
 59 61  1  0  0  0
 59 62  1  0  0  0
 60136  1  0  0  0
 60137  1  0  0  0
 60138  1  0  0  0
 61139  1  0  0  0
 61140  1  0  0  0
 61141  1  0  0  0
 62142  1  0  0  0
 62143  1  0  0  0
 62144  1  0  0  0
 63 65  1  0  0  0
 63145  1  0  0  0
 63146  1  0  0  0
 63147  1  0  0  0
 64148  1  0  0  0
 65149  1  0  0  0
 68 87  1  0  0  0
 71 72  2  0  0  0
 71 75  1  0  0  0
 71150  1  0  0  0
 72 76  1  0  0  0
 72151  1  0  0  0
 73 74  1  0  0  0
 73 75  2  0  0  0
 73152  1  0  0  0
 74 76  2  0  0  0
 74 85  1  0  0  0
 75 88  1  0  0  0
 76 89  1  0  0  0
 77 78  2  0  0  0
 77 81  1  0  0  0
 77 88  1  0  0  0
 78 82  1  0  0  0
 78 87  1  0  0  0
 79 83  1  0  0  0
 79 84  1  0  0  0
 79 90  2  0  0  0
 80 81  2  0  0  0
 80153  1  0  0  0
 80154  1  0  0  0
 81155  1  0  0  0
 82 83  1  0  0  0
 82156  1  0  0  0
 82157  1  0  0  0
 83158  1  0  0  0
 83159  1  0  0  0
 84 88  1  0  0  0
 84160  1  0  0  0
 84161  1  0  0  0
 85162  1  0  0  0
 85163  1  0  0  0
 85164  1  0  0  0
 86 89  1  0  0  0
 86165  1  0  0  0
 86166  1  0  0  0
 86167  1  0  0  0
 87168  1  0  0  0
 87169  1  0  0  0
M  ISO  4   1 100  68 101  87 101  89 100
M  END
> <chiral flag>
0

> <version>
0

> <s_m_source_file>
/data/baiqing/PycharmProjects/Reinvent-master-3.2/result/LINK_invent/BTK/process_docking_weight1_custom_product_contain_oxygen_bond_distance_aromatic_linkinvent_7_9_3/rearranged_h_0114.sdf

> <i_m_source_file_index>
41

> <r_mmod_Potential_Energy-OPLS-2005>
409.839294433594

> <r_mmod_Stretch_Energy-OPLS-2005>
103.789237976074

> <r_mmod_Bend_Energy-OPLS-2005>
170.357681274414

> <r_mmod_Torsional_Energy-OPLS-2005>
390.062774658203

> <r_mmod_Improper_Torsional_Energy-OPLS-2005>
26.7219142913818

> <r_mmod_Van_der_Waal_Energy-OPLS-2005>
166.072174072266

> <r_mmod_Electrostatic_Energy-OPLS-2005>
-330.896057128906

> <r_mmod_Solvation_Energy-OPLS-2005>
-196.871215820312

> <b_mmod_Minimization_Converged-OPLS-2005>
0

> <r_mmod_RMS_Derivative-OPLS-2005>
1.06734454631805

$$$$
41
                    3D
 Structure written by MMmdl.
154163  0  0  1  0            999 V2000
  -30.5791  -14.8390   20.4365 C   0  0  0  0  0  0
  -30.4366  -12.5139   19.4828 C   0  0  0  0  0  0
  -29.5150  -12.5138   18.2426 C   0  0  0  0  0  0
  -28.0440  -12.3214   18.6592 C   0  0  0  0  0  0
  -27.6358  -13.2380   19.8430 C   0  0  2  0  0  0
  -28.6809  -13.2172   20.9791 C   0  0  0  0  0  0
  -25.2488  -13.8202   20.5697 C   0  0  0  0  0  0
  -24.1793  -13.0438   20.9222 C   0  0  0  0  0  0
  -24.6394  -11.6919   20.8753 C   0  0  0  0  0  0
  -23.9075  -10.4293   21.0410 C   0  0  0  0  0  0
  -24.3624   -9.4206   21.9186 C   0  0  0  0  0  0
  -23.6296   -8.2242   22.0754 C   0  0  0  0  0  0
  -22.4278   -8.0281   21.3545 C   0  0  0  0  0  0
  -21.9917   -9.0257   20.4647 C   0  0  0  0  0  0
  -22.7247  -10.2135   20.3058 C   0  0  0  0  0  0
  -21.6854   -6.0736   22.5280 C   0  0  0  0  0  0
  -21.4015   -6.5639   23.8213 C   0  0  0  0  0  0
  -21.3659   -5.6792   24.9175 C   0  0  0  0  0  0
  -21.6044   -4.3055   24.7225 C   0  0  0  0  0  0
  -21.8819   -3.8148   23.4346 C   0  0  0  0  0  0
  -21.9193   -4.6964   22.3402 C   0  0  0  0  0  0
  -22.7814  -13.5216   21.1876 C   0  0  0  0  0  0
  -22.1662   -4.2149   21.0980 F   0  0  0  0  0  0
  -21.5628   -3.4539   25.7737 F   0  0  0  0  0  0
  -29.9690  -13.5965   20.3863 N   0  0  0  0  0  0
  -26.2912  -12.9418   20.3255 N   0  0  0  0  0  0
  -25.9325  -11.6557   20.5746 N   0  0  0  0  0  0
  -22.0460  -12.8205   22.0430 N   0  0  0  0  0  0
  -25.4152  -15.1929   20.4100 N   0  0  0  0  0  0
  -31.7805  -14.9050   20.1591 O   0  0  0  0  0  0
  -21.6641   -6.8879   21.4242 O   0  0  0  0  0  0
  -22.3499  -14.5519   20.6715 O   0  0  0  0  0  0
  -24.6373  -31.8494   23.1927 C   0  0  0  0  0  0
  -25.9171  -32.4723   23.8296 C   0  0  1  0  0  0
  -27.2198  -27.2009   20.1419 C   0  0  0  0  0  0
  -25.5941  -33.8527   24.2217 N   0  0  0  0  0  0
  -23.4372  -30.4700   21.5371 C   0  0  2  0  0  0
  -24.8852  -28.9042   20.1114 C   0  0  0  0  0  0
  -22.7532  -29.4574   22.4885 C   0  0  0  0  0  0
  -18.0298  -28.1395   22.8483 C   0  0  0  0  0  0
  -24.1487  -36.7266   23.2642 C   0  0  0  0  0  0
  -25.9877  -30.7443   21.3800 C   0  0  0  0  0  0
  -26.0599  -29.3608   20.7223 C   0  0  0  0  0  0
  -27.2298  -28.5243   20.7200 C   0  0  0  0  0  0
  -26.0188  -26.8235   19.5030 C   0  0  0  0  0  0
  -24.8735  -27.6467   19.4883 C   0  0  0  0  0  0
  -23.6590  -29.7995   20.1555 C   0  0  0  0  0  0
  -25.4119  -36.3049   24.0320 C   0  0  1  0  0  0
  -20.5906  -28.3712   23.1256 C   0  0  2  0  0  0
  -20.6782  -26.9422   22.5409 C   0  0  0  0  0  0
  -19.5756  -26.6388   21.5214 C   0  0  0  0  0  0
  -18.1938  -26.7936   22.1627 C   0  0  0  0  0  0
  -19.1553  -28.8871   23.2863 C   0  0  0  0  0  0
  -18.9471  -30.1471   23.8883 C   0  0  0  0  0  0
  -17.6468  -30.6592   24.0564 C   0  0  0  0  0  0
  -25.9065  -34.9422   23.5076 C   0  0  0  0  0  0
  -16.5359  -29.9087   23.6339 C   0  0  0  0  0  0
  -16.7284  -28.6507   23.0357 C   0  0  0  0  0  0
  -26.4515  -31.6573   25.0715 C   0  0  0  0  0  0
  -25.3717  -31.3748   26.1424 C   0  0  0  0  0  0
  -27.0375  -30.2980   24.6252 C   0  0  0  0  0  0
  -27.6055  -32.4328   25.7496 C   0  0  0  0  0  0
  -27.5576  -37.1791   24.8466 C   0  0  0  0  0  0
  -21.4232  -29.3046   22.3633 N   0  0  0  0  0  0
  -26.4286  -37.3755   23.9408 N   0  0  0  0  0  0
  -24.7068  -31.0408   22.0924 N   0  0  0  0  0  0
  -23.4204  -28.8123   23.3014 O   0  0  0  0  0  0
  -28.3040  -26.2754   20.1991 O   0  0  0  0  0  0
  -26.5646  -34.8909   22.4652 O   0  0  0  0  0  0
  -23.5509  -32.1339   23.7190 O   0  0  0  0  0  0
  -29.0887  -18.5549   20.3943 C   0  0  0  0  0  0
  -31.4178  -17.9420   20.7466 C   0  0  0  0  0  0
  -29.4502  -19.9744   20.4231 C   0  0  0  0  0  0
  -30.7668  -20.3096   20.6185 C   0  0  0  0  0  0
  -31.7665  -19.3237   20.7829 C   0  0  0  0  0  0
  -30.0832  -17.4800   20.5524 C   0  0  0  0  0  0
  -28.6610  -21.3089   20.2835 C   0  0  0  0  0  0
  -29.3666  -23.8135   20.3784 C   0  0  0  0  0  0
  -30.8846  -21.8312   20.6255 C   0  0  0  0  0  0
  -33.2088  -19.7376   21.0034 C   0  0  0  0  0  0
  -28.0774  -24.7548   20.1201 C   0  0  0  0  0  0
  -29.5158  -22.4008   20.4084 N   0  0  0  0  0  0
  -29.7836  -15.9954   20.5646 N   0  0  0  0  0  0
  -27.4425  -21.3551   20.0910 O   0  0  0  0  0  0
  -30.3933  -24.4795   20.5717 O   0  0  0  0  0  0
  -31.4745  -12.6523   19.1756 H   0  0  0  0  0  0
  -30.4024  -11.5492   19.9915 H   0  0  0  0  0  0
  -29.8137  -11.7270   17.5484 H   0  0  0  0  0  0
  -29.6245  -13.4564   17.7037 H   0  0  0  0  0  0
  -27.9190  -11.2762   18.9442 H   0  0  0  0  0  0
  -27.3834  -12.4849   17.8069 H   0  0  0  0  0  0
  -27.6145  -14.2499   19.4380 H   0  0  0  0  0  0
  -28.7410  -12.2297   21.4387 H   0  0  0  0  0  0
  -28.4013  -13.9104   21.7742 H   0  0  0  0  0  0
  -25.2769   -9.5680   22.4761 H   0  0  0  0  0  0
  -24.0005   -7.4633   22.7473 H   0  0  0  0  0  0
  -21.0848   -8.8778   19.8953 H   0  0  0  0  0  0
  -22.3707  -10.9674   19.6167 H   0  0  0  0  0  0
  -21.2008   -7.6147   23.9716 H   0  0  0  0  0  0
  -21.1481   -6.0522   25.9077 H   0  0  0  0  0  0
  -22.0598   -2.7610   23.2846 H   0  0  0  0  0  0
  -22.4081  -11.9871   22.4824 H   0  0  0  0  0  0
  -21.1075  -13.1227   22.2630 H   0  0  0  0  0  0
  -24.6411  -15.8400   20.5139 H   0  0  0  0  0  0
  -26.2493  -15.6332   20.0447 H   0  0  0  0  0  0
  -26.7239  -32.5351   23.1032 H   0  0  0  0  0  0
  -25.0074  -33.9650   25.0354 H   0  0  0  0  0  0
  -22.7368  -31.2942   21.3867 H   0  0  0  0  0  0
  -23.3753  -35.9596   23.3299 H   0  0  0  0  0  0
  -24.3574  -36.8899   22.2057 H   0  0  0  0  0  0
  -23.7238  -37.6461   23.6678 H   0  0  0  0  0  0
  -26.1350  -31.5023   20.6093 H   0  0  0  0  0  0
  -26.8615  -30.7940   22.0181 H   0  0  0  0  0  0
  -28.1284  -28.8703   21.2114 H   0  0  0  0  0  0
  -25.9364  -25.8615   19.0203 H   0  0  0  0  0  0
  -23.9744  -27.2920   19.0031 H   0  0  0  0  0  0
  -23.7898  -30.5736   19.3986 H   0  0  0  0  0  0
  -22.7754  -29.2371   19.8488 H   0  0  0  0  0  0
  -25.1305  -36.1883   25.0813 H   0  0  0  0  0  0
  -21.0003  -28.3296   24.1375 H   0  0  0  0  0  0
  -20.5681  -26.2322   23.3620 H   0  0  0  0  0  0
  -21.6649  -26.7437   22.1205 H   0  0  0  0  0  0
  -19.6915  -25.6296   21.1252 H   0  0  0  0  0  0
  -19.6693  -27.3192   20.6739 H   0  0  0  0  0  0
  -17.4208  -26.6686   21.4028 H   0  0  0  0  0  0
  -18.0335  -26.0081   22.9026 H   0  0  0  0  0  0
  -19.7945  -30.7295   24.2242 H   0  0  0  0  0  0
  -17.5021  -31.6270   24.5170 H   0  0  0  0  0  0
  -15.5360  -30.2985   23.7670 H   0  0  0  0  0  0
  -15.8683  -28.0823   22.7078 H   0  0  0  0  0  0
  -24.5894  -30.7096   25.7752 H   0  0  0  0  0  0
  -24.8908  -32.2927   26.4816 H   0  0  0  0  0  0
  -25.8015  -30.8947   27.0224 H   0  0  0  0  0  0
  -26.2980  -29.6710   24.1258 H   0  0  0  0  0  0
  -27.4012  -29.7267   25.4803 H   0  0  0  0  0  0
  -27.8874  -30.4237   23.9541 H   0  0  0  0  0  0
  -27.2657  -33.3641   26.2039 H   0  0  0  0  0  0
  -28.3885  -32.6867   25.0338 H   0  0  0  0  0  0
  -28.0702  -31.8475   26.5440 H   0  0  0  0  0  0
  -28.2594  -38.0087   24.7511 H   0  0  0  0  0  0
  -28.1069  -36.2617   24.6294 H   0  0  0  0  0  0
  -27.2294  -37.1442   25.8870 H   0  0  0  0  0  0
  -20.9431  -29.8756   21.6817 H   0  0  0  0  0  0
  -26.0155  -38.2826   24.1412 H   0  0  0  0  0  0
  -28.0490  -18.2977   20.2504 H   0  0  0  0  0  0
  -32.2115  -17.2241   20.8902 H   0  0  0  0  0  0
  -31.5664  -22.1500   19.8350 H   0  0  0  0  0  0
  -31.2933  -22.1614   21.5823 H   0  0  0  0  0  0
  -33.8466  -18.8780   21.2125 H   0  0  0  0  0  0
  -33.2863  -20.4231   21.8478 H   0  0  0  0  0  0
  -33.5997  -20.2403   20.1184 H   0  0  0  0  0  0
  -27.3089  -24.4693   20.8386 H   0  0  0  0  0  0
  -27.6990  -24.4971   19.1315 H   0  0  0  0  0  0
  -28.8043  -15.7743   20.6568 H   0  0  0  0  0  0
  1 25  1  0  0  0
  1 30  2  0  0  0
  1 83  1  0  0  0
  2  3  1  0  0  0
  2 25  1  0  0  0
  2 86  1  0  0  0
  2 87  1  0  0  0
  3  4  1  0  0  0
  3 88  1  0  0  0
  3 89  1  0  0  0
  4  5  1  0  0  0
  4 90  1  0  0  0
  4 91  1  0  0  0
  5  6  1  0  0  0
  5 26  1  0  0  0
  5 92  1  0  0  0
  6 25  1  0  0  0
  6 93  1  0  0  0
  6 94  1  0  0  0
  7  8  2  0  0  0
  7 26  1  0  0  0
  7 29  1  0  0  0
  8  9  1  0  0  0
  8 22  1  0  0  0
  9 10  1  0  0  0
  9 27  2  0  0  0
 10 11  2  0  0  0
 10 15  1  0  0  0
 11 12  1  0  0  0
 11 95  1  0  0  0
 12 13  2  0  0  0
 12 96  1  0  0  0
 13 14  1  0  0  0
 13 31  1  0  0  0
 14 15  2  0  0  0
 14 97  1  0  0  0
 15 98  1  0  0  0
 16 17  2  0  0  0
 16 21  1  0  0  0
 16 31  1  0  0  0
 17 18  1  0  0  0
 17 99  1  0  0  0
 18 19  2  0  0  0
 18100  1  0  0  0
 19 20  1  0  0  0
 19 24  1  0  0  0
 20 21  2  0  0  0
 20101  1  0  0  0
 21 23  1  0  0  0
 22 28  1  0  0  0
 22 32  2  0  0  0
 26 27  1  0  0  0
 28102  1  0  0  0
 28103  1  0  0  0
 29104  1  0  0  0
 29105  1  0  0  0
 33 34  1  0  0  0
 33 66  1  0  0  0
 33 70  2  0  0  0
 34 36  1  0  0  0
 34 59  1  0  0  0
 34106  1  0  0  0
 35 44  2  0  0  0
 35 45  1  0  0  0
 35 68  1  0  0  0
 36 56  1  0  0  0
 36107  1  0  0  0
 37 39  1  0  0  0
 37 47  1  0  0  0
 37 66  1  0  0  0
 37108  1  0  0  0
 38 43  2  0  0  0
 38 46  1  0  0  0
 38 47  1  0  0  0
 39 64  1  0  0  0
 39 67  2  0  0  0
 40 52  1  0  0  0
 40 53  2  0  0  0
 40 58  1  0  0  0
 41109  1  0  0  0
 41110  1  0  0  0
 41111  1  0  0  0
 41 48  1  0  0  0
 42 43  1  0  0  0
 42 66  1  0  0  0
 42112  1  0  0  0
 42113  1  0  0  0
 43 44  1  0  0  0
 44114  1  0  0  0
 45 46  2  0  0  0
 45115  1  0  0  0
 46116  1  0  0  0
 47117  1  0  0  0
 47118  1  0  0  0
 48 56  1  0  0  0
 48 65  1  0  0  0
 48119  1  0  0  0
 49 50  1  0  0  0
 49 53  1  0  0  0
 49 64  1  0  0  0
 49120  1  0  0  0
 50 51  1  0  0  0
 50121  1  0  0  0
 50122  1  0  0  0
 51 52  1  0  0  0
 51123  1  0  0  0
 51124  1  0  0  0
 52125  1  0  0  0
 52126  1  0  0  0
 53 54  1  0  0  0
 54 55  2  0  0  0
 54127  1  0  0  0
 55 57  1  0  0  0
 55128  1  0  0  0
 56 69  2  0  0  0
 57 58  2  0  0  0
 57129  1  0  0  0
 58130  1  0  0  0
 59 60  1  0  0  0
 59 61  1  0  0  0
 59 62  1  0  0  0
 60131  1  0  0  0
 60132  1  0  0  0
 60133  1  0  0  0
 61134  1  0  0  0
 61135  1  0  0  0
 61136  1  0  0  0
 62137  1  0  0  0
 62138  1  0  0  0
 62139  1  0  0  0
 63 65  1  0  0  0
 63140  1  0  0  0
 63141  1  0  0  0
 63142  1  0  0  0
 64143  1  0  0  0
 65144  1  0  0  0
 68 81  1  0  0  0
 71 73  2  0  0  0
 71 76  1  0  0  0
 71145  1  0  0  0
 72 75  1  0  0  0
 72 76  2  0  0  0
 72146  1  0  0  0
 73 74  1  0  0  0
 73 77  1  0  0  0
 74 75  2  0  0  0
 74 79  1  0  0  0
 75 80  1  0  0  0
 76 83  1  0  0  0
 77 82  1  0  0  0
 77 84  2  0  0  0
 78 81  1  0  0  0
 78 82  1  0  0  0
 78 85  2  0  0  0
 79 82  1  0  0  0
 79147  1  0  0  0
 79148  1  0  0  0
 80149  1  0  0  0
 80150  1  0  0  0
 80151  1  0  0  0
 81152  1  0  0  0
 81153  1  0  0  0
 83154  1  0  0  0
M  ISO  4   1 100  68 101  81 101  83 100
M  END
> <chiral flag>
0

> <version>
0

> <s_m_source_file>
/data/baiqing/PycharmProjects/Reinvent-master-3.2/result/LINK_invent/BTK/process_docking_weight1_custom_product_contain_oxygen_bond_distance_aromatic_linkinvent_7_9_3/rearranged_h_0114.sdf

> <i_m_source_file_index>
42

> <r_mmod_Potential_Energy-OPLS-2005>
260.637115478516

> <r_mmod_Stretch_Energy-OPLS-2005>
171.06672668457

> <r_mmod_Bend_Energy-OPLS-2005>
270.077606201172

> <r_mmod_Torsional_Energy-OPLS-2005>
224.4052734375

> <r_mmod_Improper_Torsional_Energy-OPLS-2005>
5.33481073379517

> <r_mmod_Van_der_Waal_Energy-OPLS-2005>
133.218200683594

> <r_mmod_Electrostatic_Energy-OPLS-2005>
-436.863830566406

> <r_mmod_Solvation_Energy-OPLS-2005>
-234.815887451172

> <b_mmod_Minimization_Converged-OPLS-2005>
0

> <r_mmod_RMS_Derivative-OPLS-2005>
0.421499788761139

$$$$
42
                    3D
 Structure written by MMmdl.
154162  0  0  1  0            999 V2000
  -30.6257  -14.7158   20.5450 C   0  0  0  0  0  0
  -30.4394  -12.4548   19.4772 C   0  0  0  0  0  0
  -29.5134  -12.5236   18.2397 C   0  0  0  0  0  0
  -28.0386  -12.3373   18.6454 C   0  0  0  0  0  0
  -27.6493  -13.2186   19.8603 C   0  0  2  0  0  0
  -28.6857  -13.0868   20.9950 C   0  0  0  0  0  0
  -25.2531  -13.8158   20.5659 C   0  0  0  0  0  0
  -24.1811  -13.0422   20.9191 C   0  0  0  0  0  0
  -24.6386  -11.6903   20.8727 C   0  0  0  0  0  0
  -23.9051  -10.4291   21.0399 C   0  0  0  0  0  0
  -24.3608   -9.4216   21.9181 C   0  0  0  0  0  0
  -23.6282   -8.2247   22.0755 C   0  0  0  0  0  0
  -22.4267   -8.0286   21.3543 C   0  0  0  0  0  0
  -21.9904   -9.0254   20.4645 C   0  0  0  0  0  0
  -22.7223  -10.2131   20.3052 C   0  0  0  0  0  0
  -21.6851   -6.0729   22.5274 C   0  0  0  0  0  0
  -21.4016   -6.5635   23.8206 C   0  0  0  0  0  0
  -21.3658   -5.6790   24.9170 C   0  0  0  0  0  0
  -21.6044   -4.3053   24.7223 C   0  0  0  0  0  0
  -21.8820   -3.8142   23.4345 C   0  0  0  0  0  0
  -21.9193   -4.6958   22.3400 C   0  0  0  0  0  0
  -22.7845  -13.5237   21.1853 C   0  0  0  0  0  0
  -22.1664   -4.2144   21.0976 F   0  0  0  0  0  0
  -21.5628   -3.4542   25.7737 F   0  0  0  0  0  0
  -30.0001  -13.4823   20.4565 N   0  0  0  0  0  0
  -26.2958  -12.9344   20.3275 N   0  0  0  0  0  0
  -25.9312  -11.6500   20.5728 N   0  0  0  0  0  0
  -22.0478  -12.8229   22.0404 N   0  0  0  0  0  0
  -25.4205  -15.1862   20.4058 N   0  0  0  0  0  0
  -31.7270  -14.8837   20.0083 O   0  0  0  0  0  0
  -21.6635   -6.8877   21.4240 O   0  0  0  0  0  0
  -22.3534  -14.5543   20.6700 O   0  0  0  0  0  0
  -24.6297  -31.8556   23.1979 C   0  0  0  0  0  0
  -25.9136  -32.4738   23.8316 C   0  0  1  0  0  0
  -27.2261  -27.2818   20.1128 C   0  0  0  0  0  0
  -25.5925  -33.8529   24.2264 N   0  0  0  0  0  0
  -23.4255  -30.4783   21.5410 C   0  0  2  0  0  0
  -24.8731  -28.9290   20.1059 C   0  0  0  0  0  0
  -22.7498  -29.4623   22.4925 C   0  0  0  0  0  0
  -18.0287  -28.1396   22.8484 C   0  0  0  0  0  0
  -24.1503  -36.7287   23.2640 C   0  0  0  0  0  0
  -25.9692  -30.7745   21.3732 C   0  0  0  0  0  0
  -26.0449  -29.3991   20.7136 C   0  0  0  0  0  0
  -27.2221  -28.5844   20.7129 C   0  0  0  0  0  0
  -26.0259  -26.8700   19.4889 C   0  0  0  0  0  0
  -24.8678  -27.6711   19.4834 C   0  0  0  0  0  0
  -23.6409  -29.8103   20.1577 C   0  0  0  0  0  0
  -25.4116  -36.3051   24.0334 C   0  0  1  0  0  0
  -20.5892  -28.3717   23.1276 C   0  0  2  0  0  0
  -20.6779  -26.9444   22.5400 C   0  0  0  0  0  0
  -19.5759  -26.6410   21.5203 C   0  0  0  0  0  0
  -18.1935  -26.7933   22.1620 C   0  0  0  0  0  0
  -19.1546  -28.8873   23.2866 C   0  0  0  0  0  0
  -18.9474  -30.1476   23.8881 C   0  0  0  0  0  0
  -17.6473  -30.6599   24.0568 C   0  0  0  0  0  0
  -25.9060  -34.9421   23.5107 C   0  0  0  0  0  0
  -16.5362  -29.9097   23.6341 C   0  0  0  0  0  0
  -16.7276  -28.6514   23.0353 C   0  0  0  0  0  0
  -26.4520  -31.6520   25.0680 C   0  0  0  0  0  0
  -25.3754  -31.3586   26.1396 C   0  0  0  0  0  0
  -27.0392  -30.2941   24.6145 C   0  0  0  0  0  0
  -27.6097  -32.4237   25.7440 C   0  0  0  0  0  0
  -27.5587  -37.1788   24.8469 C   0  0  0  0  0  0
  -21.4213  -29.3058   22.3667 N   0  0  0  0  0  0
  -26.4294  -37.3754   23.9419 N   0  0  0  0  0  0
  -24.6934  -31.0533   22.0944 N   0  0  0  0  0  0
  -23.4203  -28.8178   23.3034 O   0  0  0  0  0  0
  -28.3015  -26.3695   20.2122 O   0  0  0  0  0  0
  -26.5672  -34.8905   22.4698 O   0  0  0  0  0  0
  -23.5458  -32.1403   23.7285 O   0  0  0  0  0  0
  -28.6313  -19.6467   20.9423 C   0  0  0  0  0  0
  -30.7871  -18.0752   20.1325 C   0  0  0  0  0  0
  -28.6655  -18.2330   21.2388 C   0  0  0  0  0  0
  -29.7859  -17.3860   20.8727 C   0  0  0  0  0  0
  -29.6585  -20.3233   20.2335 C   0  0  0  0  0  0
  -30.7253  -19.4719   19.8233 C   0  0  0  0  0  0
  -26.6615  -18.3563   22.7778 C   0  0  0  0  0  0
  -27.5089  -17.6775   21.9830 C   0  0  0  0  0  0
  -28.6551  -23.9682   19.2994 C   0  0  0  0  0  0
  -28.4531  -25.3436   19.2568 C   0  0  0  0  0  0
  -29.9728  -15.9063   21.3887 C   0  0  0  0  0  0
  -28.8035  -22.7955   20.3464 C   0  0  0  0  0  0
  -29.6502  -15.6653   22.5919 N   0  0  0  0  0  0
  -29.7036  -21.7078   19.8845 O   0  0  0  0  0  0
  -31.7494  -20.0154   19.1222 F   0  0  0  0  0  0
  -31.4791  -12.5865   19.1727 H   0  0  0  0  0  0
  -30.3951  -11.4628   19.9302 H   0  0  0  0  0  0
  -29.7992  -11.7605   17.5135 H   0  0  0  0  0  0
  -29.6377  -13.4850   17.7387 H   0  0  0  0  0  0
  -27.8983  -11.2848   18.8968 H   0  0  0  0  0  0
  -27.3803  -12.5387   17.7997 H   0  0  0  0  0  0
  -27.6650  -14.2528   19.5153 H   0  0  0  0  0  0
  -28.7232  -12.0587   21.3579 H   0  0  0  0  0  0
  -28.3696  -13.6728   21.8534 H   0  0  0  0  0  0
  -25.2754   -9.5695   22.4758 H   0  0  0  0  0  0
  -23.9989   -7.4647   22.7488 H   0  0  0  0  0  0
  -21.0831   -8.8766   19.8961 H   0  0  0  0  0  0
  -22.3677  -10.9666   19.6163 H   0  0  0  0  0  0
  -21.2010   -7.6145   23.9705 H   0  0  0  0  0  0
  -21.1480   -6.0522   25.9068 H   0  0  0  0  0  0
  -22.0599   -2.7607   23.2842 H   0  0  0  0  0  0
  -22.4101  -11.9896   22.4797 H   0  0  0  0  0  0
  -21.1098  -13.1252   22.2600 H   0  0  0  0  0  0
  -24.6535  -15.8372   20.5358 H   0  0  0  0  0  0
  -26.2640  -15.6302   20.0676 H   0  0  0  0  0  0
  -26.7194  -32.5409   23.1050 H   0  0  0  0  0  0
  -24.9962  -33.9634   25.0337 H   0  0  0  0  0  0
  -22.7228  -31.3010   21.3952 H   0  0  0  0  0  0
  -23.3757  -35.9630   23.3267 H   0  0  0  0  0  0
  -24.3587  -36.8959   22.2064 H   0  0  0  0  0  0
  -23.7286  -37.6482   23.6698 H   0  0  0  0  0  0
  -26.1005  -31.5346   20.6016 H   0  0  0  0  0  0
  -26.8483  -30.8246   22.0041 H   0  0  0  0  0  0
  -28.1147  -28.9304   21.2135 H   0  0  0  0  0  0
  -25.9535  -25.8896   19.0390 H   0  0  0  0  0  0
  -23.9662  -27.3000   19.0140 H   0  0  0  0  0  0
  -23.7548  -30.5832   19.3966 H   0  0  0  0  0  0
  -22.7606  -29.2366   19.8622 H   0  0  0  0  0  0
  -25.1291  -36.1870   25.0827 H   0  0  0  0  0  0
  -20.9981  -28.3301   24.1404 H   0  0  0  0  0  0
  -20.5692  -26.2343   23.3603 H   0  0  0  0  0  0
  -21.6649  -26.7487   22.1196 H   0  0  0  0  0  0
  -19.6924  -25.6322   21.1234 H   0  0  0  0  0  0
  -19.6669  -27.3226   20.6729 H   0  0  0  0  0  0
  -17.4206  -26.6700   21.4015 H   0  0  0  0  0  0
  -18.0335  -26.0064   22.9012 H   0  0  0  0  0  0
  -19.7954  -30.7301   24.2241 H   0  0  0  0  0  0
  -17.5030  -31.6276   24.5187 H   0  0  0  0  0  0
  -15.5359  -30.3001   23.7668 H   0  0  0  0  0  0
  -15.8674  -28.0832   22.7070 H   0  0  0  0  0  0
  -24.6030  -30.6821   25.7710 H   0  0  0  0  0  0
  -24.8805  -32.2686   26.4786 H   0  0  0  0  0  0
  -25.8097  -30.8817   27.0190 H   0  0  0  0  0  0
  -26.2973  -29.6620   24.1251 H   0  0  0  0  0  0
  -27.4192  -29.7236   25.4629 H   0  0  0  0  0  0
  -27.8780  -30.4217   23.9302 H   0  0  0  0  0  0
  -27.2779  -33.3593   26.1938 H   0  0  0  0  0  0
  -28.3935  -32.6682   25.0263 H   0  0  0  0  0  0
  -28.0728  -31.8387   26.5399 H   0  0  0  0  0  0
  -28.2567  -38.0121   24.7551 H   0  0  0  0  0  0
  -28.1129  -36.2654   24.6245 H   0  0  0  0  0  0
  -27.2307  -37.1367   25.8871 H   0  0  0  0  0  0
  -20.9425  -29.8723   21.6802 H   0  0  0  0  0  0
  -26.0162  -38.2831   24.1392 H   0  0  0  0  0  0
  -27.7758  -20.2262   21.2487 H   0  0  0  0  0  0
  -31.6683  -17.5345   19.8201 H   0  0  0  0  0  0
  -25.8380  -17.8448   23.2558 H   0  0  0  0  0  0
  -26.7590  -19.4130   22.9778 H   0  0  0  0  0  0
  -27.3087  -16.6229   21.8552 H   0  0  0  0  0  0
  -28.7036  -23.5460   18.3060 H   0  0  0  0  0  0
  -28.3921  -25.7971   18.2751 H   0  0  0  0  0  0
  -27.8102  -22.3813   20.5099 H   0  0  0  0  0  0
  -29.1470  -23.1895   21.3030 H   0  0  0  0  0  0
  -29.2810  -16.4978   23.0362 H   0  0  0  0  0  0
  1 25  1  0  0  0
  1 30  2  0  0  0
  1 81  1  0  0  0
  2  3  1  0  0  0
  2 25  1  0  0  0
  2 86  1  0  0  0
  2 87  1  0  0  0
  3  4  1  0  0  0
  3 88  1  0  0  0
  3 89  1  0  0  0
  4  5  1  0  0  0
  4 90  1  0  0  0
  4 91  1  0  0  0
  5  6  1  0  0  0
  5 26  1  0  0  0
  5 92  1  0  0  0
  6 25  1  0  0  0
  6 93  1  0  0  0
  6 94  1  0  0  0
  7  8  2  0  0  0
  7 26  1  0  0  0
  7 29  1  0  0  0
  8  9  1  0  0  0
  8 22  1  0  0  0
  9 10  1  0  0  0
  9 27  2  0  0  0
 10 11  2  0  0  0
 10 15  1  0  0  0
 11 12  1  0  0  0
 11 95  1  0  0  0
 12 13  2  0  0  0
 12 96  1  0  0  0
 13 14  1  0  0  0
 13 31  1  0  0  0
 14 15  2  0  0  0
 14 97  1  0  0  0
 15 98  1  0  0  0
 16 17  2  0  0  0
 16 21  1  0  0  0
 16 31  1  0  0  0
 17 18  1  0  0  0
 17 99  1  0  0  0
 18 19  2  0  0  0
 18100  1  0  0  0
 19 20  1  0  0  0
 19 24  1  0  0  0
 20 21  2  0  0  0
 20101  1  0  0  0
 21 23  1  0  0  0
 22 28  1  0  0  0
 22 32  2  0  0  0
 26 27  1  0  0  0
 28102  1  0  0  0
 28103  1  0  0  0
 29104  1  0  0  0
 29105  1  0  0  0
 33 34  1  0  0  0
 33 66  1  0  0  0
 33 70  2  0  0  0
 34 36  1  0  0  0
 34 59  1  0  0  0
 34106  1  0  0  0
 35 44  2  0  0  0
 35 45  1  0  0  0
 35 68  1  0  0  0
 36 56  1  0  0  0
 36107  1  0  0  0
 37 39  1  0  0  0
 37 47  1  0  0  0
 37 66  1  0  0  0
 37108  1  0  0  0
 38 43  2  0  0  0
 38 46  1  0  0  0
 38 47  1  0  0  0
 39 64  1  0  0  0
 39 67  2  0  0  0
 40 52  1  0  0  0
 40 53  2  0  0  0
 40 58  1  0  0  0
 41109  1  0  0  0
 41110  1  0  0  0
 41111  1  0  0  0
 41 48  1  0  0  0
 42 43  1  0  0  0
 42 66  1  0  0  0
 42112  1  0  0  0
 42113  1  0  0  0
 43 44  1  0  0  0
 44114  1  0  0  0
 45 46  2  0  0  0
 45115  1  0  0  0
 46116  1  0  0  0
 47117  1  0  0  0
 47118  1  0  0  0
 48 56  1  0  0  0
 48 65  1  0  0  0
 48119  1  0  0  0
 49 50  1  0  0  0
 49 53  1  0  0  0
 49 64  1  0  0  0
 49120  1  0  0  0
 50 51  1  0  0  0
 50121  1  0  0  0
 50122  1  0  0  0
 51 52  1  0  0  0
 51123  1  0  0  0
 51124  1  0  0  0
 52125  1  0  0  0
 52126  1  0  0  0
 53 54  1  0  0  0
 54 55  2  0  0  0
 54127  1  0  0  0
 55 57  1  0  0  0
 55128  1  0  0  0
 56 69  2  0  0  0
 57 58  2  0  0  0
 57129  1  0  0  0
 58130  1  0  0  0
 59 60  1  0  0  0
 59 61  1  0  0  0
 59 62  1  0  0  0
 60131  1  0  0  0
 60132  1  0  0  0
 60133  1  0  0  0
 61134  1  0  0  0
 61135  1  0  0  0
 61136  1  0  0  0
 62137  1  0  0  0
 62138  1  0  0  0
 62139  1  0  0  0
 63 65  1  0  0  0
 63140  1  0  0  0
 63141  1  0  0  0
 63142  1  0  0  0
 64143  1  0  0  0
 65144  1  0  0  0
 68 80  1  0  0  0
 71 73  2  0  0  0
 71 75  1  0  0  0
 71145  1  0  0  0
 72 74  2  0  0  0
 72 76  1  0  0  0
 72146  1  0  0  0
 73 74  1  0  0  0
 73 78  1  0  0  0
 74 81  1  0  0  0
 75 76  2  0  0  0
 75 84  1  0  0  0
 76 85  1  0  0  0
 77 78  2  0  0  0
 77147  1  0  0  0
 77148  1  0  0  0
 78149  1  0  0  0
 79 80  2  0  0  0
 79 82  1  0  0  0
 79150  1  0  0  0
 80151  1  0  0  0
 81 83  2  0  0  0
 82 84  1  0  0  0
 82152  1  0  0  0
 82153  1  0  0  0
 83154  1  0  0  0
M  ISO  4   1 100  68 101  80 101  81 100
M  END
> <chiral flag>
0

> <version>
0

> <s_m_source_file>
/data/baiqing/PycharmProjects/Reinvent-master-3.2/result/LINK_invent/BTK/process_docking_weight1_custom_product_contain_oxygen_bond_distance_aromatic_linkinvent_7_9_3/rearranged_h_0114.sdf

> <i_m_source_file_index>
43

> <r_mmod_Potential_Energy-OPLS-2005>
369.67724609375

> <r_mmod_Stretch_Energy-OPLS-2005>
122.394386291504

> <r_mmod_Bend_Energy-OPLS-2005>
222.860244750977

> <r_mmod_Torsional_Energy-OPLS-2005>
214.659942626953

> <r_mmod_Improper_Torsional_Energy-OPLS-2005>
3.8785355091095

> <r_mmod_Van_der_Waal_Energy-OPLS-2005>
151.332382202148

> <r_mmod_Electrostatic_Energy-OPLS-2005>
-227.262802124023

> <r_mmod_Solvation_Energy-OPLS-2005>
-192.994583129883

> <b_mmod_Minimization_Converged-OPLS-2005>
0

> <r_mmod_RMS_Derivative-OPLS-2005>
1.95711815357208

$$$$
43
                    3D
 Structure written by MMmdl.
159167  0  0  1  0            999 V2000
  -30.7383  -14.5365   20.5656 C   0  0  0  0  0  0
  -30.4145  -12.3463   19.4544 C   0  0  0  0  0  0
  -29.4960  -12.5159   18.2270 C   0  0  0  0  0  0
  -28.0205  -12.3681   18.6357 C   0  0  0  0  0  0
  -27.6590  -13.2247   19.8771 C   0  0  2  0  0  0
  -28.7004  -13.0635   21.0069 C   0  0  0  0  0  0
  -25.2584  -13.8207   20.5739 C   0  0  0  0  0  0
  -24.1836  -13.0453   20.9168 C   0  0  0  0  0  0
  -24.6415  -11.6929   20.8738 C   0  0  0  0  0  0
  -23.9083  -10.4302   21.0394 C   0  0  0  0  0  0
  -24.3637   -9.4214   21.9173 C   0  0  0  0  0  0
  -23.6304   -8.2256   22.0760 C   0  0  0  0  0  0
  -22.4288   -8.0294   21.3545 C   0  0  0  0  0  0
  -21.9922   -9.0266   20.4650 C   0  0  0  0  0  0
  -22.7250  -10.2142   20.3054 C   0  0  0  0  0  0
  -21.6862   -6.0737   22.5278 C   0  0  0  0  0  0
  -21.4026   -6.5641   23.8211 C   0  0  0  0  0  0
  -21.3660   -5.6801   24.9177 C   0  0  0  0  0  0
  -21.6042   -4.3061   24.7232 C   0  0  0  0  0  0
  -21.8825   -3.8151   23.4356 C   0  0  0  0  0  0
  -21.9204   -4.6963   22.3405 C   0  0  0  0  0  0
  -22.7855  -13.5224   21.1826 C   0  0  0  0  0  0
  -22.1664   -4.2145   21.0980 F   0  0  0  0  0  0
  -21.5623   -3.4544   25.7744 F   0  0  0  0  0  0
  -30.0305  -13.3667   20.4553 N   0  0  0  0  0  0
  -26.3039  -12.9406   20.3424 N   0  0  0  0  0  0
  -25.9365  -11.6545   20.5823 N   0  0  0  0  0  0
  -22.0509  -12.8217   22.0386 N   0  0  0  0  0  0
  -25.4337  -15.1930   20.4203 N   0  0  0  0  0  0
  -31.8395  -14.6429   20.0213 O   0  0  0  0  0  0
  -21.6652   -6.8890   21.4242 O   0  0  0  0  0  0
  -22.3523  -14.5518   20.6674 O   0  0  0  0  0  0
  -24.6209  -31.8624   23.2096 C   0  0  0  0  0  0
  -25.9083  -32.4794   23.8395 C   0  0  1  0  0  0
  -27.2319  -27.3885   20.1176 C   0  0  0  0  0  0
  -25.5894  -33.8593   24.2303 N   0  0  0  0  0  0
  -23.4117  -30.4867   21.5495 C   0  0  2  0  0  0
  -24.8601  -28.9489   20.1141 C   0  0  0  0  0  0
  -22.7434  -29.4648   22.4987 C   0  0  0  0  0  0
  -18.0273  -28.1415   22.8495 C   0  0  0  0  0  0
  -24.1476  -36.7302   23.2635 C   0  0  0  0  0  0
  -25.9444  -30.8171   21.3690 C   0  0  0  0  0  0
  -26.0223  -29.4480   20.7155 C   0  0  0  0  0  0
  -27.2143  -28.6776   20.7093 C   0  0  0  0  0  0
  -26.0508  -26.9158   19.5043 C   0  0  0  0  0  0
  -24.8705  -27.6849   19.5002 C   0  0  0  0  0  0
  -23.6230  -29.8192   20.1641 C   0  0  0  0  0  0
  -25.4102  -36.3091   24.0329 C   0  0  1  0  0  0
  -20.5863  -28.3705   23.1316 C   0  0  2  0  0  0
  -20.6769  -26.9440   22.5427 C   0  0  0  0  0  0
  -19.5746  -26.6408   21.5229 C   0  0  0  0  0  0
  -18.1920  -26.7960   22.1628 C   0  0  0  0  0  0
  -19.1522  -28.8885   23.2891 C   0  0  0  0  0  0
  -18.9442  -30.1486   23.8915 C   0  0  0  0  0  0
  -17.6441  -30.6608   24.0597 C   0  0  0  0  0  0
  -25.9034  -34.9448   23.5110 C   0  0  0  0  0  0
  -16.5339  -29.9111   23.6352 C   0  0  0  0  0  0
  -16.7261  -28.6535   23.0363 C   0  0  0  0  0  0
  -26.4507  -31.6598   25.0743 C   0  0  0  0  0  0
  -25.3759  -31.3706   26.1486 C   0  0  0  0  0  0
  -27.0349  -30.3023   24.6182 C   0  0  0  0  0  0
  -27.6097  -32.4312   25.7479 C   0  0  0  0  0  0
  -27.5599  -37.1771   24.8449 C   0  0  0  0  0  0
  -21.4162  -29.3046   22.3707 N   0  0  0  0  0  0
  -26.4277  -37.3796   23.9443 N   0  0  0  0  0  0
  -24.6775  -31.0691   22.1016 N   0  0  0  0  0  0
  -23.4170  -28.8189   23.3054 O   0  0  0  0  0  0
  -28.3613  -26.5823   20.1248 O   0  0  0  0  0  0
  -26.5609  -34.8896   22.4680 O   0  0  0  0  0  0
  -23.5394  -32.1418   23.7458 O   0  0  0  0  0  0
  -30.2383  -19.7994   23.5592 C   0  0  0  0  0  0
  -29.9656  -19.4166   20.8277 C   0  0  0  0  0  0
  -30.4012  -18.4889   23.0469 C   0  0  0  0  0  0
  -30.2647  -18.2808   21.6426 C   0  0  0  0  0  0
  -29.9969  -20.9247   22.7349 C   0  0  0  0  0  0
  -29.8139  -20.7363   21.3461 C   0  0  0  0  0  0
  -31.2325  -17.5646   25.2551 C   0  0  0  0  0  0
  -30.8422  -17.4163   23.9751 C   0  0  0  0  0  0
  -30.5404  -16.9587   20.9748 C   0  0  0  0  0  0
  -30.1584  -15.6853   21.2938 C   0  0  0  0  0  0
  -28.7761  -24.1700   20.1609 C   0  0  0  0  0  0
  -28.2087  -25.3036   20.6504 C   0  0  0  0  0  0
  -30.7544  -22.4557   24.4148 C   0  0  0  0  0  0
  -28.5511  -22.7467   20.7195 C   0  0  0  0  0  0
  -30.0014  -22.2114   23.2309 O   0  0  0  0  0  0
  -29.6384  -21.8185   20.4815 O   0  0  0  0  0  0
  -31.4599  -12.4148   19.1490 H   0  0  0  0  0  0
  -30.3042  -11.3475   19.8791 H   0  0  0  0  0  0
  -29.7424  -11.7828   17.4584 H   0  0  0  0  0  0
  -29.6578  -13.4984   17.7805 H   0  0  0  0  0  0
  -27.8383  -11.3133   18.8445 H   0  0  0  0  0  0
  -27.3726  -12.6259   17.7986 H   0  0  0  0  0  0
  -27.6900  -14.2669   19.5584 H   0  0  0  0  0  0
  -28.6905  -12.0435   21.3938 H   0  0  0  0  0  0
  -28.4386  -13.6965   21.8521 H   0  0  0  0  0  0
  -25.2785   -9.5674   22.4740 H   0  0  0  0  0  0
  -24.0006   -7.4650   22.7490 H   0  0  0  0  0  0
  -21.0853   -8.8788   19.8956 H   0  0  0  0  0  0
  -22.3708  -10.9688   19.6171 H   0  0  0  0  0  0
  -21.2021   -7.6155   23.9700 H   0  0  0  0  0  0
  -21.1471   -6.0543   25.9073 H   0  0  0  0  0  0
  -22.0602   -2.7615   23.2872 H   0  0  0  0  0  0
  -22.4163  -11.9893   22.4770 H   0  0  0  0  0  0
  -21.1130  -13.1224   22.2625 H   0  0  0  0  0  0
  -24.6801  -15.8611   20.5432 H   0  0  0  0  0  0
  -26.3081  -15.6255   20.1478 H   0  0  0  0  0  0
  -26.7158  -32.5505   23.1156 H   0  0  0  0  0  0
  -25.0055  -33.9755   25.0460 H   0  0  0  0  0  0
  -22.7035  -31.3057   21.4091 H   0  0  0  0  0  0
  -23.3747  -35.9620   23.3249 H   0  0  0  0  0  0
  -24.3580  -36.8984   22.2061 H   0  0  0  0  0  0
  -23.7186  -37.6466   23.6695 H   0  0  0  0  0  0
  -26.0619  -31.5818   20.5998 H   0  0  0  0  0  0
  -26.8292  -30.8713   21.9919 H   0  0  0  0  0  0
  -28.1131  -29.0560   21.1744 H   0  0  0  0  0  0
  -26.0412  -25.9408   19.0368 H   0  0  0  0  0  0
  -23.9781  -27.2970   19.0289 H   0  0  0  0  0  0
  -23.7338  -30.5940   19.4045 H   0  0  0  0  0  0
  -22.7466  -29.2397   19.8688 H   0  0  0  0  0  0
  -25.1266  -36.1949   25.0817 H   0  0  0  0  0  0
  -20.9953  -28.3285   24.1439 H   0  0  0  0  0  0
  -20.5713  -26.2313   23.3618 H   0  0  0  0  0  0
  -21.6637  -26.7507   22.1208 H   0  0  0  0  0  0
  -19.6902  -25.6314   21.1265 H   0  0  0  0  0  0
  -19.6677  -27.3228   20.6763 H   0  0  0  0  0  0
  -17.4194  -26.6741   21.4019 H   0  0  0  0  0  0
  -18.0291  -26.0097   22.9013 H   0  0  0  0  0  0
  -19.7908  -30.7314   24.2287 H   0  0  0  0  0  0
  -17.4988  -31.6291   24.5191 H   0  0  0  0  0  0
  -15.5341  -30.3025   23.7661 H   0  0  0  0  0  0
  -15.8656  -28.0864   22.7072 H   0  0  0  0  0  0
  -24.5904  -30.7101   25.7802 H   0  0  0  0  0  0
  -24.8995  -32.2866   26.4988 H   0  0  0  0  0  0
  -25.8095  -30.8812   27.0219 H   0  0  0  0  0  0
  -26.2914  -29.6730   24.1278 H   0  0  0  0  0  0
  -27.4131  -29.7323   25.4683 H   0  0  0  0  0  0
  -27.8747  -30.4315   23.9347 H   0  0  0  0  0  0
  -27.2759  -33.3618   26.2084 H   0  0  0  0  0  0
  -28.3884  -32.6862   25.0272 H   0  0  0  0  0  0
  -28.0803  -31.8414   26.5361 H   0  0  0  0  0  0
  -28.2544  -38.0142   24.7619 H   0  0  0  0  0  0
  -28.1152  -36.2671   24.6106 H   0  0  0  0  0  0
  -27.2332  -37.1250   25.8849 H   0  0  0  0  0  0
  -20.9349  -29.8726   21.6879 H   0  0  0  0  0  0
  -26.0146  -38.2847   24.1528 H   0  0  0  0  0  0
  -30.3518  -19.9590   24.6173 H   0  0  0  0  0  0
  -29.8916  -19.2809   19.7589 H   0  0  0  0  0  0
  -31.5279  -16.7035   25.8363 H   0  0  0  0  0  0
  -31.2769  -18.5166   25.7626 H   0  0  0  0  0  0
  -30.8602  -16.4078   23.6017 H   0  0  0  0  0  0
  -31.2110  -17.0644   20.1306 H   0  0  0  0  0  0
  -29.4727  -15.5242   22.1109 H   0  0  0  0  0  0
  -29.4129  -24.2381   19.2907 H   0  0  0  0  0  0
  -27.5560  -25.2978   21.5140 H   0  0  0  0  0  0
  -30.9109  -23.5274   24.5358 H   0  0  0  0  0  0
  -31.7417  -21.9917   24.3643 H   0  0  0  0  0  0
  -30.2365  -22.0929   25.3038 H   0  0  0  0  0  0
  -27.6894  -22.3391   20.1902 H   0  0  0  0  0  0
  -28.2456  -22.8135   21.7624 H   0  0  0  0  0  0
  1 25  1  0  0  0
  1 30  2  0  0  0
  1 80  1  0  0  0
  2  3  1  0  0  0
  2 25  1  0  0  0
  2 87  1  0  0  0
  2 88  1  0  0  0
  3  4  1  0  0  0
  3 89  1  0  0  0
  3 90  1  0  0  0
  4  5  1  0  0  0
  4 91  1  0  0  0
  4 92  1  0  0  0
  5  6  1  0  0  0
  5 26  1  0  0  0
  5 93  1  0  0  0
  6 25  1  0  0  0
  6 94  1  0  0  0
  6 95  1  0  0  0
  7  8  2  0  0  0
  7 26  1  0  0  0
  7 29  1  0  0  0
  8  9  1  0  0  0
  8 22  1  0  0  0
  9 10  1  0  0  0
  9 27  2  0  0  0
 10 11  2  0  0  0
 10 15  1  0  0  0
 11 12  1  0  0  0
 11 96  1  0  0  0
 12 13  2  0  0  0
 12 97  1  0  0  0
 13 14  1  0  0  0
 13 31  1  0  0  0
 14 15  2  0  0  0
 14 98  1  0  0  0
 15 99  1  0  0  0
 16 17  2  0  0  0
 16 21  1  0  0  0
 16 31  1  0  0  0
 17 18  1  0  0  0
 17100  1  0  0  0
 18 19  2  0  0  0
 18101  1  0  0  0
 19 20  1  0  0  0
 19 24  1  0  0  0
 20 21  2  0  0  0
 20102  1  0  0  0
 21 23  1  0  0  0
 22 28  1  0  0  0
 22 32  2  0  0  0
 26 27  1  0  0  0
 28103  1  0  0  0
 28104  1  0  0  0
 29105  1  0  0  0
 29106  1  0  0  0
 33 34  1  0  0  0
 33 66  1  0  0  0
 33 70  2  0  0  0
 34 36  1  0  0  0
 34 59  1  0  0  0
 34107  1  0  0  0
 35 44  2  0  0  0
 35 45  1  0  0  0
 35 68  1  0  0  0
 36 56  1  0  0  0
 36108  1  0  0  0
 37 39  1  0  0  0
 37 47  1  0  0  0
 37 66  1  0  0  0
 37109  1  0  0  0
 38 43  2  0  0  0
 38 46  1  0  0  0
 38 47  1  0  0  0
 39 64  1  0  0  0
 39 67  2  0  0  0
 40 52  1  0  0  0
 40 53  2  0  0  0
 40 58  1  0  0  0
 41110  1  0  0  0
 41111  1  0  0  0
 41112  1  0  0  0
 41 48  1  0  0  0
 42 43  1  0  0  0
 42 66  1  0  0  0
 42113  1  0  0  0
 42114  1  0  0  0
 43 44  1  0  0  0
 44115  1  0  0  0
 45 46  2  0  0  0
 45116  1  0  0  0
 46117  1  0  0  0
 47118  1  0  0  0
 47119  1  0  0  0
 48 56  1  0  0  0
 48 65  1  0  0  0
 48120  1  0  0  0
 49 50  1  0  0  0
 49 53  1  0  0  0
 49 64  1  0  0  0
 49121  1  0  0  0
 50 51  1  0  0  0
 50122  1  0  0  0
 50123  1  0  0  0
 51 52  1  0  0  0
 51124  1  0  0  0
 51125  1  0  0  0
 52126  1  0  0  0
 52127  1  0  0  0
 53 54  1  0  0  0
 54 55  2  0  0  0
 54128  1  0  0  0
 55 57  1  0  0  0
 55129  1  0  0  0
 56 69  2  0  0  0
 57 58  2  0  0  0
 57130  1  0  0  0
 58131  1  0  0  0
 59 60  1  0  0  0
 59 61  1  0  0  0
 59 62  1  0  0  0
 60132  1  0  0  0
 60133  1  0  0  0
 60134  1  0  0  0
 61135  1  0  0  0
 61136  1  0  0  0
 61137  1  0  0  0
 62138  1  0  0  0
 62139  1  0  0  0
 62140  1  0  0  0
 63 65  1  0  0  0
 63141  1  0  0  0
 63142  1  0  0  0
 63143  1  0  0  0
 64144  1  0  0  0
 65145  1  0  0  0
 68 82  1  0  0  0
 71 73  2  0  0  0
 71 75  1  0  0  0
 71146  1  0  0  0
 72 74  2  0  0  0
 72 76  1  0  0  0
 72147  1  0  0  0
 73 74  1  0  0  0
 73 78  1  0  0  0
 74 79  1  0  0  0
 75 76  2  0  0  0
 75 85  1  0  0  0
 76 86  1  0  0  0
 77 78  2  0  0  0
 77148  1  0  0  0
 77149  1  0  0  0
 78150  1  0  0  0
 79 80  2  0  0  0
 79151  1  0  0  0
 80152  1  0  0  0
 81 82  2  0  0  0
 81 84  1  0  0  0
 81153  1  0  0  0
 82154  1  0  0  0
 83 85  1  0  0  0
 83155  1  0  0  0
 83156  1  0  0  0
 83157  1  0  0  0
 84 86  1  0  0  0
 84158  1  0  0  0
 84159  1  0  0  0
M  ISO  4   1 100  68 101  80 100  82 101
M  END
> <chiral flag>
0

> <version>
0

> <s_m_source_file>
/data/baiqing/PycharmProjects/Reinvent-master-3.2/result/LINK_invent/BTK/process_docking_weight1_custom_product_contain_oxygen_bond_distance_aromatic_linkinvent_7_9_3/rearranged_h_0114.sdf

> <i_m_source_file_index>
44

> <r_mmod_Potential_Energy-OPLS-2005>
68.8022155761719

> <r_mmod_Stretch_Energy-OPLS-2005>
55.6314125061035

> <r_mmod_Bend_Energy-OPLS-2005>
123.346046447754

> <r_mmod_Torsional_Energy-OPLS-2005>
230.713073730469

> <r_mmod_Improper_Torsional_Energy-OPLS-2005>
4.21820974349976

> <r_mmod_Van_der_Waal_Energy-OPLS-2005>
170.051559448242

> <r_mmod_Electrostatic_Energy-OPLS-2005>
-341.019866943359

> <r_mmod_Solvation_Energy-OPLS-2005>
-197.589691162109

> <b_mmod_Minimization_Converged-OPLS-2005>
0

> <r_mmod_RMS_Derivative-OPLS-2005>
2.66767144203186

$$$$
44
                    3D
 Structure written by MMmdl.
155163  0  0  1  0            999 V2000
  -30.5978  -14.6001   20.6335 C   0  0  0  0  0  0
  -30.4493  -12.4149   19.4170 C   0  0  0  0  0  0
  -29.4976  -12.6143   18.2107 C   0  0  0  0  0  0
  -28.0144  -12.4342   18.6022 C   0  0  0  0  0  0
  -27.6606  -13.2013   19.9035 C   0  0  2  0  0  0
  -28.7107  -12.8684   20.9828 C   0  0  0  0  0  0
  -25.2570  -13.8181   20.5851 C   0  0  0  0  0  0
  -24.1786  -13.0468   20.9182 C   0  0  0  0  0  0
  -24.6343  -11.6912   20.8695 C   0  0  0  0  0  0
  -23.9012  -10.4301   21.0352 C   0  0  0  0  0  0
  -24.3597   -9.4237   21.9134 C   0  0  0  0  0  0
  -23.6287   -8.2282   22.0758 C   0  0  0  0  0  0
  -22.4247   -8.0310   21.3574 C   0  0  0  0  0  0
  -21.9862   -9.0247   20.4648 C   0  0  0  0  0  0
  -22.7180  -10.2122   20.3008 C   0  0  0  0  0  0
  -21.6865   -6.0754   22.5301 C   0  0  0  0  0  0
  -21.4045   -6.5666   23.8240 C   0  0  0  0  0  0
  -21.3628   -5.6801   24.9188 C   0  0  0  0  0  0
  -21.6019   -4.3073   24.7221 C   0  0  0  0  0  0
  -21.8827   -3.8174   23.4331 C   0  0  0  0  0  0
  -21.9209   -4.6993   22.3409 C   0  0  0  0  0  0
  -22.7793  -13.5225   21.1893 C   0  0  0  0  0  0
  -22.1687   -4.2191   21.0984 F   0  0  0  0  0  0
  -21.5571   -3.4553   25.7735 F   0  0  0  0  0  0
  -30.0180  -13.3478   20.4864 N   0  0  0  0  0  0
  -26.2993  -12.9309   20.3480 N   0  0  0  0  0  0
  -25.9252  -11.6456   20.5689 N   0  0  0  0  0  0
  -22.0457  -12.8161   22.0416 N   0  0  0  0  0  0
  -25.4326  -15.1952   20.4533 N   0  0  0  0  0  0
  -31.7059  -14.8325   20.1328 O   0  0  0  0  0  0
  -21.6644   -6.8893   21.4254 O   0  0  0  0  0  0
  -22.3475  -14.5565   20.6796 O   0  0  0  0  0  0
  -24.6291  -31.8549   23.1975 C   0  0  0  0  0  0
  -25.9115  -32.4743   23.8325 C   0  0  1  0  0  0
  -27.2405  -27.3052   20.1007 C   0  0  0  0  0  0
  -25.5927  -33.8548   24.2255 N   0  0  0  0  0  0
  -23.4266  -30.4760   21.5391 C   0  0  2  0  0  0
  -24.8736  -28.9227   20.1140 C   0  0  0  0  0  0
  -22.7489  -29.4610   22.4898 C   0  0  0  0  0  0
  -18.0304  -28.1385   22.8498 C   0  0  0  0  0  0
  -24.1508  -36.7302   23.2633 C   0  0  0  0  0  0
  -25.9668  -30.7790   21.3701 C   0  0  0  0  0  0
  -26.0424  -29.4023   20.7144 C   0  0  0  0  0  0
  -27.2269  -28.6057   20.6975 C   0  0  0  0  0  0
  -26.0438  -26.8788   19.4786 C   0  0  0  0  0  0
  -24.8735  -27.6646   19.4930 C   0  0  0  0  0  0
  -23.6433  -29.8033   20.1574 C   0  0  0  0  0  0
  -25.4125  -36.3056   24.0318 C   0  0  1  0  0  0
  -20.5900  -28.3707   23.1260 C   0  0  2  0  0  0
  -20.6771  -26.9415   22.5413 C   0  0  0  0  0  0
  -19.5758  -26.6385   21.5199 C   0  0  0  0  0  0
  -18.1938  -26.7942   22.1609 C   0  0  0  0  0  0
  -19.1557  -28.8851   23.2875 C   0  0  0  0  0  0
  -18.9465  -30.1445   23.8894 C   0  0  0  0  0  0
  -17.6457  -30.6567   24.0561 C   0  0  0  0  0  0
  -25.9054  -34.9422   23.5082 C   0  0  0  0  0  0
  -16.5351  -29.9067   23.6304 C   0  0  0  0  0  0
  -16.7282  -28.6497   23.0336 C   0  0  0  0  0  0
  -26.4501  -31.6550   25.0696 C   0  0  0  0  0  0
  -25.3732  -31.3682   26.1407 C   0  0  0  0  0  0
  -27.0322  -30.2965   24.6153 C   0  0  0  0  0  0
  -27.6050  -32.4283   25.7491 C   0  0  0  0  0  0
  -27.5593  -37.1814   24.8452 C   0  0  0  0  0  0
  -21.4199  -29.3051   22.3644 N   0  0  0  0  0  0
  -26.4297  -37.3752   23.9402 N   0  0  0  0  0  0
  -24.6935  -31.0550   22.0931 N   0  0  0  0  0  0
  -23.4197  -28.8124   23.2973 O   0  0  0  0  0  0
  -28.3743  -26.4719   20.1432 O   0  0  0  0  0  0
  -26.5634  -34.8899   22.4662 O   0  0  0  0  0  0
  -23.5453  -32.1333   23.7314 O   0  0  0  0  0  0
  -29.8616  -19.3864   19.8538 C   0  0  0  0  0  0
  -30.1828  -19.5011   22.2233 C   0  0  0  0  0  0
  -29.8929  -17.9485   19.9040 C   0  0  0  0  0  0
  -30.0404  -17.2510   21.1490 C   0  0  0  0  0  0
  -29.9581  -20.2030   21.0130 C   0  0  0  0  0  0
  -30.2291  -18.0827   22.2933 C   0  0  0  0  0  0
  -30.3945  -17.5704   17.4973 C   0  0  0  0  0  0
  -29.7715  -17.2128   18.6346 C   0  0  0  0  0  0
  -29.1950  -22.4711   20.4021 C   0  0  0  0  0  0
  -29.7862  -15.7484   21.3800 C   0  0  0  0  0  0
  -29.3383  -24.0439   20.5156 C   0  0  0  0  0  0
  -28.2461  -25.0124   19.8743 C   0  0  0  0  0  0
  -28.8814  -15.4870   22.2326 N   0  0  0  0  0  0
  -29.9731  -21.6423   21.0383 N   0  0  0  0  0  0
  -30.4190  -17.5253   23.5175 F   0  0  0  0  0  0
  -31.4825  -12.5849   19.1117 H   0  0  0  0  0  0
  -30.4196  -11.3768   19.7514 H   0  0  0  0  0  0
  -29.7529  -11.9573   17.3817 H   0  0  0  0  0  0
  -29.6371  -13.6307   17.8366 H   0  0  0  0  0  0
  -27.8075  -11.3692   18.7190 H   0  0  0  0  0  0
  -27.3762  -12.7845   17.7892 H   0  0  0  0  0  0
  -27.7248  -14.2656   19.6899 H   0  0  0  0  0  0
  -28.7476  -11.7851   21.1024 H   0  0  0  0  0  0
  -28.4402  -13.1915   21.9843 H   0  0  0  0  0  0
  -25.2765   -9.5772   22.4660 H   0  0  0  0  0  0
  -24.0055   -7.4673   22.7426 H   0  0  0  0  0  0
  -21.0833   -8.8713   19.8910 H   0  0  0  0  0  0
  -22.3645  -10.9641   19.6085 H   0  0  0  0  0  0
  -21.2082   -7.6186   23.9770 H   0  0  0  0  0  0
  -21.1418   -6.0527   25.9079 H   0  0  0  0  0  0
  -22.0626   -2.7639   23.2828 H   0  0  0  0  0  0
  -22.4113  -11.9768   22.4658 H   0  0  0  0  0  0
  -21.1070  -13.1120   22.2675 H   0  0  0  0  0  0
  -24.6958  -15.8429   20.7097 H   0  0  0  0  0  0
  -26.3213  -15.6530   20.2937 H   0  0  0  0  0  0
  -26.7182  -32.5408   23.1067 H   0  0  0  0  0  0
  -25.0029  -33.9669   25.0364 H   0  0  0  0  0  0
  -22.7227  -31.2977   21.3877 H   0  0  0  0  0  0
  -23.3754  -35.9648   23.3263 H   0  0  0  0  0  0
  -24.3596  -36.8969   22.2056 H   0  0  0  0  0  0
  -23.7287  -37.6503   23.6683 H   0  0  0  0  0  0
  -26.0934  -31.5382   20.5980 H   0  0  0  0  0  0
  -26.8499  -30.8348   21.9947 H   0  0  0  0  0  0
  -28.1263  -28.9703   21.1749 H   0  0  0  0  0  0
  -25.9823  -25.9237   18.9795 H   0  0  0  0  0  0
  -23.9762  -27.2906   19.0217 H   0  0  0  0  0  0
  -23.7652  -30.5722   19.3943 H   0  0  0  0  0  0
  -22.7664  -29.2280   19.8571 H   0  0  0  0  0  0
  -25.1321  -36.1893   25.0812 H   0  0  0  0  0  0
  -21.0009  -28.3265   24.1363 H   0  0  0  0  0  0
  -20.5633  -26.2296   23.3619 H   0  0  0  0  0  0
  -21.6643  -26.7382   22.1223 H   0  0  0  0  0  0
  -19.6900  -25.6289   21.1242 H   0  0  0  0  0  0
  -19.6696  -27.3166   20.6716 H   0  0  0  0  0  0
  -17.4206  -26.6703   21.4000 H   0  0  0  0  0  0
  -18.0314  -26.0058   22.8985 H   0  0  0  0  0  0
  -19.7931  -30.7298   24.2243 H   0  0  0  0  0  0
  -17.4992  -31.6242   24.5189 H   0  0  0  0  0  0
  -15.5358  -30.2963   23.7614 H   0  0  0  0  0  0
  -15.8697  -28.0810   22.7022 H   0  0  0  0  0  0
  -24.5912  -30.7032   25.7717 H   0  0  0  0  0  0
  -24.8918  -32.2842   26.4850 H   0  0  0  0  0  0
  -25.8048  -30.8832   27.0172 H   0  0  0  0  0  0
  -26.2861  -29.6734   24.1199 H   0  0  0  0  0  0
  -27.4014  -29.7210   25.4658 H   0  0  0  0  0  0
  -27.8752  -30.4228   23.9350 H   0  0  0  0  0  0
  -27.2648  -33.3590   26.2056 H   0  0  0  0  0  0
  -28.3888  -32.6841   25.0339 H   0  0  0  0  0  0
  -28.0681  -31.8406   26.5431 H   0  0  0  0  0  0
  -28.2580  -38.0139   24.7498 H   0  0  0  0  0  0
  -28.1131  -36.2672   24.6270 H   0  0  0  0  0  0
  -27.2310  -37.1443   25.8851 H   0  0  0  0  0  0
  -20.9357  -29.8799   21.6888 H   0  0  0  0  0  0
  -26.0180  -38.2830   24.1379 H   0  0  0  0  0  0
  -29.7457  -19.8713   18.8943 H   0  0  0  0  0  0
  -30.3103  -20.0499   23.1456 H   0  0  0  0  0  0
  -30.2458  -17.0169   16.5794 H   0  0  0  0  0  0
  -31.0670  -18.4163   17.4703 H   0  0  0  0  0  0
  -29.1148  -16.3526   18.6229 H   0  0  0  0  0  0
  -28.3810  -22.1237   19.7566 H   0  0  0  0  0  0
  -30.3113  -24.2981   20.0896 H   0  0  0  0  0  0
  -29.4134  -24.2793   21.5806 H   0  0  0  0  0  0
  -27.2742  -24.6581   20.2183 H   0  0  0  0  0  0
  -28.2627  -24.8773   18.7882 H   0  0  0  0  0  0
  -28.4558  -16.3177   22.6261 H   0  0  0  0  0  0
  1 25  1  0  0  0
  1 30  2  0  0  0
  1 80  1  0  0  0
  2  3  1  0  0  0
  2 25  1  0  0  0
  2 86  1  0  0  0
  2 87  1  0  0  0
  3  4  1  0  0  0
  3 88  1  0  0  0
  3 89  1  0  0  0
  4  5  1  0  0  0
  4 90  1  0  0  0
  4 91  1  0  0  0
  5  6  1  0  0  0
  5 26  1  0  0  0
  5 92  1  0  0  0
  6 25  1  0  0  0
  6 93  1  0  0  0
  6 94  1  0  0  0
  7  8  2  0  0  0
  7 26  1  0  0  0
  7 29  1  0  0  0
  8  9  1  0  0  0
  8 22  1  0  0  0
  9 10  1  0  0  0
  9 27  2  0  0  0
 10 11  2  0  0  0
 10 15  1  0  0  0
 11 12  1  0  0  0
 11 95  1  0  0  0
 12 13  2  0  0  0
 12 96  1  0  0  0
 13 14  1  0  0  0
 13 31  1  0  0  0
 14 15  2  0  0  0
 14 97  1  0  0  0
 15 98  1  0  0  0
 16 17  2  0  0  0
 16 21  1  0  0  0
 16 31  1  0  0  0
 17 18  1  0  0  0
 17 99  1  0  0  0
 18 19  2  0  0  0
 18100  1  0  0  0
 19 20  1  0  0  0
 19 24  1  0  0  0
 20 21  2  0  0  0
 20101  1  0  0  0
 21 23  1  0  0  0
 22 28  1  0  0  0
 22 32  2  0  0  0
 26 27  1  0  0  0
 28102  1  0  0  0
 28103  1  0  0  0
 29104  1  0  0  0
 29105  1  0  0  0
 33 34  1  0  0  0
 33 66  1  0  0  0
 33 70  2  0  0  0
 34 36  1  0  0  0
 34 59  1  0  0  0
 34106  1  0  0  0
 35 44  2  0  0  0
 35 45  1  0  0  0
 35 68  1  0  0  0
 36 56  1  0  0  0
 36107  1  0  0  0
 37 39  1  0  0  0
 37 47  1  0  0  0
 37 66  1  0  0  0
 37108  1  0  0  0
 38 43  2  0  0  0
 38 46  1  0  0  0
 38 47  1  0  0  0
 39 64  1  0  0  0
 39 67  2  0  0  0
 40 52  1  0  0  0
 40 53  2  0  0  0
 40 58  1  0  0  0
 41109  1  0  0  0
 41110  1  0  0  0
 41111  1  0  0  0
 41 48  1  0  0  0
 42 43  1  0  0  0
 42 66  1  0  0  0
 42112  1  0  0  0
 42113  1  0  0  0
 43 44  1  0  0  0
 44114  1  0  0  0
 45 46  2  0  0  0
 45115  1  0  0  0
 46116  1  0  0  0
 47117  1  0  0  0
 47118  1  0  0  0
 48 56  1  0  0  0
 48 65  1  0  0  0
 48119  1  0  0  0
 49 50  1  0  0  0
 49 53  1  0  0  0
 49 64  1  0  0  0
 49120  1  0  0  0
 50 51  1  0  0  0
 50121  1  0  0  0
 50122  1  0  0  0
 51 52  1  0  0  0
 51123  1  0  0  0
 51124  1  0  0  0
 52125  1  0  0  0
 52126  1  0  0  0
 53 54  1  0  0  0
 54 55  2  0  0  0
 54127  1  0  0  0
 55 57  1  0  0  0
 55128  1  0  0  0
 56 69  2  0  0  0
 57 58  2  0  0  0
 57129  1  0  0  0
 58130  1  0  0  0
 59 60  1  0  0  0
 59 61  1  0  0  0
 59 62  1  0  0  0
 60131  1  0  0  0
 60132  1  0  0  0
 60133  1  0  0  0
 61134  1  0  0  0
 61135  1  0  0  0
 61136  1  0  0  0
 62137  1  0  0  0
 62138  1  0  0  0
 62139  1  0  0  0
 63 65  1  0  0  0
 63140  1  0  0  0
 63141  1  0  0  0
 63142  1  0  0  0
 64143  1  0  0  0
 65144  1  0  0  0
 68 82  1  0  0  0
 71 73  2  0  0  0
 71 75  1  0  0  0
 71145  1  0  0  0
 72 75  2  0  0  0
 72 76  1  0  0  0
 72146  1  0  0  0
 73 74  1  0  0  0
 73 78  1  0  0  0
 74 76  2  0  0  0
 74 80  1  0  0  0
 75 84  1  0  0  0
 76 85  1  0  0  0
 77 78  2  0  0  0
 77147  1  0  0  0
 77148  1  0  0  0
 78149  1  0  0  0
 79 81  1  0  0  0
 79 84  2  0  0  0
 79150  1  0  0  0
 80 83  2  0  0  0
 81 82  1  0  0  0
 81151  1  0  0  0
 81152  1  0  0  0
 82153  1  0  0  0
 82154  1  0  0  0
 83155  1  0  0  0
M  ISO  4   1 100  68 101  80 100  82 101
M  END
> <chiral flag>
0

> <version>
0

> <s_m_source_file>
/data/baiqing/PycharmProjects/Reinvent-master-3.2/result/LINK_invent/BTK/process_docking_weight1_custom_product_contain_oxygen_bond_distance_aromatic_linkinvent_7_9_3/rearranged_h_0114.sdf

> <i_m_source_file_index>
45

> <r_mmod_Potential_Energy-OPLS-2005>
273.938720703125

> <r_mmod_Stretch_Energy-OPLS-2005>
100.945358276367

> <r_mmod_Bend_Energy-OPLS-2005>
169.066299438477

> <r_mmod_Torsional_Energy-OPLS-2005>
219.80224609375

> <r_mmod_Improper_Torsional_Energy-OPLS-2005>
4.63981294631958

> <r_mmod_Van_der_Waal_Energy-OPLS-2005>
159.142227172852

> <r_mmod_Electrostatic_Energy-OPLS-2005>
-224.729461669922

> <r_mmod_Solvation_Energy-OPLS-2005>
-200.746978759766

> <b_mmod_Minimization_Converged-OPLS-2005>
0

> <r_mmod_RMS_Derivative-OPLS-2005>
5.85730838775635

$$$$
45
                    3D
 Structure written by MMmdl.
165173  0  0  1  0            999 V2000
  -30.7430  -14.4471   20.6555 C   0  0  0  0  0  0
  -30.4173  -12.3276   19.4165 C   0  0  0  0  0  0
  -29.4871  -12.5228   18.2036 C   0  0  0  0  0  0
  -28.0138  -12.3567   18.6184 C   0  0  0  0  0  0
  -27.6587  -13.1956   19.8715 C   0  0  2  0  0  0
  -28.6998  -12.9745   20.9964 C   0  0  0  0  0  0
  -25.2589  -13.8141   20.5666 C   0  0  0  0  0  0
  -24.1836  -13.0441   20.9185 C   0  0  0  0  0  0
  -24.6371  -11.6902   20.8741 C   0  0  0  0  0  0
  -23.9035  -10.4299   21.0413 C   0  0  0  0  0  0
  -24.3596   -9.4220   21.9190 C   0  0  0  0  0  0
  -23.6284   -8.2249   22.0759 C   0  0  0  0  0  0
  -22.4267   -8.0282   21.3544 C   0  0  0  0  0  0
  -21.9900   -9.0252   20.4642 C   0  0  0  0  0  0
  -22.7217  -10.2138   20.3057 C   0  0  0  0  0  0
  -21.6852   -6.0739   22.5285 C   0  0  0  0  0  0
  -21.4011   -6.5642   23.8215 C   0  0  0  0  0  0
  -21.3652   -5.6795   24.9176 C   0  0  0  0  0  0
  -21.6039   -4.3055   24.7224 C   0  0  0  0  0  0
  -21.8825   -3.8152   23.4344 C   0  0  0  0  0  0
  -21.9193   -4.6967   22.3405 C   0  0  0  0  0  0
  -22.7863  -13.5252   21.1851 C   0  0  0  0  0  0
  -22.1664   -4.2157   21.0980 F   0  0  0  0  0  0
  -21.5625   -3.4537   25.7736 F   0  0  0  0  0  0
  -30.0321  -13.2969   20.4598 N   0  0  0  0  0  0
  -26.3003  -12.9285   20.3337 N   0  0  0  0  0  0
  -25.9288  -11.6458   20.5746 N   0  0  0  0  0  0
  -22.0491  -12.8243   22.0397 N   0  0  0  0  0  0
  -25.4321  -15.1862   20.4053 N   0  0  0  0  0  0
  -31.7896  -14.6713   20.0364 O   0  0  0  0  0  0
  -21.6635   -6.8877   21.4242 O   0  0  0  0  0  0
  -22.3556  -14.5568   20.6704 O   0  0  0  0  0  0
  -24.6126  -31.8679   23.2089 C   0  0  0  0  0  0
  -25.9019  -32.4824   23.8389 C   0  0  1  0  0  0
  -27.2377  -27.4526   20.0982 C   0  0  0  0  0  0
  -25.5866  -33.8619   24.2305 N   0  0  0  0  0  0
  -23.4010  -30.4901   21.5497 C   0  0  2  0  0  0
  -24.8489  -28.9542   20.1152 C   0  0  0  0  0  0
  -22.7401  -29.4660   22.5001 C   0  0  0  0  0  0
  -18.0267  -28.1381   22.8493 C   0  0  0  0  0  0
  -24.1479  -36.7321   23.2642 C   0  0  0  0  0  0
  -25.9267  -30.8405   21.3568 C   0  0  0  0  0  0
  -26.0078  -29.4753   20.7070 C   0  0  0  0  0  0
  -27.2083  -28.7319   20.6938 C   0  0  0  0  0  0
  -26.0674  -26.9374   19.5055 C   0  0  0  0  0  0
  -24.8723  -27.6826   19.5117 C   0  0  0  0  0  0
  -23.6088  -29.8178   20.1657 C   0  0  0  0  0  0
  -25.4097  -36.3108   24.0341 C   0  0  1  0  0  0
  -20.5857  -28.3663   23.1318 C   0  0  2  0  0  0
  -20.6747  -26.9398   22.5415 C   0  0  0  0  0  0
  -19.5732  -26.6392   21.5208 C   0  0  0  0  0  0
  -18.1906  -26.7933   22.1622 C   0  0  0  0  0  0
  -19.1521  -28.8841   23.2897 C   0  0  0  0  0  0
  -18.9454  -30.1450   23.8903 C   0  0  0  0  0  0
  -17.6455  -30.6584   24.0578 C   0  0  0  0  0  0
  -25.9027  -34.9479   23.5123 C   0  0  0  0  0  0
  -16.5346  -29.9086   23.6341 C   0  0  0  0  0  0
  -16.7259  -28.6507   23.0353 C   0  0  0  0  0  0
  -26.4443  -31.6603   25.0720 C   0  0  0  0  0  0
  -25.3712  -31.3719   26.1477 C   0  0  0  0  0  0
  -27.0273  -30.3049   24.6091 C   0  0  0  0  0  0
  -27.6027  -32.4318   25.7469 C   0  0  0  0  0  0
  -27.5570  -37.1809   24.8464 C   0  0  0  0  0  0
  -21.4131  -29.3032   22.3731 N   0  0  0  0  0  0
  -26.4283  -37.3794   23.9416 N   0  0  0  0  0  0
  -24.6656  -31.0799   22.0979 N   0  0  0  0  0  0
  -23.4174  -28.8211   23.3050 O   0  0  0  0  0  0
  -28.3881  -26.7008   20.1051 O   0  0  0  0  0  0
  -26.5618  -34.8941   22.4703 O   0  0  0  0  0  0
  -23.5319  -32.1414   23.7495 O   0  0  0  0  0  0
  -29.3248  -18.7147   21.4379 C   0  0  0  0  0  0
  -29.3965  -19.7798   20.4797 C   0  0  0  0  0  0
  -29.4886  -19.3026   19.1915 C   0  0  0  0  0  0
  -29.3476  -17.4556   20.8825 C   0  0  0  0  0  0
  -32.3965  -15.0214   23.0493 C   0  0  0  0  0  0
  -29.5846  -20.0138   17.9522 C   0  0  0  0  0  0
  -29.7180  -21.3323   17.7240 C   0  0  0  0  0  0
  -31.2818  -15.6736   22.6638 C   0  0  0  0  0  0
  -29.7830  -21.9520   16.3452 C   0  0  0  0  0  0
  -29.1608  -16.1263   21.5681 C   0  0  0  0  0  0
  -28.4280  -24.2323   20.4150 C   0  0  0  0  0  0
  -28.1152  -23.1110   21.4334 C   0  0  0  0  0  0
  -28.3704  -25.6343   21.0633 C   0  0  0  0  0  0
  -28.0754  -21.6751   20.8658 C   0  0  0  0  0  0
  -30.3613  -15.2666   21.6757 N   0  0  0  0  0  0
  -29.3784  -21.0997   20.7954 O   0  0  0  0  0  0
  -29.4828  -17.5563   19.1477 S   0  0  0  0  0  0
  -31.4598  -12.4307   19.1113 H   0  0  0  0  0  0
  -30.3267  -11.3127   19.8060 H   0  0  0  0  0  0
  -29.7350  -11.8075   17.4186 H   0  0  0  0  0  0
  -29.6416  -13.5136   17.7730 H   0  0  0  0  0  0
  -27.8387  -11.2990   18.8168 H   0  0  0  0  0  0
  -27.3567  -12.6216   17.7896 H   0  0  0  0  0  0
  -27.6962  -14.2338   19.5468 H   0  0  0  0  0  0
  -28.6842  -11.9332   21.3200 H   0  0  0  0  0  0
  -28.4482  -13.5436   21.8906 H   0  0  0  0  0  0
  -25.2743   -9.5705   22.4760 H   0  0  0  0  0  0
  -24.0002   -7.4643   22.7477 H   0  0  0  0  0  0
  -21.0840   -8.8756   19.8941 H   0  0  0  0  0  0
  -22.3673  -10.9672   19.6160 H   0  0  0  0  0  0
  -21.2012   -7.6152   23.9723 H   0  0  0  0  0  0
  -21.1459   -6.0520   25.9079 H   0  0  0  0  0  0
  -22.0610   -2.7617   23.2844 H   0  0  0  0  0  0
  -22.4091  -11.9890   22.4770 H   0  0  0  0  0  0
  -21.1109  -13.1273   22.2597 H   0  0  0  0  0  0
  -24.6631  -15.8393   20.5092 H   0  0  0  0  0  0
  -26.2785  -15.6242   20.0670 H   0  0  0  0  0  0
  -26.7110  -32.5549   23.1177 H   0  0  0  0  0  0
  -24.9960  -33.9774   25.0410 H   0  0  0  0  0  0
  -22.6886  -31.3059   21.4086 H   0  0  0  0  0  0
  -23.3761  -35.9631   23.3261 H   0  0  0  0  0  0
  -24.3572  -36.8993   22.2068 H   0  0  0  0  0  0
  -23.7223  -37.6498   23.6713 H   0  0  0  0  0  0
  -26.0299  -31.6038   20.5842 H   0  0  0  0  0  0
  -26.8177  -30.9000   21.9699 H   0  0  0  0  0  0
  -28.1052  -29.1275   21.1494 H   0  0  0  0  0  0
  -26.0821  -25.9599   19.0456 H   0  0  0  0  0  0
  -23.9818  -27.2726   19.0546 H   0  0  0  0  0  0
  -23.7109  -30.5898   19.4019 H   0  0  0  0  0  0
  -22.7344  -29.2323   19.8763 H   0  0  0  0  0  0
  -25.1266  -36.1962   25.0833 H   0  0  0  0  0  0
  -20.9946  -28.3240   24.1441 H   0  0  0  0  0  0
  -20.5643  -26.2268   23.3597 H   0  0  0  0  0  0
  -21.6617  -26.7432   22.1218 H   0  0  0  0  0  0
  -19.6878  -25.6308   21.1225 H   0  0  0  0  0  0
  -19.6670  -27.3209   20.6742 H   0  0  0  0  0  0
  -17.4174  -26.6703   21.4024 H   0  0  0  0  0  0
  -18.0295  -26.0061   22.9001 H   0  0  0  0  0  0
  -19.7936  -30.7267   24.2260 H   0  0  0  0  0  0
  -17.5022  -31.6267   24.5180 H   0  0  0  0  0  0
  -15.5347  -30.2995   23.7665 H   0  0  0  0  0  0
  -15.8659  -28.0838   22.7045 H   0  0  0  0  0  0
  -24.5825  -30.7146   25.7801 H   0  0  0  0  0  0
  -24.8988  -32.2888   26.5006 H   0  0  0  0  0  0
  -25.8050  -30.8799   27.0187 H   0  0  0  0  0  0
  -26.2800  -29.6800   24.1190 H   0  0  0  0  0  0
  -27.4090  -29.7308   25.4541 H   0  0  0  0  0  0
  -27.8615  -30.4379   23.9200 H   0  0  0  0  0  0
  -27.2676  -33.3667   26.1973 H   0  0  0  0  0  0
  -28.3859  -32.6773   25.0286 H   0  0  0  0  0  0
  -28.0649  -31.8470   26.5427 H   0  0  0  0  0  0
  -28.2586  -38.0105   24.7513 H   0  0  0  0  0  0
  -28.1069  -36.2640   24.6287 H   0  0  0  0  0  0
  -27.2293  -37.1454   25.8867 H   0  0  0  0  0  0
  -20.9293  -29.8744   21.6939 H   0  0  0  0  0  0
  -26.0166  -38.2871   24.1428 H   0  0  0  0  0  0
  -29.2267  -18.9141   22.4957 H   0  0  0  0  0  0
  -33.0270  -15.4341   23.8239 H   0  0  0  0  0  0
  -32.7065  -14.0803   22.6165 H   0  0  0  0  0  0
  -29.5276  -19.3779   17.0792 H   0  0  0  0  0  0
  -29.7843  -22.0257   18.5499 H   0  0  0  0  0  0
  -31.0181  -16.6116   23.1336 H   0  0  0  0  0  0
  -29.7256  -21.1927   15.5642 H   0  0  0  0  0  0
  -30.7148  -22.5038   16.2202 H   0  0  0  0  0  0
  -28.9546  -22.6473   16.2072 H   0  0  0  0  0  0
  -28.3552  -15.6110   21.0586 H   0  0  0  0  0  0
  -28.7669  -16.2938   22.5719 H   0  0  0  0  0  0
  -27.7091  -24.1798   19.5971 H   0  0  0  0  0  0
  -29.4119  -24.0741   19.9725 H   0  0  0  0  0  0
  -27.1329  -23.3211   21.8585 H   0  0  0  0  0  0
  -28.8111  -23.1559   22.2721 H   0  0  0  0  0  0
  -29.2286  -25.7615   21.7236 H   0  0  0  0  0  0
  -27.4937  -25.7023   21.7125 H   0  0  0  0  0  0
  -27.5960  -21.6634   19.8851 H   0  0  0  0  0  0
  -27.4556  -21.0601   21.5209 H   0  0  0  0  0  0
  1 25  1  0  0  0
  1 30  2  0  0  0
  1 85  1  0  0  0
  2  3  1  0  0  0
  2 25  1  0  0  0
  2 88  1  0  0  0
  2 89  1  0  0  0
  3  4  1  0  0  0
  3 90  1  0  0  0
  3 91  1  0  0  0
  4  5  1  0  0  0
  4 92  1  0  0  0
  4 93  1  0  0  0
  5  6  1  0  0  0
  5 26  1  0  0  0
  5 94  1  0  0  0
  6 25  1  0  0  0
  6 95  1  0  0  0
  6 96  1  0  0  0
  7  8  2  0  0  0
  7 26  1  0  0  0
  7 29  1  0  0  0
  8  9  1  0  0  0
  8 22  1  0  0  0
  9 10  1  0  0  0
  9 27  2  0  0  0
 10 11  2  0  0  0
 10 15  1  0  0  0
 11 12  1  0  0  0
 11 97  1  0  0  0
 12 13  2  0  0  0
 12 98  1  0  0  0
 13 14  1  0  0  0
 13 31  1  0  0  0
 14 15  2  0  0  0
 14 99  1  0  0  0
 15100  1  0  0  0
 16 17  2  0  0  0
 16 21  1  0  0  0
 16 31  1  0  0  0
 17 18  1  0  0  0
 17101  1  0  0  0
 18 19  2  0  0  0
 18102  1  0  0  0
 19 20  1  0  0  0
 19 24  1  0  0  0
 20 21  2  0  0  0
 20103  1  0  0  0
 21 23  1  0  0  0
 22 28  1  0  0  0
 22 32  2  0  0  0
 26 27  1  0  0  0
 28104  1  0  0  0
 28105  1  0  0  0
 29106  1  0  0  0
 29107  1  0  0  0
 33 34  1  0  0  0
 33 66  1  0  0  0
 33 70  2  0  0  0
 34 36  1  0  0  0
 34 59  1  0  0  0
 34108  1  0  0  0
 35 44  2  0  0  0
 35 45  1  0  0  0
 35 68  1  0  0  0
 36 56  1  0  0  0
 36109  1  0  0  0
 37 39  1  0  0  0
 37 47  1  0  0  0
 37 66  1  0  0  0
 37110  1  0  0  0
 38 43  2  0  0  0
 38 46  1  0  0  0
 38 47  1  0  0  0
 39 64  1  0  0  0
 39 67  2  0  0  0
 40 52  1  0  0  0
 40 53  2  0  0  0
 40 58  1  0  0  0
 41111  1  0  0  0
 41112  1  0  0  0
 41113  1  0  0  0
 41 48  1  0  0  0
 42 43  1  0  0  0
 42 66  1  0  0  0
 42114  1  0  0  0
 42115  1  0  0  0
 43 44  1  0  0  0
 44116  1  0  0  0
 45 46  2  0  0  0
 45117  1  0  0  0
 46118  1  0  0  0
 47119  1  0  0  0
 47120  1  0  0  0
 48 56  1  0  0  0
 48 65  1  0  0  0
 48121  1  0  0  0
 49 50  1  0  0  0
 49 53  1  0  0  0
 49 64  1  0  0  0
 49122  1  0  0  0
 50 51  1  0  0  0
 50123  1  0  0  0
 50124  1  0  0  0
 51 52  1  0  0  0
 51125  1  0  0  0
 51126  1  0  0  0
 52127  1  0  0  0
 52128  1  0  0  0
 53 54  1  0  0  0
 54 55  2  0  0  0
 54129  1  0  0  0
 55 57  1  0  0  0
 55130  1  0  0  0
 56 69  2  0  0  0
 57 58  2  0  0  0
 57131  1  0  0  0
 58132  1  0  0  0
 59 60  1  0  0  0
 59 61  1  0  0  0
 59 62  1  0  0  0
 60133  1  0  0  0
 60134  1  0  0  0
 60135  1  0  0  0
 61136  1  0  0  0
 61137  1  0  0  0
 61138  1  0  0  0
 62139  1  0  0  0
 62140  1  0  0  0
 62141  1  0  0  0
 63 65  1  0  0  0
 63142  1  0  0  0
 63143  1  0  0  0
 63144  1  0  0  0
 64145  1  0  0  0
 65146  1  0  0  0
 68 83  1  0  0  0
 71 72  1  0  0  0
 71 74  2  0  0  0
 71147  1  0  0  0
 72 73  2  0  0  0
 72 86  1  0  0  0
 73 76  1  0  0  0
 73 87  1  0  0  0
 74 80  1  0  0  0
 74 87  1  0  0  0
 75 78  2  0  0  0
 75148  1  0  0  0
 75149  1  0  0  0
 76 77  2  0  0  0
 76150  1  0  0  0
 77 79  1  0  0  0
 77151  1  0  0  0
 78 85  1  0  0  0
 78152  1  0  0  0
 79153  1  0  0  0
 79154  1  0  0  0
 79155  1  0  0  0
 80 85  1  0  0  0
 80156  1  0  0  0
 80157  1  0  0  0
 81 82  1  0  0  0
 81 83  1  0  0  0
 81158  1  0  0  0
 81159  1  0  0  0
 82 84  1  0  0  0
 82160  1  0  0  0
 82161  1  0  0  0
 83162  1  0  0  0
 83163  1  0  0  0
 84 86  1  0  0  0
 84164  1  0  0  0
 84165  1  0  0  0
M  ISO  4   1 100  68 101  83 101  85 100
M  END
> <chiral flag>
0

> <version>
0

> <s_m_source_file>
/data/baiqing/PycharmProjects/Reinvent-master-3.2/result/LINK_invent/BTK/process_docking_weight1_custom_product_contain_oxygen_bond_distance_aromatic_linkinvent_7_9_3/rearranged_h_0114.sdf

> <i_m_source_file_index>
46

> <r_mmod_Potential_Energy-OPLS-2005>
117.812652587891

> <r_mmod_Stretch_Energy-OPLS-2005>
37.3228492736816

> <r_mmod_Bend_Energy-OPLS-2005>
103.649185180664

> <r_mmod_Torsional_Energy-OPLS-2005>
311.694366455078

> <r_mmod_Improper_Torsional_Energy-OPLS-2005>
4.87362861633301

> <r_mmod_Van_der_Waal_Energy-OPLS-2005>
124.153541564941

> <r_mmod_Electrostatic_Energy-OPLS-2005>
-284.221008300781

> <r_mmod_Solvation_Energy-OPLS-2005>
-189.674560546875

> <b_mmod_Minimization_Converged-OPLS-2005>
0

> <r_mmod_RMS_Derivative-OPLS-2005>
1.32848358154297

$$$$
46
                    3D
 Structure written by MMmdl.
160168  0  0  1  0            999 V2000
  -27.7534  -17.4150   20.4908 C   0  0  0  0  0  0
  -29.5034  -14.7824   19.6382 C   0  0  0  0  0  0
  -29.3374  -13.4682   18.6419 C   0  0  0  0  0  0
  -28.2345  -12.5101   19.0711 C   0  0  0  0  0  0
  -27.3370  -13.4334   19.8739 C   0  0  2  0  0  0
  -27.9337  -14.3472   20.9946 C   0  0  0  0  0  0
  -25.0621  -13.8137   20.5591 C   0  0  0  0  0  0
  -24.0577  -13.0067   20.9427 C   0  0  0  0  0  0
  -24.5718  -11.6711   20.8908 C   0  0  0  0  0  0
  -23.8752  -10.4056   21.0498 C   0  0  0  0  0  0
  -24.3455   -9.4050   21.9241 C   0  0  0  0  0  0
  -23.6197   -8.2060   22.0763 C   0  0  0  0  0  0
  -22.4193   -8.0103   21.3533 C   0  0  0  0  0  0
  -21.9761   -9.0018   20.4619 C   0  0  0  0  0  0
  -22.7004  -10.1906   20.3057 C   0  0  0  0  0  0
  -21.6801   -6.0636   22.5293 C   0  0  0  0  0  0
  -21.3974   -6.5578   23.8213 C   0  0  0  0  0  0
  -21.3660   -5.6757   24.9192 C   0  0  0  0  0  0
  -21.6052   -4.3018   24.7257 C   0  0  0  0  0  0
  -21.8823   -3.8081   23.4387 C   0  0  0  0  0  0
  -21.9180   -4.6879   22.3429 C   0  0  0  0  0  0
  -22.6733  -13.4775   21.2153 C   0  0  0  0  0  0
  -22.1658   -4.2065   21.1008 F   0  0  0  0  0  0
  -21.5653   -3.4521   25.7782 F   0  0  0  0  0  0
  -28.2345  -15.7185   20.3542 N   0  0  0  0  0  0
  -26.1074  -12.9588   20.3197 N   0  0  0  0  0  0
  -25.8597  -11.6605   20.5696 N   0  0  0  0  0  0
  -21.9610  -12.7777   22.0836 N   0  0  0  0  0  0
  -25.1689  -15.1920   20.3661 N   0  0  0  0  0  0
  -29.0869  -17.4289   20.3103 O   0  0  0  0  0  0
  -21.6568   -6.8720   21.4233 O   0  0  0  0  0  0
  -22.2466  -14.5129   20.7037 O   0  0  0  0  0  0
  -24.6246  -31.8984   23.1986 C   0  0  0  0  0  0
  -25.9153  -32.4966   23.8353 C   0  0  1  0  0  0
  -27.2228  -27.4573   20.0530 C   0  0  0  0  0  0
  -25.6001  -33.8717   24.2353 N   0  0  0  0  0  0
  -23.4405  -30.3955   21.6363 C   0  0  2  0  0  0
  -24.8453  -28.9841   20.1033 C   0  0  0  0  0  0
  -23.1494  -29.2424   22.6297 C   0  0  0  0  0  0
  -18.6559  -26.3972   23.4283 C   0  0  0  0  0  0
  -24.1487  -36.7353   23.2621 C   0  0  0  0  0  0
  -25.9428  -30.8501   21.3583 C   0  0  0  0  0  0
  -26.0102  -29.4877   20.6951 C   0  0  0  0  0  0
  -27.2021  -28.7289   20.6702 C   0  0  0  0  0  0
  -26.0362  -26.9863   19.4418 C   0  0  0  0  0  0
  -24.8511  -27.7328   19.4785 C   0  0  0  0  0  0
  -23.5993  -29.8262   20.2052 C   0  0  0  0  0  0
  -25.4113  -36.3165   24.0324 C   0  0  1  0  0  0
  -21.4835  -27.7154   23.6720 C   0  0  2  0  0  0
  -21.5771  -26.2544   23.5049 C   0  0  0  0  0  0
  -20.3849  -25.1773   23.4836 C   0  0  0  0  0  0
  -18.9593  -25.1292   23.0567 C   0  0  0  0  0  0
  -20.0650  -27.8409   23.8109 C   0  0  0  0  0  0
  -20.0004  -29.4022   22.8398 C   0  0  0  0  0  0
  -18.8811  -29.5929   21.5223 C   0  0  0  0  0  0
  -25.9066  -34.9553   23.5122 C   0  0  0  0  0  0
  -17.6361  -28.3648   21.0934 C   0  0  0  0  0  0
  -17.4481  -26.7820   21.9940 C   0  0  0  0  0  0
  -26.4531  -31.6671   25.0685 C   0  0  0  0  0  0
  -25.3761  -31.3681   26.1377 C   0  0  0  0  0  0
  -27.0510  -30.3177   24.6057 C   0  0  0  0  0  0
  -27.6053  -32.4383   25.7567 C   0  0  0  0  0  0
  -27.5588  -37.1838   24.8455 C   0  0  0  0  0  0
  -22.1184  -28.4439   22.5014 N   0  0  0  0  0  0
  -26.4288  -37.3856   23.9426 N   0  0  0  0  0  0
  -24.6774  -31.1095   22.0868 N   0  0  0  0  0  0
  -23.8813  -29.0022   23.5744 O   0  0  0  0  0  0
  -28.4059  -26.7500   20.0054 O   0  0  0  0  0  0
  -26.5585  -34.8988   22.4662 O   0  0  0  0  0  0
  -23.5423  -32.1602   23.7427 O   0  0  0  0  0  0
  -22.3001  -24.9927   19.8793 C   0  0  0  0  0  0
  -23.3531  -24.0380   19.2772 C   0  0  0  0  0  0
  -22.6457  -23.2983   21.4362 C   0  0  0  0  0  0
  -21.4975  -25.0721   21.1407 C   0  0  0  0  0  0
  -24.0876  -21.8435   20.8380 C   0  0  0  0  0  0
  -24.0913  -22.7353   19.6434 C   0  0  0  0  0  0
  -19.7405  -27.2032   21.6485 C   0  0  0  0  0  0
  -18.0228  -28.4796   23.3012 C   0  0  0  0  0  0
  -27.8065  -24.4898   19.1948 C   0  0  0  0  0  0
  -26.7843  -23.6334   19.3739 C   0  0  0  0  0  0
  -25.6664  -19.5329   20.8802 C   0  0  0  0  0  0
  -16.9869  -29.6662   23.4290 C   0  0  0  0  0  0
  -28.3750  -25.3491   20.3104 C   0  0  0  0  0  0
  -26.0823  -22.8670   18.2637 C   0  0  0  0  0  0
  -24.9530  -18.8976   21.7108 N   0  0  0  0  0  0
  -24.8963  -22.1824   18.6723 O   0  0  0  0  0  0
  -30.0256  -15.5005   19.0048 H   0  0  0  0  0  0
  -30.2746  -14.5668   20.3832 H   0  0  0  0  0  0
  -30.2844  -12.9395   18.5383 H   0  0  0  0  0  0
  -29.0966  -13.8323   17.6421 H   0  0  0  0  0  0
  -28.6300  -11.7188   19.7083 H   0  0  0  0  0  0
  -27.7222  -12.0506   18.2237 H   0  0  0  0  0  0
  -27.0181  -14.1021   19.0687 H   0  0  0  0  0  0
  -28.7205  -13.8583   21.5786 H   0  0  0  0  0  0
  -27.2159  -14.5624   21.7859 H   0  0  0  0  0  0
  -25.2585   -9.5606   22.4818 H   0  0  0  0  0  0
  -23.9928   -7.4453   22.7465 H   0  0  0  0  0  0
  -21.0713   -8.8478   19.8905 H   0  0  0  0  0  0
  -22.3459  -10.9449   19.6170 H   0  0  0  0  0  0
  -21.1938   -7.6084   23.9690 H   0  0  0  0  0  0
  -21.1499   -6.0497   25.9095 H   0  0  0  0  0  0
  -22.0607   -2.7540   23.2917 H   0  0  0  0  0  0
  -22.3411  -11.9475   22.5135 H   0  0  0  0  0  0
  -21.0252  -13.0725   22.3215 H   0  0  0  0  0  0
  -24.3774  -15.8213   20.4562 H   0  0  0  0  0  0
  -25.9740  -15.6092   19.9211 H   0  0  0  0  0  0
  -26.7270  -32.5660   23.1151 H   0  0  0  0  0  0
  -25.0213  -33.9864   25.0541 H   0  0  0  0  0  0
  -22.5883  -31.0779   21.6420 H   0  0  0  0  0  0
  -23.3760  -35.9677   23.3289 H   0  0  0  0  0  0
  -24.3563  -36.8977   22.2033 H   0  0  0  0  0  0
  -23.7226  -37.6550   23.6641 H   0  0  0  0  0  0
  -26.0780  -31.6235   20.6006 H   0  0  0  0  0  0
  -26.8230  -30.8829   21.9886 H   0  0  0  0  0  0
  -28.1064  -29.1139   21.1208 H   0  0  0  0  0  0
  -25.9946  -26.0693   18.8836 H   0  0  0  0  0  0
  -23.9562  -27.3536   19.0067 H   0  0  0  0  0  0
  -23.6794  -30.6450   19.4886 H   0  0  0  0  0  0
  -22.7223  -29.2492   19.9066 H   0  0  0  0  0  0
  -25.1285  -36.2020   25.0813 H   0  0  0  0  0  0
  -21.9161  -28.0303   24.6239 H   0  0  0  0  0  0
  -22.0236  -25.9884   24.4651 H   0  0  0  0  0  0
  -22.4952  -26.0156   22.9707 H   0  0  0  0  0  0
  -20.8007  -24.1917   23.2951 H   0  0  0  0  0  0
  -20.2455  -25.0541   24.5658 H   0  0  0  0  0  0
  -18.8585  -24.8714   22.0019 H   0  0  0  0  0  0
  -18.3851  -24.4017   23.6319 H   0  0  0  0  0  0
  -20.6675  -30.2315   23.0386 H   0  0  0  0  0  0
  -18.9070  -30.5101   20.9533 H   0  0  0  0  0  0
  -16.9817  -28.5568   20.2556 H   0  0  0  0  0  0
  -16.7683  -26.0275   21.6234 H   0  0  0  0  0  0
  -24.5962  -30.7062   25.7600 H   0  0  0  0  0  0
  -24.8931  -32.2809   26.4879 H   0  0  0  0  0  0
  -25.8073  -30.8757   27.0107 H   0  0  0  0  0  0
  -26.3206  -29.6926   24.0953 H   0  0  0  0  0  0
  -27.4216  -29.7362   25.4510 H   0  0  0  0  0  0
  -27.8964  -30.4606   23.9322 H   0  0  0  0  0  0
  -27.2622  -33.3619   26.2246 H   0  0  0  0  0  0
  -28.3880  -32.7065   25.0457 H   0  0  0  0  0  0
  -28.0739  -31.8453   26.5437 H   0  0  0  0  0  0
  -28.2581  -38.0161   24.7576 H   0  0  0  0  0  0
  -28.1111  -36.2704   24.6203 H   0  0  0  0  0  0
  -27.2309  -37.1397   25.8851 H   0  0  0  0  0  0
  -21.5200  -28.5645   21.6958 H   0  0  0  0  0  0
  -26.0177  -38.2924   24.1483 H   0  0  0  0  0  0
  -22.0758  -25.8163   19.2157 H   0  0  0  0  0  0
  -23.6473  -24.3883   18.2977 H   0  0  0  0  0  0
  -22.3414  -22.9442   22.4059 H   0  0  0  0  0  0
  -19.8155  -27.6332   20.6582 H   0  0  0  0  0  0
  -17.8470  -28.2073   24.3524 H   0  0  0  0  0  0
  -28.2371  -24.6216   18.2134 H   0  0  0  0  0  0
  -26.4058  -23.4971   20.3753 H   0  0  0  0  0  0
  -16.6963  -30.1961   22.5233 H   0  0  0  0  0  0
  -17.3620  -30.4086   24.1355 H   0  0  0  0  0  0
  -16.0617  -29.2718   23.8524 H   0  0  0  0  0  0
  -29.3996  -25.0262   20.4943 H   0  0  0  0  0  0
  -27.8226  -25.1877   21.2379 H   0  0  0  0  0  0
  -26.7670  -22.0966   17.9064 H   0  0  0  0  0  0
  -25.8738  -23.5213   17.4166 H   0  0  0  0  0  0
  -24.1660  -19.4542   22.0223 H   0  0  0  0  0  0
  1 25  1  0  0  0
  1 30  2  0  0  0
  1 81  1  0  0  0
  2  3  1  0  0  0
  2 25  1  0  0  0
  2 87  1  0  0  0
  2 88  1  0  0  0
  3  4  1  0  0  0
  3 89  1  0  0  0
  3 90  1  0  0  0
  4  5  1  0  0  0
  4 91  1  0  0  0
  4 92  1  0  0  0
  5  6  1  0  0  0
  5 26  1  0  0  0
  5 93  1  0  0  0
  6 25  1  0  0  0
  6 94  1  0  0  0
  6 95  1  0  0  0
  7  8  2  0  0  0
  7 26  1  0  0  0
  7 29  1  0  0  0
  8  9  1  0  0  0
  8 22  1  0  0  0
  9 10  1  0  0  0
  9 27  2  0  0  0
 10 11  2  0  0  0
 10 15  1  0  0  0
 11 12  1  0  0  0
 11 96  1  0  0  0
 12 13  2  0  0  0
 12 97  1  0  0  0
 13 14  1  0  0  0
 13 31  1  0  0  0
 14 15  2  0  0  0
 14 98  1  0  0  0
 15 99  1  0  0  0
 16 17  2  0  0  0
 16 21  1  0  0  0
 16 31  1  0  0  0
 17 18  1  0  0  0
 17100  1  0  0  0
 18 19  2  0  0  0
 18101  1  0  0  0
 19 20  1  0  0  0
 19 24  1  0  0  0
 20 21  2  0  0  0
 20102  1  0  0  0
 21 23  1  0  0  0
 22 28  1  0  0  0
 22 32  2  0  0  0
 26 27  1  0  0  0
 28103  1  0  0  0
 28104  1  0  0  0
 29105  1  0  0  0
 29106  1  0  0  0
 33 34  1  0  0  0
 33 66  1  0  0  0
 33 70  2  0  0  0
 34 36  1  0  0  0
 34 59  1  0  0  0
 34107  1  0  0  0
 35 44  2  0  0  0
 35 45  1  0  0  0
 35 68  1  0  0  0
 36 56  1  0  0  0
 36108  1  0  0  0
 37 39  1  0  0  0
 37 47  1  0  0  0
 37 66  1  0  0  0
 37109  1  0  0  0
 38 43  2  0  0  0
 38 46  1  0  0  0
 38 47  1  0  0  0
 39 64  1  0  0  0
 39 67  2  0  0  0
 40 52  1  0  0  0
 40 53  2  0  0  0
 40 58  1  0  0  0
 41110  1  0  0  0
 41111  1  0  0  0
 41112  1  0  0  0
 41 48  1  0  0  0
 42 43  1  0  0  0
 42 66  1  0  0  0
 42113  1  0  0  0
 42114  1  0  0  0
 43 44  1  0  0  0
 44115  1  0  0  0
 45 46  2  0  0  0
 45116  1  0  0  0
 46117  1  0  0  0
 47118  1  0  0  0
 47119  1  0  0  0
 48 56  1  0  0  0
 48 65  1  0  0  0
 48120  1  0  0  0
 49 50  1  0  0  0
 49 53  1  0  0  0
 49 64  1  0  0  0
 49121  1  0  0  0
 50 51  1  0  0  0
 50122  1  0  0  0
 50123  1  0  0  0
 51 52  1  0  0  0
 51124  1  0  0  0
 51125  1  0  0  0
 52126  1  0  0  0
 52127  1  0  0  0
 53 54  1  0  0  0
 54 55  2  0  0  0
 54128  1  0  0  0
 55 57  1  0  0  0
 55129  1  0  0  0
 56 69  2  0  0  0
 57 58  2  0  0  0
 57130  1  0  0  0
 58131  1  0  0  0
 59 60  1  0  0  0
 59 61  1  0  0  0
 59 62  1  0  0  0
 60132  1  0  0  0
 60133  1  0  0  0
 60134  1  0  0  0
 61135  1  0  0  0
 61136  1  0  0  0
 61137  1  0  0  0
 62138  1  0  0  0
 62139  1  0  0  0
 62140  1  0  0  0
 63 65  1  0  0  0
 63141  1  0  0  0
 63142  1  0  0  0
 63143  1  0  0  0
 64144  1  0  0  0
 65145  1  0  0  0
 68 83  1  0  0  0
 71 72  2  0  0  0
 71 74  1  0  0  0
 71146  1  0  0  0
 72 76  1  0  0  0
 72147  1  0  0  0
 73 74  2  0  0  0
 73 75  1  0  0  0
 73148  1  0  0  0
 74 77  1  0  0  0
 75 76  2  0  0  0
 75 81  1  0  0  0
 76 86  1  0  0  0
 77 78  2  0  0  0
 77149  1  0  0  0
 78 82  1  0  0  0
 78150  1  0  0  0
 79 80  2  0  0  0
 79 83  1  0  0  0
 79151  1  0  0  0
 80 84  1  0  0  0
 80152  1  0  0  0
 81 85  2  0  0  0
 82153  1  0  0  0
 82154  1  0  0  0
 82155  1  0  0  0
 83156  1  0  0  0
 83157  1  0  0  0
 84 86  1  0  0  0
 84158  1  0  0  0
 84159  1  0  0  0
 85160  1  0  0  0
M  ISO  4   1 100  68 101  81 100  83 101
M  END
> <chiral flag>
0

> <version>
0

> <s_m_source_file>
/data/baiqing/PycharmProjects/Reinvent-master-3.2/result/LINK_invent/BTK/process_docking_weight1_custom_product_contain_oxygen_bond_distance_aromatic_linkinvent_7_9_3/rearranged_h_0114.sdf

> <i_m_source_file_index>
47

> <r_mmod_Potential_Energy-OPLS-2005>
33149.19140625

> <r_mmod_Stretch_Energy-OPLS-2005>
17085.341796875

> <r_mmod_Bend_Energy-OPLS-2005>
2256.59399414062

> <r_mmod_Torsional_Energy-OPLS-2005>
393.326751708984

> <r_mmod_Improper_Torsional_Energy-OPLS-2005>
40.4198951721191

> <r_mmod_Van_der_Waal_Energy-OPLS-2005>
3406.1357421875

> <r_mmod_Electrostatic_Energy-OPLS-2005>
-240.484008789062

> <r_mmod_Solvation_Energy-OPLS-2005>
-196.21989440918

> <b_mmod_Minimization_Converged-OPLS-2005>
0

> <r_mmod_RMS_Derivative-OPLS-2005>
9.63090515136719

$$$$
47
                    3D
 Structure written by MMmdl.
164173  0  0  1  0            999 V2000
  -30.5882  -14.7315   20.4597 C   0  0  0  0  0  0
  -30.4470  -12.4468   19.4579 C   0  0  0  0  0  0
  -29.5120  -12.5113   18.2281 C   0  0  0  0  0  0
  -28.0378  -12.3296   18.6436 C   0  0  0  0  0  0
  -27.6454  -13.2155   19.8554 C   0  0  2  0  0  0
  -28.6968  -13.1251   20.9843 C   0  0  0  0  0  0
  -25.2498  -13.8073   20.5703 C   0  0  0  0  0  0
  -24.1789  -13.0353   20.9231 C   0  0  0  0  0  0
  -24.6387  -11.6844   20.8765 C   0  0  0  0  0  0
  -23.9063  -10.4240   21.0414 C   0  0  0  0  0  0
  -24.3613   -9.4162   21.9192 C   0  0  0  0  0  0
  -23.6277   -8.2210   22.0761 C   0  0  0  0  0  0
  -22.4260   -8.0262   21.3548 C   0  0  0  0  0  0
  -21.9896   -9.0236   20.4649 C   0  0  0  0  0  0
  -22.7238  -10.2104   20.3058 C   0  0  0  0  0  0
  -21.6844   -6.0722   22.5280 C   0  0  0  0  0  0
  -21.4006   -6.5629   23.8213 C   0  0  0  0  0  0
  -21.3653   -5.6781   24.9174 C   0  0  0  0  0  0
  -21.6044   -4.3046   24.7227 C   0  0  0  0  0  0
  -21.8821   -3.8135   23.4351 C   0  0  0  0  0  0
  -21.9190   -4.6949   22.3405 C   0  0  0  0  0  0
  -22.7816  -13.5172   21.1875 C   0  0  0  0  0  0
  -22.1661   -4.2135   21.0984 F   0  0  0  0  0  0
  -21.5626   -3.4533   25.7743 F   0  0  0  0  0  0
  -30.0007  -13.4883   20.4067 N   0  0  0  0  0  0
  -26.2949  -12.9293   20.3302 N   0  0  0  0  0  0
  -25.9317  -11.6452   20.5762 N   0  0  0  0  0  0
  -22.0446  -12.8187   22.0435 N   0  0  0  0  0  0
  -25.4082  -15.1771   20.4092 N   0  0  0  0  0  0
  -31.7742  -14.8873   20.1564 O   0  0  0  0  0  0
  -21.6623   -6.8863   21.4243 O   0  0  0  0  0  0
  -22.3520  -14.5482   20.6711 O   0  0  0  0  0  0
  -24.6289  -31.8563   23.1999 C   0  0  0  0  0  0
  -25.9122  -32.4760   23.8339 C   0  0  1  0  0  0
  -27.2321  -27.2928   20.1310 C   0  0  0  0  0  0
  -25.5924  -33.8560   24.2267 N   0  0  0  0  0  0
  -23.4260  -30.4783   21.5415 C   0  0  2  0  0  0
  -24.8769  -28.9265   20.1130 C   0  0  0  0  0  0
  -22.7493  -29.4604   22.4909 C   0  0  0  0  0  0
  -18.0293  -28.1385   22.8480 C   0  0  0  0  0  0
  -24.1484  -36.7283   23.2637 C   0  0  0  0  0  0
  -25.9687  -30.7793   21.3754 C   0  0  0  0  0  0
  -26.0461  -29.4024   20.7218 C   0  0  0  0  0  0
  -27.2280  -28.5971   20.7223 C   0  0  0  0  0  0
  -26.0423  -26.8744   19.4963 C   0  0  0  0  0  0
  -24.8776  -27.6674   19.4910 C   0  0  0  0  0  0
  -23.6456  -29.8109   20.1580 C   0  0  0  0  0  0
  -25.4106  -36.3069   24.0332 C   0  0  1  0  0  0
  -20.5896  -28.3693   23.1265 C   0  0  2  0  0  0
  -20.6780  -26.9408   22.5409 C   0  0  0  0  0  0
  -19.5757  -26.6383   21.5208 C   0  0  0  0  0  0
  -18.1939  -26.7928   22.1622 C   0  0  0  0  0  0
  -19.1548  -28.8856   23.2872 C   0  0  0  0  0  0
  -18.9469  -30.1455   23.8896 C   0  0  0  0  0  0
  -17.6468  -30.6581   24.0570 C   0  0  0  0  0  0
  -25.9048  -34.9440   23.5098 C   0  0  0  0  0  0
  -16.5360  -29.9083   23.6330 C   0  0  0  0  0  0
  -16.7280  -28.6502   23.0345 C   0  0  0  0  0  0
  -26.4499  -31.6577   25.0718 C   0  0  0  0  0  0
  -25.3726  -31.3729   26.1443 C   0  0  0  0  0  0
  -27.0339  -30.2994   24.6189 C   0  0  0  0  0  0
  -27.6051  -32.4315   25.7491 C   0  0  0  0  0  0
  -27.5581  -37.1785   24.8455 C   0  0  0  0  0  0
  -21.4202  -29.3037   22.3648 N   0  0  0  0  0  0
  -26.4276  -37.3773   23.9423 N   0  0  0  0  0  0
  -24.6932  -31.0551   22.0961 N   0  0  0  0  0  0
  -23.4197  -28.8149   23.3012 O   0  0  0  0  0  0
  -28.3251  -26.4039   20.1488 O   0  0  0  0  0  0
  -26.5623  -34.8914   22.4670 O   0  0  0  0  0  0
  -23.5445  -32.1370   23.7308 O   0  0  0  0  0  0
  -30.8933  -18.0500   21.0563 C   0  0  0  0  0  0
  -30.8328  -19.4855   21.0567 C   0  0  0  0  0  0
  -29.8430  -17.2708   20.5055 C   0  0  0  0  0  0
  -28.8027  -18.0598   19.9237 C   0  0  0  0  0  0
  -29.7139  -20.1759   20.4984 C   0  0  0  0  0  0
  -28.8338  -23.9189   20.3551 C   0  0  0  0  0  0
  -28.6031  -22.5482   20.8978 C   0  0  0  0  0  0
  -26.2758  -20.8891   23.2809 C   0  0  0  0  0  0
  -28.1037  -25.0749   20.5981 C   0  0  0  0  0  0
  -27.6022  -22.2944   21.7751 C   0  0  0  0  0  0
  -27.3310  -21.0465   22.4672 C   0  0  0  0  0  0
  -30.0673  -23.8340   19.4903 C   0  0  0  0  0  0
  -30.4979  -22.3320   19.5387 C   0  0  0  0  0  0
  -31.9678  -20.2533   21.7151 C   0  0  0  0  0  0
  -27.6200  -17.4194   19.2328 C   0  0  0  0  0  0
  -28.7472  -19.4273   19.9189 N   0  0  0  0  0  0
  -29.5895  -21.6231   20.4476 N   0  0  0  0  0  0
  -29.7240  -15.7961   20.6268 N   0  0  0  0  0  0
  -31.4839  -12.5924   19.1505 H   0  0  0  0  0  0
  -30.4062  -11.4622   19.9265 H   0  0  0  0  0  0
  -29.7916  -11.7480   17.5009 H   0  0  0  0  0  0
  -29.6342  -13.4720   17.7246 H   0  0  0  0  0  0
  -27.8941  -11.2780   18.8956 H   0  0  0  0  0  0
  -27.3795  -12.5319   17.7979 H   0  0  0  0  0  0
  -27.6400  -14.2382   19.4851 H   0  0  0  0  0  0
  -28.7329  -12.1159   21.3973 H   0  0  0  0  0  0
  -28.4348  -13.7821   21.8152 H   0  0  0  0  0  0
  -25.2761   -9.5628   22.4766 H   0  0  0  0  0  0
  -23.9976   -7.4597   22.7479 H   0  0  0  0  0  0
  -21.0825   -8.8764   19.8956 H   0  0  0  0  0  0
  -22.3713  -10.9648   19.6165 H   0  0  0  0  0  0
  -21.2000   -7.6137   23.9713 H   0  0  0  0  0  0
  -21.1469   -6.0512   25.9076 H   0  0  0  0  0  0
  -22.0606   -2.7594   23.2859 H   0  0  0  0  0  0
  -22.4042  -11.9847   22.4838 H   0  0  0  0  0  0
  -21.1071  -13.1235   22.2634 H   0  0  0  0  0  0
  -24.6220  -15.8122   20.4989 H   0  0  0  0  0  0
  -26.2238  -15.6093   20.0042 H   0  0  0  0  0  0
  -26.7191  -32.5430   23.1086 H   0  0  0  0  0  0
  -25.0060  -33.9693   25.0405 H   0  0  0  0  0  0
  -22.7219  -31.3002   21.3954 H   0  0  0  0  0  0
  -23.3750  -35.9609   23.3275 H   0  0  0  0  0  0
  -24.3590  -36.8930   22.2060 H   0  0  0  0  0  0
  -23.7224  -37.6471   23.6678 H   0  0  0  0  0  0
  -26.1007  -31.5397   20.6043 H   0  0  0  0  0  0
  -26.8483  -30.8326   22.0054 H   0  0  0  0  0  0
  -28.1247  -28.9552   21.2080 H   0  0  0  0  0  0
  -26.0073  -25.9059   19.0180 H   0  0  0  0  0  0
  -23.9825  -27.2964   19.0109 H   0  0  0  0  0  0
  -23.7692  -30.5877   19.4023 H   0  0  0  0  0  0
  -22.7646  -29.2438   19.8519 H   0  0  0  0  0  0
  -25.1278  -36.1911   25.0821 H   0  0  0  0  0  0
  -20.9996  -28.3277   24.1383 H   0  0  0  0  0  0
  -20.5667  -26.2302   23.3613 H   0  0  0  0  0  0
  -21.6650  -26.7424   22.1213 H   0  0  0  0  0  0
  -19.6921  -25.6295   21.1233 H   0  0  0  0  0  0
  -19.6695  -27.3194   20.6740 H   0  0  0  0  0  0
  -17.4204  -26.6664   21.4030 H   0  0  0  0  0  0
  -18.0347  -26.0071   22.9019 H   0  0  0  0  0  0
  -19.7945  -30.7272   24.2261 H   0  0  0  0  0  0
  -17.5020  -31.6256   24.5181 H   0  0  0  0  0  0
  -15.5360  -30.2984   23.7653 H   0  0  0  0  0  0
  -15.8682  -28.0824   22.7053 H   0  0  0  0  0  0
  -24.5897  -30.7082   25.7776 H   0  0  0  0  0  0
  -24.8928  -32.2905   26.4861 H   0  0  0  0  0  0
  -25.8047  -30.8911   27.0224 H   0  0  0  0  0  0
  -26.2917  -29.6740   24.1214 H   0  0  0  0  0  0
  -27.4026  -29.7255   25.4702 H   0  0  0  0  0  0
  -27.8793  -30.4269   23.9421 H   0  0  0  0  0  0
  -27.2653  -33.3616   26.2060 H   0  0  0  0  0  0
  -28.3867  -32.6873   25.0324 H   0  0  0  0  0  0
  -28.0711  -31.8445   26.5416 H   0  0  0  0  0  0
  -28.2561  -38.0120   24.7552 H   0  0  0  0  0  0
  -28.1113  -36.2653   24.6205 H   0  0  0  0  0  0
  -27.2315  -37.1345   25.8861 H   0  0  0  0  0  0
  -20.9385  -29.8742   21.6840 H   0  0  0  0  0  0
  -26.0148  -38.2835   24.1469 H   0  0  0  0  0  0
  -31.7276  -17.5508   21.5279 H   0  0  0  0  0  0
  -26.1015  -19.9495   23.7866 H   0  0  0  0  0  0
  -25.5681  -21.6870   23.4589 H   0  0  0  0  0  0
  -27.2360  -25.0510   21.2416 H   0  0  0  0  0  0
  -26.9441  -23.1092   22.0357 H   0  0  0  0  0  0
  -27.9886  -20.2003   22.3543 H   0  0  0  0  0  0
  -30.8464  -24.4830   19.8914 H   0  0  0  0  0  0
  -29.8440  -24.1557   18.4725 H   0  0  0  0  0  0
  -31.5312  -22.2411   19.8718 H   0  0  0  0  0  0
  -30.4374  -21.8845   18.5456 H   0  0  0  0  0  0
  -32.4547  -19.6521   22.4836 H   0  0  0  0  0  0
  -31.6053  -21.1637   22.1937 H   0  0  0  0  0  0
  -32.7201  -20.5281   20.9759 H   0  0  0  0  0  0
  -27.8568  -16.4291   18.8488 H   0  0  0  0  0  0
  -27.2990  -18.0213   18.3823 H   0  0  0  0  0  0
  -26.7868  -17.3595   19.9291 H   0  0  0  0  0  0
  -28.7770  -15.4718   20.7468 H   0  0  0  0  0  0
  1 25  1  0  0  0
  1 30  2  0  0  0
  1 88  1  0  0  0
  2  3  1  0  0  0
  2 25  1  0  0  0
  2 89  1  0  0  0
  2 90  1  0  0  0
  3  4  1  0  0  0
  3 91  1  0  0  0
  3 92  1  0  0  0
  4  5  1  0  0  0
  4 93  1  0  0  0
  4 94  1  0  0  0
  5  6  1  0  0  0
  5 26  1  0  0  0
  5 95  1  0  0  0
  6 25  1  0  0  0
  6 96  1  0  0  0
  6 97  1  0  0  0
  7  8  2  0  0  0
  7 26  1  0  0  0
  7 29  1  0  0  0
  8  9  1  0  0  0
  8 22  1  0  0  0
  9 10  1  0  0  0
  9 27  2  0  0  0
 10 11  2  0  0  0
 10 15  1  0  0  0
 11 12  1  0  0  0
 11 98  1  0  0  0
 12 13  2  0  0  0
 12 99  1  0  0  0
 13 14  1  0  0  0
 13 31  1  0  0  0
 14 15  2  0  0  0
 14100  1  0  0  0
 15101  1  0  0  0
 16 17  2  0  0  0
 16 21  1  0  0  0
 16 31  1  0  0  0
 17 18  1  0  0  0
 17102  1  0  0  0
 18 19  2  0  0  0
 18103  1  0  0  0
 19 20  1  0  0  0
 19 24  1  0  0  0
 20 21  2  0  0  0
 20104  1  0  0  0
 21 23  1  0  0  0
 22 28  1  0  0  0
 22 32  2  0  0  0
 26 27  1  0  0  0
 28105  1  0  0  0
 28106  1  0  0  0
 29107  1  0  0  0
 29108  1  0  0  0
 33 34  1  0  0  0
 33 66  1  0  0  0
 33 70  2  0  0  0
 34 36  1  0  0  0
 34 59  1  0  0  0
 34109  1  0  0  0
 35 44  2  0  0  0
 35 45  1  0  0  0
 35 68  1  0  0  0
 36 56  1  0  0  0
 36110  1  0  0  0
 37 39  1  0  0  0
 37 47  1  0  0  0
 37 66  1  0  0  0
 37111  1  0  0  0
 38 43  2  0  0  0
 38 46  1  0  0  0
 38 47  1  0  0  0
 39 64  1  0  0  0
 39 67  2  0  0  0
 40 52  1  0  0  0
 40 53  2  0  0  0
 40 58  1  0  0  0
 41112  1  0  0  0
 41113  1  0  0  0
 41114  1  0  0  0
 41 48  1  0  0  0
 42 43  1  0  0  0
 42 66  1  0  0  0
 42115  1  0  0  0
 42116  1  0  0  0
 43 44  1  0  0  0
 44117  1  0  0  0
 45 46  2  0  0  0
 45118  1  0  0  0
 46119  1  0  0  0
 47120  1  0  0  0
 47121  1  0  0  0
 48 56  1  0  0  0
 48 65  1  0  0  0
 48122  1  0  0  0
 49 50  1  0  0  0
 49 53  1  0  0  0
 49 64  1  0  0  0
 49123  1  0  0  0
 50 51  1  0  0  0
 50124  1  0  0  0
 50125  1  0  0  0
 51 52  1  0  0  0
 51126  1  0  0  0
 51127  1  0  0  0
 52128  1  0  0  0
 52129  1  0  0  0
 53 54  1  0  0  0
 54 55  2  0  0  0
 54130  1  0  0  0
 55 57  1  0  0  0
 55131  1  0  0  0
 56 69  2  0  0  0
 57 58  2  0  0  0
 57132  1  0  0  0
 58133  1  0  0  0
 59 60  1  0  0  0
 59 61  1  0  0  0
 59 62  1  0  0  0
 60134  1  0  0  0
 60135  1  0  0  0
 60136  1  0  0  0
 61137  1  0  0  0
 61138  1  0  0  0
 61139  1  0  0  0
 62140  1  0  0  0
 62141  1  0  0  0
 62142  1  0  0  0
 63 65  1  0  0  0
 63143  1  0  0  0
 63144  1  0  0  0
 63145  1  0  0  0
 64146  1  0  0  0
 65147  1  0  0  0
 68 79  1  0  0  0
 71 72  2  0  0  0
 71 73  1  0  0  0
 71148  1  0  0  0
 72 75  1  0  0  0
 72 84  1  0  0  0
 73 74  2  0  0  0
 73 88  1  0  0  0
 74 85  1  0  0  0
 74 86  1  0  0  0
 75 86  2  0  0  0
 75 87  1  0  0  0
 76 77  1  0  0  0
 76 79  2  0  0  0
 76 82  1  0  0  0
 77 80  2  0  0  0
 77 87  1  0  0  0
 78 81  2  0  0  0
 78149  1  0  0  0
 78150  1  0  0  0
 79151  1  0  0  0
 80 81  1  0  0  0
 80152  1  0  0  0
 81153  1  0  0  0
 82 83  1  0  0  0
 82154  1  0  0  0
 82155  1  0  0  0
 83 87  1  0  0  0
 83156  1  0  0  0
 83157  1  0  0  0
 84158  1  0  0  0
 84159  1  0  0  0
 84160  1  0  0  0
 85161  1  0  0  0
 85162  1  0  0  0
 85163  1  0  0  0
 88164  1  0  0  0
M  ISO  4   1 100  68 101  79 101  88 100
M  END
> <chiral flag>
0

> <version>
0

> <s_m_source_file>
/data/baiqing/PycharmProjects/Reinvent-master-3.2/result/LINK_invent/BTK/process_docking_weight1_custom_product_contain_oxygen_bond_distance_aromatic_linkinvent_7_9_3/rearranged_h_0114.sdf

> <i_m_source_file_index>
48

> <r_mmod_Potential_Energy-OPLS-2005>
-20.8379859924316

> <r_mmod_Stretch_Energy-OPLS-2005>
92.9039459228516

> <r_mmod_Bend_Energy-OPLS-2005>
209.501007080078

> <r_mmod_Torsional_Energy-OPLS-2005>
270.724456787109

> <r_mmod_Improper_Torsional_Energy-OPLS-2005>
7.28815507888794

> <r_mmod_Van_der_Waal_Energy-OPLS-2005>
138.001800537109

> <r_mmod_Electrostatic_Energy-OPLS-2005>
-600.026977539062

> <r_mmod_Solvation_Energy-OPLS-2005>
-214.773590087891

> <b_mmod_Minimization_Converged-OPLS-2005>
0

> <r_mmod_RMS_Derivative-OPLS-2005>
0.838479399681091

$$$$
48
                    3D
 Structure written by MMmdl.
181190  0  0  1  0            999 V2000
  -30.2895  -14.2956   20.9375 C   0  0  0  0  0  0
  -30.8072  -12.1556   19.0872 C   0  0  0  0  0  0
  -29.4659  -11.8495   17.9894 C   0  0  0  0  0  0
  -27.8063  -12.3668   18.2643 C   0  0  0  0  0  0
  -27.4987  -13.3547   19.7200 C   0  0  2  0  0  0
  -29.5330  -13.4934   20.9255 C   0  0  0  0  0  0
  -25.1283  -13.8214   20.6214 C   0  0  0  0  0  0
  -24.1046  -13.0258   20.9888 C   0  0  0  0  0  0
  -24.5853  -11.6944   20.9008 C   0  0  0  0  0  0
  -23.8849  -10.4196   21.0480 C   0  0  0  0  0  0
  -24.3563   -9.4057   21.9086 C   0  0  0  0  0  0
  -23.6251   -8.2089   22.0718 C   0  0  0  0  0  0
  -22.4154   -8.0186   21.3599 C   0  0  0  0  0  0
  -21.9796   -9.0119   20.4650 C   0  0  0  0  0  0
  -22.7097  -10.2000   20.3043 C   0  0  0  0  0  0
  -21.6851   -6.0654   22.5315 C   0  0  0  0  0  0
  -21.3972   -6.5593   23.8214 C   0  0  0  0  0  0
  -21.3641   -5.6772   24.9170 C   0  0  0  0  0  0
  -21.6042   -4.3028   24.7210 C   0  0  0  0  0  0
  -21.8822   -3.8094   23.4312 C   0  0  0  0  0  0
  -21.9164   -4.6898   22.3364 C   0  0  0  0  0  0
  -22.7096  -13.4881   21.2360 C   0  0  0  0  0  0
  -22.1640   -4.2158   21.0913 F   0  0  0  0  0  0
  -21.5632   -3.4464   25.7679 F   0  0  0  0  0  0
  -30.6792  -13.0389   20.4311 N   0  0  0  0  0  0
  -26.1961  -12.9984   20.3365 N   0  0  0  0  0  0
  -25.8555  -11.6997   20.5443 N   0  0  0  0  0  0
  -21.9705  -12.8040   22.0921 N   0  0  0  0  0  0
  -25.1371  -15.1863   20.4581 N   0  0  0  0  0  0
  -31.5438  -14.6959   20.9556 O   0  0  0  0  0  0
  -21.6540   -6.8790   21.4299 O   0  0  0  0  0  0
  -22.2750  -14.5005   20.6846 O   0  0  0  0  0  0
  -24.6232  -31.8693   23.2165 C   0  0  0  0  0  0
  -25.9111  -32.4824   23.8498 C   0  0  1  0  0  0
  -27.2426  -27.4696   20.0471 C   0  0  0  0  0  0
  -25.5952  -33.8641   24.2384 N   0  0  0  0  0  0
  -23.4137  -30.4930   21.5598 C   0  0  2  0  0  0
  -24.8426  -28.9460   20.1359 C   0  0  0  0  0  0
  -22.7495  -29.4702   22.5073 C   0  0  0  0  0  0
  -18.0321  -28.1438   22.8451 C   0  0  0  0  0  0
  -24.1466  -36.7290   23.2646 C   0  0  0  0  0  0
  -25.9544  -30.8141   21.3997 C   0  0  0  0  0  0
  -26.0079  -29.4710   20.7070 C   0  0  0  0  0  0
  -27.2100  -28.7422   20.6438 C   0  0  0  0  0  0
  -26.0487  -26.9311   19.5101 C   0  0  0  0  0  0
  -24.8507  -27.6671   19.5510 C   0  0  0  0  0  0
  -23.6151  -29.8181   20.1807 C   0  0  0  0  0  0
  -25.4110  -36.3158   24.0361 C   0  0  1  0  0  0
  -20.5903  -28.3745   23.1233 C   0  0  2  0  0  0
  -20.6808  -26.9475   22.5369 C   0  0  0  0  0  0
  -19.5783  -26.6410   21.5183 C   0  0  0  0  0  0
  -18.1961  -26.7989   22.1583 C   0  0  0  0  0  0
  -19.1567  -28.8924   23.2820 C   0  0  0  0  0  0
  -18.9480  -30.1520   23.8847 C   0  0  0  0  0  0
  -17.6470  -30.6610   24.0568 C   0  0  0  0  0  0
  -25.9065  -34.9499   23.5181 C   0  0  0  0  0  0
  -16.5368  -29.9087   23.6353 C   0  0  0  0  0  0
  -16.7302  -28.6516   23.0357 C   0  0  0  0  0  0
  -26.4500  -31.6691   25.0907 C   0  0  0  0  0  0
  -25.3724  -31.3837   26.1640 C   0  0  0  0  0  0
  -27.0314  -30.3077   24.6488 C   0  0  0  0  0  0
  -27.6145  -32.4454   25.7523 C   0  0  0  0  0  0
  -27.5625  -37.1768   24.8472 C   0  0  0  0  0  0
  -21.4249  -29.3060   22.3662 N   0  0  0  0  0  0
  -26.4317  -37.3838   23.9447 N   0  0  0  0  0  0
  -24.6796  -31.0788   22.1085 N   0  0  0  0  0  0
  -23.4208  -28.8275   23.3186 O   0  0  0  0  0  0
  -28.4612  -26.8386   20.0100 O   0  0  0  0  0  0
  -26.5631  -34.8933   22.4747 O   0  0  0  0  0  0
  -23.5402  -32.1495   23.7480 O   0  0  0  0  0  0
  -30.4291  -18.4264   18.9341 C   0  0  0  0  0  0
  -27.6936  -18.8417   19.3870 C   0  0  0  0  0  0
  -29.9346  -19.7352   19.1190 C   0  0  0  0  0  0
  -28.2892  -17.5785   19.5267 C   0  0  0  0  0  0
  -29.5732  -17.3343   19.0995 C   0  0  0  0  0  0
  -28.5304  -19.9564   19.1659 C   0  0  0  0  0  0
  -28.6836  -11.4799   20.4700 C   0  0  0  0  0  0
  -30.9767  -20.7448   19.3243 C   0  0  0  0  0  0
  -31.5121  -21.0227   20.5374 C   0  0  0  0  0  0
  -28.3035  -12.4827   22.5326 C   0  0  0  0  0  0
  -29.3849  -14.1672   18.7545 C   0  0  0  0  0  0
  -29.1082  -14.7042   23.0287 C   0  0  0  0  0  0
  -30.0984  -16.5526   21.5695 C   0  0  0  0  0  0
  -32.7605  -21.8782   20.6543 C   0  0  0  0  0  0
  -30.9768  -20.4584   21.8572 C   0  0  0  0  0  0
  -27.6355  -16.4843   20.3097 C   0  0  0  0  0  0
  -28.0555  -24.4985   20.4825 C   0  0  0  0  0  0
  -28.7252  -23.1479   20.1893 C   0  0  0  0  0  0
  -28.5616  -25.5365   19.4763 C   0  0  0  0  0  0
  -27.8284  -21.9209   20.3059 C   0  0  0  0  0  0
  -30.0638  -16.0969   19.4623 N   0  0  0  0  0  0
  -28.4226  -15.2940   20.8577 N   0  0  0  0  0  0
  -28.6944  -10.2677   20.2188 O   0  0  0  0  0  0
  -27.9509  -21.1992   19.0852 O   0  0  0  0  0  0
  -31.6564  -12.5662   18.5347 H   0  0  0  0  0  0
  -31.2051  -11.1779   19.3867 H   0  0  0  0  0  0
  -29.4131  -10.7662   17.8837 H   0  0  0  0  0  0
  -29.7803  -12.1665   16.9894 H   0  0  0  0  0  0
  -27.1788  -11.4753   18.2794 H   0  0  0  0  0  0
  -27.4436  -12.8894   17.3765 H   0  0  0  0  0  0
  -27.1305  -14.2344   19.1957 H   0  0  0  0  0  0
  -28.3297  -13.4115   20.7905 H   0  0  0  0  0  0
  -30.1270  -12.5142   21.6531 H   0  0  0  0  0  0
  -25.2737   -9.5510   22.4552 H   0  0  0  0  0  0
  -23.9982   -7.4463   22.7417 H   0  0  0  0  0  0
  -21.0709   -8.8526   19.9027 H   0  0  0  0  0  0
  -22.3508  -10.9489   19.6074 H   0  0  0  0  0  0
  -21.2000   -7.6106   23.9763 H   0  0  0  0  0  0
  -21.1488   -6.0423   25.9109 H   0  0  0  0  0  0
  -22.0646   -2.7570   23.2757 H   0  0  0  0  0  0
  -22.3248  -11.9844   22.5556 H   0  0  0  0  0  0
  -21.0254  -13.1160   22.2771 H   0  0  0  0  0  0
  -24.2187  -15.5858   20.6110 H   0  0  0  0  0  0
  -25.4748  -15.5276   19.5686 H   0  0  0  0  0  0
  -26.7198  -32.5402   23.1258 H   0  0  0  0  0  0
  -25.0129  -33.9808   25.0547 H   0  0  0  0  0  0
  -22.7045  -31.3102   21.4165 H   0  0  0  0  0  0
  -23.3798  -35.9551   23.3299 H   0  0  0  0  0  0
  -24.3577  -36.8902   22.2066 H   0  0  0  0  0  0
  -23.7074  -37.6437   23.6640 H   0  0  0  0  0  0
  -26.1793  -31.5981   20.6769 H   0  0  0  0  0  0
  -26.8040  -30.7753   22.0740 H   0  0  0  0  0  0
  -28.1333  -29.1507   21.0307 H   0  0  0  0  0  0
  -26.0095  -25.9560   19.0477 H   0  0  0  0  0  0
  -23.9460  -27.2411   19.1366 H   0  0  0  0  0  0
  -23.7504  -30.5857   19.4203 H   0  0  0  0  0  0
  -22.7338  -29.2508   19.8786 H   0  0  0  0  0  0
  -25.1249  -36.2100   25.0851 H   0  0  0  0  0  0
  -20.9985  -28.3356   24.1355 H   0  0  0  0  0  0
  -20.5730  -26.2400   23.3596 H   0  0  0  0  0  0
  -21.6677  -26.7516   22.1155 H   0  0  0  0  0  0
  -19.6942  -25.6295   21.1279 H   0  0  0  0  0  0
  -19.6724  -27.3157   20.6659 H   0  0  0  0  0  0
  -17.4240  -26.6761   21.3968 H   0  0  0  0  0  0
  -18.0340  -26.0144   22.8984 H   0  0  0  0  0  0
  -19.7941  -30.7370   24.2192 H   0  0  0  0  0  0
  -17.5000  -31.6268   24.5214 H   0  0  0  0  0  0
  -15.5362  -30.2956   23.7719 H   0  0  0  0  0  0
  -15.8710  -28.0796   22.7115 H   0  0  0  0  0  0
  -24.5802  -30.7345   25.7899 H   0  0  0  0  0  0
  -24.9025  -32.2985   26.5265 H   0  0  0  0  0  0
  -25.7990  -30.8805   27.0325 H   0  0  0  0  0  0
  -26.2855  -29.6820   24.1577 H   0  0  0  0  0  0
  -27.3937  -29.7429   25.5094 H   0  0  0  0  0  0
  -27.8820  -30.4288   23.9778 H   0  0  0  0  0  0
  -27.2850  -33.3724   26.2232 H   0  0  0  0  0  0
  -28.3771  -32.7119   25.0189 H   0  0  0  0  0  0
  -28.1080  -31.8573   26.5269 H   0  0  0  0  0  0
  -28.2677  -38.0052   24.7647 H   0  0  0  0  0  0
  -28.1105  -36.2622   24.6160 H   0  0  0  0  0  0
  -27.2382  -37.1258   25.8882 H   0  0  0  0  0  0
  -20.9597  -29.8608   21.6613 H   0  0  0  0  0  0
  -26.0260  -38.2940   24.1459 H   0  0  0  0  0  0
  -31.4922  -18.2577   18.8891 H   0  0  0  0  0  0
  -26.6351  -18.9778   19.5815 H   0  0  0  0  0  0
  -31.3876  -21.1946   18.4352 H   0  0  0  0  0  0
  -28.7331  -11.8168   23.2698 H   0  0  0  0  0  0
  -27.2327  -12.4416   22.7207 H   0  0  0  0  0  0
  -28.6525  -14.4594   18.0008 H   0  0  0  0  0  0
  -30.2063  -14.0434   18.0528 H   0  0  0  0  0  0
  -29.8747  -14.5201   23.7845 H   0  0  0  0  0  0
  -28.3106  -15.1787   23.6064 H   0  0  0  0  0  0
  -31.0912  -16.8518   21.9049 H   0  0  0  0  0  0
  -29.5360  -17.4569   21.7568 H   0  0  0  0  0  0
  -33.1136  -22.1996   19.6726 H   0  0  0  0  0  0
  -33.5741  -21.3141   21.1168 H   0  0  0  0  0  0
  -32.5853  -22.7622   21.2604 H   0  0  0  0  0  0
  -29.9461  -20.1230   21.7576 H   0  0  0  0  0  0
  -30.9917  -21.1962   22.6683 H   0  0  0  0  0  0
  -31.5678  -19.5982   22.1870 H   0  0  0  0  0  0
  -27.0039  -16.1802   19.4939 H   0  0  0  0  0  0
  -27.0239  -16.9194   21.0990 H   0  0  0  0  0  0
  -28.2968  -24.8054   21.5008 H   0  0  0  0  0  0
  -26.9659  -24.4575   20.4505 H   0  0  0  0  0  0
  -29.5911  -23.0345   20.8407 H   0  0  0  0  0  0
  -29.1291  -23.1573   19.1750 H   0  0  0  0  0  0
  -28.0824  -25.4301   18.5021 H   0  0  0  0  0  0
  -29.6241  -25.3780   19.3015 H   0  0  0  0  0  0
  -26.7896  -22.2199   20.4247 H   0  0  0  0  0  0
  -28.1116  -21.3233   21.1719 H   0  0  0  0  0  0
  -27.7358  -14.6848   21.2740 H   0  0  0  0  0  0
  1 25  1  0  0  0
  1 30  2  0  0  0
  1 92  1  0  0  0
  2  3  1  0  0  0
  2 25  1  0  0  0
  2 95  1  0  0  0
  2 96  1  0  0  0
  3  4  1  0  0  0
  3 97  1  0  0  0
  3 98  1  0  0  0
  4  5  1  0  0  0
  4 99  1  0  0  0
  4100  1  0  0  0
  5  6  1  0  0  0
  5 26  1  0  0  0
  5101  1  0  0  0
  6 25  1  0  0  0
  6102  1  0  0  0
  6103  1  0  0  0
  7  8  2  0  0  0
  7 26  1  0  0  0
  7 29  1  0  0  0
  8  9  1  0  0  0
  8 22  1  0  0  0
  9 10  1  0  0  0
  9 27  2  0  0  0
 10 11  2  0  0  0
 10 15  1  0  0  0
 11 12  1  0  0  0
 11104  1  0  0  0
 12 13  2  0  0  0
 12105  1  0  0  0
 13 14  1  0  0  0
 13 31  1  0  0  0
 14 15  2  0  0  0
 14106  1  0  0  0
 15107  1  0  0  0
 16 17  2  0  0  0
 16 21  1  0  0  0
 16 31  1  0  0  0
 17 18  1  0  0  0
 17108  1  0  0  0
 18 19  2  0  0  0
 18109  1  0  0  0
 19 20  1  0  0  0
 19 24  1  0  0  0
 20 21  2  0  0  0
 20110  1  0  0  0
 21 23  1  0  0  0
 22 28  1  0  0  0
 22 32  2  0  0  0
 26 27  1  0  0  0
 28111  1  0  0  0
 28112  1  0  0  0
 29113  1  0  0  0
 29114  1  0  0  0
 33 34  1  0  0  0
 33 66  1  0  0  0
 33 70  2  0  0  0
 34 36  1  0  0  0
 34 59  1  0  0  0
 34115  1  0  0  0
 35 44  2  0  0  0
 35 45  1  0  0  0
 35 68  1  0  0  0
 36 56  1  0  0  0
 36116  1  0  0  0
 37 39  1  0  0  0
 37 47  1  0  0  0
 37 66  1  0  0  0
 37117  1  0  0  0
 38 43  2  0  0  0
 38 46  1  0  0  0
 38 47  1  0  0  0
 39 64  1  0  0  0
 39 67  2  0  0  0
 40 52  1  0  0  0
 40 53  2  0  0  0
 40 58  1  0  0  0
 41118  1  0  0  0
 41119  1  0  0  0
 41120  1  0  0  0
 41 48  1  0  0  0
 42 43  1  0  0  0
 42 66  1  0  0  0
 42121  1  0  0  0
 42122  1  0  0  0
 43 44  1  0  0  0
 44123  1  0  0  0
 45 46  2  0  0  0
 45124  1  0  0  0
 46125  1  0  0  0
 47126  1  0  0  0
 47127  1  0  0  0
 48 56  1  0  0  0
 48 65  1  0  0  0
 48128  1  0  0  0
 49 50  1  0  0  0
 49 53  1  0  0  0
 49 64  1  0  0  0
 49129  1  0  0  0
 50 51  1  0  0  0
 50130  1  0  0  0
 50131  1  0  0  0
 51 52  1  0  0  0
 51132  1  0  0  0
 51133  1  0  0  0
 52134  1  0  0  0
 52135  1  0  0  0
 53 54  1  0  0  0
 54 55  2  0  0  0
 54136  1  0  0  0
 55 57  1  0  0  0
 55137  1  0  0  0
 56 69  2  0  0  0
 57 58  2  0  0  0
 57138  1  0  0  0
 58139  1  0  0  0
 59 60  1  0  0  0
 59 61  1  0  0  0
 59 62  1  0  0  0
 60140  1  0  0  0
 60141  1  0  0  0
 60142  1  0  0  0
 61143  1  0  0  0
 61144  1  0  0  0
 61145  1  0  0  0
 62146  1  0  0  0
 62147  1  0  0  0
 62148  1  0  0  0
 63 65  1  0  0  0
 63149  1  0  0  0
 63150  1  0  0  0
 63151  1  0  0  0
 64152  1  0  0  0
 65153  1  0  0  0
 68 89  1  0  0  0
 71 73  2  0  0  0
 71 75  1  0  0  0
 71154  1  0  0  0
 72 74  1  0  0  0
 72 76  2  0  0  0
 72155  1  0  0  0
 73 76  1  0  0  0
 73 78  1  0  0  0
 74 75  2  0  0  0
 74 86  1  0  0  0
 75 91  1  0  0  0
 76 94  1  0  0  0
 77 80  1  0  0  0
 77 81  1  0  0  0
 77 93  2  0  0  0
 78 79  2  0  0  0
 78156  1  0  0  0
 79 84  1  0  0  0
 79 85  1  0  0  0
 80 82  1  0  0  0
 80157  1  0  0  0
 80158  1  0  0  0
 81 91  1  0  0  0
 81159  1  0  0  0
 81160  1  0  0  0
 82 83  1  0  0  0
 82161  1  0  0  0
 82162  1  0  0  0
 83 91  1  0  0  0
 83163  1  0  0  0
 83164  1  0  0  0
 84165  1  0  0  0
 84166  1  0  0  0
 84167  1  0  0  0
 85168  1  0  0  0
 85169  1  0  0  0
 85170  1  0  0  0
 86 92  1  0  0  0
 86171  1  0  0  0
 86172  1  0  0  0
 87 88  1  0  0  0
 87 89  1  0  0  0
 87173  1  0  0  0
 87174  1  0  0  0
 88 90  1  0  0  0
 88175  1  0  0  0
 88176  1  0  0  0
 89177  1  0  0  0
 89178  1  0  0  0
 90 94  1  0  0  0
 90179  1  0  0  0
 90180  1  0  0  0
 92181  1  0  0  0
M  ISO  4   1 100  68 101  89 101  92 100
M  END
> <chiral flag>
0

> <version>
0

> <s_m_source_file>
/data/baiqing/PycharmProjects/Reinvent-master-3.2/result/LINK_invent/BTK/process_docking_weight1_custom_product_contain_oxygen_bond_distance_aromatic_linkinvent_7_9_3/rearranged_h_0114.sdf

> <i_m_source_file_index>
49

> <r_mmod_Potential_Energy-OPLS-2005>
17680.001953125

> <r_mmod_Stretch_Energy-OPLS-2005>
11058.8408203125

> <r_mmod_Bend_Energy-OPLS-2005>
1514.40148925781

> <r_mmod_Torsional_Energy-OPLS-2005>
544.897216796875

> <r_mmod_Improper_Torsional_Energy-OPLS-2005>
57.5417518615723

> <r_mmod_Van_der_Waal_Energy-OPLS-2005>
4741.74267578125

> <r_mmod_Electrostatic_Energy-OPLS-2005>
-385.366485595703

> <r_mmod_Solvation_Energy-OPLS-2005>
-241.726547241211

> <b_mmod_Minimization_Converged-OPLS-2005>
0

> <r_mmod_RMS_Derivative-OPLS-2005>
18.275972366333

$$$$
49
                    3D
 Structure written by MMmdl.
165173  0  0  1  0            999 V2000
  -29.9570  -12.9737   19.9813 C   0  0  0  0  0  0
  -30.9044  -12.7788   18.7674 C   0  0  0  0  0  0
  -29.9205  -14.3539   18.1550 C   0  0  0  0  0  0
  -28.4236  -14.7847   19.3579 C   0  0  0  0  0  0
  -27.7699  -13.6927   20.6267 C   0  0  2  0  0  0
  -28.9425  -12.4239   21.1287 C   0  0  0  0  0  0
  -25.2293  -13.9040   20.6057 C   0  0  0  0  0  0
  -24.1818  -13.0695   20.8752 C   0  0  0  0  0  0
  -24.6989  -11.7371   20.8352 C   0  0  0  0  0  0
  -23.9719  -10.4481   21.0048 C   0  0  0  0  0  0
  -24.4010   -9.4388   21.9006 C   0  0  0  0  0  0
  -23.6547   -8.2462   22.0703 C   0  0  0  0  0  0
  -22.4519   -8.0458   21.3517 C   0  0  0  0  0  0
  -22.0292   -9.0450   20.4551 C   0  0  0  0  0  0
  -22.7765  -10.2260   20.2856 C   0  0  0  0  0  0
  -21.6942   -6.0892   22.5300 C   0  0  0  0  0  0
  -21.4047   -6.5741   23.8245 C   0  0  0  0  0  0
  -21.3689   -5.6864   24.9185 C   0  0  0  0  0  0
  -21.6047   -4.3128   24.7209 C   0  0  0  0  0  0
  -21.8808   -3.8248   23.4318 C   0  0  0  0  0  0
  -21.9220   -4.7100   22.3397 C   0  0  0  0  0  0
  -22.7726  -13.5067   21.1509 C   0  0  0  0  0  0
  -22.1667   -4.2275   21.0975 F   0  0  0  0  0  0
  -21.5645   -3.4592   25.7701 F   0  0  0  0  0  0
  -30.3135  -12.0408   20.2105 N   0  0  0  0  0  0
  -26.3657  -13.1389   20.5213 N   0  0  0  0  0  0
  -26.0276  -11.7981   20.6262 N   0  0  0  0  0  0
  -22.0636  -12.7981   22.0240 N   0  0  0  0  0  0
  -25.3481  -15.2809   20.5253 N   0  0  0  0  0  0
  -30.5940  -14.0507   20.5672 O   0  0  0  0  0  0
  -21.6781   -6.9082   21.4273 O   0  0  0  0  0  0
  -22.3181  -14.5308   20.6444 O   0  0  0  0  0  0
  -24.6529  -31.8397   23.1890 C   0  0  0  0  0  0
  -25.9290  -32.4645   23.8238 C   0  0  1  0  0  0
  -27.1057  -27.0718   19.9945 C   0  0  0  0  0  0
  -25.6037  -33.8463   24.2142 N   0  0  0  0  0  0
  -23.4468  -30.4764   21.5466 C   0  0  2  0  0  0
  -24.8577  -28.9070   20.0976 C   0  0  0  0  0  0
  -22.7563  -29.4555   22.4873 C   0  0  0  0  0  0
  -18.0309  -28.1390   22.8474 C   0  0  0  0  0  0
  -24.1501  -36.7239   23.2639 C   0  0  0  0  0  0
  -26.0177  -30.6676   21.4039 C   0  0  0  0  0  0
  -26.0580  -29.2849   20.7157 C   0  0  0  0  0  0
  -27.1942  -28.3731   20.6638 C   0  0  0  0  0  0
  -25.8810  -26.8320   19.3542 C   0  0  0  0  0  0
  -24.7794  -27.6901   19.4186 C   0  0  0  0  0  0
  -23.6593  -29.8358   20.1574 C   0  0  0  0  0  0
  -25.4139  -36.2990   24.0290 C   0  0  1  0  0  0
  -20.5923  -28.3725   23.1218 C   0  0  2  0  0  0
  -20.6806  -26.9435   22.5386 C   0  0  0  0  0  0
  -19.5767  -26.6378   21.5213 C   0  0  0  0  0  0
  -18.1946  -26.7924   22.1631 C   0  0  0  0  0  0
  -19.1567  -28.8874   23.2841 C   0  0  0  0  0  0
  -18.9487  -30.1474   23.8860 C   0  0  0  0  0  0
  -17.6486  -30.6587   24.0549 C   0  0  0  0  0  0
  -25.9104  -34.9378   23.5016 C   0  0  0  0  0  0
  -16.5376  -29.9071   23.6348 C   0  0  0  0  0  0
  -16.7293  -28.6496   23.0352 C   0  0  0  0  0  0
  -26.4574  -31.6547   25.0730 C   0  0  0  0  0  0
  -25.3732  -31.3783   26.1407 C   0  0  0  0  0  0
  -27.0455  -30.2909   24.6427 C   0  0  0  0  0  0
  -27.6046  -32.4356   25.7554 C   0  0  0  0  0  0
  -27.5568  -37.1785   24.8462 C   0  0  0  0  0  0
  -21.4252  -29.3063   22.3605 N   0  0  0  0  0  0
  -26.4287  -37.3716   23.9394 N   0  0  0  0  0  0
  -24.7284  -31.0174   22.0986 N   0  0  0  0  0  0
  -23.4204  -28.8052   23.2984 O   0  0  0  0  0  0
  -28.0326  -25.9629   19.8616 O   0  0  0  0  0  0
  -26.5674  -34.8886   22.4586 O   0  0  0  0  0  0
  -23.5649  -32.1351   23.7087 O   0  0  0  0  0  0
  -28.5131  -16.7813   16.9388 C   0  0  0  0  0  0
  -28.7200  -18.1979   17.2508 C   0  0  0  0  0  0
  -26.4977  -18.4124   17.8531 C   0  0  0  0  0  0
  -27.2945  -16.0155   17.1104 C   0  0  0  0  0  0
  -26.2724  -16.9933   17.5203 C   0  0  0  0  0  0
  -27.7438  -19.1217   17.7729 C   0  0  0  0  0  0
  -27.7265  -12.9002   17.7354 C   0  0  0  0  0  0
  -28.6611  -12.3344   18.7423 C   0  0  0  0  0  0
  -24.4955  -12.5003   15.4165 C   0  0  0  0  0  0
  -27.7698  -23.3266   19.1386 C   0  0  0  0  0  0
  -25.2219  -12.9893   16.4301 C   0  0  0  0  0  0
  -27.5042  -24.5692   19.8449 C   0  0  0  0  0  0
  -27.0617  -14.3288   17.0461 C   0  0  0  0  0  0
  -24.8152  -16.5669   17.6441 C   0  0  0  0  0  0
  -23.5640  -11.3155   15.5590 C   0  0  0  0  0  0
  -27.3332  -21.7025   18.9009 C   0  0  0  0  0  0
  -26.0389  -14.1122   16.3036 N   0  0  0  0  0  0
  -28.0530  -20.5657   18.0881 N   0  0  0  0  0  0
  -31.9846  -13.0256   18.8312 H   0  0  0  0  0  0
  -30.9663  -12.0391   17.9505 H   0  0  0  0  0  0
  -29.7056  -14.2368   17.0939 H   0  0  0  0  0  0
  -30.6116  -15.1988   18.1648 H   0  0  0  0  0  0
  -27.6860  -15.5474   19.2369 H   0  0  0  0  0  0
  -28.9474  -15.5190   19.9737 H   0  0  0  0  0  0
  -27.7095  -14.3473   21.4973 H   0  0  0  0  0  0
  -28.4121  -11.4751   21.2668 H   0  0  0  0  0  0
  -29.2166  -12.6202   22.1816 H   0  0  0  0  0  0
  -25.3111   -9.5815   22.4677 H   0  0  0  0  0  0
  -24.0226   -7.4914   22.7517 H   0  0  0  0  0  0
  -21.1225   -8.9015   19.8821 H   0  0  0  0  0  0
  -22.4268  -10.9791   19.5939 H   0  0  0  0  0  0
  -21.2001   -7.6231   23.9797 H   0  0  0  0  0  0
  -21.1539   -6.0565   25.9102 H   0  0  0  0  0  0
  -22.0546   -2.7711   23.2798 H   0  0  0  0  0  0
  -22.4557  -11.9806   22.4676 H   0  0  0  0  0  0
  -21.1207  -13.0773   22.2546 H   0  0  0  0  0  0
  -24.5516  -15.9033   20.5884 H   0  0  0  0  0  0
  -26.2248  -15.7650   20.3900 H   0  0  0  0  0  0
  -26.7316  -32.5148   23.0902 H   0  0  0  0  0  0
  -25.0158  -33.9559   25.0267 H   0  0  0  0  0  0
  -22.7539  -31.3099   21.4111 H   0  0  0  0  0  0
  -23.3747  -35.9585   23.3288 H   0  0  0  0  0  0
  -24.3579  -36.8902   22.2055 H   0  0  0  0  0  0
  -23.7270  -37.6432   23.6709 H   0  0  0  0  0  0
  -26.2081  -31.4269   20.6440 H   0  0  0  0  0  0
  -26.8776  -30.6858   22.0617 H   0  0  0  0  0  0
  -28.1139  -28.6445   21.1622 H   0  0  0  0  0  0
  -25.7347  -25.9276   18.7822 H   0  0  0  0  0  0
  -23.8633  -27.4049   18.9171 H   0  0  0  0  0  0
  -23.8138  -30.6261   19.4213 H   0  0  0  0  0  0
  -22.7587  -29.3121   19.8323 H   0  0  0  0  0  0
  -25.1335  -36.1797   25.0780 H   0  0  0  0  0  0
  -21.0023  -28.3316   24.1339 H   0  0  0  0  0  0
  -20.5719  -26.2347   23.3610 H   0  0  0  0  0  0
  -21.6660  -26.7442   22.1178 H   0  0  0  0  0  0
  -19.6923  -25.6284   21.1249 H   0  0  0  0  0  0
  -19.6688  -27.3176   20.6736 H   0  0  0  0  0  0
  -17.4221  -26.6665   21.4032 H   0  0  0  0  0  0
  -18.0342  -26.0078   22.9046 H   0  0  0  0  0  0
  -19.7963  -30.7297   24.2205 H   0  0  0  0  0  0
  -17.5041  -31.6254   24.5153 H   0  0  0  0  0  0
  -15.5370  -30.2955   23.7703 H   0  0  0  0  0  0
  -15.8698  -28.0801   22.7085 H   0  0  0  0  0  0
  -24.5896  -30.7156   25.7725 H   0  0  0  0  0  0
  -24.8963  -32.2996   26.4762 H   0  0  0  0  0  0
  -25.7998  -30.8989   27.0222 H   0  0  0  0  0  0
  -26.3100  -29.6592   24.1436 H   0  0  0  0  0  0
  -27.3982  -29.7275   25.5074 H   0  0  0  0  0  0
  -27.9055  -30.4076   23.9825 H   0  0  0  0  0  0
  -27.2553  -33.3648   26.2063 H   0  0  0  0  0  0
  -28.3909  -32.6926   25.0449 H   0  0  0  0  0  0
  -28.0652  -31.8541   26.5549 H   0  0  0  0  0  0
  -28.2566  -38.0097   24.7495 H   0  0  0  0  0  0
  -28.1091  -36.2622   24.6319 H   0  0  0  0  0  0
  -27.2293  -37.1458   25.8869 H   0  0  0  0  0  0
  -20.9460  -29.8835   21.6838 H   0  0  0  0  0  0
  -26.0137  -38.2777   24.1393 H   0  0  0  0  0  0
  -29.3793  -16.2738   16.5469 H   0  0  0  0  0  0
  -29.7160  -18.5769   17.0729 H   0  0  0  0  0  0
  -25.6424  -18.9878   18.1756 H   0  0  0  0  0  0
  -27.2925  -12.0469   17.2422 H   0  0  0  0  0  0
  -28.6044  -11.2540   18.7256 H   0  0  0  0  0  0
  -24.5527  -12.9614   14.4401 H   0  0  0  0  0  0
  -26.9160  -23.0666   19.7404 H   0  0  0  0  0  0
  -25.1576  -12.5295   17.4096 H   0  0  0  0  0  0
  -26.7040  -24.6053   20.5889 H   0  0  0  0  0  0
  -24.2659  -17.2013   18.3392 H   0  0  0  0  0  0
  -24.6951  -15.5473   18.0005 H   0  0  0  0  0  0
  -24.3242  -16.6465   16.6735 H   0  0  0  0  0  0
  -23.5683  -10.9280   16.5792 H   0  0  0  0  0  0
  -23.8547  -10.5095   14.8832 H   0  0  0  0  0  0
  -22.5440  -11.6158   15.3183 H   0  0  0  0  0  0
  -26.3172  -21.7152   18.4935 H   0  0  0  0  0  0
  -27.2390  -21.2455   19.8934 H   0  0  0  0  0  0
  -29.0233  -20.8058   17.8906 H   0  0  0  0  0  0
  1 25  1  0  0  0
  1 30  2  0  0  0
  1 78  1  0  0  0
  2  3  1  0  0  0
  2 25  1  0  0  0
  2 89  1  0  0  0
  2 90  1  0  0  0
  3  4  1  0  0  0
  3 91  1  0  0  0
  3 92  1  0  0  0
  4  5  1  0  0  0
  4 93  1  0  0  0
  4 94  1  0  0  0
  5  6  1  0  0  0
  5 26  1  0  0  0
  5 95  1  0  0  0
  6 25  1  0  0  0
  6 96  1  0  0  0
  6 97  1  0  0  0
  7  8  2  0  0  0
  7 26  1  0  0  0
  7 29  1  0  0  0
  8  9  1  0  0  0
  8 22  1  0  0  0
  9 10  1  0  0  0
  9 27  2  0  0  0
 10 11  2  0  0  0
 10 15  1  0  0  0
 11 12  1  0  0  0
 11 98  1  0  0  0
 12 13  2  0  0  0
 12 99  1  0  0  0
 13 14  1  0  0  0
 13 31  1  0  0  0
 14 15  2  0  0  0
 14100  1  0  0  0
 15101  1  0  0  0
 16 17  2  0  0  0
 16 21  1  0  0  0
 16 31  1  0  0  0
 17 18  1  0  0  0
 17102  1  0  0  0
 18 19  2  0  0  0
 18103  1  0  0  0
 19 20  1  0  0  0
 19 24  1  0  0  0
 20 21  2  0  0  0
 20104  1  0  0  0
 21 23  1  0  0  0
 22 28  1  0  0  0
 22 32  2  0  0  0
 26 27  1  0  0  0
 28105  1  0  0  0
 28106  1  0  0  0
 29107  1  0  0  0
 29108  1  0  0  0
 33 34  1  0  0  0
 33 66  1  0  0  0
 33 70  2  0  0  0
 34 36  1  0  0  0
 34 59  1  0  0  0
 34109  1  0  0  0
 35 44  2  0  0  0
 35 45  1  0  0  0
 35 68  1  0  0  0
 36 56  1  0  0  0
 36110  1  0  0  0
 37 39  1  0  0  0
 37 47  1  0  0  0
 37 66  1  0  0  0
 37111  1  0  0  0
 38 43  2  0  0  0
 38 46  1  0  0  0
 38 47  1  0  0  0
 39 64  1  0  0  0
 39 67  2  0  0  0
 40 52  1  0  0  0
 40 53  2  0  0  0
 40 58  1  0  0  0
 41112  1  0  0  0
 41113  1  0  0  0
 41114  1  0  0  0
 41 48  1  0  0  0
 42 43  1  0  0  0
 42 66  1  0  0  0
 42115  1  0  0  0
 42116  1  0  0  0
 43 44  1  0  0  0
 44117  1  0  0  0
 45 46  2  0  0  0
 45118  1  0  0  0
 46119  1  0  0  0
 47120  1  0  0  0
 47121  1  0  0  0
 48 56  1  0  0  0
 48 65  1  0  0  0
 48122  1  0  0  0
 49 50  1  0  0  0
 49 53  1  0  0  0
 49 64  1  0  0  0
 49123  1  0  0  0
 50 51  1  0  0  0
 50124  1  0  0  0
 50125  1  0  0  0
 51 52  1  0  0  0
 51126  1  0  0  0
 51127  1  0  0  0
 52128  1  0  0  0
 52129  1  0  0  0
 53 54  1  0  0  0
 54 55  2  0  0  0
 54130  1  0  0  0
 55 57  1  0  0  0
 55131  1  0  0  0
 56 69  2  0  0  0
 57 58  2  0  0  0
 57132  1  0  0  0
 58133  1  0  0  0
 59 60  1  0  0  0
 59 61  1  0  0  0
 59 62  1  0  0  0
 60134  1  0  0  0
 60135  1  0  0  0
 60136  1  0  0  0
 61137  1  0  0  0
 61138  1  0  0  0
 61139  1  0  0  0
 62140  1  0  0  0
 62141  1  0  0  0
 62142  1  0  0  0
 63 65  1  0  0  0
 63143  1  0  0  0
 63144  1  0  0  0
 63145  1  0  0  0
 64146  1  0  0  0
 65147  1  0  0  0
 68 82  1  0  0  0
 71 72  2  0  0  0
 71 74  1  0  0  0
 71148  1  0  0  0
 72 76  1  0  0  0
 72149  1  0  0  0
 73 75  1  0  0  0
 73 76  2  0  0  0
 73150  1  0  0  0
 74 75  2  0  0  0
 74 83  1  0  0  0
 75 84  1  0  0  0
 76 88  1  0  0  0
 77 78  2  0  0  0
 77 83  1  0  0  0
 77151  1  0  0  0
 78152  1  0  0  0
 79 81  2  0  0  0
 79 85  1  0  0  0
 79153  1  0  0  0
 80 82  2  0  0  0
 80 86  1  0  0  0
 80154  1  0  0  0
 81 87  1  0  0  0
 81155  1  0  0  0
 82156  1  0  0  0
 83 87  2  0  0  0
 84157  1  0  0  0
 84158  1  0  0  0
 84159  1  0  0  0
 85160  1  0  0  0
 85161  1  0  0  0
 85162  1  0  0  0
 86 88  1  0  0  0
 86163  1  0  0  0
 86164  1  0  0  0
 88165  1  0  0  0
M  ISO  4   1 100  68 101  78 100  82 101
M  END
> <chiral flag>
0

> <version>
0

> <s_m_source_file>
/data/baiqing/PycharmProjects/Reinvent-master-3.2/result/LINK_invent/BTK/process_docking_weight1_custom_product_contain_oxygen_bond_distance_aromatic_linkinvent_7_9_3/rearranged_h_0114.sdf

> <i_m_source_file_index>
50

> <r_mmod_Potential_Energy-OPLS-2005>
6206.3798828125

> <r_mmod_Stretch_Energy-OPLS-2005>
1873.74499511719

> <r_mmod_Bend_Energy-OPLS-2005>
1281.06213378906

> <r_mmod_Torsional_Energy-OPLS-2005>
339.262115478516

> <r_mmod_Improper_Torsional_Energy-OPLS-2005>
6.88306474685669

> <r_mmod_Van_der_Waal_Energy-OPLS-2005>
1262.32421875

> <r_mmod_Electrostatic_Energy-OPLS-2005>
-351.142944335938

> <r_mmod_Solvation_Energy-OPLS-2005>
-224.264266967773

> <b_mmod_Minimization_Converged-OPLS-2005>
0

> <r_mmod_RMS_Derivative-OPLS-2005>
4.18210220336914

$$$$
50
                    3D
 Structure written by MMmdl.
158166  0  0  1  0            999 V2000
  -30.8594  -14.5010   20.6516 C   0  0  0  0  0  0
  -30.3793  -12.3556   19.5220 C   0  0  0  0  0  0
  -29.5271  -12.5132   18.2349 C   0  0  0  0  0  0
  -28.0156  -12.6729   18.5101 C   0  0  0  0  0  0
  -27.7061  -12.7152   20.0052 C   0  0  2  0  0  0
  -28.6395  -13.4448   20.9400 C   0  0  0  0  0  0
  -25.3094  -13.7440   20.5503 C   0  0  0  0  0  0
  -24.1845  -13.0336   20.9082 C   0  0  0  0  0  0
  -24.5671  -11.6641   20.8846 C   0  0  0  0  0  0
  -23.8363  -10.4220   21.0630 C   0  0  0  0  0  0
  -24.3193   -9.4185   21.9316 C   0  0  0  0  0  0
  -23.6088   -8.2106   22.0758 C   0  0  0  0  0  0
  -22.4096   -8.0108   21.3498 C   0  0  0  0  0  0
  -21.9608   -9.0036   20.4604 C   0  0  0  0  0  0
  -22.6712  -10.2023   20.3130 C   0  0  0  0  0  0
  -21.6735   -6.0688   22.5316 C   0  0  0  0  0  0
  -21.3906   -6.5629   23.8243 C   0  0  0  0  0  0
  -21.3657   -5.6798   24.9209 C   0  0  0  0  0  0
  -21.6044   -4.3066   24.7258 C   0  0  0  0  0  0
  -21.8825   -3.8147   23.4382 C   0  0  0  0  0  0
  -21.9151   -4.6943   22.3433 C   0  0  0  0  0  0
  -22.8029  -13.5526   21.1814 C   0  0  0  0  0  0
  -22.1647   -4.2150   21.1011 F   0  0  0  0  0  0
  -21.5659   -3.4554   25.7774 F   0  0  0  0  0  0
  -30.0418  -13.4178   20.5101 N   0  0  0  0  0  0
  -26.2995  -12.7684   20.3673 N   0  0  0  0  0  0
  -25.8262  -11.5392   20.5879 N   0  0  0  0  0  0
  -22.0513  -12.8599   22.0325 N   0  0  0  0  0  0
  -25.5486  -15.1012   20.3747 N   0  0  0  0  0  0
  -31.8586  -14.6382   19.9501 O   0  0  0  0  0  0
  -21.6497   -6.8726   21.4219 O   0  0  0  0  0  0
  -22.3885  -14.5897   20.6679 O   0  0  0  0  0  0
  -24.6165  -31.8660   23.2079 C   0  0  0  0  0  0
  -25.9038  -32.4812   23.8390 C   0  0  1  0  0  0
  -27.2466  -27.4215   20.1159 C   0  0  0  0  0  0
  -25.5879  -33.8608   24.2310 N   0  0  0  0  0  0
  -23.4043  -30.4873   21.5496 C   0  0  2  0  0  0
  -24.8518  -28.9452   20.1216 C   0  0  0  0  0  0
  -22.7416  -29.4628   22.4988 C   0  0  0  0  0  0
  -18.0273  -28.1390   22.8491 C   0  0  0  0  0  0
  -24.1491  -36.7324   23.2638 C   0  0  0  0  0  0
  -25.9327  -30.8302   21.3583 C   0  0  0  0  0  0
  -26.0114  -29.4599   20.7145 C   0  0  0  0  0  0
  -27.2084  -28.7080   20.7038 C   0  0  0  0  0  0
  -26.0649  -26.9230   19.5171 C   0  0  0  0  0  0
  -24.8752  -27.6767   19.5190 C   0  0  0  0  0  0
  -23.6139  -29.8134   20.1669 C   0  0  0  0  0  0
  -25.4110  -36.3101   24.0334 C   0  0  1  0  0  0
  -20.5867  -28.3668   23.1322 C   0  0  2  0  0  0
  -20.6762  -26.9399   22.5424 C   0  0  0  0  0  0
  -19.5741  -26.6392   21.5219 C   0  0  0  0  0  0
  -18.1922  -26.7934   22.1634 C   0  0  0  0  0  0
  -19.1527  -28.8847   23.2905 C   0  0  0  0  0  0
  -18.9445  -30.1457   23.8913 C   0  0  0  0  0  0
  -17.6447  -30.6591   24.0572 C   0  0  0  0  0  0
  -25.9036  -34.9465   23.5124 C   0  0  0  0  0  0
  -16.5337  -29.9095   23.6328 C   0  0  0  0  0  0
  -16.7260  -28.6518   23.0333 C   0  0  0  0  0  0
  -26.4465  -31.6595   25.0721 C   0  0  0  0  0  0
  -25.3731  -31.3694   26.1473 C   0  0  0  0  0  0
  -27.0285  -30.3042   24.6075 C   0  0  0  0  0  0
  -27.6035  -32.4306   25.7480 C   0  0  0  0  0  0
  -27.5576  -37.1826   24.8467 C   0  0  0  0  0  0
  -21.4144  -29.3034   22.3733 N   0  0  0  0  0  0
  -26.4297  -37.3782   23.9389 N   0  0  0  0  0  0
  -24.6696  -31.0764   22.0973 N   0  0  0  0  0  0
  -23.4182  -28.8175   23.3034 O   0  0  0  0  0  0
  -28.4404  -26.7196   20.1155 O   0  0  0  0  0  0
  -26.5607  -34.8922   22.4696 O   0  0  0  0  0  0
  -23.5351  -32.1380   23.7502 O   0  0  0  0  0  0
  -30.6454  -18.2742   23.1606 C   0  0  0  0  0  0
  -30.2667  -19.6540   23.1400 C   0  0  0  0  0  0
  -29.6929  -17.4302   22.6412 C   0  0  0  0  0  0
  -29.0384  -19.8985   22.5547 C   0  0  0  0  0  0
  -30.7078  -21.7231   24.5054 C   0  0  0  0  0  0
  -31.1266  -20.6495   23.8095 C   0  0  0  0  0  0
  -28.7907  -22.2375   21.8786 C   0  0  0  0  0  0
  -29.7175  -15.9167   22.5857 C   0  0  0  0  0  0
  -27.8078  -23.4170   21.9967 C   0  0  0  0  0  0
  -28.3470  -24.8515   21.7292 C   0  0  0  0  0  0
  -28.4282  -25.2833   20.2463 C   0  0  0  0  0  0
  -28.3517  -21.0640   22.3780 N   0  0  0  0  0  0
  -30.7427  -15.3995   21.6606 N   0  0  0  0  0  0
  -29.8939  -22.3874   21.3477 O   0  0  0  0  0  0
  -28.3179  -18.3645   22.0851 S   0  0  0  0  0  0
  -31.4427  -12.3444   19.2680 H   0  0  0  0  0  0
  -30.1959  -11.3859   19.9874 H   0  0  0  0  0  0
  -29.6925  -11.6570   17.5768 H   0  0  0  0  0  0
  -29.8771  -13.3905   17.6884 H   0  0  0  0  0  0
  -27.4601  -11.8557   18.0473 H   0  0  0  0  0  0
  -27.6448  -13.5803   18.0322 H   0  0  0  0  0  0
  -28.0066  -11.6939   20.2574 H   0  0  0  0  0  0
  -28.5169  -13.1219   21.9762 H   0  0  0  0  0  0
  -28.2804  -14.4650   20.8449 H   0  0  0  0  0  0
  -25.2340   -9.5791   22.4870 H   0  0  0  0  0  0
  -23.9913   -7.4490   22.7385 H   0  0  0  0  0  0
  -21.0626   -8.8415   19.8823 H   0  0  0  0  0  0
  -22.3160  -10.9553   19.6238 H   0  0  0  0  0  0
  -21.1826   -7.6135   23.9729 H   0  0  0  0  0  0
  -21.1512   -6.0546   25.9120 H   0  0  0  0  0  0
  -22.0621   -2.7613   23.2885 H   0  0  0  0  0  0
  -22.3950  -12.0201   22.4722 H   0  0  0  0  0  0
  -21.1165  -13.1782   22.2451 H   0  0  0  0  0  0
  -24.8135  -15.7968   20.4396 H   0  0  0  0  0  0
  -26.4319  -15.4799   20.0547 H   0  0  0  0  0  0
  -26.7117  -32.5530   23.1164 H   0  0  0  0  0  0
  -25.0001  -33.9772   25.0434 H   0  0  0  0  0  0
  -22.6925  -31.3035   21.4072 H   0  0  0  0  0  0
  -23.3730  -35.9685   23.3331 H   0  0  0  0  0  0
  -24.3576  -36.8916   22.2047 H   0  0  0  0  0  0
  -23.7294  -37.6557   23.6639 H   0  0  0  0  0  0
  -26.0386  -31.5852   20.5782 H   0  0  0  0  0  0
  -26.8231  -30.8933   21.9720 H   0  0  0  0  0  0
  -28.1064  -29.1063   21.1581 H   0  0  0  0  0  0
  -26.0407  -25.9622   19.0269 H   0  0  0  0  0  0
  -23.9848  -27.2744   19.0561 H   0  0  0  0  0  0
  -23.7238  -30.5817   19.4018 H   0  0  0  0  0  0
  -22.7392  -29.2304   19.8730 H   0  0  0  0  0  0
  -25.1304  -36.1963   25.0831 H   0  0  0  0  0  0
  -20.9960  -28.3239   24.1440 H   0  0  0  0  0  0
  -20.5682  -26.2267   23.3612 H   0  0  0  0  0  0
  -21.6632  -26.7452   22.1205 H   0  0  0  0  0  0
  -19.6900  -25.6309   21.1232 H   0  0  0  0  0  0
  -19.6690  -27.3219   20.6763 H   0  0  0  0  0  0
  -17.4189  -26.6670   21.4035 H   0  0  0  0  0  0
  -18.0327  -26.0081   22.9040 H   0  0  0  0  0  0
  -19.7918  -30.7273   24.2280 H   0  0  0  0  0  0
  -17.4997  -31.6266   24.5181 H   0  0  0  0  0  0
  -15.5343  -30.3001   23.7649 H   0  0  0  0  0  0
  -15.8654  -28.0861   22.7014 H   0  0  0  0  0  0
  -24.5900  -30.7045   25.7814 H   0  0  0  0  0  0
  -24.8928  -32.2847   26.4934 H   0  0  0  0  0  0
  -25.8098  -30.8852   27.0221 H   0  0  0  0  0  0
  -26.2824  -29.6823   24.1117 H   0  0  0  0  0  0
  -27.4056  -29.7256   25.4520 H   0  0  0  0  0  0
  -27.8655  -30.4373   23.9215 H   0  0  0  0  0  0
  -27.2649  -33.3586   26.2100 H   0  0  0  0  0  0
  -28.3823  -32.6901   25.0297 H   0  0  0  0  0  0
  -28.0723  -31.8401   26.5365 H   0  0  0  0  0  0
  -28.2624  -38.0089   24.7457 H   0  0  0  0  0  0
  -28.1040  -36.2621   24.6361 H   0  0  0  0  0  0
  -27.2284  -37.1564   25.8868 H   0  0  0  0  0  0
  -20.9308  -29.8748   21.6945 H   0  0  0  0  0  0
  -26.0188  -38.2868   24.1352 H   0  0  0  0  0  0
  -31.5755  -17.9479   23.6014 H   0  0  0  0  0  0
  -31.4131  -22.4130   24.9438 H   0  0  0  0  0  0
  -29.6595  -21.9352   24.6558 H   0  0  0  0  0  0
  -32.1906  -20.4917   23.7030 H   0  0  0  0  0  0
  -28.7031  -15.5680   22.4375 H   0  0  0  0  0  0
  -29.9900  -15.5446   23.5737 H   0  0  0  0  0  0
  -27.4394  -23.3980   23.0248 H   0  0  0  0  0  0
  -26.9431  -23.2178   21.3653 H   0  0  0  0  0  0
  -29.3193  -24.9935   22.2055 H   0  0  0  0  0  0
  -27.6755  -25.5439   22.2385 H   0  0  0  0  0  0
  -27.6403  -24.8113   19.6669 H   0  0  0  0  0  0
  -29.3575  -24.9051   19.8172 H   0  0  0  0  0  0
  -27.3735  -21.0391   22.6307 H   0  0  0  0  0  0
  -31.5498  -16.0044   21.6473 H   0  0  0  0  0  0
  1 25  1  0  0  0
  1 30  2  0  0  0
  1 83  1  0  0  0
  2  3  1  0  0  0
  2 25  1  0  0  0
  2 86  1  0  0  0
  2 87  1  0  0  0
  3  4  1  0  0  0
  3 88  1  0  0  0
  3 89  1  0  0  0
  4  5  1  0  0  0
  4 90  1  0  0  0
  4 91  1  0  0  0
  5  6  1  0  0  0
  5 26  1  0  0  0
  5 92  1  0  0  0
  6 25  1  0  0  0
  6 93  1  0  0  0
  6 94  1  0  0  0
  7  8  2  0  0  0
  7 26  1  0  0  0
  7 29  1  0  0  0
  8  9  1  0  0  0
  8 22  1  0  0  0
  9 10  1  0  0  0
  9 27  2  0  0  0
 10 11  2  0  0  0
 10 15  1  0  0  0
 11 12  1  0  0  0
 11 95  1  0  0  0
 12 13  2  0  0  0
 12 96  1  0  0  0
 13 14  1  0  0  0
 13 31  1  0  0  0
 14 15  2  0  0  0
 14 97  1  0  0  0
 15 98  1  0  0  0
 16 17  2  0  0  0
 16 21  1  0  0  0
 16 31  1  0  0  0
 17 18  1  0  0  0
 17 99  1  0  0  0
 18 19  2  0  0  0
 18100  1  0  0  0
 19 20  1  0  0  0
 19 24  1  0  0  0
 20 21  2  0  0  0
 20101  1  0  0  0
 21 23  1  0  0  0
 22 28  1  0  0  0
 22 32  2  0  0  0
 26 27  1  0  0  0
 28102  1  0  0  0
 28103  1  0  0  0
 29104  1  0  0  0
 29105  1  0  0  0
 33 34  1  0  0  0
 33 66  1  0  0  0
 33 70  2  0  0  0
 34 36  1  0  0  0
 34 59  1  0  0  0
 34106  1  0  0  0
 35 44  2  0  0  0
 35 45  1  0  0  0
 35 68  1  0  0  0
 36 56  1  0  0  0
 36107  1  0  0  0
 37 39  1  0  0  0
 37 47  1  0  0  0
 37 66  1  0  0  0
 37108  1  0  0  0
 38 43  2  0  0  0
 38 46  1  0  0  0
 38 47  1  0  0  0
 39 64  1  0  0  0
 39 67  2  0  0  0
 40 52  1  0  0  0
 40 53  2  0  0  0
 40 58  1  0  0  0
 41109  1  0  0  0
 41110  1  0  0  0
 41111  1  0  0  0
 41 48  1  0  0  0
 42 43  1  0  0  0
 42 66  1  0  0  0
 42112  1  0  0  0
 42113  1  0  0  0
 43 44  1  0  0  0
 44114  1  0  0  0
 45 46  2  0  0  0
 45115  1  0  0  0
 46116  1  0  0  0
 47117  1  0  0  0
 47118  1  0  0  0
 48 56  1  0  0  0
 48 65  1  0  0  0
 48119  1  0  0  0
 49 50  1  0  0  0
 49 53  1  0  0  0
 49 64  1  0  0  0
 49120  1  0  0  0
 50 51  1  0  0  0
 50121  1  0  0  0
 50122  1  0  0  0
 51 52  1  0  0  0
 51123  1  0  0  0
 51124  1  0  0  0
 52125  1  0  0  0
 52126  1  0  0  0
 53 54  1  0  0  0
 54 55  2  0  0  0
 54127  1  0  0  0
 55 57  1  0  0  0
 55128  1  0  0  0
 56 69  2  0  0  0
 57 58  2  0  0  0
 57129  1  0  0  0
 58130  1  0  0  0
 59 60  1  0  0  0
 59 61  1  0  0  0
 59 62  1  0  0  0
 60131  1  0  0  0
 60132  1  0  0  0
 60133  1  0  0  0
 61134  1  0  0  0
 61135  1  0  0  0
 61136  1  0  0  0
 62137  1  0  0  0
 62138  1  0  0  0
 62139  1  0  0  0
 63 65  1  0  0  0
 63140  1  0  0  0
 63141  1  0  0  0
 63142  1  0  0  0
 64143  1  0  0  0
 65144  1  0  0  0
 68 81  1  0  0  0
 71 72  1  0  0  0
 71 73  2  0  0  0
 71145  1  0  0  0
 72 74  2  0  0  0
 72 76  1  0  0  0
 73 78  1  0  0  0
 73 85  1  0  0  0
 74 82  1  0  0  0
 74 85  1  0  0  0
 75 76  2  0  0  0
 75146  1  0  0  0
 75147  1  0  0  0
 76148  1  0  0  0
 77 79  1  0  0  0
 77 82  1  0  0  0
 77 84  2  0  0  0
 78 83  1  0  0  0
 78149  1  0  0  0
 78150  1  0  0  0
 79 80  1  0  0  0
 79151  1  0  0  0
 79152  1  0  0  0
 80 81  1  0  0  0
 80153  1  0  0  0
 80154  1  0  0  0
 81155  1  0  0  0
 81156  1  0  0  0
 82157  1  0  0  0
 83158  1  0  0  0
M  ISO  4   1 100  68 101  81 101  83 100
M  END
> <chiral flag>
0

> <version>
0

> <s_m_source_file>
/data/baiqing/PycharmProjects/Reinvent-master-3.2/result/LINK_invent/BTK/process_docking_weight1_custom_product_contain_oxygen_bond_distance_aromatic_linkinvent_7_9_3/rearranged_h_0114.sdf

> <i_m_source_file_index>
51

> <r_mmod_Potential_Energy-OPLS-2005>
68.7799682617188

> <r_mmod_Stretch_Energy-OPLS-2005>
40.5839195251465

> <r_mmod_Bend_Energy-OPLS-2005>
204.941909790039

> <r_mmod_Torsional_Energy-OPLS-2005>
290.56396484375

> <r_mmod_Improper_Torsional_Energy-OPLS-2005>
5.06212139129639

> <r_mmod_Van_der_Waal_Energy-OPLS-2005>
142.187088012695

> <r_mmod_Electrostatic_Energy-OPLS-2005>
-475.416107177734

> <r_mmod_Solvation_Energy-OPLS-2005>
-232.370590209961

> <b_mmod_Minimization_Converged-OPLS-2005>
0

> <r_mmod_RMS_Derivative-OPLS-2005>
3.97268962860107

$$$$
51
                    3D
 Structure written by MMmdl.
154162  0  0  1  0            999 V2000
  -30.5994  -14.6604   20.4935 C   0  0  0  0  0  0
  -30.4464  -12.4056   19.4475 C   0  0  0  0  0  0
  -29.5085  -12.4993   18.2219 C   0  0  0  0  0  0
  -28.0316  -12.3317   18.6355 C   0  0  0  0  0  0
  -27.6501  -13.2112   19.8557 C   0  0  2  0  0  0
  -28.6962  -13.0715   20.9844 C   0  0  0  0  0  0
  -25.2557  -13.8149   20.5689 C   0  0  0  0  0  0
  -24.1815  -13.0421   20.9187 C   0  0  0  0  0  0
  -24.6377  -11.6892   20.8734 C   0  0  0  0  0  0
  -23.9042  -10.4276   21.0396 C   0  0  0  0  0  0
  -24.3598   -9.4203   21.9184 C   0  0  0  0  0  0
  -23.6281   -8.2238   22.0756 C   0  0  0  0  0  0
  -22.4268   -8.0264   21.3543 C   0  0  0  0  0  0
  -21.9892   -9.0235   20.4650 C   0  0  0  0  0  0
  -22.7207  -10.2123   20.3059 C   0  0  0  0  0  0
  -21.6848   -6.0730   22.5279 C   0  0  0  0  0  0
  -21.4004   -6.5640   23.8211 C   0  0  0  0  0  0
  -21.3667   -5.6793   24.9177 C   0  0  0  0  0  0
  -21.6047   -4.3051   24.7229 C   0  0  0  0  0  0
  -21.8817   -3.8144   23.4345 C   0  0  0  0  0  0
  -21.9187   -4.6959   22.3402 C   0  0  0  0  0  0
  -22.7845  -13.5230   21.1864 C   0  0  0  0  0  0
  -22.1657   -4.2145   21.0978 F   0  0  0  0  0  0
  -21.5642   -3.4542   25.7744 F   0  0  0  0  0  0
  -30.0072  -13.4258   20.4184 N   0  0  0  0  0  0
  -26.2969  -12.9321   20.3287 N   0  0  0  0  0  0
  -25.9298  -11.6481   20.5724 N   0  0  0  0  0  0
  -22.0479  -12.8232   22.0424 N   0  0  0  0  0  0
  -25.4274  -15.1879   20.4172 N   0  0  0  0  0  0
  -31.7782  -14.8308   20.1682 O   0  0  0  0  0  0
  -21.6633   -6.8866   21.4235 O   0  0  0  0  0  0
  -22.3543  -14.5544   20.6715 O   0  0  0  0  0  0
  -24.6276  -31.8588   23.2014 C   0  0  0  0  0  0
  -25.9128  -32.4766   23.8343 C   0  0  1  0  0  0
  -27.2337  -27.3168   20.1164 C   0  0  0  0  0  0
  -25.5944  -33.8567   24.2278 N   0  0  0  0  0  0
  -23.4209  -30.4826   21.5433 C   0  0  2  0  0  0
  -24.8691  -28.9362   20.1108 C   0  0  0  0  0  0
  -22.7486  -29.4616   22.4919 C   0  0  0  0  0  0
  -18.0295  -28.1374   22.8465 C   0  0  0  0  0  0
  -24.1495  -36.7263   23.2641 C   0  0  0  0  0  0
  -25.9628  -30.7873   21.3749 C   0  0  0  0  0  0
  -26.0375  -29.4159   20.7146 C   0  0  0  0  0  0
  -27.2211  -28.6183   20.7081 C   0  0  0  0  0  0
  -26.0391  -26.8905   19.4895 C   0  0  0  0  0  0
  -24.8719  -27.6776   19.4902 C   0  0  0  0  0  0
  -23.6367  -29.8171   20.1588 C   0  0  0  0  0  0
  -25.4113  -36.3062   24.0338 C   0  0  1  0  0  0
  -20.5894  -28.3662   23.1266 C   0  0  2  0  0  0
  -20.6780  -26.9384   22.5388 C   0  0  0  0  0  0
  -19.5758  -26.6362   21.5194 C   0  0  0  0  0  0
  -18.1937  -26.7908   22.1620 C   0  0  0  0  0  0
  -19.1552  -28.8834   23.2863 C   0  0  0  0  0  0
  -18.9482  -30.1440   23.8882 C   0  0  0  0  0  0
  -17.6481  -30.6572   24.0551 C   0  0  0  0  0  0
  -25.9050  -34.9438   23.5099 C   0  0  0  0  0  0
  -16.5365  -29.9064   23.6343 C   0  0  0  0  0  0
  -16.7283  -28.6487   23.0345 C   0  0  0  0  0  0
  -26.4515  -31.6587   25.0717 C   0  0  0  0  0  0
  -25.3755  -31.3742   26.1462 C   0  0  0  0  0  0
  -27.0331  -30.3009   24.6148 C   0  0  0  0  0  0
  -27.6105  -32.4287   25.7476 C   0  0  0  0  0  0
  -27.5571  -37.1785   24.8477 C   0  0  0  0  0  0
  -21.4202  -29.3031   22.3674 N   0  0  0  0  0  0
  -26.4286  -37.3763   23.9418 N   0  0  0  0  0  0
  -24.6889  -31.0600   22.0962 N   0  0  0  0  0  0
  -23.4207  -28.8157   23.2998 O   0  0  0  0  0  0
  -28.3582  -26.4726   20.1676 O   0  0  0  0  0  0
  -26.5602  -34.8919   22.4653 O   0  0  0  0  0  0
  -23.5438  -32.1382   23.7338 O   0  0  0  0  0  0
  -28.8128  -19.3346   20.0016 C   0  0  0  0  0  0
  -30.9335  -17.9136   21.1553 C   0  0  0  0  0  0
  -29.8658  -20.1027   20.5675 C   0  0  0  0  0  0
  -29.8639  -17.1564   20.6162 C   0  0  0  0  0  0
  -28.7973  -17.8972   20.0297 C   0  0  0  0  0  0
  -30.9310  -19.3406   21.1357 C   0  0  0  0  0  0
  -29.8941  -21.6445   20.5980 C   0  0  0  0  0  0
  -26.9196  -17.7561   18.5380 C   0  0  0  0  0  0
  -29.3263  -23.9977   20.4028 C   0  0  0  0  0  0
  -28.1530  -25.0086   20.0259 C   0  0  0  0  0  0
  -29.0094  -22.5319   20.2337 N   0  0  0  0  0  0
  -29.7398  -15.7012   20.7298 N   0  0  0  0  0  0
  -27.7581  -17.1475   19.5148 O   0  0  0  0  0  0
  -31.9804  -19.9833   21.7053 F   0  0  0  0  0  0
  -31.4831  -12.5545   19.1393 H   0  0  0  0  0  0
  -30.4068  -11.4117   19.8958 H   0  0  0  0  0  0
  -29.7765  -11.7390   17.4874 H   0  0  0  0  0  0
  -29.6438  -13.4633   17.7290 H   0  0  0  0  0  0
  -27.8749  -11.2798   18.8773 H   0  0  0  0  0  0
  -27.3752  -12.5476   17.7907 H   0  0  0  0  0  0
  -27.6630  -14.2421   19.5023 H   0  0  0  0  0  0
  -28.7155  -12.0486   21.3633 H   0  0  0  0  0  0
  -28.4401  -13.7011   21.8380 H   0  0  0  0  0  0
  -25.2737   -9.5702   22.4763 H   0  0  0  0  0  0
  -23.9997   -7.4638   22.7478 H   0  0  0  0  0  0
  -21.0826   -8.8729   19.8963 H   0  0  0  0  0  0
  -22.3632  -10.9659   19.6176 H   0  0  0  0  0  0
  -21.1977   -7.6146   23.9715 H   0  0  0  0  0  0
  -21.1506   -6.0525   25.9084 H   0  0  0  0  0  0
  -22.0589   -2.7604   23.2844 H   0  0  0  0  0  0
  -22.4066  -11.9871   22.4789 H   0  0  0  0  0  0
  -21.1114  -13.1296   22.2658 H   0  0  0  0  0  0
  -24.6591  -15.8349   20.5523 H   0  0  0  0  0  0
  -26.2766  -15.6444   20.1045 H   0  0  0  0  0  0
  -26.7193  -32.5440   23.1085 H   0  0  0  0  0  0
  -25.0162  -33.9722   25.0465 H   0  0  0  0  0  0
  -22.7141  -31.3019   21.3981 H   0  0  0  0  0  0
  -23.3779  -35.9579   23.3283 H   0  0  0  0  0  0
  -24.3592  -36.8887   22.2060 H   0  0  0  0  0  0
  -23.7232  -37.6449   23.6671 H   0  0  0  0  0  0
  -26.0983  -31.5531   20.6102 H   0  0  0  0  0  0
  -26.8424  -30.8311   22.0057 H   0  0  0  0  0  0
  -28.1149  -28.9802   21.1961 H   0  0  0  0  0  0
  -25.9786  -25.9310   18.9977 H   0  0  0  0  0  0
  -23.9789  -27.3001   19.0138 H   0  0  0  0  0  0
  -23.7568  -30.5941   19.4032 H   0  0  0  0  0  0
  -22.7579  -29.2481   19.8523 H   0  0  0  0  0  0
  -25.1302  -36.1914   25.0838 H   0  0  0  0  0  0
  -20.9985  -28.3228   24.1391 H   0  0  0  0  0  0
  -20.5675  -26.2274   23.3581 H   0  0  0  0  0  0
  -21.6649  -26.7400   22.1183 H   0  0  0  0  0  0
  -19.6926  -25.6280   21.1213 H   0  0  0  0  0  0
  -19.6710  -27.3180   20.6729 H   0  0  0  0  0  0
  -17.4202  -26.6640   21.4028 H   0  0  0  0  0  0
  -18.0351  -26.0052   22.9021 H   0  0  0  0  0  0
  -19.7968  -30.7252   24.2230 H   0  0  0  0  0  0
  -17.5048  -31.6265   24.5131 H   0  0  0  0  0  0
  -15.5373  -30.2964   23.7683 H   0  0  0  0  0  0
  -15.8679  -28.0815   22.7059 H   0  0  0  0  0  0
  -24.5904  -30.7124   25.7787 H   0  0  0  0  0  0
  -24.8996  -32.2928   26.4914 H   0  0  0  0  0  0
  -25.8079  -30.8888   27.0219 H   0  0  0  0  0  0
  -26.2869  -29.6763   24.1224 H   0  0  0  0  0  0
  -27.4098  -29.7279   25.4626 H   0  0  0  0  0  0
  -27.8723  -30.4303   23.9306 H   0  0  0  0  0  0
  -27.2797  -33.3677   26.1932 H   0  0  0  0  0  0
  -28.3991  -32.6666   25.0320 H   0  0  0  0  0  0
  -28.0668  -31.8453   26.5484 H   0  0  0  0  0  0
  -28.2592  -38.0077   24.7500 H   0  0  0  0  0  0
  -28.1060  -36.2598   24.6335 H   0  0  0  0  0  0
  -27.2282  -37.1463   25.8881 H   0  0  0  0  0  0
  -20.9365  -29.8762   21.6903 H   0  0  0  0  0  0
  -26.0164  -38.2839   24.1419 H   0  0  0  0  0  0
  -27.9978  -19.8874   19.5626 H   0  0  0  0  0  0
  -31.7596  -17.4039   21.6295 H   0  0  0  0  0  0
  -30.8325  -22.0301   21.0080 H   0  0  0  0  0  0
  -26.3421  -18.5879   18.9425 H   0  0  0  0  0  0
  -26.2047  -17.0194   18.1702 H   0  0  0  0  0  0
  -27.5007  -18.1030   17.6815 H   0  0  0  0  0  0
  -29.6192  -24.1960   21.4353 H   0  0  0  0  0  0
  -30.2001  -24.2532   19.8017 H   0  0  0  0  0  0
  -27.2919  -24.7303   20.6363 H   0  0  0  0  0  0
  -27.8806  -24.8085   18.9893 H   0  0  0  0  0  0
  -28.7859  -15.3881   20.8213 H   0  0  0  0  0  0
  1 25  1  0  0  0
  1 30  2  0  0  0
  1 82  1  0  0  0
  2  3  1  0  0  0
  2 25  1  0  0  0
  2 85  1  0  0  0
  2 86  1  0  0  0
  3  4  1  0  0  0
  3 87  1  0  0  0
  3 88  1  0  0  0
  4  5  1  0  0  0
  4 89  1  0  0  0
  4 90  1  0  0  0
  5  6  1  0  0  0
  5 26  1  0  0  0
  5 91  1  0  0  0
  6 25  1  0  0  0
  6 92  1  0  0  0
  6 93  1  0  0  0
  7  8  2  0  0  0
  7 26  1  0  0  0
  7 29  1  0  0  0
  8  9  1  0  0  0
  8 22  1  0  0  0
  9 10  1  0  0  0
  9 27  2  0  0  0
 10 11  2  0  0  0
 10 15  1  0  0  0
 11 12  1  0  0  0
 11 94  1  0  0  0
 12 13  2  0  0  0
 12 95  1  0  0  0
 13 14  1  0  0  0
 13 31  1  0  0  0
 14 15  2  0  0  0
 14 96  1  0  0  0
 15 97  1  0  0  0
 16 17  2  0  0  0
 16 21  1  0  0  0
 16 31  1  0  0  0
 17 18  1  0  0  0
 17 98  1  0  0  0
 18 19  2  0  0  0
 18 99  1  0  0  0
 19 20  1  0  0  0
 19 24  1  0  0  0
 20 21  2  0  0  0
 20100  1  0  0  0
 21 23  1  0  0  0
 22 28  1  0  0  0
 22 32  2  0  0  0
 26 27  1  0  0  0
 28101  1  0  0  0
 28102  1  0  0  0
 29103  1  0  0  0
 29104  1  0  0  0
 33 34  1  0  0  0
 33 66  1  0  0  0
 33 70  2  0  0  0
 34 36  1  0  0  0
 34 59  1  0  0  0
 34105  1  0  0  0
 35 44  2  0  0  0
 35 45  1  0  0  0
 35 68  1  0  0  0
 36 56  1  0  0  0
 36106  1  0  0  0
 37 39  1  0  0  0
 37 47  1  0  0  0
 37 66  1  0  0  0
 37107  1  0  0  0
 38 43  2  0  0  0
 38 46  1  0  0  0
 38 47  1  0  0  0
 39 64  1  0  0  0
 39 67  2  0  0  0
 40 52  1  0  0  0
 40 53  2  0  0  0
 40 58  1  0  0  0
 41108  1  0  0  0
 41109  1  0  0  0
 41110  1  0  0  0
 41 48  1  0  0  0
 42 43  1  0  0  0
 42 66  1  0  0  0
 42111  1  0  0  0
 42112  1  0  0  0
 43 44  1  0  0  0
 44113  1  0  0  0
 45 46  2  0  0  0
 45114  1  0  0  0
 46115  1  0  0  0
 47116  1  0  0  0
 47117  1  0  0  0
 48 56  1  0  0  0
 48 65  1  0  0  0
 48118  1  0  0  0
 49 50  1  0  0  0
 49 53  1  0  0  0
 49 64  1  0  0  0
 49119  1  0  0  0
 50 51  1  0  0  0
 50120  1  0  0  0
 50121  1  0  0  0
 51 52  1  0  0  0
 51122  1  0  0  0
 51123  1  0  0  0
 52124  1  0  0  0
 52125  1  0  0  0
 53 54  1  0  0  0
 54 55  2  0  0  0
 54126  1  0  0  0
 55 57  1  0  0  0
 55127  1  0  0  0
 56 69  2  0  0  0
 57 58  2  0  0  0
 57128  1  0  0  0
 58129  1  0  0  0
 59 60  1  0  0  0
 59 61  1  0  0  0
 59 62  1  0  0  0
 60130  1  0  0  0
 60131  1  0  0  0
 60132  1  0  0  0
 61133  1  0  0  0
 61134  1  0  0  0
 61135  1  0  0  0
 62136  1  0  0  0
 62137  1  0  0  0
 62138  1  0  0  0
 63 65  1  0  0  0
 63139  1  0  0  0
 63140  1  0  0  0
 63141  1  0  0  0
 64142  1  0  0  0
 65143  1  0  0  0
 68 80  1  0  0  0
 71 73  2  0  0  0
 71 75  1  0  0  0
 71144  1  0  0  0
 72 74  1  0  0  0
 72 76  2  0  0  0
 72145  1  0  0  0
 73 76  1  0  0  0
 73 77  1  0  0  0
 74 75  2  0  0  0
 74 82  1  0  0  0
 75 83  1  0  0  0
 76 84  1  0  0  0
 77 81  2  0  0  0
 77146  1  0  0  0
 78 83  1  0  0  0
 78147  1  0  0  0
 78148  1  0  0  0
 78149  1  0  0  0
 79 80  1  0  0  0
 79 81  1  0  0  0
 79150  1  0  0  0
 79151  1  0  0  0
 80152  1  0  0  0
 80153  1  0  0  0
 82154  1  0  0  0
M  ISO  4   1 100  68 101  80 101  82 100
M  END
> <chiral flag>
0

> <version>
0

> <s_m_source_file>
/data/baiqing/PycharmProjects/Reinvent-master-3.2/result/LINK_invent/BTK/process_docking_weight1_custom_product_contain_oxygen_bond_distance_aromatic_linkinvent_7_9_3/rearranged_h_0114.sdf

> <i_m_source_file_index>
52

> <r_mmod_Potential_Energy-OPLS-2005>
46.823127746582

> <r_mmod_Stretch_Energy-OPLS-2005>
86.5014266967773

> <r_mmod_Bend_Energy-OPLS-2005>
138.354217529297

> <r_mmod_Torsional_Energy-OPLS-2005>
224.631072998047

> <r_mmod_Improper_Torsional_Energy-OPLS-2005>
5.76592063903809

> <r_mmod_Van_der_Waal_Energy-OPLS-2005>
146.199645996094

> <r_mmod_Electrostatic_Energy-OPLS-2005>
-398.123504638672

> <r_mmod_Solvation_Energy-OPLS-2005>
-210.437393188477

> <b_mmod_Minimization_Converged-OPLS-2005>
0

> <r_mmod_RMS_Derivative-OPLS-2005>
2.11091327667236

$$$$
52
                    3D
 Structure written by MMmdl.
155163  0  0  1  0            999 V2000
  -30.6346  -14.6957   20.4472 C   0  0  0  0  0  0
  -30.4389  -12.4203   19.4565 C   0  0  0  0  0  0
  -29.5065  -12.4988   18.2271 C   0  0  0  0  0  0
  -28.0358  -12.3197   18.6520 C   0  0  0  0  0  0
  -27.6434  -13.2233   19.8505 C   0  0  2  0  0  0
  -28.6971  -13.1426   20.9811 C   0  0  0  0  0  0
  -25.2367  -13.8055   20.5593 C   0  0  0  0  0  0
  -24.1728  -13.0315   20.9215 C   0  0  0  0  0  0
  -24.6377  -11.6835   20.8768 C   0  0  0  0  0  0
  -23.9065  -10.4231   21.0412 C   0  0  0  0  0  0
  -24.3623   -9.4161   21.9196 C   0  0  0  0  0  0
  -23.6283   -8.2213   22.0772 C   0  0  0  0  0  0
  -22.4259   -8.0268   21.3553 C   0  0  0  0  0  0
  -21.9887   -9.0237   20.4650 C   0  0  0  0  0  0
  -22.7238  -10.2104   20.3059 C   0  0  0  0  0  0
  -21.6842   -6.0701   22.5270 C   0  0  0  0  0  0
  -21.4020   -6.5618   23.8203 C   0  0  0  0  0  0
  -21.3656   -5.6781   24.9163 C   0  0  0  0  0  0
  -21.6044   -4.3043   24.7226 C   0  0  0  0  0  0
  -21.8815   -3.8122   23.4354 C   0  0  0  0  0  0
  -21.9193   -4.6931   22.3400 C   0  0  0  0  0  0
  -22.7748  -13.5109   21.1859 C   0  0  0  0  0  0
  -22.1662   -4.2117   21.0977 F   0  0  0  0  0  0
  -21.5621   -3.4530   25.7745 F   0  0  0  0  0  0
  -30.0103  -13.4722   20.4004 N   0  0  0  0  0  0
  -26.2907  -12.9345   20.3264 N   0  0  0  0  0  0
  -25.9327  -11.6495   20.5802 N   0  0  0  0  0  0
  -22.0403  -12.8150   22.0447 N   0  0  0  0  0  0
  -25.3655  -15.1729   20.3854 N   0  0  0  0  0  0
  -31.8206  -14.8183   20.1337 O   0  0  0  0  0  0
  -21.6634   -6.8854   21.4232 O   0  0  0  0  0  0
  -22.3445  -14.5430   20.6720 O   0  0  0  0  0  0
  -24.6271  -31.8589   23.2022 C   0  0  0  0  0  0
  -25.9114  -32.4768   23.8348 C   0  0  1  0  0  0
  -27.2368  -27.3255   20.1079 C   0  0  0  0  0  0
  -25.5922  -33.8563   24.2283 N   0  0  0  0  0  0
  -23.4203  -30.4826   21.5436 C   0  0  2  0  0  0
  -24.8690  -28.9363   20.1117 C   0  0  0  0  0  0
  -22.7481  -29.4619   22.4935 C   0  0  0  0  0  0
  -18.0297  -28.1371   22.8479 C   0  0  0  0  0  0
  -24.1497  -36.7304   23.2645 C   0  0  0  0  0  0
  -25.9614  -30.7905   21.3734 C   0  0  0  0  0  0
  -26.0374  -29.4184   20.7149 C   0  0  0  0  0  0
  -27.2230  -28.6245   20.7053 C   0  0  0  0  0  0
  -26.0392  -26.8922   19.4905 C   0  0  0  0  0  0
  -24.8704  -27.6774   19.4930 C   0  0  0  0  0  0
  -23.6357  -29.8143   20.1596 C   0  0  0  0  0  0
  -25.4116  -36.3072   24.0336 C   0  0  1  0  0  0
  -20.5896  -28.3675   23.1275 C   0  0  2  0  0  0
  -20.6778  -26.9395   22.5404 C   0  0  0  0  0  0
  -19.5747  -26.6368   21.5213 C   0  0  0  0  0  0
  -18.1933  -26.7910   22.1627 C   0  0  0  0  0  0
  -19.1547  -28.8844   23.2876 C   0  0  0  0  0  0
  -18.9469  -30.1443   23.8904 C   0  0  0  0  0  0
  -17.6466  -30.6557   24.0570 C   0  0  0  0  0  0
  -25.9045  -34.9446   23.5113 C   0  0  0  0  0  0
  -16.5362  -29.9062   23.6319 C   0  0  0  0  0  0
  -16.7281  -28.6476   23.0346 C   0  0  0  0  0  0
  -26.4501  -31.6572   25.0718 C   0  0  0  0  0  0
  -25.3733  -31.3759   26.1461 C   0  0  0  0  0  0
  -27.0337  -30.2981   24.6186 C   0  0  0  0  0  0
  -27.6063  -32.4316   25.7474 C   0  0  0  0  0  0
  -27.5570  -37.1823   24.8478 C   0  0  0  0  0  0
  -21.4195  -29.3035   22.3673 N   0  0  0  0  0  0
  -26.4312  -37.3741   23.9378 N   0  0  0  0  0  0
  -24.6881  -31.0608   22.0971 N   0  0  0  0  0  0
  -23.4210  -28.8166   23.3016 O   0  0  0  0  0  0
  -28.3698  -26.4943   20.1367 O   0  0  0  0  0  0
  -26.5599  -34.8903   22.4673 O   0  0  0  0  0  0
  -23.5438  -32.1393   23.7349 O   0  0  0  0  0  0
  -28.8996  -19.4788   20.0631 C   0  0  0  0  0  0
  -31.1627  -17.9633   20.7306 C   0  0  0  0  0  0
  -28.8447  -18.0517   20.0991 C   0  0  0  0  0  0
  -30.0797  -20.2037   20.3636 C   0  0  0  0  0  0
  -29.9680  -17.2414   20.4698 C   0  0  0  0  0  0
  -31.2149  -19.3932   20.6747 C   0  0  0  0  0  0
  -29.2714  -22.5442   20.1814 C   0  0  0  0  0  0
  -29.4222  -24.1113   20.1797 C   0  0  0  0  0  0
  -27.4836  -17.0473   18.2076 C   0  0  0  0  0  0
  -27.5319  -17.4134   19.7018 C   0  0  0  0  0  0
  -28.1713  -25.0381   19.9251 C   0  0  0  0  0  0
  -30.2041  -21.6454   20.3561 N   0  0  0  0  0  0
  -29.8109  -15.7811   20.6334 N   0  0  0  0  0  0
  -30.5280  -24.6417   20.3545 O   0  0  0  0  0  0
  -32.3983  -19.9989   20.9431 F   0  0  0  0  0  0
  -31.4793  -12.5415   19.1483 H   0  0  0  0  0  0
  -30.3753  -11.4401   19.9307 H   0  0  0  0  0  0
  -29.7788  -11.7338   17.4984 H   0  0  0  0  0  0
  -29.6333  -13.4595   17.7241 H   0  0  0  0  0  0
  -27.9013  -11.2713   18.9247 H   0  0  0  0  0  0
  -27.3730  -12.5001   17.8053 H   0  0  0  0  0  0
  -27.6366  -14.2439   19.4696 H   0  0  0  0  0  0
  -28.7186  -12.1460   21.4218 H   0  0  0  0  0  0
  -28.4399  -13.8245   21.7938 H   0  0  0  0  0  0
  -25.2781   -9.5622   22.4754 H   0  0  0  0  0  0
  -23.9967   -7.4604   22.7511 H   0  0  0  0  0  0
  -21.0797   -8.8763   19.8980 H   0  0  0  0  0  0
  -22.3703  -10.9639   19.6164 H   0  0  0  0  0  0
  -21.2028   -7.6132   23.9681 H   0  0  0  0  0  0
  -21.1475   -6.0526   25.9063 H   0  0  0  0  0  0
  -22.0603   -2.7575   23.2876 H   0  0  0  0  0  0
  -22.4040  -11.9842   22.4876 H   0  0  0  0  0  0
  -21.1019  -13.1185   22.2634 H   0  0  0  0  0  0
  -24.5604  -15.7867   20.4655 H   0  0  0  0  0  0
  -26.1490  -15.6091   19.9223 H   0  0  0  0  0  0
  -26.7190  -32.5447   23.1103 H   0  0  0  0  0  0
  -25.0075  -33.9692   25.0433 H   0  0  0  0  0  0
  -22.7133  -31.3033   21.3989 H   0  0  0  0  0  0
  -23.3680  -35.9727   23.3435 H   0  0  0  0  0  0
  -24.3561  -36.8784   22.2033 H   0  0  0  0  0  0
  -23.7367  -37.6602   23.6565 H   0  0  0  0  0  0
  -26.0954  -31.5535   20.6056 H   0  0  0  0  0  0
  -26.8413  -30.8385   22.0027 H   0  0  0  0  0  0
  -28.1193  -28.9902   21.1865 H   0  0  0  0  0  0
  -25.9728  -25.9322   19.0006 H   0  0  0  0  0  0
  -23.9733  -27.3019   19.0187 H   0  0  0  0  0  0
  -23.7524  -30.5892   19.4014 H   0  0  0  0  0  0
  -22.7559  -29.2420   19.8591 H   0  0  0  0  0  0
  -25.1305  -36.1950   25.0831 H   0  0  0  0  0  0
  -20.9998  -28.3261   24.1396 H   0  0  0  0  0  0
  -20.5671  -26.2297   23.3613 H   0  0  0  0  0  0
  -21.6653  -26.7414   22.1211 H   0  0  0  0  0  0
  -19.6914  -25.6286   21.1228 H   0  0  0  0  0  0
  -19.6674  -27.3194   20.6757 H   0  0  0  0  0  0
  -17.4205  -26.6658   21.4033 H   0  0  0  0  0  0
  -18.0334  -26.0048   22.9014 H   0  0  0  0  0  0
  -19.7950  -30.7258   24.2280 H   0  0  0  0  0  0
  -17.5018  -31.6245   24.5162 H   0  0  0  0  0  0
  -15.5361  -30.2975   23.7616 H   0  0  0  0  0  0
  -15.8684  -28.0795   22.7065 H   0  0  0  0  0  0
  -24.5884  -30.7123   25.7821 H   0  0  0  0  0  0
  -24.8961  -32.2960   26.4847 H   0  0  0  0  0  0
  -25.8054  -30.8968   27.0250 H   0  0  0  0  0  0
  -26.2917  -29.6724   24.1212 H   0  0  0  0  0  0
  -27.4033  -29.7250   25.4695 H   0  0  0  0  0  0
  -27.8788  -30.4256   23.9420 H   0  0  0  0  0  0
  -27.2650  -33.3586   26.2087 H   0  0  0  0  0  0
  -28.3830  -32.6925   25.0276 H   0  0  0  0  0  0
  -28.0769  -31.8434   26.5355 H   0  0  0  0  0  0
  -28.2674  -38.0021   24.7360 H   0  0  0  0  0  0
  -28.0968  -36.2555   24.6499 H   0  0  0  0  0  0
  -27.2265  -37.1729   25.8875 H   0  0  0  0  0  0
  -20.9382  -29.8781   21.6897 H   0  0  0  0  0  0
  -26.0209  -38.2846   24.1249 H   0  0  0  0  0  0
  -27.9996  -20.0102   19.7904 H   0  0  0  0  0  0
  -32.0629  -17.4322   21.0014 H   0  0  0  0  0  0
  -28.2442  -22.2103   20.0193 H   0  0  0  0  0  0
  -26.5551  -16.5390   17.9475 H   0  0  0  0  0  0
  -28.3077  -16.3924   17.9223 H   0  0  0  0  0  0
  -27.5409  -17.9399   17.5827 H   0  0  0  0  0  0
  -26.6982  -18.0777   19.9404 H   0  0  0  0  0  0
  -27.4015  -16.5450   20.3346 H   0  0  0  0  0  0
  -27.3606  -24.6891   20.5642 H   0  0  0  0  0  0
  -27.8595  -24.8730   18.8935 H   0  0  0  0  0  0
  -28.8619  -15.4926   20.8043 H   0  0  0  0  0  0
  1 25  1  0  0  0
  1 30  2  0  0  0
  1 83  1  0  0  0
  2  3  1  0  0  0
  2 25  1  0  0  0
  2 86  1  0  0  0
  2 87  1  0  0  0
  3  4  1  0  0  0
  3 88  1  0  0  0
  3 89  1  0  0  0
  4  5  1  0  0  0
  4 90  1  0  0  0
  4 91  1  0  0  0
  5  6  1  0  0  0
  5 26  1  0  0  0
  5 92  1  0  0  0
  6 25  1  0  0  0
  6 93  1  0  0  0
  6 94  1  0  0  0
  7  8  2  0  0  0
  7 26  1  0  0  0
  7 29  1  0  0  0
  8  9  1  0  0  0
  8 22  1  0  0  0
  9 10  1  0  0  0
  9 27  2  0  0  0
 10 11  2  0  0  0
 10 15  1  0  0  0
 11 12  1  0  0  0
 11 95  1  0  0  0
 12 13  2  0  0  0
 12 96  1  0  0  0
 13 14  1  0  0  0
 13 31  1  0  0  0
 14 15  2  0  0  0
 14 97  1  0  0  0
 15 98  1  0  0  0
 16 17  2  0  0  0
 16 21  1  0  0  0
 16 31  1  0  0  0
 17 18  1  0  0  0
 17 99  1  0  0  0
 18 19  2  0  0  0
 18100  1  0  0  0
 19 20  1  0  0  0
 19 24  1  0  0  0
 20 21  2  0  0  0
 20101  1  0  0  0
 21 23  1  0  0  0
 22 28  1  0  0  0
 22 32  2  0  0  0
 26 27  1  0  0  0
 28102  1  0  0  0
 28103  1  0  0  0
 29104  1  0  0  0
 29105  1  0  0  0
 33 34  1  0  0  0
 33 66  1  0  0  0
 33 70  2  0  0  0
 34 36  1  0  0  0
 34 59  1  0  0  0
 34106  1  0  0  0
 35 44  2  0  0  0
 35 45  1  0  0  0
 35 68  1  0  0  0
 36 56  1  0  0  0
 36107  1  0  0  0
 37 39  1  0  0  0
 37 47  1  0  0  0
 37 66  1  0  0  0
 37108  1  0  0  0
 38 43  2  0  0  0
 38 46  1  0  0  0
 38 47  1  0  0  0
 39 64  1  0  0  0
 39 67  2  0  0  0
 40 52  1  0  0  0
 40 53  2  0  0  0
 40 58  1  0  0  0
 41109  1  0  0  0
 41110  1  0  0  0
 41111  1  0  0  0
 41 48  1  0  0  0
 42 43  1  0  0  0
 42 66  1  0  0  0
 42112  1  0  0  0
 42113  1  0  0  0
 43 44  1  0  0  0
 44114  1  0  0  0
 45 46  2  0  0  0
 45115  1  0  0  0
 46116  1  0  0  0
 47117  1  0  0  0
 47118  1  0  0  0
 48 56  1  0  0  0
 48 65  1  0  0  0
 48119  1  0  0  0
 49 50  1  0  0  0
 49 53  1  0  0  0
 49 64  1  0  0  0
 49120  1  0  0  0
 50 51  1  0  0  0
 50121  1  0  0  0
 50122  1  0  0  0
 51 52  1  0  0  0
 51123  1  0  0  0
 51124  1  0  0  0
 52125  1  0  0  0
 52126  1  0  0  0
 53 54  1  0  0  0
 54 55  2  0  0  0
 54127  1  0  0  0
 55 57  1  0  0  0
 55128  1  0  0  0
 56 69  2  0  0  0
 57 58  2  0  0  0
 57129  1  0  0  0
 58130  1  0  0  0
 59 60  1  0  0  0
 59 61  1  0  0  0
 59 62  1  0  0  0
 60131  1  0  0  0
 60132  1  0  0  0
 60133  1  0  0  0
 61134  1  0  0  0
 61135  1  0  0  0
 61136  1  0  0  0
 62137  1  0  0  0
 62138  1  0  0  0
 62139  1  0  0  0
 63 65  1  0  0  0
 63140  1  0  0  0
 63141  1  0  0  0
 63142  1  0  0  0
 64143  1  0  0  0
 65144  1  0  0  0
 68 81  1  0  0  0
 71 73  2  0  0  0
 71 74  1  0  0  0
 71145  1  0  0  0
 72 75  2  0  0  0
 72 76  1  0  0  0
 72146  1  0  0  0
 73 75  1  0  0  0
 73 80  1  0  0  0
 74 76  2  0  0  0
 74 82  1  0  0  0
 75 83  1  0  0  0
 76 85  1  0  0  0
 77 78  1  0  0  0
 77 82  2  0  0  0
 77147  1  0  0  0
 78 81  1  0  0  0
 78 84  2  0  0  0
 79 80  1  0  0  0
 79148  1  0  0  0
 79149  1  0  0  0
 79150  1  0  0  0
 80151  1  0  0  0
 80152  1  0  0  0
 81153  1  0  0  0
 81154  1  0  0  0
 83155  1  0  0  0
M  ISO  4   1 100  68 101  81 101  83 100
M  END
> <chiral flag>
0

> <version>
0

> <s_m_source_file>
/data/baiqing/PycharmProjects/Reinvent-master-3.2/result/LINK_invent/BTK/process_docking_weight1_custom_product_contain_oxygen_bond_distance_aromatic_linkinvent_7_9_3/rearranged_h_0114.sdf

> <i_m_source_file_index>
53

> <r_mmod_Potential_Energy-OPLS-2005>
124.501220703125

> <r_mmod_Stretch_Energy-OPLS-2005>
89.3266296386719

> <r_mmod_Bend_Energy-OPLS-2005>
146.280471801758

> <r_mmod_Torsional_Energy-OPLS-2005>
216.14582824707

> <r_mmod_Improper_Torsional_Energy-OPLS-2005>
6.35727119445801

> <r_mmod_Van_der_Waal_Energy-OPLS-2005>
142.726440429688

> <r_mmod_Electrostatic_Energy-OPLS-2005>
-284.669616699219

> <r_mmod_Solvation_Energy-OPLS-2005>
-251.049163818359

> <b_mmod_Minimization_Converged-OPLS-2005>
0

> <r_mmod_RMS_Derivative-OPLS-2005>
3.1108455657959

$$$$
53
                    3D
 Structure written by MMmdl.
156164  0  0  1  0            999 V2000
  -30.6269  -14.6156   20.5295 C   0  0  0  0  0  0
  -30.4422  -12.3895   19.4410 C   0  0  0  0  0  0
  -29.5065  -12.5267   18.2183 C   0  0  0  0  0  0
  -28.0280  -12.3711   18.6271 C   0  0  0  0  0  0
  -27.6577  -13.2196   19.8734 C   0  0  2  0  0  0
  -28.7018  -13.0401   21.0002 C   0  0  0  0  0  0
  -25.2535  -13.8175   20.5697 C   0  0  0  0  0  0
  -24.1790  -13.0428   20.9150 C   0  0  0  0  0  0
  -24.6349  -11.6904   20.8709 C   0  0  0  0  0  0
  -23.9033  -10.4276   21.0364 C   0  0  0  0  0  0
  -24.3588   -9.4193   21.9139 C   0  0  0  0  0  0
  -23.6275   -8.2229   22.0750 C   0  0  0  0  0  0
  -22.4259   -8.0249   21.3521 C   0  0  0  0  0  0
  -21.9853   -9.0233   20.4644 C   0  0  0  0  0  0
  -22.7199  -10.2096   20.3027 C   0  0  0  0  0  0
  -21.6849   -6.0711   22.5270 C   0  0  0  0  0  0
  -21.4036   -6.5623   23.8195 C   0  0  0  0  0  0
  -21.3660   -5.6757   24.9154 C   0  0  0  0  0  0
  -21.6033   -4.3032   24.7213 C   0  0  0  0  0  0
  -21.8817   -3.8126   23.4346 C   0  0  0  0  0  0
  -21.9204   -4.6947   22.3393 C   0  0  0  0  0  0
  -22.7807  -13.5254   21.1807 C   0  0  0  0  0  0
  -22.1673   -4.2131   21.0977 F   0  0  0  0  0  0
  -21.5613   -3.4515   25.7734 F   0  0  0  0  0  0
  -30.0237  -13.3871   20.4479 N   0  0  0  0  0  0
  -26.2995  -12.9372   20.3345 N   0  0  0  0  0  0
  -25.9298  -11.6522   20.5733 N   0  0  0  0  0  0
  -22.0462  -12.8270   22.0383 N   0  0  0  0  0  0
  -25.4272  -15.1911   20.4190 N   0  0  0  0  0  0
  -31.7704  -14.7961   20.0973 O   0  0  0  0  0  0
  -21.6637   -6.8851   21.4220 O   0  0  0  0  0  0
  -22.3521  -14.5582   20.6702 O   0  0  0  0  0  0
  -24.6253  -31.8569   23.2005 C   0  0  0  0  0  0
  -25.9108  -32.4758   23.8301 C   0  0  1  0  0  0
  -27.2168  -27.3065   20.1302 C   0  0  0  0  0  0
  -25.5919  -33.8555   24.2230 N   0  0  0  0  0  0
  -23.4176  -30.4851   21.5414 C   0  0  2  0  0  0
  -24.8654  -28.9345   20.1135 C   0  0  0  0  0  0
  -22.7447  -29.4618   22.4875 C   0  0  0  0  0  0
  -18.0295  -28.1422   22.8488 C   0  0  0  0  0  0
  -24.1491  -36.7282   23.2641 C   0  0  0  0  0  0
  -25.9614  -30.7854   21.3721 C   0  0  0  0  0  0
  -26.0349  -29.4117   20.7184 C   0  0  0  0  0  0
  -27.2155  -28.6088   20.7167 C   0  0  0  0  0  0
  -26.0246  -26.8843   19.4965 C   0  0  0  0  0  0
  -24.8592  -27.6730   19.4993 C   0  0  0  0  0  0
  -23.6364  -29.8196   20.1563 C   0  0  0  0  0  0
  -25.4119  -36.3057   24.0307 C   0  0  1  0  0  0
  -20.5895  -28.3708   23.1284 C   0  0  2  0  0  0
  -20.6786  -26.9418   22.5442 C   0  0  0  0  0  0
  -19.5773  -26.6406   21.5232 C   0  0  0  0  0  0
  -18.1937  -26.7966   22.1623 C   0  0  0  0  0  0
  -19.1553  -28.8876   23.2894 C   0  0  0  0  0  0
  -18.9483  -30.1480   23.8906 C   0  0  0  0  0  0
  -17.6486  -30.6622   24.0577 C   0  0  0  0  0  0
  -25.9042  -34.9434   23.5061 C   0  0  0  0  0  0
  -16.5375  -29.9127   23.6346 C   0  0  0  0  0  0
  -16.7281  -28.6557   23.0338 C   0  0  0  0  0  0
  -26.4514  -31.6583   25.0680 C   0  0  0  0  0  0
  -25.3786  -31.3772   26.1455 C   0  0  0  0  0  0
  -27.0314  -30.2976   24.6147 C   0  0  0  0  0  0
  -27.6016  -32.4384   25.7490 C   0  0  0  0  0  0
  -27.5580  -37.1804   24.8459 C   0  0  0  0  0  0
  -21.4161  -29.3033   22.3625 N   0  0  0  0  0  0
  -26.4296  -37.3758   23.9406 N   0  0  0  0  0  0
  -24.6876  -31.0598   22.0949 N   0  0  0  0  0  0
  -23.4164  -28.8124   23.2952 O   0  0  0  0  0  0
  -28.3305  -26.4529   20.1624 O   0  0  0  0  0  0
  -26.5609  -34.8923   22.4626 O   0  0  0  0  0  0
  -23.5431  -32.1369   23.7358 O   0  0  0  0  0  0
  -29.5412  -17.9874   21.8003 C   0  0  0  0  0  0
  -30.0844  -17.7146   19.4634 C   0  0  0  0  0  0
  -29.8760  -17.0982   20.7386 C   0  0  0  0  0  0
  -30.0504  -19.1431   19.3244 C   0  0  0  0  0  0
  -29.7232  -20.0285   20.3920 C   0  0  0  0  0  0
  -29.4563  -19.4052   21.6437 C   0  0  0  0  0  0
  -30.2799  -16.8732   18.2029 C   0  0  0  0  0  0
  -29.2270  -23.9426   20.3075 C   0  0  0  0  0  0
  -28.0889  -25.0332   20.5326 C   0  0  0  0  0  0
  -28.9535  -22.4415   20.8024 C   0  0  0  0  0  0
  -30.3101  -19.7263   18.0818 N   0  0  0  0  0  0
  -29.8460  -15.6463   20.9805 N   0  0  0  0  0  0
  -29.7430  -21.4188   20.1098 O   0  0  0  0  0  0
  -29.1386  -20.1568   22.7275 F   0  0  0  0  0  0
  -31.4829  -12.5146   19.1316 H   0  0  0  0  0  0
  -30.3792  -11.3837   19.8549 H   0  0  0  0  0  0
  -29.7639  -11.7906   17.4553 H   0  0  0  0  0  0
  -29.6579  -13.5000   17.7499 H   0  0  0  0  0  0
  -27.8425  -11.3169   18.8298 H   0  0  0  0  0  0
  -27.3852  -12.6395   17.7891 H   0  0  0  0  0  0
  -27.6872  -14.2621   19.5547 H   0  0  0  0  0  0
  -28.7034  -12.0055   21.3486 H   0  0  0  0  0  0
  -28.4467  -13.6423   21.8731 H   0  0  0  0  0  0
  -25.2733   -9.5699   22.4686 H   0  0  0  0  0  0
  -23.9972   -7.4639   22.7503 H   0  0  0  0  0  0
  -21.0755   -8.8790   19.8975 H   0  0  0  0  0  0
  -22.3676  -10.9629   19.6136 H   0  0  0  0  0  0
  -21.2040   -7.6127   23.9703 H   0  0  0  0  0  0
  -21.1479   -6.0487   25.9044 H   0  0  0  0  0  0
  -22.0613   -2.7594   23.2860 H   0  0  0  0  0  0
  -22.4133  -11.9991   22.4810 H   0  0  0  0  0  0
  -21.1084  -13.1335   22.2589 H   0  0  0  0  0  0
  -24.6577  -15.8425   20.5317 H   0  0  0  0  0  0
  -26.2776  -15.6305   20.0919 H   0  0  0  0  0  0
  -26.7126  -32.5419   23.1003 H   0  0  0  0  0  0
  -25.0079  -33.9693   25.0378 H   0  0  0  0  0  0
  -22.7125  -31.3064   21.3939 H   0  0  0  0  0  0
  -23.3740  -35.9627   23.3306 H   0  0  0  0  0  0
  -24.3562  -36.8917   22.2055 H   0  0  0  0  0  0
  -23.7294  -37.6502   23.6660 H   0  0  0  0  0  0
  -26.0950  -31.5438   20.5999 H   0  0  0  0  0  0
  -26.8409  -30.8323   21.9990 H   0  0  0  0  0  0
  -28.1117  -28.9673   21.2025 H   0  0  0  0  0  0
  -25.9652  -25.9313   18.9898 H   0  0  0  0  0  0
  -23.9593  -27.3019   19.0288 H   0  0  0  0  0  0
  -23.7629  -30.5951   19.4008 H   0  0  0  0  0  0
  -22.7557  -29.2567   19.8444 H   0  0  0  0  0  0
  -25.1318  -36.1864   25.0797 H   0  0  0  0  0  0
  -21.0026  -28.3334   24.1392 H   0  0  0  0  0  0
  -20.5711  -26.2299   23.3643 H   0  0  0  0  0  0
  -21.6647  -26.7456   22.1226 H   0  0  0  0  0  0
  -19.6914  -25.6315   21.1273 H   0  0  0  0  0  0
  -19.6754  -27.3211   20.6753 H   0  0  0  0  0  0
  -17.4211  -26.6735   21.4015 H   0  0  0  0  0  0
  -18.0316  -26.0141   22.9046 H   0  0  0  0  0  0
  -19.7955  -30.7310   24.2270 H   0  0  0  0  0  0
  -17.5041  -31.6300   24.5179 H   0  0  0  0  0  0
  -15.5380  -30.3026   23.7693 H   0  0  0  0  0  0
  -15.8674  -28.0895   22.7029 H   0  0  0  0  0  0
  -24.5927  -30.7117   25.7873 H   0  0  0  0  0  0
  -24.9043  -32.2970   26.4883 H   0  0  0  0  0  0
  -25.8208  -30.9007   27.0206 H   0  0  0  0  0  0
  -26.2835  -29.6787   24.1183 H   0  0  0  0  0  0
  -27.3960  -29.7216   25.4657 H   0  0  0  0  0  0
  -27.8733  -30.4207   23.9337 H   0  0  0  0  0  0
  -27.2479  -33.3641   26.2050 H   0  0  0  0  0  0
  -28.3838  -32.7059   25.0369 H   0  0  0  0  0  0
  -28.0625  -31.8542   26.5468 H   0  0  0  0  0  0
  -28.2596  -38.0105   24.7470 H   0  0  0  0  0  0
  -28.1077  -36.2629   24.6296 H   0  0  0  0  0  0
  -27.2277  -37.1465   25.8862 H   0  0  0  0  0  0
  -20.9301  -29.8733   21.6831 H   0  0  0  0  0  0
  -26.0149  -38.2799   24.1482 H   0  0  0  0  0  0
  -29.3342  -17.5852   22.7813 H   0  0  0  0  0  0
  -29.9023  -15.8603   18.3032 H   0  0  0  0  0  0
  -31.3352  -16.8362   17.9287 H   0  0  0  0  0  0
  -29.7181  -17.2901   17.3688 H   0  0  0  0  0  0
  -30.1489  -24.2963   20.7746 H   0  0  0  0  0  0
  -29.4450  -23.9158   19.2390 H   0  0  0  0  0  0
  -27.8141  -25.0257   21.5895 H   0  0  0  0  0  0
  -27.2229  -24.6388   20.0044 H   0  0  0  0  0  0
  -27.9010  -22.2065   20.6539 H   0  0  0  0  0  0
  -29.1334  -22.3927   21.8759 H   0  0  0  0  0  0
  -30.1729  -19.1685   17.2464 H   0  0  0  0  0  0
  -30.0217  -20.6945   17.9797 H   0  0  0  0  0  0
  -29.0505  -15.3212   21.5133 H   0  0  0  0  0  0
  1 25  1  0  0  0
  1 30  2  0  0  0
  1 82  1  0  0  0
  2  3  1  0  0  0
  2 25  1  0  0  0
  2 85  1  0  0  0
  2 86  1  0  0  0
  3  4  1  0  0  0
  3 87  1  0  0  0
  3 88  1  0  0  0
  4  5  1  0  0  0
  4 89  1  0  0  0
  4 90  1  0  0  0
  5  6  1  0  0  0
  5 26  1  0  0  0
  5 91  1  0  0  0
  6 25  1  0  0  0
  6 92  1  0  0  0
  6 93  1  0  0  0
  7  8  2  0  0  0
  7 26  1  0  0  0
  7 29  1  0  0  0
  8  9  1  0  0  0
  8 22  1  0  0  0
  9 10  1  0  0  0
  9 27  2  0  0  0
 10 11  2  0  0  0
 10 15  1  0  0  0
 11 12  1  0  0  0
 11 94  1  0  0  0
 12 13  2  0  0  0
 12 95  1  0  0  0
 13 14  1  0  0  0
 13 31  1  0  0  0
 14 15  2  0  0  0
 14 96  1  0  0  0
 15 97  1  0  0  0
 16 17  2  0  0  0
 16 21  1  0  0  0
 16 31  1  0  0  0
 17 18  1  0  0  0
 17 98  1  0  0  0
 18 19  2  0  0  0
 18 99  1  0  0  0
 19 20  1  0  0  0
 19 24  1  0  0  0
 20 21  2  0  0  0
 20100  1  0  0  0
 21 23  1  0  0  0
 22 28  1  0  0  0
 22 32  2  0  0  0
 26 27  1  0  0  0
 28101  1  0  0  0
 28102  1  0  0  0
 29103  1  0  0  0
 29104  1  0  0  0
 33 34  1  0  0  0
 33 66  1  0  0  0
 33 70  2  0  0  0
 34 36  1  0  0  0
 34 59  1  0  0  0
 34105  1  0  0  0
 35 44  2  0  0  0
 35 45  1  0  0  0
 35 68  1  0  0  0
 36 56  1  0  0  0
 36106  1  0  0  0
 37 39  1  0  0  0
 37 47  1  0  0  0
 37 66  1  0  0  0
 37107  1  0  0  0
 38 43  2  0  0  0
 38 46  1  0  0  0
 38 47  1  0  0  0
 39 64  1  0  0  0
 39 67  2  0  0  0
 40 52  1  0  0  0
 40 53  2  0  0  0
 40 58  1  0  0  0
 41108  1  0  0  0
 41109  1  0  0  0
 41110  1  0  0  0
 41 48  1  0  0  0
 42 43  1  0  0  0
 42 66  1  0  0  0
 42111  1  0  0  0
 42112  1  0  0  0
 43 44  1  0  0  0
 44113  1  0  0  0
 45 46  2  0  0  0
 45114  1  0  0  0
 46115  1  0  0  0
 47116  1  0  0  0
 47117  1  0  0  0
 48 56  1  0  0  0
 48 65  1  0  0  0
 48118  1  0  0  0
 49 50  1  0  0  0
 49 53  1  0  0  0
 49 64  1  0  0  0
 49119  1  0  0  0
 50 51  1  0  0  0
 50120  1  0  0  0
 50121  1  0  0  0
 51 52  1  0  0  0
 51122  1  0  0  0
 51123  1  0  0  0
 52124  1  0  0  0
 52125  1  0  0  0
 53 54  1  0  0  0
 54 55  2  0  0  0
 54126  1  0  0  0
 55 57  1  0  0  0
 55127  1  0  0  0
 56 69  2  0  0  0
 57 58  2  0  0  0
 57128  1  0  0  0
 58129  1  0  0  0
 59 60  1  0  0  0
 59 61  1  0  0  0
 59 62  1  0  0  0
 60130  1  0  0  0
 60131  1  0  0  0
 60132  1  0  0  0
 61133  1  0  0  0
 61134  1  0  0  0
 61135  1  0  0  0
 62136  1  0  0  0
 62137  1  0  0  0
 62138  1  0  0  0
 63 65  1  0  0  0
 63139  1  0  0  0
 63140  1  0  0  0
 63141  1  0  0  0
 64142  1  0  0  0
 65143  1  0  0  0
 68 79  1  0  0  0
 71 73  2  0  0  0
 71 76  1  0  0  0
 71144  1  0  0  0
 72 73  1  0  0  0
 72 74  2  0  0  0
 72 77  1  0  0  0
 73 82  1  0  0  0
 74 75  1  0  0  0
 74 81  1  0  0  0
 75 76  2  0  0  0
 75 83  1  0  0  0
 76 84  1  0  0  0
 77145  1  0  0  0
 77146  1  0  0  0
 77147  1  0  0  0
 78 79  1  0  0  0
 78 80  1  0  0  0
 78148  1  0  0  0
 78149  1  0  0  0
 79150  1  0  0  0
 79151  1  0  0  0
 80 83  1  0  0  0
 80152  1  0  0  0
 80153  1  0  0  0
 81154  1  0  0  0
 81155  1  0  0  0
 82156  1  0  0  0
M  ISO  4   1 100  68 101  79 101  82 100
M  END
> <chiral flag>
0

> <version>
0

> <s_m_source_file>
/data/baiqing/PycharmProjects/Reinvent-master-3.2/result/LINK_invent/BTK/process_docking_weight1_custom_product_contain_oxygen_bond_distance_aromatic_linkinvent_7_9_3/rearranged_h_0114.sdf

> <i_m_source_file_index>
54

> <r_mmod_Potential_Energy-OPLS-2005>
107.645927429199

> <r_mmod_Stretch_Energy-OPLS-2005>
86.5498428344727

> <r_mmod_Bend_Energy-OPLS-2005>
152.113189697266

> <r_mmod_Torsional_Energy-OPLS-2005>
252.610000610352

> <r_mmod_Improper_Torsional_Energy-OPLS-2005>
7.50507640838623

> <r_mmod_Van_der_Waal_Energy-OPLS-2005>
150.633926391602

> <r_mmod_Electrostatic_Energy-OPLS-2005>
-368.8896484375

> <r_mmod_Solvation_Energy-OPLS-2005>
-218.992263793945

> <b_mmod_Minimization_Converged-OPLS-2005>
0

> <r_mmod_RMS_Derivative-OPLS-2005>
4.44267082214355

$$$$
54
                    3D
 Structure written by MMmdl.
165173  0  0  1  0            999 V2000
  -30.5539  -14.7636   20.4650 C   0  0  0  0  0  0
  -30.4411  -12.4662   19.4665 C   0  0  0  0  0  0
  -29.5084  -12.4986   18.2333 C   0  0  0  0  0  0
  -28.0372  -12.3106   18.6584 C   0  0  0  0  0  0
  -27.6392  -13.2168   19.8534 C   0  0  2  0  0  0
  -28.6847  -13.1453   20.9867 C   0  0  0  0  0  0
  -25.2511  -13.8146   20.5749 C   0  0  0  0  0  0
  -24.1795  -13.0422   20.9243 C   0  0  0  0  0  0
  -24.6357  -11.6887   20.8764 C   0  0  0  0  0  0
  -23.9024  -10.4280   21.0418 C   0  0  0  0  0  0
  -24.3587   -9.4204   21.9191 C   0  0  0  0  0  0
  -23.6288   -8.2233   22.0742 C   0  0  0  0  0  0
  -22.4275   -8.0255   21.3534 C   0  0  0  0  0  0
  -21.9903   -9.0220   20.4641 C   0  0  0  0  0  0
  -22.7205  -10.2113   20.3063 C   0  0  0  0  0  0
  -21.6845   -6.0731   22.5273 C   0  0  0  0  0  0
  -21.4014   -6.5639   23.8206 C   0  0  0  0  0  0
  -21.3662   -5.6798   24.9170 C   0  0  0  0  0  0
  -21.6044   -4.3060   24.7231 C   0  0  0  0  0  0
  -21.8814   -3.8145   23.4355 C   0  0  0  0  0  0
  -21.9195   -4.6961   22.3408 C   0  0  0  0  0  0
  -22.7831  -13.5220   21.1923 C   0  0  0  0  0  0
  -22.1663   -4.2147   21.0988 F   0  0  0  0  0  0
  -21.5633   -3.4537   25.7745 F   0  0  0  0  0  0
  -29.9761  -13.5178   20.3959 N   0  0  0  0  0  0
  -26.2918  -12.9334   20.3315 N   0  0  0  0  0  0
  -25.9273  -11.6490   20.5754 N   0  0  0  0  0  0
  -22.0473  -12.8193   22.0462 N   0  0  0  0  0  0
  -25.4198  -15.1877   20.4160 N   0  0  0  0  0  0
  -31.7560  -14.9054   20.2205 O   0  0  0  0  0  0
  -21.6641   -6.8856   21.4227 O   0  0  0  0  0  0
  -22.3528  -14.5551   20.6786 O   0  0  0  0  0  0
  -24.6300  -31.8571   23.2010 C   0  0  0  0  0  0
  -25.9143  -32.4760   23.8324 C   0  0  1  0  0  0
  -27.2297  -27.2742   20.1254 C   0  0  0  0  0  0
  -25.5931  -33.8556   24.2258 N   0  0  0  0  0  0
  -23.4267  -30.4743   21.5467 C   0  0  2  0  0  0
  -24.8753  -28.9192   20.1164 C   0  0  0  0  0  0
  -22.7487  -29.4579   22.4985 C   0  0  0  0  0  0
  -18.0242  -28.1339   22.8424 C   0  0  0  0  0  0
  -24.1488  -36.7284   23.2642 C   0  0  0  0  0  0
  -25.9696  -30.7769   21.3752 C   0  0  0  0  0  0
  -26.0468  -29.3975   20.7172 C   0  0  0  0  0  0
  -27.2282  -28.5880   20.7050 C   0  0  0  0  0  0
  -26.0305  -26.8507   19.5140 C   0  0  0  0  0  0
  -24.8719  -27.6525   19.5056 C   0  0  0  0  0  0
  -23.6447  -29.8057   20.1637 C   0  0  0  0  0  0
  -25.4121  -36.3067   24.0332 C   0  0  1  0  0  0
  -20.5853  -28.3656   23.1277 C   0  0  2  0  0  0
  -20.6747  -26.9379   22.5412 C   0  0  0  0  0  0
  -19.5737  -26.6343   21.5188 C   0  0  0  0  0  0
  -18.1908  -26.7869   22.1578 C   0  0  0  0  0  0
  -19.1502  -28.8820   23.2817 C   0  0  0  0  0  0
  -18.9452  -30.1426   23.8828 C   0  0  0  0  0  0
  -17.6470  -30.6557   24.0531 C   0  0  0  0  0  0
  -25.9056  -34.9440   23.5106 C   0  0  0  0  0  0
  -16.5349  -29.9059   23.6307 C   0  0  0  0  0  0
  -16.7242  -28.6472   23.0311 C   0  0  0  0  0  0
  -26.4495  -31.6574   25.0707 C   0  0  0  0  0  0
  -25.3700  -31.3749   26.1418 C   0  0  0  0  0  0
  -27.0371  -30.2988   24.6206 C   0  0  0  0  0  0
  -27.6030  -32.4360   25.7472 C   0  0  0  0  0  0
  -27.5587  -37.1809   24.8460 C   0  0  0  0  0  0
  -21.4200  -29.3022   22.3707 N   0  0  0  0  0  0
  -26.4294  -37.3775   23.9408 N   0  0  0  0  0  0
  -24.6945  -31.0542   22.0968 N   0  0  0  0  0  0
  -23.4172  -28.8098   23.3096 O   0  0  0  0  0  0
  -28.3460  -26.4087   20.1473 O   0  0  0  0  0  0
  -26.5628  -34.8914   22.4674 O   0  0  0  0  0  0
  -23.5457  -32.1397   23.7308 O   0  0  0  0  0  0
  -29.3305  -19.7991   22.2501 C   0  0  0  0  0  0
  -29.5783  -17.3553   22.4449 C   0  0  0  0  0  0
  -29.4113  -19.7655   20.8372 C   0  0  0  0  0  0
  -29.7282  -17.2173   21.0379 C   0  0  0  0  0  0
  -29.3945  -18.6291   23.0473 C   0  0  0  0  0  0
  -29.6276  -18.4439   20.2514 C   0  0  0  0  0  0
  -28.4959  -15.8410   24.1032 C   0  0  0  0  0  0
  -29.5303  -16.1593   23.3054 C   0  0  0  0  0  0
  -28.8745  -22.1800   20.4788 C   0  0  0  0  0  0
  -27.1326  -19.7471   24.8333 C   0  0  0  0  0  0
  -31.0558  -18.3338   18.4140 C   0  0  0  0  0  0
  -28.9923  -23.5810   19.7114 C   0  0  0  0  0  0
  -28.6510  -19.7500   25.0826 C   0  0  0  0  0  0
  -28.1454  -24.9159   20.1471 C   0  0  0  0  0  0
  -29.3515  -21.0139   20.0720 N   0  0  0  0  0  0
  -29.6790  -15.8400   20.4786 N   0  0  0  0  0  0
  -29.7149  -18.3467   18.8869 O   0  0  0  0  0  0
  -29.2999  -18.6599   24.4295 O   0  0  0  0  0  0
  -31.4779  -12.6175   19.1610 H   0  0  0  0  0  0
  -30.3988  -11.4894   19.9516 H   0  0  0  0  0  0
  -29.7949  -11.7187   17.5255 H   0  0  0  0  0  0
  -29.6197  -13.4467   17.7053 H   0  0  0  0  0  0
  -27.9156  -11.2639   18.9413 H   0  0  0  0  0  0
  -27.3684  -12.4784   17.8137 H   0  0  0  0  0  0
  -27.6288  -14.2363   19.4681 H   0  0  0  0  0  0
  -28.7317  -12.1435   21.4167 H   0  0  0  0  0  0
  -28.4127  -13.8146   21.8048 H   0  0  0  0  0  0
  -25.2716   -9.5706   22.4773 H   0  0  0  0  0  0
  -23.9997   -7.4630   22.7458 H   0  0  0  0  0  0
  -21.0833   -8.8737   19.8940 H   0  0  0  0  0  0
  -22.3648  -10.9662   19.6183 H   0  0  0  0  0  0
  -21.1996   -7.6146   23.9707 H   0  0  0  0  0  0
  -21.1497   -6.0534   25.9085 H   0  0  0  0  0  0
  -22.0593   -2.7601   23.2852 H   0  0  0  0  0  0
  -22.4100  -11.9837   22.4817 H   0  0  0  0  0  0
  -21.1070  -13.1172   22.2650 H   0  0  0  0  0  0
  -24.6463  -15.8322   20.5359 H   0  0  0  0  0  0
  -26.2589  -15.6339   20.0723 H   0  0  0  0  0  0
  -26.7214  -32.5394   23.1072 H   0  0  0  0  0  0
  -25.0016  -33.9660   25.0357 H   0  0  0  0  0  0
  -22.7211  -31.2945   21.4049 H   0  0  0  0  0  0
  -23.3745  -35.9623   23.3297 H   0  0  0  0  0  0
  -24.3577  -36.8927   22.2067 H   0  0  0  0  0  0
  -23.7260  -37.6490   23.6673 H   0  0  0  0  0  0
  -26.1054  -31.5408   20.6079 H   0  0  0  0  0  0
  -26.8480  -30.8291   22.0088 H   0  0  0  0  0  0
  -28.1306  -28.9487   21.1810 H   0  0  0  0  0  0
  -25.9770  -25.8772   19.0488 H   0  0  0  0  0  0
  -23.9737  -27.2731   19.0384 H   0  0  0  0  0  0
  -23.7673  -30.5839   19.4095 H   0  0  0  0  0  0
  -22.7637  -29.2412   19.8562 H   0  0  0  0  0  0
  -25.1320  -36.1933   25.0826 H   0  0  0  0  0  0
  -20.9895  -28.3233   24.1413 H   0  0  0  0  0  0
  -20.5681  -26.2251   23.3613 H   0  0  0  0  0  0
  -21.6620  -26.7420   22.1225 H   0  0  0  0  0  0
  -19.6952  -25.6256   21.1219 H   0  0  0  0  0  0
  -19.6700  -27.3130   20.6703 H   0  0  0  0  0  0
  -17.4200  -26.6537   21.3965 H   0  0  0  0  0  0
  -18.0337  -26.0011   22.8984 H   0  0  0  0  0  0
  -19.7964  -30.7200   24.2178 H   0  0  0  0  0  0
  -17.5056  -31.6230   24.5137 H   0  0  0  0  0  0
  -15.5357  -30.2962   23.7710 H   0  0  0  0  0  0
  -15.8602  -28.0836   22.7058 H   0  0  0  0  0  0
  -24.5842  -30.7125   25.7763 H   0  0  0  0  0  0
  -24.8890  -32.2929   26.4810 H   0  0  0  0  0  0
  -25.7980  -30.8940   27.0219 H   0  0  0  0  0  0
  -26.2968  -29.6704   24.1223 H   0  0  0  0  0  0
  -27.4037  -29.7292   25.4760 H   0  0  0  0  0  0
  -27.8833  -30.4253   23.9449 H   0  0  0  0  0  0
  -27.2600  -33.3670   26.1995 H   0  0  0  0  0  0
  -28.3833  -32.6932   25.0302 H   0  0  0  0  0  0
  -28.0677  -31.8524   26.5436 H   0  0  0  0  0  0
  -28.2611  -38.0108   24.7520 H   0  0  0  0  0  0
  -28.1076  -36.2636   24.6267 H   0  0  0  0  0  0
  -27.2275  -37.1449   25.8853 H   0  0  0  0  0  0
  -20.9406  -29.8733   21.6884 H   0  0  0  0  0  0
  -26.0154  -38.2843   24.1410 H   0  0  0  0  0  0
  -29.2309  -20.7562   22.7344 H   0  0  0  0  0  0
  -28.5184  -14.9573   24.7204 H   0  0  0  0  0  0
  -27.6075  -16.4575   24.1481 H   0  0  0  0  0  0
  -30.4012  -15.5228   23.2949 H   0  0  0  0  0  0
  -28.3470  -22.2749   21.4322 H   0  0  0  0  0  0
  -26.6742  -20.6428   25.2563 H   0  0  0  0  0  0
  -26.6548  -18.8898   25.3090 H   0  0  0  0  0  0
  -26.8823  -19.7218   23.7718 H   0  0  0  0  0  0
  -31.6992  -17.6873   19.0118 H   0  0  0  0  0  0
  -31.4757  -19.3421   18.4102 H   0  0  0  0  0  0
  -31.0872  -17.9648   17.3879 H   0  0  0  0  0  0
  -28.7807  -23.3413   18.6647 H   0  0  0  0  0  0
  -30.0526  -23.8357   19.7286 H   0  0  0  0  0  0
  -28.8207  -19.6326   26.1546 H   0  0  0  0  0  0
  -29.1038  -20.7080   24.8279 H   0  0  0  0  0  0
  -28.4239  -25.2272   19.1366 H   0  0  0  0  0  0
  -28.7388  -24.9788   21.0595 H   0  0  0  0  0  0
  -28.7300  -15.5154   20.3998 H   0  0  0  0  0  0
  1 25  1  0  0  0
  1 30  2  0  0  0
  1 86  1  0  0  0
  2  3  1  0  0  0
  2 25  1  0  0  0
  2 89  1  0  0  0
  2 90  1  0  0  0
  3  4  1  0  0  0
  3 91  1  0  0  0
  3 92  1  0  0  0
  4  5  1  0  0  0
  4 93  1  0  0  0
  4 94  1  0  0  0
  5  6  1  0  0  0
  5 26  1  0  0  0
  5 95  1  0  0  0
  6 25  1  0  0  0
  6 96  1  0  0  0
  6 97  1  0  0  0
  7  8  2  0  0  0
  7 26  1  0  0  0
  7 29  1  0  0  0
  8  9  1  0  0  0
  8 22  1  0  0  0
  9 10  1  0  0  0
  9 27  2  0  0  0
 10 11  2  0  0  0
 10 15  1  0  0  0
 11 12  1  0  0  0
 11 98  1  0  0  0
 12 13  2  0  0  0
 12 99  1  0  0  0
 13 14  1  0  0  0
 13 31  1  0  0  0
 14 15  2  0  0  0
 14100  1  0  0  0
 15101  1  0  0  0
 16 17  2  0  0  0
 16 21  1  0  0  0
 16 31  1  0  0  0
 17 18  1  0  0  0
 17102  1  0  0  0
 18 19  2  0  0  0
 18103  1  0  0  0
 19 20  1  0  0  0
 19 24  1  0  0  0
 20 21  2  0  0  0
 20104  1  0  0  0
 21 23  1  0  0  0
 22 28  1  0  0  0
 22 32  2  0  0  0
 26 27  1  0  0  0
 28105  1  0  0  0
 28106  1  0  0  0
 29107  1  0  0  0
 29108  1  0  0  0
 33 34  1  0  0  0
 33 66  1  0  0  0
 33 70  2  0  0  0
 34 36  1  0  0  0
 34 59  1  0  0  0
 34109  1  0  0  0
 35 44  2  0  0  0
 35 45  1  0  0  0
 35 68  1  0  0  0
 36 56  1  0  0  0
 36110  1  0  0  0
 37 39  1  0  0  0
 37 47  1  0  0  0
 37 66  1  0  0  0
 37111  1  0  0  0
 38 43  2  0  0  0
 38 46  1  0  0  0
 38 47  1  0  0  0
 39 64  1  0  0  0
 39 67  2  0  0  0
 40 52  1  0  0  0
 40 53  2  0  0  0
 40 58  1  0  0  0
 41112  1  0  0  0
 41113  1  0  0  0
 41114  1  0  0  0
 41 48  1  0  0  0
 42 43  1  0  0  0
 42 66  1  0  0  0
 42115  1  0  0  0
 42116  1  0  0  0
 43 44  1  0  0  0
 44117  1  0  0  0
 45 46  2  0  0  0
 45118  1  0  0  0
 46119  1  0  0  0
 47120  1  0  0  0
 47121  1  0  0  0
 48 56  1  0  0  0
 48 65  1  0  0  0
 48122  1  0  0  0
 49 50  1  0  0  0
 49 53  1  0  0  0
 49 64  1  0  0  0
 49123  1  0  0  0
 50 51  1  0  0  0
 50124  1  0  0  0
 50125  1  0  0  0
 51 52  1  0  0  0
 51126  1  0  0  0
 51127  1  0  0  0
 52128  1  0  0  0
 52129  1  0  0  0
 53 54  1  0  0  0
 54 55  2  0  0  0
 54130  1  0  0  0
 55 57  1  0  0  0
 55131  1  0  0  0
 56 69  2  0  0  0
 57 58  2  0  0  0
 57132  1  0  0  0
 58133  1  0  0  0
 59 60  1  0  0  0
 59 61  1  0  0  0
 59 62  1  0  0  0
 60134  1  0  0  0
 60135  1  0  0  0
 60136  1  0  0  0
 61137  1  0  0  0
 61138  1  0  0  0
 61139  1  0  0  0
 62140  1  0  0  0
 62141  1  0  0  0
 62142  1  0  0  0
 63 65  1  0  0  0
 63143  1  0  0  0
 63144  1  0  0  0
 63145  1  0  0  0
 64146  1  0  0  0
 65147  1  0  0  0
 68 84  1  0  0  0
 71 73  2  0  0  0
 71 75  1  0  0  0
 71148  1  0  0  0
 72 74  1  0  0  0
 72 75  2  0  0  0
 72 78  1  0  0  0
 73 76  1  0  0  0
 73 85  1  0  0  0
 74 76  2  0  0  0
 74 86  1  0  0  0
 75 88  1  0  0  0
 76 87  1  0  0  0
 77 78  2  0  0  0
 77149  1  0  0  0
 77150  1  0  0  0
 78151  1  0  0  0
 79 82  1  0  0  0
 79 85  2  0  0  0
 79152  1  0  0  0
 80 83  1  0  0  0
 80153  1  0  0  0
 80154  1  0  0  0
 80155  1  0  0  0
 81 87  1  0  0  0
 81156  1  0  0  0
 81157  1  0  0  0
 81158  1  0  0  0
 82 84  1  0  0  0
 82159  1  0  0  0
 82160  1  0  0  0
 83 88  1  0  0  0
 83161  1  0  0  0
 83162  1  0  0  0
 84163  1  0  0  0
 84164  1  0  0  0
 86165  1  0  0  0
M  ISO  4   1 100  68 101  84 101  86 100
M  END
> <chiral flag>
0

> <version>
0

> <s_m_source_file>
/data/baiqing/PycharmProjects/Reinvent-master-3.2/result/LINK_invent/BTK/process_docking_weight1_custom_product_contain_oxygen_bond_distance_aromatic_linkinvent_7_9_3/rearranged_h_0114.sdf

> <i_m_source_file_index>
55

> <r_mmod_Potential_Energy-OPLS-2005>
470.988189697266

> <r_mmod_Stretch_Energy-OPLS-2005>
132.428985595703

> <r_mmod_Bend_Energy-OPLS-2005>
391.900634765625

> <r_mmod_Torsional_Energy-OPLS-2005>
315.926727294922

> <r_mmod_Improper_Torsional_Energy-OPLS-2005>
12.4105606079102

> <r_mmod_Van_der_Waal_Energy-OPLS-2005>
146.540649414062

> <r_mmod_Electrostatic_Energy-OPLS-2005>
-395.743347167969

> <r_mmod_Solvation_Energy-OPLS-2005>
-220.059661865234

> <b_mmod_Minimization_Converged-OPLS-2005>
0

> <r_mmod_RMS_Derivative-OPLS-2005>
4.06675624847412

$$$$
55
                    3D
 Structure written by MMmdl.
167175  0  0  1  0            999 V2000
  -30.7220  -14.6394   20.2789 C   0  0  0  0  0  0
  -30.4162  -12.3671   19.4161 C   0  0  0  0  0  0
  -29.4818  -12.3813   18.1973 C   0  0  0  0  0  0
  -28.0027  -12.2950   18.6371 C   0  0  0  0  0  0
  -27.6398  -13.1945   19.8556 C   0  0  2  0  0  0
  -28.7239  -13.1916   20.9460 C   0  0  0  0  0  0
  -25.2561  -13.8111   20.5785 C   0  0  0  0  0  0
  -24.1809  -13.0403   20.9260 C   0  0  0  0  0  0
  -24.6366  -11.6876   20.8847 C   0  0  0  0  0  0
  -23.9026  -10.4277   21.0454 C   0  0  0  0  0  0
  -24.3586   -9.4185   21.9212 C   0  0  0  0  0  0
  -23.6277   -8.2209   22.0753 C   0  0  0  0  0  0
  -22.4259   -8.0261   21.3536 C   0  0  0  0  0  0
  -21.9898   -9.0242   20.4640 C   0  0  0  0  0  0
  -22.7213  -10.2132   20.3075 C   0  0  0  0  0  0
  -21.6845   -6.0722   22.5269 C   0  0  0  0  0  0
  -21.4008   -6.5633   23.8202 C   0  0  0  0  0  0
  -21.3650   -5.6787   24.9168 C   0  0  0  0  0  0
  -21.6035   -4.3049   24.7226 C   0  0  0  0  0  0
  -21.8824   -3.8135   23.4351 C   0  0  0  0  0  0
  -21.9194   -4.6948   22.3405 C   0  0  0  0  0  0
  -22.7832  -13.5205   21.1873 C   0  0  0  0  0  0
  -22.1673   -4.2123   21.0990 F   0  0  0  0  0  0
  -21.5630   -3.4550   25.7752 F   0  0  0  0  0  0
  -29.9862  -13.4898   20.2582 N   0  0  0  0  0  0
  -26.2982  -12.9238   20.3511 N   0  0  0  0  0  0
  -25.9304  -11.6428   20.5970 N   0  0  0  0  0  0
  -22.0469  -12.8197   22.0422 N   0  0  0  0  0  0
  -25.4276  -15.1828   20.4176 N   0  0  0  0  0  0
  -31.9225  -14.5652   20.5335 O   0  0  0  0  0  0
  -21.6616   -6.8862   21.4229 O   0  0  0  0  0  0
  -22.3528  -14.5515   20.6719 O   0  0  0  0  0  0
  -24.6194  -31.8663   23.2039 C   0  0  0  0  0  0
  -25.9081  -32.4801   23.8346 C   0  0  1  0  0  0
  -27.2268  -27.3866   20.1135 C   0  0  0  0  0  0
  -25.5935  -33.8594   24.2291 N   0  0  0  0  0  0
  -23.4094  -30.4887   21.5452 C   0  0  2  0  0  0
  -24.8562  -28.9476   20.1119 C   0  0  0  0  0  0
  -22.7429  -29.4662   22.4953 C   0  0  0  0  0  0
  -18.0282  -28.1387   22.8492 C   0  0  0  0  0  0
  -24.1493  -36.7296   23.2635 C   0  0  0  0  0  0
  -25.9425  -30.8177   21.3631 C   0  0  0  0  0  0
  -26.0205  -29.4488   20.7098 C   0  0  0  0  0  0
  -27.2129  -28.6797   20.7003 C   0  0  0  0  0  0
  -26.0485  -26.9152   19.4991 C   0  0  0  0  0  0
  -24.8679  -27.6820   19.4996 C   0  0  0  0  0  0
  -23.6207  -29.8193   20.1608 C   0  0  0  0  0  0
  -25.4115  -36.3085   24.0333 C   0  0  1  0  0  0
  -20.5877  -28.3691   23.1294 C   0  0  2  0  0  0
  -20.6773  -26.9421   22.5408 C   0  0  0  0  0  0
  -19.5751  -26.6395   21.5206 C   0  0  0  0  0  0
  -18.1933  -26.7936   22.1618 C   0  0  0  0  0  0
  -19.1532  -28.8854   23.2898 C   0  0  0  0  0  0
  -18.9461  -30.1452   23.8919 C   0  0  0  0  0  0
  -17.6462  -30.6595   24.0564 C   0  0  0  0  0  0
  -25.9053  -34.9458   23.5111 C   0  0  0  0  0  0
  -16.5355  -29.9096   23.6317 C   0  0  0  0  0  0
  -16.7268  -28.6508   23.0355 C   0  0  0  0  0  0
  -26.4494  -31.6589   25.0691 C   0  0  0  0  0  0
  -25.3749  -31.3736   26.1436 C   0  0  0  0  0  0
  -27.0312  -30.3014   24.6090 C   0  0  0  0  0  0
  -27.6057  -32.4309   25.7469 C   0  0  0  0  0  0
  -27.5583  -37.1803   24.8465 C   0  0  0  0  0  0
  -21.4155  -29.3054   22.3692 N   0  0  0  0  0  0
  -26.4291  -37.3775   23.9417 N   0  0  0  0  0  0
  -24.6756  -31.0731   22.0953 N   0  0  0  0  0  0
  -23.4175  -28.8205   23.3022 O   0  0  0  0  0  0
  -28.3549  -26.5802   20.1298 O   0  0  0  0  0  0
  -26.5594  -34.8922   22.4658 O   0  0  0  0  0  0
  -23.5378  -32.1427   23.7416 O   0  0  0  0  0  0
  -27.2563  -17.7704   18.9013 C   0  0  0  0  0  0
  -29.6241  -17.8670   20.3735 C   0  0  0  0  0  0
  -28.1935  -16.7237   18.7587 C   0  0  0  0  0  0
  -27.5250  -18.8989   19.6956 C   0  0  0  0  0  0
  -29.3399  -16.6890   19.6075 C   0  0  0  0  0  0
  -28.7739  -19.0156   20.3509 C   0  0  0  0  0  0
  -26.8416  -15.4658   17.0297 C   0  0  0  0  0  0
  -27.9870  -15.7355   17.6771 C   0  0  0  0  0  0
  -26.4553  -19.9745   19.7991 C   0  0  0  0  0  0
  -31.1180  -17.1401   17.4093 C   0  0  0  0  0  0
  -28.8313  -24.0554   20.0886 C   0  0  0  0  0  0
  -28.7252  -22.7030   20.8871 C   0  0  0  0  0  0
  -31.4569  -16.1035   18.5040 C   0  0  0  0  0  0
  -28.1995  -25.2973   20.8023 C   0  0  0  0  0  0
  -29.2356  -21.4080   20.1662 C   0  0  0  0  0  0
  -30.3561  -15.6681   19.4144 N   0  0  0  0  0  0
  -29.1476  -20.2027   20.9788 O   0  0  0  0  0  0
  -31.4547  -12.4647   19.0936 H   0  0  0  0  0  0
  -30.3520  -11.4224   19.9583 H   0  0  0  0  0  0
  -29.7142  -11.5393   17.5449 H   0  0  0  0  0  0
  -29.6656  -13.2683   17.5981 H   0  0  0  0  0  0
  -27.8164  -11.2520   18.8946 H   0  0  0  0  0  0
  -27.3418  -12.5129   17.7975 H   0  0  0  0  0  0
  -27.6105  -14.2098   19.5075 H   0  0  0  0  0  0
  -28.7761  -12.2284   21.4555 H   0  0  0  0  0  0
  -28.5131  -13.9485   21.7033 H   0  0  0  0  0  0
  -25.2737   -9.5664   22.4771 H   0  0  0  0  0  0
  -23.9995   -7.4589   22.7460 H   0  0  0  0  0  0
  -21.0834   -8.8751   19.8941 H   0  0  0  0  0  0
  -22.3676  -10.9672   19.6178 H   0  0  0  0  0  0
  -21.2004   -7.6140   23.9708 H   0  0  0  0  0  0
  -21.1464   -6.0520   25.9066 H   0  0  0  0  0  0
  -22.0616   -2.7596   23.2861 H   0  0  0  0  0  0
  -22.4095  -11.9856   22.4798 H   0  0  0  0  0  0
  -21.1083  -13.1206   22.2623 H   0  0  0  0  0  0
  -24.6601  -15.8377   20.5125 H   0  0  0  0  0  0
  -26.2775  -15.6127   20.0733 H   0  0  0  0  0  0
  -26.7146  -32.5512   23.1096 H   0  0  0  0  0  0
  -25.0141  -33.9746   25.0477 H   0  0  0  0  0  0
  -22.6995  -31.3066   21.4022 H   0  0  0  0  0  0
  -23.3751  -35.9631   23.3294 H   0  0  0  0  0  0
  -24.3587  -36.8909   22.2049 H   0  0  0  0  0  0
  -23.7236  -37.6502   23.6642 H   0  0  0  0  0  0
  -26.0613  -31.5811   20.5929 H   0  0  0  0  0  0
  -26.8272  -30.8711   21.9856 H   0  0  0  0  0  0
  -28.1090  -29.0605   21.1699 H   0  0  0  0  0  0
  -26.0402  -25.9403   19.0308 H   0  0  0  0  0  0
  -23.9750  -27.2901   19.0322 H   0  0  0  0  0  0
  -23.7369  -30.5921   19.4004 H   0  0  0  0  0  0
  -22.7413  -29.2472   19.8593 H   0  0  0  0  0  0
  -25.1284  -36.1935   25.0819 H   0  0  0  0  0  0
  -20.9988  -28.3275   24.1408 H   0  0  0  0  0  0
  -20.5688  -26.2305   23.3608 H   0  0  0  0  0  0
  -21.6648  -26.7478   22.1200 H   0  0  0  0  0  0
  -19.6922  -25.6309   21.1236 H   0  0  0  0  0  0
  -19.6683  -27.3205   20.6736 H   0  0  0  0  0  0
  -17.4204  -26.6687   21.4017 H   0  0  0  0  0  0
  -18.0335  -26.0073   22.9009 H   0  0  0  0  0  0
  -19.7942  -30.7254   24.2313 H   0  0  0  0  0  0
  -17.5024  -31.6278   24.5157 H   0  0  0  0  0  0
  -15.5359  -30.3006   23.7638 H   0  0  0  0  0  0
  -15.8668  -28.0825   22.7079 H   0  0  0  0  0  0
  -24.5896  -30.7109   25.7784 H   0  0  0  0  0  0
  -24.8990  -32.2925   26.4870 H   0  0  0  0  0  0
  -25.8104  -30.8903   27.0190 H   0  0  0  0  0  0
  -26.2866  -29.6781   24.1126 H   0  0  0  0  0  0
  -27.4046  -29.7234   25.4555 H   0  0  0  0  0  0
  -27.8705  -30.4307   23.9250 H   0  0  0  0  0  0
  -27.2663  -33.3592   26.2065 H   0  0  0  0  0  0
  -28.3869  -32.6899   25.0313 H   0  0  0  0  0  0
  -28.0712  -31.8421   26.5381 H   0  0  0  0  0  0
  -28.2598  -38.0103   24.7517 H   0  0  0  0  0  0
  -28.1078  -36.2637   24.6273 H   0  0  0  0  0  0
  -27.2309  -37.1439   25.8868 H   0  0  0  0  0  0
  -20.9323  -29.8756   21.6893 H   0  0  0  0  0  0
  -26.0174  -38.2847   24.1414 H   0  0  0  0  0  0
  -26.3431  -17.7659   18.3250 H   0  0  0  0  0  0
  -30.5612  -17.9307   20.9079 H   0  0  0  0  0  0
  -26.8245  -14.7254   16.2419 H   0  0  0  0  0  0
  -25.9067  -15.9544   17.2605 H   0  0  0  0  0  0
  -28.8614  -15.1937   17.3591 H   0  0  0  0  0  0
  -25.4603  -19.5327   19.7587 H   0  0  0  0  0  0
  -26.5354  -20.6854   18.9773 H   0  0  0  0  0  0
  -26.5266  -20.5150   20.7430 H   0  0  0  0  0  0
  -30.3405  -16.7970   16.7287 H   0  0  0  0  0  0
  -32.0001  -17.3342   16.7984 H   0  0  0  0  0  0
  -30.8140  -18.1008   17.8268 H   0  0  0  0  0  0
  -28.3552  -23.9308   19.1158 H   0  0  0  0  0  0
  -29.8819  -24.2626   19.8845 H   0  0  0  0  0  0
  -27.6838  -22.5533   21.1716 H   0  0  0  0  0  0
  -29.2738  -22.8119   21.8229 H   0  0  0  0  0  0
  -32.2637  -16.5323   19.1027 H   0  0  0  0  0  0
  -31.8713  -15.2238   18.0069 H   0  0  0  0  0  0
  -28.6605  -25.4073   21.7846 H   0  0  0  0  0  0
  -27.1512  -25.0756   21.0109 H   0  0  0  0  0  0
  -30.2855  -21.5425   19.9048 H   0  0  0  0  0  0
  -28.7234  -21.2944   19.2117 H   0  0  0  0  0  0
  1 25  1  0  0  0
  1 30  2  0  0  0
  1 86  1  0  0  0
  2  3  1  0  0  0
  2 25  1  0  0  0
  2 88  1  0  0  0
  2 89  1  0  0  0
  3  4  1  0  0  0
  3 90  1  0  0  0
  3 91  1  0  0  0
  4  5  1  0  0  0
  4 92  1  0  0  0
  4 93  1  0  0  0
  5  6  1  0  0  0
  5 26  1  0  0  0
  5 94  1  0  0  0
  6 25  1  0  0  0
  6 95  1  0  0  0
  6 96  1  0  0  0
  7  8  2  0  0  0
  7 26  1  0  0  0
  7 29  1  0  0  0
  8  9  1  0  0  0
  8 22  1  0  0  0
  9 10  1  0  0  0
  9 27  2  0  0  0
 10 11  2  0  0  0
 10 15  1  0  0  0
 11 12  1  0  0  0
 11 97  1  0  0  0
 12 13  2  0  0  0
 12 98  1  0  0  0
 13 14  1  0  0  0
 13 31  1  0  0  0
 14 15  2  0  0  0
 14 99  1  0  0  0
 15100  1  0  0  0
 16 17  2  0  0  0
 16 21  1  0  0  0
 16 31  1  0  0  0
 17 18  1  0  0  0
 17101  1  0  0  0
 18 19  2  0  0  0
 18102  1  0  0  0
 19 20  1  0  0  0
 19 24  1  0  0  0
 20 21  2  0  0  0
 20103  1  0  0  0
 21 23  1  0  0  0
 22 28  1  0  0  0
 22 32  2  0  0  0
 26 27  1  0  0  0
 28104  1  0  0  0
 28105  1  0  0  0
 29106  1  0  0  0
 29107  1  0  0  0
 33 34  1  0  0  0
 33 66  1  0  0  0
 33 70  2  0  0  0
 34 36  1  0  0  0
 34 59  1  0  0  0
 34108  1  0  0  0
 35 44  2  0  0  0
 35 45  1  0  0  0
 35 68  1  0  0  0
 36 56  1  0  0  0
 36109  1  0  0  0
 37 39  1  0  0  0
 37 47  1  0  0  0
 37 66  1  0  0  0
 37110  1  0  0  0
 38 43  2  0  0  0
 38 46  1  0  0  0
 38 47  1  0  0  0
 39 64  1  0  0  0
 39 67  2  0  0  0
 40 52  1  0  0  0
 40 53  2  0  0  0
 40 58  1  0  0  0
 41111  1  0  0  0
 41112  1  0  0  0
 41113  1  0  0  0
 41 48  1  0  0  0
 42 43  1  0  0  0
 42 66  1  0  0  0
 42114  1  0  0  0
 42115  1  0  0  0
 43 44  1  0  0  0
 44116  1  0  0  0
 45 46  2  0  0  0
 45117  1  0  0  0
 46118  1  0  0  0
 47119  1  0  0  0
 47120  1  0  0  0
 48 56  1  0  0  0
 48 65  1  0  0  0
 48121  1  0  0  0
 49 50  1  0  0  0
 49 53  1  0  0  0
 49 64  1  0  0  0
 49122  1  0  0  0
 50 51  1  0  0  0
 50123  1  0  0  0
 50124  1  0  0  0
 51 52  1  0  0  0
 51125  1  0  0  0
 51126  1  0  0  0
 52127  1  0  0  0
 52128  1  0  0  0
 53 54  1  0  0  0
 54 55  2  0  0  0
 54129  1  0  0  0
 55 57  1  0  0  0
 55130  1  0  0  0
 56 69  2  0  0  0
 57 58  2  0  0  0
 57131  1  0  0  0
 58132  1  0  0  0
 59 60  1  0  0  0
 59 61  1  0  0  0
 59 62  1  0  0  0
 60133  1  0  0  0
 60134  1  0  0  0
 60135  1  0  0  0
 61136  1  0  0  0
 61137  1  0  0  0
 61138  1  0  0  0
 62139  1  0  0  0
 62140  1  0  0  0
 62141  1  0  0  0
 63 65  1  0  0  0
 63142  1  0  0  0
 63143  1  0  0  0
 63144  1  0  0  0
 64145  1  0  0  0
 65146  1  0  0  0
 68 84  1  0  0  0
 71 73  2  0  0  0
 71 74  1  0  0  0
 71147  1  0  0  0
 72 75  2  0  0  0
 72 76  1  0  0  0
 72148  1  0  0  0
 73 75  1  0  0  0
 73 78  1  0  0  0
 74 76  2  0  0  0
 74 79  1  0  0  0
 75 86  1  0  0  0
 76 87  1  0  0  0
 77 78  2  0  0  0
 77149  1  0  0  0
 77150  1  0  0  0
 78151  1  0  0  0
 79152  1  0  0  0
 79153  1  0  0  0
 79154  1  0  0  0
 80 83  1  0  0  0
 80155  1  0  0  0
 80156  1  0  0  0
 80157  1  0  0  0
 81 82  1  0  0  0
 81 84  1  0  0  0
 81158  1  0  0  0
 81159  1  0  0  0
 82 85  1  0  0  0
 82160  1  0  0  0
 82161  1  0  0  0
 83 86  1  0  0  0
 83162  1  0  0  0
 83163  1  0  0  0
 84164  1  0  0  0
 84165  1  0  0  0
 85 87  1  0  0  0
 85166  1  0  0  0
 85167  1  0  0  0
M  ISO  4   1 100  68 101  84 101  86 100
M  END
> <chiral flag>
0

> <version>
0

> <s_m_source_file>
/data/baiqing/PycharmProjects/Reinvent-master-3.2/result/LINK_invent/BTK/process_docking_weight1_custom_product_contain_oxygen_bond_distance_aromatic_linkinvent_7_9_3/rearranged_h_0114.sdf

> <i_m_source_file_index>
56

> <r_mmod_Potential_Energy-OPLS-2005>
362.871612548828

> <r_mmod_Stretch_Energy-OPLS-2005>
64.5992584228516

> <r_mmod_Bend_Energy-OPLS-2005>
137.856155395508

> <r_mmod_Torsional_Energy-OPLS-2005>
381.9033203125

> <r_mmod_Improper_Torsional_Energy-OPLS-2005>
30.1041889190674

> <r_mmod_Van_der_Waal_Energy-OPLS-2005>
153.513198852539

> <r_mmod_Electrostatic_Energy-OPLS-2005>
-313.665222167969

> <r_mmod_Solvation_Energy-OPLS-2005>
-177.610504150391

> <b_mmod_Minimization_Converged-OPLS-2005>
0

> <r_mmod_RMS_Derivative-OPLS-2005>
2.27435898780823

$$$$
56
                    3D
 Structure written by MMmdl.
161169  0  0  1  0            999 V2000
  -30.5062  -14.5099   20.9324 C   0  0  0  0  0  0
  -30.5740  -12.5344   19.2565 C   0  0  0  0  0  0
  -29.5374  -12.3735   18.0516 C   0  0  0  0  0  0
  -28.0116  -11.9971   18.3913 C   0  0  0  0  0  0
  -27.6400  -12.5682   19.7445 C   0  0  2  0  0  0
  -28.8630  -12.2746   20.7183 C   0  0  0  0  0  0
  -25.5202  -14.5502   20.6959 C   0  0  0  0  0  0
  -24.3452  -13.6217   21.0017 C   0  0  0  0  0  0
  -24.5455  -12.1093   20.9354 C   0  0  0  0  0  0
  -23.8152  -10.7392   21.1039 C   0  0  0  0  0  0
  -24.3149   -9.6715   21.9277 C   0  0  0  0  0  0
  -23.6587   -8.4078   22.0640 C   0  0  0  0  0  0
  -22.4640   -8.1376   21.3553 C   0  0  0  0  0  0
  -22.0086   -9.1378   20.4713 C   0  0  0  0  0  0
  -22.6669  -10.3912   20.3448 C   0  0  0  0  0  0
  -21.7347   -6.1162   22.5153 C   0  0  0  0  0  0
  -21.4378   -6.5922   23.8119 C   0  0  0  0  0  0
  -21.3779   -5.7004   24.9041 C   0  0  0  0  0  0
  -21.6026   -4.3239   24.7088 C   0  0  0  0  0  0
  -21.8751   -3.8390   23.4182 C   0  0  0  0  0  0
  -21.9330   -4.7282   22.3279 C   0  0  0  0  0  0
  -22.8958  -13.9329   21.2377 C   0  0  0  0  0  0
  -22.1704   -4.2376   21.0875 F   0  0  0  0  0  0
  -21.5546   -3.4684   25.7574 F   0  0  0  0  0  0
  -30.0177  -13.2332   20.4741 N   0  0  0  0  0  0
  -26.1651  -13.0674   20.2139 N   0  0  0  0  0  0
  -25.6869  -11.8727   20.4896 N   0  0  0  0  0  0
  -22.1821  -13.1280   22.0423 N   0  0  0  0  0  0
  -27.0136  -16.8250   20.3985 N   0  0  0  0  0  0
  -31.5867  -14.8127   20.4004 O   0  0  0  0  0  0
  -21.7488   -6.9482   21.4120 O   0  0  0  0  0  0
  -22.3578  -14.8518   20.6448 O   0  0  0  0  0  0
  -24.6788  -31.8092   23.1670 C   0  0  0  0  0  0
  -25.9449  -32.4457   23.8098 C   0  0  1  0  0  0
  -26.7536  -26.5919   20.2665 C   0  0  0  0  0  0
  -25.6073  -33.8297   24.1965 N   0  0  0  0  0  0
  -23.4777  -30.4500   21.5280 C   0  0  2  0  0  0
  -24.8492  -28.8277   20.0755 C   0  0  0  0  0  0
  -22.7657  -29.4418   22.4706 C   0  0  0  0  0  0
  -18.0334  -28.1410   22.8474 C   0  0  0  0  0  0
  -24.1518  -36.7157   23.2640 C   0  0  0  0  0  0
  -26.0563  -30.4985   21.4412 C   0  0  0  0  0  0
  -26.0352  -29.0729   20.7773 C   0  0  0  0  0  0
  -27.0180  -27.9624   20.8473 C   0  0  0  0  0  0
  -25.6552  -26.6055   19.4211 C   0  0  0  0  0  0
  -24.7130  -27.6400   19.3569 C   0  0  0  0  0  0
  -23.7005  -29.8225   20.1305 C   0  0  0  0  0  0
  -25.4168  -36.2881   24.0256 C   0  0  1  0  0  0
  -20.5960  -28.3760   23.1164 C   0  0  2  0  0  0
  -20.6811  -26.9438   22.5395 C   0  0  0  0  0  0
  -19.5770  -26.6372   21.5224 C   0  0  0  0  0  0
  -18.1958  -26.7944   22.1636 C   0  0  0  0  0  0
  -19.1598  -28.8905   23.2808 C   0  0  0  0  0  0
  -18.9499  -30.1501   23.8834 C   0  0  0  0  0  0
  -17.6487  -30.6591   24.0557 C   0  0  0  0  0  0
  -25.9158  -34.9271   23.4927 C   0  0  0  0  0  0
  -16.5378  -29.9075   23.6355 C   0  0  0  0  0  0
  -16.7318  -28.6502   23.0371 C   0  0  0  0  0  0
  -26.4602  -31.6510   25.0728 C   0  0  0  0  0  0
  -25.3652  -31.3884   26.1336 C   0  0  0  0  0  0
  -27.0504  -30.2820   24.6692 C   0  0  0  0  0  0
  -27.6058  -32.4374   25.7525 C   0  0  0  0  0  0
  -27.5572  -37.1736   24.8449 C   0  0  0  0  0  0
  -21.4329  -29.3043   22.3479 N   0  0  0  0  0  0
  -26.4282  -37.3646   23.9390 N   0  0  0  0  0  0
  -24.7659  -30.9576   22.0930 N   0  0  0  0  0  0
  -23.4187  -28.7958   23.2942 O   0  0  0  0  0  0
  -27.3077  -25.1779   20.3686 O   0  0  0  0  0  0
  -26.5774  -34.8839   22.4534 O   0  0  0  0  0  0
  -23.5848  -32.1227   23.6669 O   0  0  0  0  0  0
  -26.9712  -15.0973   19.0526 C   0  0  0  0  0  0
  -25.3655  -16.1467   19.0183 C   0  0  0  0  0  0
  -27.7612  -14.7828   20.9615 C   0  0  0  0  0  0
  -27.0831  -15.5826   22.2773 C   0  0  0  0  0  0
  -24.8107  -17.0288   20.5812 C   0  0  0  0  0  0
  -27.5000  -13.7810   22.3184 C   0  0  0  0  0  0
  -28.7180  -16.0279   22.4340 C   0  0  0  0  0  0
  -28.2459  -13.3465   23.3850 C   0  0  0  0  0  0
  -25.6629  -20.0773   20.7896 C   0  0  0  0  0  0
  -28.7841  -11.7939   25.3064 C   0  0  0  0  0  0
  -27.6810  -12.4880   24.5004 C   0  0  0  0  0  0
  -26.0209  -21.8107   20.1267 C   0  0  0  0  0  0
  -26.4940  -23.6246   20.7203 C   0  0  0  0  0  0
  -25.5581  -16.4983   22.1061 N   0  0  0  0  0  0
  -29.9375  -15.5388   21.9227 N   0  0  0  0  0  0
  -24.9760  -18.7523   20.3011 N   0  0  0  0  0  0
  -26.1256  -19.9725   21.9275 O   0  0  0  0  0  0
  -31.4463  -13.0474   18.8502 H   0  0  0  0  0  0
  -30.9908  -11.5637   19.5376 H   0  0  0  0  0  0
  -29.9337  -11.6539   17.3328 H   0  0  0  0  0  0
  -29.5346  -13.3218   17.5124 H   0  0  0  0  0  0
  -27.8963  -10.9128   18.4293 H   0  0  0  0  0  0
  -27.3337  -12.3486   17.6108 H   0  0  0  0  0  0
  -28.1440  -13.3546   19.3108 H   0  0  0  0  0  0
  -29.1506  -11.2608   20.4243 H   0  0  0  0  0  0
  -28.7003  -11.8509   21.6953 H   0  0  0  0  0  0
  -25.2208   -9.8431   22.4908 H   0  0  0  0  0  0
  -24.0796   -7.6582   22.7193 H   0  0  0  0  0  0
  -21.1227   -8.9495   19.8808 H   0  0  0  0  0  0
  -22.2590  -11.1199   19.6588 H   0  0  0  0  0  0
  -21.2534   -7.6446   23.9717 H   0  0  0  0  0  0
  -21.1612   -6.0710   25.8953 H   0  0  0  0  0  0
  -22.0361   -2.7832   23.2623 H   0  0  0  0  0  0
  -22.6091  -12.3570   22.5340 H   0  0  0  0  0  0
  -21.1995  -13.3131   22.1889 H   0  0  0  0  0  0
  -26.7557  -17.6364   20.9521 H   0  0  0  0  0  0
  -27.9925  -16.7800   20.1412 H   0  0  0  0  0  0
  -26.7480  -32.4802   23.0741 H   0  0  0  0  0  0
  -25.0144  -33.9365   25.0062 H   0  0  0  0  0  0
  -22.8020  -31.2951   21.3865 H   0  0  0  0  0  0
  -23.3779  -35.9483   23.3227 H   0  0  0  0  0  0
  -24.3599  -36.8903   22.2072 H   0  0  0  0  0  0
  -23.7281  -37.6311   23.6781 H   0  0  0  0  0  0
  -26.2992  -31.2194   20.6598 H   0  0  0  0  0  0
  -26.9048  -30.5178   22.1121 H   0  0  0  0  0  0
  -27.8942  -28.0970   21.4671 H   0  0  0  0  0  0
  -25.4152  -25.6963   18.8866 H   0  0  0  0  0  0
  -23.8215  -27.4765   18.7673 H   0  0  0  0  0  0
  -23.9069  -30.6119   19.4060 H   0  0  0  0  0  0
  -22.7814  -29.3425   19.7892 H   0  0  0  0  0  0
  -25.1380  -36.1626   25.0742 H   0  0  0  0  0  0
  -21.0070  -28.3376   24.1278 H   0  0  0  0  0  0
  -20.5722  -26.2376   23.3641 H   0  0  0  0  0  0
  -21.6669  -26.7418   22.1182 H   0  0  0  0  0  0
  -19.6924  -25.6268   21.1292 H   0  0  0  0  0  0
  -19.6706  -27.3150   20.6727 H   0  0  0  0  0  0
  -17.4234  -26.6707   21.4036 H   0  0  0  0  0  0
  -18.0333  -26.0097   22.9037 H   0  0  0  0  0  0
  -19.7972  -30.7350   24.2156 H   0  0  0  0  0  0
  -17.5033  -31.6265   24.5168 H   0  0  0  0  0  0
  -15.5374  -30.2946   23.7713 H   0  0  0  0  0  0
  -15.8730  -28.0795   22.7113 H   0  0  0  0  0  0
  -24.5861  -30.7203   25.7655 H   0  0  0  0  0  0
  -24.8812  -32.3128   26.4493 H   0  0  0  0  0  0
  -25.7785  -30.9225   27.0290 H   0  0  0  0  0  0
  -26.3198  -29.6425   24.1729 H   0  0  0  0  0  0
  -27.3908  -29.7299   25.5464 H   0  0  0  0  0  0
  -27.9212  -30.3890   24.0223 H   0  0  0  0  0  0
  -27.2612  -33.3767   26.1872 H   0  0  0  0  0  0
  -28.3971  -32.6797   25.0416 H   0  0  0  0  0  0
  -28.0617  -31.8667   26.5630 H   0  0  0  0  0  0
  -28.2519  -38.0095   24.7508 H   0  0  0  0  0  0
  -28.1138  -36.2607   24.6260 H   0  0  0  0  0  0
  -27.2284  -37.1345   25.8851 H   0  0  0  0  0  0
  -20.9557  -29.8756   21.6642 H   0  0  0  0  0  0
  -26.0086  -38.2677   24.1417 H   0  0  0  0  0  0
  -27.4667  -14.8491   18.1243 H   0  0  0  0  0  0
  -25.0405  -16.5161   18.0574 H   0  0  0  0  0  0
  -26.5095  -13.3856   22.5162 H   0  0  0  0  0  0
  -28.8169  -16.8773   23.1131 H   0  0  0  0  0  0
  -29.2919  -13.6009   23.4883 H   0  0  0  0  0  0
  -28.3573  -11.1607   26.0846 H   0  0  0  0  0  0
  -29.4282  -12.5262   25.7941 H   0  0  0  0  0  0
  -29.4093  -11.1637   24.6721 H   0  0  0  0  0  0
  -27.0032  -11.7427   24.0778 H   0  0  0  0  0  0
  -27.0825  -13.1185   25.1596 H   0  0  0  0  0  0
  -25.1940  -21.9724   19.4363 H   0  0  0  0  0  0
  -26.8509  -21.5811   19.4581 H   0  0  0  0  0  0
  -27.0344  -23.3814   21.6362 H   0  0  0  0  0  0
  -25.5361  -23.9929   21.0895 H   0  0  0  0  0  0
  -24.5862  -18.9594   19.3923 H   0  0  0  0  0  0
  1 25  1  0  0  0
  1 30  2  0  0  0
  1 85  1  0  0  0
  2  3  1  0  0  0
  2 25  1  0  0  0
  2 88  1  0  0  0
  2 89  1  0  0  0
  3  4  1  0  0  0
  3 90  1  0  0  0
  3 91  1  0  0  0
  4  5  1  0  0  0
  4 92  1  0  0  0
  4 93  1  0  0  0
  5  6  1  0  0  0
  5 26  1  0  0  0
  5 94  1  0  0  0
  6 25  1  0  0  0
  6 95  1  0  0  0
  6 96  1  0  0  0
  7  8  2  0  0  0
  7 26  1  0  0  0
  7 29  1  0  0  0
  8  9  1  0  0  0
  8 22  1  0  0  0
  9 10  1  0  0  0
  9 27  2  0  0  0
 10 11  2  0  0  0
 10 15  1  0  0  0
 11 12  1  0  0  0
 11 97  1  0  0  0
 12 13  2  0  0  0
 12 98  1  0  0  0
 13 14  1  0  0  0
 13 31  1  0  0  0
 14 15  2  0  0  0
 14 99  1  0  0  0
 15100  1  0  0  0
 16 17  2  0  0  0
 16 21  1  0  0  0
 16 31  1  0  0  0
 17 18  1  0  0  0
 17101  1  0  0  0
 18 19  2  0  0  0
 18102  1  0  0  0
 19 20  1  0  0  0
 19 24  1  0  0  0
 20 21  2  0  0  0
 20103  1  0  0  0
 21 23  1  0  0  0
 22 28  1  0  0  0
 22 32  2  0  0  0
 26 27  1  0  0  0
 28104  1  0  0  0
 28105  1  0  0  0
 29106  1  0  0  0
 29107  1  0  0  0
 33 34  1  0  0  0
 33 66  1  0  0  0
 33 70  2  0  0  0
 34 36  1  0  0  0
 34 59  1  0  0  0
 34108  1  0  0  0
 35 44  2  0  0  0
 35 45  1  0  0  0
 35 68  1  0  0  0
 36 56  1  0  0  0
 36109  1  0  0  0
 37 39  1  0  0  0
 37 47  1  0  0  0
 37 66  1  0  0  0
 37110  1  0  0  0
 38 43  2  0  0  0
 38 46  1  0  0  0
 38 47  1  0  0  0
 39 64  1  0  0  0
 39 67  2  0  0  0
 40 52  1  0  0  0
 40 53  2  0  0  0
 40 58  1  0  0  0
 41111  1  0  0  0
 41112  1  0  0  0
 41113  1  0  0  0
 41 48  1  0  0  0
 42 43  1  0  0  0
 42 66  1  0  0  0
 42114  1  0  0  0
 42115  1  0  0  0
 43 44  1  0  0  0
 44116  1  0  0  0
 45 46  2  0  0  0
 45117  1  0  0  0
 46118  1  0  0  0
 47119  1  0  0  0
 47120  1  0  0  0
 48 56  1  0  0  0
 48 65  1  0  0  0
 48121  1  0  0  0
 49 50  1  0  0  0
 49 53  1  0  0  0
 49 64  1  0  0  0
 49122  1  0  0  0
 50 51  1  0  0  0
 50123  1  0  0  0
 50124  1  0  0  0
 51 52  1  0  0  0
 51125  1  0  0  0
 51126  1  0  0  0
 52127  1  0  0  0
 52128  1  0  0  0
 53 54  1  0  0  0
 54 55  2  0  0  0
 54129  1  0  0  0
 55 57  1  0  0  0
 55130  1  0  0  0
 56 69  2  0  0  0
 57 58  2  0  0  0
 57131  1  0  0  0
 58132  1  0  0  0
 59 60  1  0  0  0
 59 61  1  0  0  0
 59 62  1  0  0  0
 60133  1  0  0  0
 60134  1  0  0  0
 60135  1  0  0  0
 61136  1  0  0  0
 61137  1  0  0  0
 61138  1  0  0  0
 62139  1  0  0  0
 62140  1  0  0  0
 62141  1  0  0  0
 63 65  1  0  0  0
 63142  1  0  0  0
 63143  1  0  0  0
 63144  1  0  0  0
 64145  1  0  0  0
 65146  1  0  0  0
 68 83  1  0  0  0
 71 72  2  0  0  0
 71 73  1  0  0  0
 71147  1  0  0  0
 72 75  1  0  0  0
 72148  1  0  0  0
 73 74  2  0  0  0
 73 76  1  0  0  0
 74 77  1  0  0  0
 74 84  1  0  0  0
 75 84  2  0  0  0
 75 86  1  0  0  0
 76 78  2  0  0  0
 76149  1  0  0  0
 77 85  2  0  0  0
 77150  1  0  0  0
 78 81  1  0  0  0
 78151  1  0  0  0
 79 82  1  0  0  0
 79 86  1  0  0  0
 79 87  2  0  0  0
 80 81  1  0  0  0
 80152  1  0  0  0
 80153  1  0  0  0
 80154  1  0  0  0
 81155  1  0  0  0
 81156  1  0  0  0
 82 83  1  0  0  0
 82157  1  0  0  0
 82158  1  0  0  0
 83159  1  0  0  0
 83160  1  0  0  0
 86161  1  0  0  0
M  ISO  4   1 100  68 101  83 101  85 100
M  END
> <chiral flag>
0

> <version>
0

> <s_m_source_file>
/data/baiqing/PycharmProjects/Reinvent-master-3.2/result/LINK_invent/BTK/process_docking_weight1_custom_product_contain_oxygen_bond_distance_aromatic_linkinvent_7_9_3/rearranged_h_0114.sdf

> <i_m_source_file_index>
57

> <r_mmod_Potential_Energy-OPLS-2005>
14046.8896484375

> <r_mmod_Stretch_Energy-OPLS-2005>
7677.802734375

> <r_mmod_Bend_Energy-OPLS-2005>
1647.38696289062

> <r_mmod_Torsional_Energy-OPLS-2005>
474.646575927734

> <r_mmod_Improper_Torsional_Energy-OPLS-2005>
91.6361923217773

> <r_mmod_Van_der_Waal_Energy-OPLS-2005>
3326.76025390625

> <r_mmod_Electrostatic_Energy-OPLS-2005>
-503.924957275391

> <r_mmod_Solvation_Energy-OPLS-2005>
-217.906295776367

> <b_mmod_Minimization_Converged-OPLS-2005>
0

> <r_mmod_RMS_Derivative-OPLS-2005>
4.36828804016113

$$$$
57
                    3D
 Structure written by MMmdl.
171179  0  0  1  0            999 V2000
  -30.7389  -14.4272   20.6388 C   0  0  0  0  0  0
  -30.4187  -12.3064   19.4148 C   0  0  0  0  0  0
  -29.4873  -12.5149   18.2046 C   0  0  0  0  0  0
  -28.0107  -12.3759   18.6194 C   0  0  0  0  0  0
  -27.6636  -13.2083   19.8822 C   0  0  2  0  0  0
  -28.7036  -12.9761   21.0011 C   0  0  0  0  0  0
  -25.2593  -13.8178   20.5689 C   0  0  0  0  0  0
  -24.1836  -13.0448   20.9171 C   0  0  0  0  0  0
  -24.6396  -11.6919   20.8745 C   0  0  0  0  0  0
  -23.9064  -10.4299   21.0416 C   0  0  0  0  0  0
  -24.3616   -9.4213   21.9194 C   0  0  0  0  0  0
  -23.6291   -8.2248   22.0761 C   0  0  0  0  0  0
  -22.4276   -8.0288   21.3548 C   0  0  0  0  0  0
  -21.9913   -9.0262   20.4649 C   0  0  0  0  0  0
  -22.7242  -10.2141   20.3061 C   0  0  0  0  0  0
  -21.6854   -6.0738   22.5283 C   0  0  0  0  0  0
  -21.4011   -6.5641   23.8216 C   0  0  0  0  0  0
  -21.3652   -5.6795   24.9179 C   0  0  0  0  0  0
  -21.6048   -4.3059   24.7231 C   0  0  0  0  0  0
  -21.8819   -3.8148   23.4351 C   0  0  0  0  0  0
  -21.9191   -4.6964   22.3407 C   0  0  0  0  0  0
  -22.7862  -13.5252   21.1829 C   0  0  0  0  0  0
  -22.1660   -4.2148   21.0987 F   0  0  0  0  0  0
  -21.5628   -3.4541   25.7745 F   0  0  0  0  0  0
  -30.0381  -13.2762   20.4544 N   0  0  0  0  0  0
  -26.3035  -12.9346   20.3415 N   0  0  0  0  0  0
  -25.9325  -11.6501   20.5793 N   0  0  0  0  0  0
  -22.0500  -12.8236   22.0385 N   0  0  0  0  0  0
  -25.4332  -15.1890   20.4083 N   0  0  0  0  0  0
  -31.8200  -14.6458   20.0843 O   0  0  0  0  0  0
  -21.6641   -6.8884   21.4248 O   0  0  0  0  0  0
  -22.3545  -14.5554   20.6687 O   0  0  0  0  0  0
  -24.6143  -31.8680   23.2100 C   0  0  0  0  0  0
  -25.9033  -32.4832   23.8394 C   0  0  1  0  0  0
  -27.2296  -27.4300   20.1033 C   0  0  0  0  0  0
  -25.5887  -33.8624   24.2326 N   0  0  0  0  0  0
  -23.4033  -30.4920   21.5509 C   0  0  2  0  0  0
  -24.8500  -28.9586   20.1129 C   0  0  0  0  0  0
  -22.7416  -29.4661   22.4989 C   0  0  0  0  0  0
  -18.0265  -28.1379   22.8510 C   0  0  0  0  0  0
  -24.1483  -36.7330   23.2641 C   0  0  0  0  0  0
  -25.9310  -30.8347   21.3611 C   0  0  0  0  0  0
  -26.0106  -29.4673   20.7107 C   0  0  0  0  0  0
  -27.2063  -28.7115   20.6998 C   0  0  0  0  0  0
  -26.0563  -26.9436   19.4843 C   0  0  0  0  0  0
  -24.8681  -27.6968   19.4933 C   0  0  0  0  0  0
  -23.6115  -29.8249   20.1648 C   0  0  0  0  0  0
  -25.4103  -36.3122   24.0338 C   0  0  1  0  0  0
  -20.5857  -28.3673   23.1326 C   0  0  2  0  0  0
  -20.6754  -26.9412   22.5418 C   0  0  0  0  0  0
  -19.5725  -26.6393   21.5220 C   0  0  0  0  0  0
  -18.1905  -26.7928   22.1635 C   0  0  0  0  0  0
  -19.1517  -28.8837   23.2915 C   0  0  0  0  0  0
  -18.9447  -30.1441   23.8934 C   0  0  0  0  0  0
  -17.6456  -30.6599   24.0569 C   0  0  0  0  0  0
  -25.9025  -34.9485   23.5132 C   0  0  0  0  0  0
  -16.5344  -29.9108   23.6330 C   0  0  0  0  0  0
  -16.7256  -28.6515   23.0364 C   0  0  0  0  0  0
  -26.4458  -31.6604   25.0720 C   0  0  0  0  0  0
  -25.3720  -31.3656   26.1457 C   0  0  0  0  0  0
  -27.0299  -30.3067   24.6064 C   0  0  0  0  0  0
  -27.6045  -32.4306   25.7474 C   0  0  0  0  0  0
  -27.5581  -37.1814   24.8474 C   0  0  0  0  0  0
  -21.4138  -29.3049   22.3740 N   0  0  0  0  0  0
  -26.4300  -37.3802   23.9409 N   0  0  0  0  0  0
  -24.6686  -31.0776   22.1002 N   0  0  0  0  0  0
  -23.4198  -28.8202   23.3021 O   0  0  0  0  0  0
  -28.3808  -26.6697   20.1267 O   0  0  0  0  0  0
  -26.5600  -34.8943   22.4701 O   0  0  0  0  0  0
  -23.5337  -32.1428   23.7500 O   0  0  0  0  0  0
  -28.0241  -18.6825   23.5667 C   0  0  0  0  0  0
  -29.8239  -18.9694   21.4628 C   0  0  0  0  0  0
  -28.8877  -17.6071   23.2605 C   0  0  0  0  0  0
  -29.7909  -17.7469   22.1763 C   0  0  0  0  0  0
  -28.0547  -19.9070   22.8522 C   0  0  0  0  0  0
  -28.9702  -20.0528   21.7704 C   0  0  0  0  0  0
  -27.7608  -15.9368   24.7658 C   0  0  0  0  0  0
  -28.8205  -16.3641   24.0571 C   0  0  0  0  0  0
  -24.1456  -21.9859   25.0709 C   0  0  0  0  0  0
  -30.7759  -16.6395   21.7798 C   0  0  0  0  0  0
  -25.3207  -22.0451   24.0899 C   0  0  0  0  0  0
  -28.8314  -24.2770   19.5996 C   0  0  0  0  0  0
  -28.0784  -22.9247   19.5424 C   0  0  0  0  0  0
  -26.1817  -20.7778   24.1173 C   0  0  0  0  0  0
  -28.2186  -25.3088   20.5741 C   0  0  0  0  0  0
  -28.0124  -22.0938   20.8437 C   0  0  0  0  0  0
  -30.1698  -15.3478   21.4327 N   0  0  0  0  0  0
  -27.2503  -20.9718   23.2018 O   0  0  0  0  0  0
  -29.1141  -21.1901   20.9819 O   0  0  0  0  0  0
  -31.4618  -12.4070   19.1078 H   0  0  0  0  0  0
  -30.3230  -11.2911   19.8029 H   0  0  0  0  0  0
  -29.7223  -11.7950   17.4197 H   0  0  0  0  0  0
  -29.6560  -13.5039   17.7760 H   0  0  0  0  0  0
  -27.8156  -11.3190   18.8061 H   0  0  0  0  0  0
  -27.3594  -12.6623   17.7929 H   0  0  0  0  0  0
  -27.7136  -14.2590   19.5953 H   0  0  0  0  0  0
  -28.6772  -11.9371   21.3337 H   0  0  0  0  0  0
  -28.4578  -13.5665   21.8845 H   0  0  0  0  0  0
  -25.2763   -9.5688   22.4765 H   0  0  0  0  0  0
  -23.9999   -7.4645   22.7484 H   0  0  0  0  0  0
  -21.0844   -8.8789   19.8954 H   0  0  0  0  0  0
  -22.3713  -10.9682   19.6165 H   0  0  0  0  0  0
  -21.2002   -7.6147   23.9721 H   0  0  0  0  0  0
  -21.1471   -6.0524   25.9084 H   0  0  0  0  0  0
  -22.0600   -2.7608   23.2860 H   0  0  0  0  0  0
  -22.4100  -11.9879   22.4743 H   0  0  0  0  0  0
  -21.1129  -13.1274   22.2613 H   0  0  0  0  0  0
  -24.6754  -15.8525   20.5268 H   0  0  0  0  0  0
  -26.3006  -15.6254   20.1208 H   0  0  0  0  0  0
  -26.7101  -32.5558   23.1156 H   0  0  0  0  0  0
  -25.0006  -33.9756   25.0454 H   0  0  0  0  0  0
  -22.6943  -31.3102   21.4113 H   0  0  0  0  0  0
  -23.3752  -35.9656   23.3304 H   0  0  0  0  0  0
  -24.3571  -36.8952   22.2058 H   0  0  0  0  0  0
  -23.7231  -37.6531   23.6659 H   0  0  0  0  0  0
  -26.0316  -31.5972   20.5878 H   0  0  0  0  0  0
  -26.8234  -30.8972   21.9718 H   0  0  0  0  0  0
  -28.1022  -29.0953   21.1679 H   0  0  0  0  0  0
  -26.0589  -25.9779   18.9990 H   0  0  0  0  0  0
  -23.9782  -27.3060   19.0191 H   0  0  0  0  0  0
  -23.7177  -30.6002   19.4048 H   0  0  0  0  0  0
  -22.7366  -29.2429   19.8708 H   0  0  0  0  0  0
  -25.1273  -36.1981   25.0832 H   0  0  0  0  0  0
  -20.9939  -28.3228   24.1451 H   0  0  0  0  0  0
  -20.5660  -26.2282   23.3602 H   0  0  0  0  0  0
  -21.6623  -26.7448   22.1205 H   0  0  0  0  0  0
  -19.6894  -25.6308   21.1237 H   0  0  0  0  0  0
  -19.6664  -27.3216   20.6759 H   0  0  0  0  0  0
  -17.4174  -26.6694   21.4043 H   0  0  0  0  0  0
  -18.0303  -26.0055   22.9014 H   0  0  0  0  0  0
  -19.7919  -30.7237   24.2346 H   0  0  0  0  0  0
  -17.5010  -31.6283   24.5161 H   0  0  0  0  0  0
  -15.5344  -30.3027   23.7632 H   0  0  0  0  0  0
  -15.8645  -28.0839   22.7088 H   0  0  0  0  0  0
  -24.5924  -30.6980   25.7766 H   0  0  0  0  0  0
  -24.8861  -32.2777   26.4933 H   0  0  0  0  0  0
  -25.8075  -30.8802   27.0201 H   0  0  0  0  0  0
  -26.2829  -29.6803   24.1176 H   0  0  0  0  0  0
  -27.4175  -29.7313   25.4483 H   0  0  0  0  0  0
  -27.8608  -30.4432   23.9138 H   0  0  0  0  0  0
  -27.2712  -33.3632   26.2038 H   0  0  0  0  0  0
  -28.3859  -32.6816   25.0286 H   0  0  0  0  0  0
  -28.0707  -31.8429   26.5391 H   0  0  0  0  0  0
  -28.2596  -38.0113   24.7522 H   0  0  0  0  0  0
  -28.1073  -36.2645   24.6294 H   0  0  0  0  0  0
  -27.2292  -37.1457   25.8874 H   0  0  0  0  0  0
  -20.9305  -29.8802   21.6985 H   0  0  0  0  0  0
  -26.0197  -38.2885   24.1401 H   0  0  0  0  0  0
  -27.3556  -18.5698   24.4048 H   0  0  0  0  0  0
  -30.5251  -19.0860   20.6496 H   0  0  0  0  0  0
  -27.8146  -15.0220   25.3401 H   0  0  0  0  0  0
  -26.8240  -16.4750   24.7910 H   0  0  0  0  0  0
  -29.7164  -15.7609   24.0938 H   0  0  0  0  0  0
  -23.5419  -22.8919   25.0067 H   0  0  0  0  0  0
  -24.4966  -21.8932   26.0991 H   0  0  0  0  0  0
  -23.4950  -21.1371   24.8588 H   0  0  0  0  0  0
  -31.4712  -16.4820   22.6054 H   0  0  0  0  0  0
  -31.3850  -16.9973   20.9482 H   0  0  0  0  0  0
  -25.9400  -22.9125   24.3226 H   0  0  0  0  0  0
  -24.9409  -22.1998   23.0790 H   0  0  0  0  0  0
  -28.8159  -24.6987   18.5936 H   0  0  0  0  0  0
  -29.8841  -24.1186   19.8355 H   0  0  0  0  0  0
  -28.4903  -22.3044   18.7444 H   0  0  0  0  0  0
  -27.0550  -23.1424   19.2343 H   0  0  0  0  0  0
  -25.5750  -19.9161   23.8321 H   0  0  0  0  0  0
  -26.5741  -20.6088   25.1213 H   0  0  0  0  0  0
  -28.7148  -25.2135   21.5406 H   0  0  0  0  0  0
  -27.1774  -25.0547   20.7793 H   0  0  0  0  0  0
  -27.0880  -21.5151   20.8007 H   0  0  0  0  0  0
  -27.9464  -22.7532   21.7087 H   0  0  0  0  0  0
  -29.2796  -15.1208   21.8491 H   0  0  0  0  0  0
  1 25  1  0  0  0
  1 30  2  0  0  0
  1 87  1  0  0  0
  2  3  1  0  0  0
  2 25  1  0  0  0
  2 90  1  0  0  0
  2 91  1  0  0  0
  3  4  1  0  0  0
  3 92  1  0  0  0
  3 93  1  0  0  0
  4  5  1  0  0  0
  4 94  1  0  0  0
  4 95  1  0  0  0
  5  6  1  0  0  0
  5 26  1  0  0  0
  5 96  1  0  0  0
  6 25  1  0  0  0
  6 97  1  0  0  0
  6 98  1  0  0  0
  7  8  2  0  0  0
  7 26  1  0  0  0
  7 29  1  0  0  0
  8  9  1  0  0  0
  8 22  1  0  0  0
  9 10  1  0  0  0
  9 27  2  0  0  0
 10 11  2  0  0  0
 10 15  1  0  0  0
 11 12  1  0  0  0
 11 99  1  0  0  0
 12 13  2  0  0  0
 12100  1  0  0  0
 13 14  1  0  0  0
 13 31  1  0  0  0
 14 15  2  0  0  0
 14101  1  0  0  0
 15102  1  0  0  0
 16 17  2  0  0  0
 16 21  1  0  0  0
 16 31  1  0  0  0
 17 18  1  0  0  0
 17103  1  0  0  0
 18 19  2  0  0  0
 18104  1  0  0  0
 19 20  1  0  0  0
 19 24  1  0  0  0
 20 21  2  0  0  0
 20105  1  0  0  0
 21 23  1  0  0  0
 22 28  1  0  0  0
 22 32  2  0  0  0
 26 27  1  0  0  0
 28106  1  0  0  0
 28107  1  0  0  0
 29108  1  0  0  0
 29109  1  0  0  0
 33 34  1  0  0  0
 33 66  1  0  0  0
 33 70  2  0  0  0
 34 36  1  0  0  0
 34 59  1  0  0  0
 34110  1  0  0  0
 35 44  2  0  0  0
 35 45  1  0  0  0
 35 68  1  0  0  0
 36 56  1  0  0  0
 36111  1  0  0  0
 37 39  1  0  0  0
 37 47  1  0  0  0
 37 66  1  0  0  0
 37112  1  0  0  0
 38 43  2  0  0  0
 38 46  1  0  0  0
 38 47  1  0  0  0
 39 64  1  0  0  0
 39 67  2  0  0  0
 40 52  1  0  0  0
 40 53  2  0  0  0
 40 58  1  0  0  0
 41113  1  0  0  0
 41114  1  0  0  0
 41115  1  0  0  0
 41 48  1  0  0  0
 42 43  1  0  0  0
 42 66  1  0  0  0
 42116  1  0  0  0
 42117  1  0  0  0
 43 44  1  0  0  0
 44118  1  0  0  0
 45 46  2  0  0  0
 45119  1  0  0  0
 46120  1  0  0  0
 47121  1  0  0  0
 47122  1  0  0  0
 48 56  1  0  0  0
 48 65  1  0  0  0
 48123  1  0  0  0
 49 50  1  0  0  0
 49 53  1  0  0  0
 49 64  1  0  0  0
 49124  1  0  0  0
 50 51  1  0  0  0
 50125  1  0  0  0
 50126  1  0  0  0
 51 52  1  0  0  0
 51127  1  0  0  0
 51128  1  0  0  0
 52129  1  0  0  0
 52130  1  0  0  0
 53 54  1  0  0  0
 54 55  2  0  0  0
 54131  1  0  0  0
 55 57  1  0  0  0
 55132  1  0  0  0
 56 69  2  0  0  0
 57 58  2  0  0  0
 57133  1  0  0  0
 58134  1  0  0  0
 59 60  1  0  0  0
 59 61  1  0  0  0
 59 62  1  0  0  0
 60135  1  0  0  0
 60136  1  0  0  0
 60137  1  0  0  0
 61138  1  0  0  0
 61139  1  0  0  0
 61140  1  0  0  0
 62141  1  0  0  0
 62142  1  0  0  0
 62143  1  0  0  0
 63 65  1  0  0  0
 63144  1  0  0  0
 63145  1  0  0  0
 63146  1  0  0  0
 64147  1  0  0  0
 65148  1  0  0  0
 68 85  1  0  0  0
 71 73  2  0  0  0
 71 75  1  0  0  0
 71149  1  0  0  0
 72 74  2  0  0  0
 72 76  1  0  0  0
 72150  1  0  0  0
 73 74  1  0  0  0
 73 78  1  0  0  0
 74 80  1  0  0  0
 75 76  2  0  0  0
 75 88  1  0  0  0
 76 89  1  0  0  0
 77 78  2  0  0  0
 77151  1  0  0  0
 77152  1  0  0  0
 78153  1  0  0  0
 79 81  1  0  0  0
 79154  1  0  0  0
 79155  1  0  0  0
 79156  1  0  0  0
 80 87  1  0  0  0
 80157  1  0  0  0
 80158  1  0  0  0
 81 84  1  0  0  0
 81159  1  0  0  0
 81160  1  0  0  0
 82 83  1  0  0  0
 82 85  1  0  0  0
 82161  1  0  0  0
 82162  1  0  0  0
 83 86  1  0  0  0
 83163  1  0  0  0
 83164  1  0  0  0
 84 88  1  0  0  0
 84165  1  0  0  0
 84166  1  0  0  0
 85167  1  0  0  0
 85168  1  0  0  0
 86 89  1  0  0  0
 86169  1  0  0  0
 86170  1  0  0  0
 87171  1  0  0  0
M  ISO  4   1 100  68 101  85 101  87 100
M  END
> <chiral flag>
0

> <version>
0

> <s_m_source_file>
/data/baiqing/PycharmProjects/Reinvent-master-3.2/result/LINK_invent/BTK/process_docking_weight1_custom_product_contain_oxygen_bond_distance_aromatic_linkinvent_7_9_3/rearranged_h_0114.sdf

> <i_m_source_file_index>
58

> <r_mmod_Potential_Energy-OPLS-2005>
-65.2377090454102

> <r_mmod_Stretch_Energy-OPLS-2005>
40.1001892089844

> <r_mmod_Bend_Energy-OPLS-2005>
112.373001098633

> <r_mmod_Torsional_Energy-OPLS-2005>
238.192565917969

> <r_mmod_Improper_Torsional_Energy-OPLS-2005>
1.9863920211792

> <r_mmod_Van_der_Waal_Energy-OPLS-2005>
167.952621459961

> <r_mmod_Electrostatic_Energy-OPLS-2005>
-431.223510742188

> <r_mmod_Solvation_Energy-OPLS-2005>
-205.244262695312

> <b_mmod_Minimization_Converged-OPLS-2005>
0

> <r_mmod_RMS_Derivative-OPLS-2005>
1.64260601997375

$$$$
58
                    3D
 Structure written by MMmdl.
162170  0  0  1  0            999 V2000
  -30.6345  -14.8217   20.4565 C   0  0  0  0  0  0
  -30.4354  -12.5038   19.4908 C   0  0  0  0  0  0
  -29.5105  -12.4944   18.2522 C   0  0  0  0  0  0
  -28.0459  -12.2894   18.6766 C   0  0  0  0  0  0
  -27.6335  -13.2233   19.8406 C   0  0  2  0  0  0
  -28.6842  -13.2369   20.9748 C   0  0  0  0  0  0
  -25.2486  -13.8137   20.5638 C   0  0  0  0  0  0
  -24.1778  -13.0425   20.9177 C   0  0  0  0  0  0
  -24.6358  -11.6880   20.8753 C   0  0  0  0  0  0
  -23.9017  -10.4275   21.0405 C   0  0  0  0  0  0
  -24.3580   -9.4199   21.9182 C   0  0  0  0  0  0
  -23.6278   -8.2214   22.0751 C   0  0  0  0  0  0
  -22.4266   -8.0228   21.3522 C   0  0  0  0  0  0
  -21.9881   -9.0208   20.4634 C   0  0  0  0  0  0
  -22.7194  -10.2086   20.3051 C   0  0  0  0  0  0
  -21.6874   -6.0662   22.5240 C   0  0  0  0  0  0
  -21.4055   -6.5590   23.8163 C   0  0  0  0  0  0
  -21.3674   -5.6752   24.9128 C   0  0  0  0  0  0
  -21.6055   -4.3012   24.7201 C   0  0  0  0  0  0
  -21.8850   -3.8090   23.4335 C   0  0  0  0  0  0
  -21.9216   -4.6890   22.3376 C   0  0  0  0  0  0
  -22.7797  -13.5177   21.1876 C   0  0  0  0  0  0
  -22.1657   -4.2070   21.0958 F   0  0  0  0  0  0
  -21.5642   -3.4507   25.7725 F   0  0  0  0  0  0
  -29.9814  -13.5967   20.3850 N   0  0  0  0  0  0
  -26.2921  -12.9334   20.3307 N   0  0  0  0  0  0
  -25.9297  -11.6495   20.5839 N   0  0  0  0  0  0
  -22.0507  -12.8142   22.0444 N   0  0  0  0  0  0
  -25.4266  -15.1834   20.3908 N   0  0  0  0  0  0
  -31.8384  -14.8623   20.1716 O   0  0  0  0  0  0
  -21.6666   -6.8794   21.4198 O   0  0  0  0  0  0
  -22.3461  -14.5486   20.6722 O   0  0  0  0  0  0
  -24.6342  -31.8474   23.1912 C   0  0  0  0  0  0
  -25.9123  -32.4706   23.8300 C   0  0  1  0  0  0
  -27.2253  -27.2012   20.1295 C   0  0  0  0  0  0
  -25.5909  -33.8504   24.2261 N   0  0  0  0  0  0
  -23.4385  -30.4670   21.5326 C   0  0  2  0  0  0
  -24.8902  -28.9103   20.1071 C   0  0  0  0  0  0
  -22.7553  -29.4500   22.4826 C   0  0  0  0  0  0
  -18.0296  -28.1344   22.8462 C   0  0  0  0  0  0
  -24.1501  -36.7283   23.2631 C   0  0  0  0  0  0
  -25.9868  -30.7455   21.3770 C   0  0  0  0  0  0
  -26.0644  -29.3619   20.7235 C   0  0  0  0  0  0
  -27.2291  -28.5221   20.7203 C   0  0  0  0  0  0
  -26.0230  -26.8359   19.4816 C   0  0  0  0  0  0
  -24.8802  -27.6636   19.4700 C   0  0  0  0  0  0
  -23.6707  -29.8077   20.1471 C   0  0  0  0  0  0
  -25.4110  -36.3025   24.0317 C   0  0  1  0  0  0
  -20.5901  -28.3666   23.1205 C   0  0  2  0  0  0
  -20.6766  -26.9358   22.5368 C   0  0  0  0  0  0
  -19.5772  -26.6336   21.5146 C   0  0  0  0  0  0
  -18.1936  -26.7867   22.1555 C   0  0  0  0  0  0
  -19.1559  -28.8827   23.2834 C   0  0  0  0  0  0
  -18.9453  -30.1384   23.8923 C   0  0  0  0  0  0
  -17.6457  -30.6552   24.0541 C   0  0  0  0  0  0
  -25.9042  -34.9383   23.5090 C   0  0  0  0  0  0
  -16.5345  -29.9062   23.6289 C   0  0  0  0  0  0
  -16.7282  -28.6456   23.0374 C   0  0  0  0  0  0
  -26.4514  -31.6520   25.0660 C   0  0  0  0  0  0
  -25.3770  -31.3616   26.1413 C   0  0  0  0  0  0
  -27.0359  -30.2950   24.6067 C   0  0  0  0  0  0
  -27.6082  -32.4283   25.7415 C   0  0  0  0  0  0
  -27.5578  -37.1759   24.8441 C   0  0  0  0  0  0
  -21.4247  -29.3032   22.3630 N   0  0  0  0  0  0
  -26.4285  -37.3697   23.9413 N   0  0  0  0  0  0
  -24.7068  -31.0390   22.0932 N   0  0  0  0  0  0
  -23.4202  -28.7999   23.2925 O   0  0  0  0  0  0
  -28.3318  -26.3019   20.2090 O   0  0  0  0  0  0
  -26.5602  -34.8833   22.4647 O   0  0  0  0  0  0
  -23.5475  -32.1318   23.7144 O   0  0  0  0  0  0
  -31.7382  -19.3965   23.1277 C   0  0  0  0  0  0
  -30.9634  -19.8205   22.0532 C   0  0  0  0  0  0
  -31.0776  -17.0717   22.7180 C   0  0  0  0  0  0
  -30.3857  -17.4531   21.4950 C   0  0  0  0  0  0
  -31.7473  -18.0529   23.4999 C   0  0  0  0  0  0
  -30.2031  -18.9380   21.2553 C   0  0  0  0  0  0
  -32.0338  -14.9060   23.7406 C   0  0  0  0  0  0
  -31.0281  -15.6708   23.2634 C   0  0  0  0  0  0
  -28.7976  -22.3149   21.0179 C   0  0  0  0  0  0
  -29.8108  -16.2314   20.6710 C   0  0  0  0  0  0
  -28.4157  -23.6796   20.9712 C   0  0  0  0  0  0
  -27.9662  -24.3110   22.2848 C   0  0  0  0  0  0
  -29.3461  -21.1588   20.0420 C   0  0  0  0  0  0
  -28.3284  -24.8089   19.8296 C   0  0  0  0  0  0
  -28.6766  -16.3933   20.1304 N   0  0  0  0  0  0
  -32.4004  -17.7414   24.6910 N   0  0  0  0  0  0
  -29.2949  -19.6515   20.3934 O   0  0  0  0  0  0
  -31.4706  -12.6355   19.1712 H   0  0  0  0  0  0
  -30.4015  -11.5503   20.0209 H   0  0  0  0  0  0
  -29.8086  -11.7045   17.5626 H   0  0  0  0  0  0
  -29.6059  -13.4376   17.7122 H   0  0  0  0  0  0
  -27.9446  -11.2487   18.9873 H   0  0  0  0  0  0
  -27.3757  -12.4252   17.8262 H   0  0  0  0  0  0
  -27.5943  -14.2130   19.3947 H   0  0  0  0  0  0
  -28.7412  -12.2655   21.4736 H   0  0  0  0  0  0
  -28.4047  -13.9626   21.7397 H   0  0  0  0  0  0
  -25.2715   -9.5660   22.4750 H   0  0  0  0  0  0
  -23.9987   -7.4603   22.7461 H   0  0  0  0  0  0
  -21.0807   -8.8709   19.8931 H   0  0  0  0  0  0
  -22.3655  -10.9610   19.6137 H   0  0  0  0  0  0
  -21.2088   -7.6104   23.9624 H   0  0  0  0  0  0
  -21.1461   -6.0494   25.9008 H   0  0  0  0  0  0
  -22.0637   -2.7560   23.2862 H   0  0  0  0  0  0
  -22.4188  -11.9807   22.4789 H   0  0  0  0  0  0
  -21.1120  -13.1113   22.2728 H   0  0  0  0  0  0
  -24.6658  -15.8514   20.4290 H   0  0  0  0  0  0
  -26.3076  -15.5966   20.1025 H   0  0  0  0  0  0
  -26.7178  -32.5398   23.1022 H   0  0  0  0  0  0
  -25.0177  -33.9592   25.0508 H   0  0  0  0  0  0
  -22.7363  -31.2905   21.3745 H   0  0  0  0  0  0
  -23.3707  -35.9658   23.3276 H   0  0  0  0  0  0
  -24.3639  -36.8961   22.2059 H   0  0  0  0  0  0
  -23.7287  -37.6471   23.6728 H   0  0  0  0  0  0
  -26.1042  -31.4989   20.5978 H   0  0  0  0  0  0
  -26.8727  -30.8175   21.9991 H   0  0  0  0  0  0
  -28.1301  -28.8702   21.2087 H   0  0  0  0  0  0
  -25.9225  -25.8900   18.9801 H   0  0  0  0  0  0
  -23.9833  -27.3312   18.9616 H   0  0  0  0  0  0
  -23.8105  -30.5800   19.3884 H   0  0  0  0  0  0
  -22.7950  -29.2388   19.8312 H   0  0  0  0  0  0
  -25.1251  -36.1873   25.0797 H   0  0  0  0  0  0
  -20.9977  -28.3217   24.1344 H   0  0  0  0  0  0
  -20.5526  -26.2290   23.3580 H   0  0  0  0  0  0
  -21.6654  -26.7319   22.1246 H   0  0  0  0  0  0
  -19.6890  -25.6226   21.1223 H   0  0  0  0  0  0
  -19.6695  -27.3132   20.6655 H   0  0  0  0  0  0
  -17.4185  -26.6618   21.3968 H   0  0  0  0  0  0
  -18.0354  -25.9998   22.8957 H   0  0  0  0  0  0
  -19.7936  -30.7160   24.2380 H   0  0  0  0  0  0
  -17.5022  -31.6250   24.5095 H   0  0  0  0  0  0
  -15.5356  -30.2987   23.7559 H   0  0  0  0  0  0
  -15.8673  -28.0744   22.7150 H   0  0  0  0  0  0
  -24.5998  -30.6836   25.7809 H   0  0  0  0  0  0
  -24.8835  -32.2745   26.4760 H   0  0  0  0  0  0
  -25.8114  -30.8914   27.0250 H   0  0  0  0  0  0
  -26.2893  -29.6650   24.1182 H   0  0  0  0  0  0
  -27.4212  -29.7162   25.4475 H   0  0  0  0  0  0
  -27.8719  -30.4253   23.9171 H   0  0  0  0  0  0
  -27.2721  -33.3680   26.1803 H   0  0  0  0  0  0
  -28.3979  -32.6679   25.0276 H   0  0  0  0  0  0
  -28.0653  -31.8527   26.5466 H   0  0  0  0  0  0
  -28.2482  -38.0144   24.7587 H   0  0  0  0  0  0
  -28.1177  -36.2665   24.6199 H   0  0  0  0  0  0
  -27.2313  -37.1378   25.8833 H   0  0  0  0  0  0
  -20.9412  -29.9012   21.7090 H   0  0  0  0  0  0
  -26.0136  -38.2726   24.1501 H   0  0  0  0  0  0
  -32.2549  -20.1386   23.7201 H   0  0  0  0  0  0
  -30.9306  -20.8882   21.9103 H   0  0  0  0  0  0
  -31.8455  -13.9096   24.1251 H   0  0  0  0  0  0
  -33.0597  -15.2489   23.7624 H   0  0  0  0  0  0
  -30.0436  -15.2245   23.2952 H   0  0  0  0  0  0
  -28.7273  -21.8863   22.0058 H   0  0  0  0  0  0
  -28.7793  -24.8914   22.7171 H   0  0  0  0  0  0
  -27.6425  -23.5746   23.0197 H   0  0  0  0  0  0
  -27.1212  -24.9851   22.1327 H   0  0  0  0  0  0
  -30.3577  -21.4235   19.7336 H   0  0  0  0  0  0
  -28.7543  -21.2638   19.1343 H   0  0  0  0  0  0
  -27.4561  -24.5629   19.2337 H   0  0  0  0  0  0
  -29.1558  -24.6447   19.1403 H   0  0  0  0  0  0
  -28.3326  -17.3245   20.3339 H   0  0  0  0  0  0
  -32.7419  -18.4737   25.3088 H   0  0  0  0  0  0
  -32.1860  -16.8582   25.1433 H   0  0  0  0  0  0
  1 25  1  0  0  0
  1 30  2  0  0  0
  1 80  1  0  0  0
  2  3  1  0  0  0
  2 25  1  0  0  0
  2 88  1  0  0  0
  2 89  1  0  0  0
  3  4  1  0  0  0
  3 90  1  0  0  0
  3 91  1  0  0  0
  4  5  1  0  0  0
  4 92  1  0  0  0
  4 93  1  0  0  0
  5  6  1  0  0  0
  5 26  1  0  0  0
  5 94  1  0  0  0
  6 25  1  0  0  0
  6 95  1  0  0  0
  6 96  1  0  0  0
  7  8  2  0  0  0
  7 26  1  0  0  0
  7 29  1  0  0  0
  8  9  1  0  0  0
  8 22  1  0  0  0
  9 10  1  0  0  0
  9 27  2  0  0  0
 10 11  2  0  0  0
 10 15  1  0  0  0
 11 12  1  0  0  0
 11 97  1  0  0  0
 12 13  2  0  0  0
 12 98  1  0  0  0
 13 14  1  0  0  0
 13 31  1  0  0  0
 14 15  2  0  0  0
 14 99  1  0  0  0
 15100  1  0  0  0
 16 17  2  0  0  0
 16 21  1  0  0  0
 16 31  1  0  0  0
 17 18  1  0  0  0
 17101  1  0  0  0
 18 19  2  0  0  0
 18102  1  0  0  0
 19 20  1  0  0  0
 19 24  1  0  0  0
 20 21  2  0  0  0
 20103  1  0  0  0
 21 23  1  0  0  0
 22 28  1  0  0  0
 22 32  2  0  0  0
 26 27  1  0  0  0
 28104  1  0  0  0
 28105  1  0  0  0
 29106  1  0  0  0
 29107  1  0  0  0
 33 34  1  0  0  0
 33 66  1  0  0  0
 33 70  2  0  0  0
 34 36  1  0  0  0
 34 59  1  0  0  0
 34108  1  0  0  0
 35 44  2  0  0  0
 35 45  1  0  0  0
 35 68  1  0  0  0
 36 56  1  0  0  0
 36109  1  0  0  0
 37 39  1  0  0  0
 37 47  1  0  0  0
 37 66  1  0  0  0
 37110  1  0  0  0
 38 43  2  0  0  0
 38 46  1  0  0  0
 38 47  1  0  0  0
 39 64  1  0  0  0
 39 67  2  0  0  0
 40 52  1  0  0  0
 40 53  2  0  0  0
 40 58  1  0  0  0
 41111  1  0  0  0
 41112  1  0  0  0
 41113  1  0  0  0
 41 48  1  0  0  0
 42 43  1  0  0  0
 42 66  1  0  0  0
 42114  1  0  0  0
 42115  1  0  0  0
 43 44  1  0  0  0
 44116  1  0  0  0
 45 46  2  0  0  0
 45117  1  0  0  0
 46118  1  0  0  0
 47119  1  0  0  0
 47120  1  0  0  0
 48 56  1  0  0  0
 48 65  1  0  0  0
 48121  1  0  0  0
 49 50  1  0  0  0
 49 53  1  0  0  0
 49 64  1  0  0  0
 49122  1  0  0  0
 50 51  1  0  0  0
 50123  1  0  0  0
 50124  1  0  0  0
 51 52  1  0  0  0
 51125  1  0  0  0
 51126  1  0  0  0
 52127  1  0  0  0
 52128  1  0  0  0
 53 54  1  0  0  0
 54 55  2  0  0  0
 54129  1  0  0  0
 55 57  1  0  0  0
 55130  1  0  0  0
 56 69  2  0  0  0
 57 58  2  0  0  0
 57131  1  0  0  0
 58132  1  0  0  0
 59 60  1  0  0  0
 59 61  1  0  0  0
 59 62  1  0  0  0
 60133  1  0  0  0
 60134  1  0  0  0
 60135  1  0  0  0
 61136  1  0  0  0
 61137  1  0  0  0
 61138  1  0  0  0
 62139  1  0  0  0
 62140  1  0  0  0
 62141  1  0  0  0
 63 65  1  0  0  0
 63142  1  0  0  0
 63143  1  0  0  0
 63144  1  0  0  0
 64145  1  0  0  0
 65146  1  0  0  0
 68 84  1  0  0  0
 71 72  2  0  0  0
 71 75  1  0  0  0
 71147  1  0  0  0
 72 76  1  0  0  0
 72148  1  0  0  0
 73 74  1  0  0  0
 73 75  2  0  0  0
 73 78  1  0  0  0
 74 76  2  0  0  0
 74 80  1  0  0  0
 75 86  1  0  0  0
 76 87  1  0  0  0
 77 78  2  0  0  0
 77149  1  0  0  0
 77150  1  0  0  0
 78151  1  0  0  0
 79 81  2  0  0  0
 79 83  1  0  0  0
 79152  1  0  0  0
 80 85  2  0  0  0
 81 82  1  0  0  0
 81 84  1  0  0  0
 82153  1  0  0  0
 82154  1  0  0  0
 82155  1  0  0  0
 83 87  1  0  0  0
 83156  1  0  0  0
 83157  1  0  0  0
 84158  1  0  0  0
 84159  1  0  0  0
 85160  1  0  0  0
 86161  1  0  0  0
 86162  1  0  0  0
M  ISO  4   1 100  68 101  80 100  84 101
M  END
> <chiral flag>
0

> <version>
0

> <s_m_source_file>
/data/baiqing/PycharmProjects/Reinvent-master-3.2/result/LINK_invent/BTK/process_docking_weight1_custom_product_contain_oxygen_bond_distance_aromatic_linkinvent_7_9_3/rearranged_h_0114.sdf

> <i_m_source_file_index>
59

> <r_mmod_Potential_Energy-OPLS-2005>
610.482055664062

> <r_mmod_Stretch_Energy-OPLS-2005>
234.847930908203

> <r_mmod_Bend_Energy-OPLS-2005>
288.597381591797

> <r_mmod_Torsional_Energy-OPLS-2005>
240.484085083008

> <r_mmod_Improper_Torsional_Energy-OPLS-2005>
7.06033611297607

> <r_mmod_Van_der_Waal_Energy-OPLS-2005>
163.592590332031

> <r_mmod_Electrostatic_Energy-OPLS-2005>
-257.065887451172

> <r_mmod_Solvation_Energy-OPLS-2005>
-188.860488891602

> <b_mmod_Minimization_Converged-OPLS-2005>
0

> <r_mmod_RMS_Derivative-OPLS-2005>
7.51106595993042

$$$$
59
                    3D
 Structure written by MMmdl.
164172  0  0  1  0            999 V2000
  -30.6993  -14.4797   20.5825 C   0  0  0  0  0  0
  -30.4139  -12.3095   19.4309 C   0  0  0  0  0  0
  -29.5001  -12.5267   18.2080 C   0  0  0  0  0  0
  -28.0167  -12.3979   18.6137 C   0  0  0  0  0  0
  -27.6638  -13.2184   19.8843 C   0  0  2  0  0  0
  -28.7000  -12.9910   21.0048 C   0  0  0  0  0  0
  -25.2565  -13.8169   20.5625 C   0  0  0  0  0  0
  -24.1833  -13.0446   20.9185 C   0  0  0  0  0  0
  -24.6398  -11.6910   20.8717 C   0  0  0  0  0  0
  -23.9049  -10.4298   21.0383 C   0  0  0  0  0  0
  -24.3610   -9.4210   21.9162 C   0  0  0  0  0  0
  -23.6292   -8.2242   22.0740 C   0  0  0  0  0  0
  -22.4266   -8.0262   21.3541 C   0  0  0  0  0  0
  -21.9891   -9.0237   20.4633 C   0  0  0  0  0  0
  -22.7215  -10.2118   20.3049 C   0  0  0  0  0  0
  -21.6853   -6.0717   22.5290 C   0  0  0  0  0  0
  -21.3989   -6.5627   23.8210 C   0  0  0  0  0  0
  -21.3672   -5.6778   24.9186 C   0  0  0  0  0  0
  -21.6080   -4.3051   24.7226 C   0  0  0  0  0  0
  -21.8813   -3.8129   23.4350 C   0  0  0  0  0  0
  -21.9190   -4.6951   22.3400 C   0  0  0  0  0  0
  -22.7849  -13.5224   21.1882 C   0  0  0  0  0  0
  -22.1670   -4.2125   21.0985 F   0  0  0  0  0  0
  -21.5643   -3.4535   25.7744 F   0  0  0  0  0  0
  -30.0296  -13.2976   20.4555 N   0  0  0  0  0  0
  -26.3038  -12.9388   20.3380 N   0  0  0  0  0  0
  -25.9328  -11.6534   20.5746 N   0  0  0  0  0  0
  -22.0483  -12.8225   22.0443 N   0  0  0  0  0  0
  -25.4253  -15.1867   20.3898 N   0  0  0  0  0  0
  -31.8317  -14.5962   20.1059 O   0  0  0  0  0  0
  -21.6645   -6.8856   21.4237 O   0  0  0  0  0  0
  -22.3522  -14.5561   20.6772 O   0  0  0  0  0  0
  -24.6151  -31.8727   23.2091 C   0  0  0  0  0  0
  -25.9055  -32.4851   23.8399 C   0  0  1  0  0  0
  -27.2149  -27.4078   20.1115 C   0  0  0  0  0  0
  -25.5897  -33.8645   24.2340 N   0  0  0  0  0  0
  -23.4048  -30.4953   21.5540 C   0  0  2  0  0  0
  -24.8494  -28.9733   20.1070 C   0  0  0  0  0  0
  -22.7438  -29.4642   22.5004 C   0  0  0  0  0  0
  -18.0291  -28.1373   22.8527 C   0  0  0  0  0  0
  -24.1508  -36.7337   23.2627 C   0  0  0  0  0  0
  -25.9375  -30.8391   21.3589 C   0  0  0  0  0  0
  -26.0142  -29.4732   20.7036 C   0  0  0  0  0  0
  -27.2025  -28.6994   20.7003 C   0  0  0  0  0  0
  -26.0315  -26.9506   19.4817 C   0  0  0  0  0  0
  -24.8574  -27.7191   19.4865 C   0  0  0  0  0  0
  -23.6104  -29.8386   20.1637 C   0  0  0  0  0  0
  -25.4131  -36.3135   24.0333 C   0  0  1  0  0  0
  -20.5888  -28.3646   23.1369 C   0  0  2  0  0  0
  -20.6786  -26.9377   22.5460 C   0  0  0  0  0  0
  -19.5750  -26.6385   21.5271 C   0  0  0  0  0  0
  -18.1923  -26.7931   22.1661 C   0  0  0  0  0  0
  -19.1541  -28.8822   23.2940 C   0  0  0  0  0  0
  -18.9441  -30.1431   23.8925 C   0  0  0  0  0  0
  -17.6432  -30.6568   24.0570 C   0  0  0  0  0  0
  -25.9033  -34.9492   23.5127 C   0  0  0  0  0  0
  -16.5330  -29.9063   23.6318 C   0  0  0  0  0  0
  -16.7272  -28.6493   23.0338 C   0  0  0  0  0  0
  -26.4437  -31.6583   25.0708 C   0  0  0  0  0  0
  -25.3674  -31.3702   26.1428 C   0  0  0  0  0  0
  -27.0218  -30.3034   24.6030 C   0  0  0  0  0  0
  -27.6032  -32.4248   25.7459 C   0  0  0  0  0  0
  -27.5599  -37.1829   24.8456 C   0  0  0  0  0  0
  -21.4163  -29.3030   22.3765 N   0  0  0  0  0  0
  -26.4333  -37.3809   23.9357 N   0  0  0  0  0  0
  -24.6729  -31.0804   22.1011 N   0  0  0  0  0  0
  -23.4212  -28.8161   23.3045 O   0  0  0  0  0  0
  -28.3390  -26.5950   20.1994 O   0  0  0  0  0  0
  -26.5616  -34.8946   22.4697 O   0  0  0  0  0  0
  -23.5339  -32.1460   23.7485 O   0  0  0  0  0  0
  -28.0438  -19.5780   21.9690 C   0  0  0  0  0  0
  -30.6947  -19.1546   21.2823 C   0  0  0  0  0  0
  -28.5344  -18.2496   21.9482 C   0  0  0  0  0  0
  -29.8838  -18.0185   21.5444 C   0  0  0  0  0  0
  -30.2094  -20.4891   21.3568 C   0  0  0  0  0  0
  -28.8467  -20.7007   21.6799 C   0  0  0  0  0  0
  -27.8359  -16.2643   23.3130 C   0  0  0  0  0  0
  -33.1365  -20.9025   23.7390 C   0  0  0  0  0  0
  -27.5844  -17.2097   22.3912 C   0  0  0  0  0  0
  -30.5118  -16.6783   21.2592 C   0  0  0  0  0  0
  -32.5222  -21.7671   22.9137 C   0  0  0  0  0  0
  -32.3644  -21.5819   21.4162 C   0  0  0  0  0  0
  -29.1269  -24.2031   20.8443 C   0  0  0  0  0  0
  -28.0637  -25.1668   20.2073 C   0  0  0  0  0  0
  -28.8554  -23.1683   22.0158 C   0  0  0  0  0  0
  -29.9481  -15.5270   21.1351 N   0  0  0  0  0  0
  -30.9901  -21.5772   21.0299 O   0  0  0  0  0  0
  -28.1965  -21.9265   21.6785 O   0  0  0  0  0  0
  -31.4632  -12.3865   19.1456 H   0  0  0  0  0  0
  -30.2877  -11.2937   19.8089 H   0  0  0  0  0  0
  -29.7225  -11.7988   17.4267 H   0  0  0  0  0  0
  -29.6994  -13.5125   17.7833 H   0  0  0  0  0  0
  -27.8131  -11.3394   18.7831 H   0  0  0  0  0  0
  -27.3692  -12.6987   17.7888 H   0  0  0  0  0  0
  -27.7165  -14.2719   19.6082 H   0  0  0  0  0  0
  -28.6683  -11.9541   21.3471 H   0  0  0  0  0  0
  -28.4614  -13.5968   21.8797 H   0  0  0  0  0  0
  -25.2742   -9.5686   22.4750 H   0  0  0  0  0  0
  -24.0004   -7.4619   22.7468 H   0  0  0  0  0  0
  -21.0823   -8.8764   19.8912 H   0  0  0  0  0  0
  -22.3685  -10.9668   19.6171 H   0  0  0  0  0  0
  -21.1955   -7.6127   23.9712 H   0  0  0  0  0  0
  -21.1517   -6.0507   25.9086 H   0  0  0  0  0  0
  -22.0577   -2.7588   23.2862 H   0  0  0  0  0  0
  -22.4086  -11.9862   22.4791 H   0  0  0  0  0  0
  -21.1081  -13.1199   22.2650 H   0  0  0  0  0  0
  -24.6577  -15.8444   20.4637 H   0  0  0  0  0  0
  -26.2885  -15.6068   20.0694 H   0  0  0  0  0  0
  -26.7133  -32.5548   23.1163 H   0  0  0  0  0  0
  -25.0014  -33.9833   25.0467 H   0  0  0  0  0  0
  -22.6922  -31.3126   21.4202 H   0  0  0  0  0  0
  -23.3767  -35.9664   23.3300 H   0  0  0  0  0  0
  -24.3623  -36.8940   22.2034 H   0  0  0  0  0  0
  -23.7262  -37.6552   23.6639 H   0  0  0  0  0  0
  -26.0433  -31.6106   20.5917 H   0  0  0  0  0  0
  -26.8308  -30.8950   21.9687 H   0  0  0  0  0  0
  -28.0989  -29.0793   21.1718 H   0  0  0  0  0  0
  -25.9765  -25.9904   18.9923 H   0  0  0  0  0  0
  -23.9642  -27.3412   19.0111 H   0  0  0  0  0  0
  -23.6970  -30.6186   19.4044 H   0  0  0  0  0  0
  -22.7370  -29.2498   19.8757 H   0  0  0  0  0  0
  -25.1302  -36.2036   25.0836 H   0  0  0  0  0  0
  -20.9988  -28.3215   24.1492 H   0  0  0  0  0  0
  -20.5752  -26.2226   23.3637 H   0  0  0  0  0  0
  -21.6642  -26.7461   22.1198 H   0  0  0  0  0  0
  -19.6906  -25.6318   21.1243 H   0  0  0  0  0  0
  -19.6689  -27.3251   20.6851 H   0  0  0  0  0  0
  -17.4210  -26.6725   21.4030 H   0  0  0  0  0  0
  -18.0258  -26.0057   22.9033 H   0  0  0  0  0  0
  -19.7887  -30.7279   24.2299 H   0  0  0  0  0  0
  -17.4950  -31.6251   24.5159 H   0  0  0  0  0  0
  -15.5313  -30.2949   23.7621 H   0  0  0  0  0  0
  -15.8686  -28.0811   22.7023 H   0  0  0  0  0  0
  -24.5907  -30.6983   25.7750 H   0  0  0  0  0  0
  -24.8761  -32.2851   26.4769 H   0  0  0  0  0  0
  -25.8003  -30.8947   27.0238 H   0  0  0  0  0  0
  -26.2766  -29.6872   24.0994 H   0  0  0  0  0  0
  -27.3915  -29.7183   25.4448 H   0  0  0  0  0  0
  -27.8617  -30.4339   23.9208 H   0  0  0  0  0  0
  -27.2728  -33.3593   26.2006 H   0  0  0  0  0  0
  -28.3871  -32.6733   25.0291 H   0  0  0  0  0  0
  -28.0649  -31.8359   26.5392 H   0  0  0  0  0  0
  -28.2615  -38.0132   24.7515 H   0  0  0  0  0  0
  -28.1117  -36.2663   24.6291 H   0  0  0  0  0  0
  -27.2306  -37.1468   25.8863 H   0  0  0  0  0  0
  -20.9325  -29.8716   21.6940 H   0  0  0  0  0  0
  -26.0238  -38.2894   24.1349 H   0  0  0  0  0  0
  -27.0061  -19.7453   22.2206 H   0  0  0  0  0  0
  -31.7077  -18.9785   20.9510 H   0  0  0  0  0  0
  -27.0782  -15.5369   23.5743 H   0  0  0  0  0  0
  -28.7893  -16.1965   23.8194 H   0  0  0  0  0  0
  -33.2076  -21.1065   24.7987 H   0  0  0  0  0  0
  -33.5752  -19.9842   23.3794 H   0  0  0  0  0  0
  -26.6112  -17.2163   21.9201 H   0  0  0  0  0  0
  -31.5930  -16.7703   21.1017 H   0  0  0  0  0  0
  -32.0979  -22.6744   23.3196 H   0  0  0  0  0  0
  -32.9127  -20.7134   21.0561 H   0  0  0  0  0  0
  -32.8288  -22.4461   20.9392 H   0  0  0  0  0  0
  -28.5016  -23.5076   20.2930 H   0  0  0  0  0  0
  -29.0747  -24.9442   21.6412 H   0  0  0  0  0  0
  -27.1252  -24.9798   20.7412 H   0  0  0  0  0  0
  -27.8797  -24.9157   19.1578 H   0  0  0  0  0  0
  -28.1619  -23.6035   22.7431 H   0  0  0  0  0  0
  -29.7602  -22.9828   22.5978 H   0  0  0  0  0  0
  1 25  1  0  0  0
  1 30  2  0  0  0
  1 86  1  0  0  0
  2  3  1  0  0  0
  2 25  1  0  0  0
  2 89  1  0  0  0
  2 90  1  0  0  0
  3  4  1  0  0  0
  3 91  1  0  0  0
  3 92  1  0  0  0
  4  5  1  0  0  0
  4 93  1  0  0  0
  4 94  1  0  0  0
  5  6  1  0  0  0
  5 26  1  0  0  0
  5 95  1  0  0  0
  6 25  1  0  0  0
  6 96  1  0  0  0
  6 97  1  0  0  0
  7  8  2  0  0  0
  7 26  1  0  0  0
  7 29  1  0  0  0
  8  9  1  0  0  0
  8 22  1  0  0  0
  9 10  1  0  0  0
  9 27  2  0  0  0
 10 11  2  0  0  0
 10 15  1  0  0  0
 11 12  1  0  0  0
 11 98  1  0  0  0
 12 13  2  0  0  0
 12 99  1  0  0  0
 13 14  1  0  0  0
 13 31  1  0  0  0
 14 15  2  0  0  0
 14100  1  0  0  0
 15101  1  0  0  0
 16 17  2  0  0  0
 16 21  1  0  0  0
 16 31  1  0  0  0
 17 18  1  0  0  0
 17102  1  0  0  0
 18 19  2  0  0  0
 18103  1  0  0  0
 19 20  1  0  0  0
 19 24  1  0  0  0
 20 21  2  0  0  0
 20104  1  0  0  0
 21 23  1  0  0  0
 22 28  1  0  0  0
 22 32  2  0  0  0
 26 27  1  0  0  0
 28105  1  0  0  0
 28106  1  0  0  0
 29107  1  0  0  0
 29108  1  0  0  0
 33 34  1  0  0  0
 33 66  1  0  0  0
 33 70  2  0  0  0
 34 36  1  0  0  0
 34 59  1  0  0  0
 34109  1  0  0  0
 35 44  2  0  0  0
 35 45  1  0  0  0
 35 68  1  0  0  0
 36 56  1  0  0  0
 36110  1  0  0  0
 37 39  1  0  0  0
 37 47  1  0  0  0
 37 66  1  0  0  0
 37111  1  0  0  0
 38 43  2  0  0  0
 38 46  1  0  0  0
 38 47  1  0  0  0
 39 64  1  0  0  0
 39 67  2  0  0  0
 40 52  1  0  0  0
 40 53  2  0  0  0
 40 58  1  0  0  0
 41112  1  0  0  0
 41113  1  0  0  0
 41114  1  0  0  0
 41 48  1  0  0  0
 42 43  1  0  0  0
 42 66  1  0  0  0
 42115  1  0  0  0
 42116  1  0  0  0
 43 44  1  0  0  0
 44117  1  0  0  0
 45 46  2  0  0  0
 45118  1  0  0  0
 46119  1  0  0  0
 47120  1  0  0  0
 47121  1  0  0  0
 48 56  1  0  0  0
 48 65  1  0  0  0
 48122  1  0  0  0
 49 50  1  0  0  0
 49 53  1  0  0  0
 49 64  1  0  0  0
 49123  1  0  0  0
 50 51  1  0  0  0
 50124  1  0  0  0
 50125  1  0  0  0
 51 52  1  0  0  0
 51126  1  0  0  0
 51127  1  0  0  0
 52128  1  0  0  0
 52129  1  0  0  0
 53 54  1  0  0  0
 54 55  2  0  0  0
 54130  1  0  0  0
 55 57  1  0  0  0
 55131  1  0  0  0
 56 69  2  0  0  0
 57 58  2  0  0  0
 57132  1  0  0  0
 58133  1  0  0  0
 59 60  1  0  0  0
 59 61  1  0  0  0
 59 62  1  0  0  0
 60134  1  0  0  0
 60135  1  0  0  0
 60136  1  0  0  0
 61137  1  0  0  0
 61138  1  0  0  0
 61139  1  0  0  0
 62140  1  0  0  0
 62141  1  0  0  0
 62142  1  0  0  0
 63 65  1  0  0  0
 63143  1  0  0  0
 63144  1  0  0  0
 63145  1  0  0  0
 64146  1  0  0  0
 65147  1  0  0  0
 68 84  1  0  0  0
 71 73  2  0  0  0
 71 76  1  0  0  0
 71148  1  0  0  0
 72 74  2  0  0  0
 72 75  1  0  0  0
 72149  1  0  0  0
 73 74  1  0  0  0
 73 79  1  0  0  0
 74 80  1  0  0  0
 75 76  2  0  0  0
 75 87  1  0  0  0
 76 88  1  0  0  0
 77 79  2  0  0  0
 77150  1  0  0  0
 77151  1  0  0  0
 78 81  2  0  0  0
 78152  1  0  0  0
 78153  1  0  0  0
 79154  1  0  0  0
 80 86  2  0  0  0
 80155  1  0  0  0
 81 82  1  0  0  0
 81156  1  0  0  0
 82 87  1  0  0  0
 82157  1  0  0  0
 82158  1  0  0  0
 83 84  1  0  0  0
 83 85  1  0  0  0
 83159  1  0  0  0
 83160  1  0  0  0
 84161  1  0  0  0
 84162  1  0  0  0
 85 88  1  0  0  0
 85163  1  0  0  0
 85164  1  0  0  0
M  ISO  4   1 100  68 101  84 101  86 100
M  END
> <chiral flag>
0

> <version>
0

> <s_m_source_file>
/data/baiqing/PycharmProjects/Reinvent-master-3.2/result/LINK_invent/BTK/process_docking_weight1_custom_product_contain_oxygen_bond_distance_aromatic_linkinvent_7_9_3/rearranged_h_0114.sdf

> <i_m_source_file_index>
60

> <r_mmod_Potential_Energy-OPLS-2005>
317.803314208984

> <r_mmod_Stretch_Energy-OPLS-2005>
55.1079025268555

> <r_mmod_Bend_Energy-OPLS-2005>
366.318939208984

> <r_mmod_Torsional_Energy-OPLS-2005>
214.791702270508

> <r_mmod_Improper_Torsional_Energy-OPLS-2005>
4.41842746734619

> <r_mmod_Van_der_Waal_Energy-OPLS-2005>
191.772354125977

> <r_mmod_Electrostatic_Energy-OPLS-2005>
-349.289947509766

> <r_mmod_Solvation_Energy-OPLS-2005>
-184.80940246582

> <b_mmod_Minimization_Converged-OPLS-2005>
0

> <r_mmod_RMS_Derivative-OPLS-2005>
5.45158195495605

$$$$
60
                    3D
 Structure written by MMmdl.
159167  0  0  1  0            999 V2000
  -30.6260  -14.7546   20.3995 C   0  0  0  0  0  0
  -30.4381  -12.4487   19.4701 C   0  0  0  0  0  0
  -29.5062  -12.4699   18.2387 C   0  0  0  0  0  0
  -28.0360  -12.2722   18.6639 C   0  0  0  0  0  0
  -27.6248  -13.2027   19.8332 C   0  0  2  0  0  0
  -28.6792  -13.2038   20.9605 C   0  0  0  0  0  0
  -25.2487  -13.8121   20.5727 C   0  0  0  0  0  0
  -24.1766  -13.0431   20.9234 C   0  0  0  0  0  0
  -24.6313  -11.6876   20.8783 C   0  0  0  0  0  0
  -23.9007  -10.4282   21.0448 C   0  0  0  0  0  0
  -24.3594   -9.4184   21.9195 C   0  0  0  0  0  0
  -23.6281   -8.2217   22.0749 C   0  0  0  0  0  0
  -22.4261   -8.0269   21.3540 C   0  0  0  0  0  0
  -21.9894   -9.0242   20.4642 C   0  0  0  0  0  0
  -22.7210  -10.2118   20.3067 C   0  0  0  0  0  0
  -21.6837   -6.0734   22.5283 C   0  0  0  0  0  0
  -21.3993   -6.5636   23.8218 C   0  0  0  0  0  0
  -21.3662   -5.6791   24.9178 C   0  0  0  0  0  0
  -21.6050   -4.3056   24.7231 C   0  0  0  0  0  0
  -21.8816   -3.8145   23.4352 C   0  0  0  0  0  0
  -21.9181   -4.6960   22.3405 C   0  0  0  0  0  0
  -22.7788  -13.5212   21.1893 C   0  0  0  0  0  0
  -22.1654   -4.2153   21.0980 F   0  0  0  0  0  0
  -21.5644   -3.4539   25.7740 F   0  0  0  0  0  0
  -29.9868  -13.5305   20.3716 N   0  0  0  0  0  0
  -26.2846  -12.9240   20.3265 N   0  0  0  0  0  0
  -25.9227  -11.6423   20.5799 N   0  0  0  0  0  0
  -22.0436  -12.8218   22.0444 N   0  0  0  0  0  0
  -25.4273  -15.1861   20.4127 N   0  0  0  0  0  0
  -31.8530  -14.8158   20.2793 O   0  0  0  0  0  0
  -21.6630   -6.8873   21.4241 O   0  0  0  0  0  0
  -22.3490  -14.5534   20.6730 O   0  0  0  0  0  0
  -24.6316  -31.8563   23.1986 C   0  0  0  0  0  0
  -25.9138  -32.4787   23.8316 C   0  0  1  0  0  0
  -27.2095  -27.2878   20.1254 C   0  0  0  0  0  0
  -25.5923  -33.8581   24.2277 N   0  0  0  0  0  0
  -23.4245  -30.4849   21.5413 C   0  0  2  0  0  0
  -24.8649  -28.9424   20.1076 C   0  0  0  0  0  0
  -22.7488  -29.4601   22.4857 C   0  0  0  0  0  0
  -18.0299  -28.1356   22.8514 C   0  0  0  0  0  0
  -24.1486  -36.7269   23.2645 C   0  0  0  0  0  0
  -25.9695  -30.7838   21.3687 C   0  0  0  0  0  0
  -26.0382  -29.4098   20.7114 C   0  0  0  0  0  0
  -27.2138  -28.5964   20.7067 C   0  0  0  0  0  0
  -26.0061  -26.8775   19.5032 C   0  0  0  0  0  0
  -24.8525  -27.6843   19.4913 C   0  0  0  0  0  0
  -23.6355  -29.8268   20.1548 C   0  0  0  0  0  0
  -25.4110  -36.3096   24.0356 C   0  0  1  0  0  0
  -20.5918  -28.3670   23.1260 C   0  0  2  0  0  0
  -20.6785  -26.9372   22.5424 C   0  0  0  0  0  0
  -19.5744  -26.6363   21.5243 C   0  0  0  0  0  0
  -18.1924  -26.7908   22.1650 C   0  0  0  0  0  0
  -19.1559  -28.8826   23.2898 C   0  0  0  0  0  0
  -18.9481  -30.1433   23.8920 C   0  0  0  0  0  0
  -17.6478  -30.6572   24.0558 C   0  0  0  0  0  0
  -25.9050  -34.9472   23.5129 C   0  0  0  0  0  0
  -16.5368  -29.9077   23.6323 C   0  0  0  0  0  0
  -16.7285  -28.6479   23.0374 C   0  0  0  0  0  0
  -26.4511  -31.6587   25.0682 C   0  0  0  0  0  0
  -25.3724  -31.3757   26.1394 C   0  0  0  0  0  0
  -27.0355  -30.3005   24.6134 C   0  0  0  0  0  0
  -27.6049  -32.4317   25.7479 C   0  0  0  0  0  0
  -27.5565  -37.1783   24.8464 C   0  0  0  0  0  0
  -21.4187  -29.3049   22.3649 N   0  0  0  0  0  0
  -26.4278  -37.3783   23.9423 N   0  0  0  0  0  0
  -24.6955  -31.0567   22.0941 N   0  0  0  0  0  0
  -23.4210  -28.8081   23.2876 O   0  0  0  0  0  0
  -28.3245  -26.4235   20.1681 O   0  0  0  0  0  0
  -26.5602  -34.8944   22.4691 O   0  0  0  0  0  0
  -23.5466  -32.1343   23.7317 O   0  0  0  0  0  0
  -29.8051  -17.3857   22.1279 C   0  0  0  0  0  0
  -29.5480  -19.8280   22.2795 C   0  0  0  0  0  0
  -29.8175  -17.4180   20.7212 C   0  0  0  0  0  0
  -29.5585  -19.9844   20.8708 C   0  0  0  0  0  0
  -29.7029  -18.7469   20.1084 C   0  0  0  0  0  0
  -29.6670  -18.5604   22.8890 C   0  0  0  0  0  0
  -33.1423  -19.2797   19.1116 C   0  0  0  0  0  0
  -32.1203  -18.7101   18.4524 C   0  0  0  0  0  0
  -29.0547  -22.4200   20.8084 C   0  0  0  0  0  0
  -29.7943  -16.0572   19.9662 C   0  0  0  0  0  0
  -30.8236  -19.4185   18.1022 C   0  0  0  0  0  0
  -29.3125  -23.9289   20.3445 C   0  0  0  0  0  0
  -28.0956  -24.9463   20.1259 C   0  0  0  0  0  0
  -29.1365  -16.0201   18.8859 N   0  0  0  0  0  0
  -29.5236  -21.3162   20.2709 N   0  0  0  0  0  0
  -29.6939  -18.8138   18.7319 O   0  0  0  0  0  0
  -29.6465  -18.4700   24.2393 F   0  0  0  0  0  0
  -31.4745  -12.5835   19.1569 H   0  0  0  0  0  0
  -30.3991  -11.4850   19.9808 H   0  0  0  0  0  0
  -29.8045  -11.6929   17.5337 H   0  0  0  0  0  0
  -29.6166  -13.4213   17.7152 H   0  0  0  0  0  0
  -27.9251  -11.2311   18.9705 H   0  0  0  0  0  0
  -27.3682  -12.4074   17.8126 H   0  0  0  0  0  0
  -27.5709  -14.1964   19.4068 H   0  0  0  0  0  0
  -28.7098  -12.2315   21.4522 H   0  0  0  0  0  0
  -28.4126  -13.9291   21.7318 H   0  0  0  0  0  0
  -25.2761   -9.5670   22.4733 H   0  0  0  0  0  0
  -24.0015   -7.4608   22.7452 H   0  0  0  0  0  0
  -21.0834   -8.8763   19.8940 H   0  0  0  0  0  0
  -22.3700  -10.9658   19.6164 H   0  0  0  0  0  0
  -21.1966   -7.6138   23.9731 H   0  0  0  0  0  0
  -21.1492   -6.0507   25.9085 H   0  0  0  0  0  0
  -22.0590   -2.7610   23.2849 H   0  0  0  0  0  0
  -22.4075  -11.9908   22.4879 H   0  0  0  0  0  0
  -21.1039  -13.1212   22.2625 H   0  0  0  0  0  0
  -24.6684  -15.8497   20.5199 H   0  0  0  0  0  0
  -26.2836  -15.6131   20.0839 H   0  0  0  0  0  0
  -26.7191  -32.5447   23.1044 H   0  0  0  0  0  0
  -25.0126  -33.9725   25.0462 H   0  0  0  0  0  0
  -22.7255  -31.3110   21.4023 H   0  0  0  0  0  0
  -23.3793  -35.9555   23.3312 H   0  0  0  0  0  0
  -24.3568  -36.8855   22.2047 H   0  0  0  0  0  0
  -23.7212  -37.6470   23.6644 H   0  0  0  0  0  0
  -26.1068  -31.5418   20.5945 H   0  0  0  0  0  0
  -26.8515  -30.8278   21.9970 H   0  0  0  0  0  0
  -28.1125  -28.9523   21.1897 H   0  0  0  0  0  0
  -25.9128  -25.9141   19.0282 H   0  0  0  0  0  0
  -23.9511  -27.3276   19.0109 H   0  0  0  0  0  0
  -23.7505  -30.6054   19.3986 H   0  0  0  0  0  0
  -22.7549  -29.2555   19.8546 H   0  0  0  0  0  0
  -25.1299  -36.1940   25.0849 H   0  0  0  0  0  0
  -21.0064  -28.3263   24.1352 H   0  0  0  0  0  0
  -20.5693  -26.2259   23.3632 H   0  0  0  0  0  0
  -21.6637  -26.7370   22.1199 H   0  0  0  0  0  0
  -19.6894  -25.6294   21.1226 H   0  0  0  0  0  0
  -19.6683  -27.3215   20.6813 H   0  0  0  0  0  0
  -17.4201  -26.6697   21.4040 H   0  0  0  0  0  0
  -18.0267  -26.0043   22.9026 H   0  0  0  0  0  0
  -19.7967  -30.7234   24.2284 H   0  0  0  0  0  0
  -17.5049  -31.6266   24.5135 H   0  0  0  0  0  0
  -15.5370  -30.2990   23.7638 H   0  0  0  0  0  0
  -15.8689  -28.0809   22.7079 H   0  0  0  0  0  0
  -24.5902  -30.7097   25.7727 H   0  0  0  0  0  0
  -24.8941  -32.2954   26.4760 H   0  0  0  0  0  0
  -25.8022  -30.8977   27.0207 H   0  0  0  0  0  0
  -26.2921  -29.6749   24.1174 H   0  0  0  0  0  0
  -27.4067  -29.7233   25.4617 H   0  0  0  0  0  0
  -27.8792  -30.4300   23.9355 H   0  0  0  0  0  0
  -27.2634  -33.3620   26.2039 H   0  0  0  0  0  0
  -28.3895  -32.6853   25.0336 H   0  0  0  0  0  0
  -28.0684  -31.8452   26.5421 H   0  0  0  0  0  0
  -28.2598  -38.0066   24.7525 H   0  0  0  0  0  0
  -28.1045  -36.2597   24.6298 H   0  0  0  0  0  0
  -27.2258  -37.1427   25.8857 H   0  0  0  0  0  0
  -20.9321  -29.8816   21.6942 H   0  0  0  0  0  0
  -26.0173  -38.2854   24.1467 H   0  0  0  0  0  0
  -29.8766  -16.4412   22.6458 H   0  0  0  0  0  0
  -29.4706  -20.6859   22.9313 H   0  0  0  0  0  0
  -34.0392  -18.7237   19.3426 H   0  0  0  0  0  0
  -33.1034  -20.3102   19.4354 H   0  0  0  0  0  0
  -32.1886  -17.6762   18.1413 H   0  0  0  0  0  0
  -28.4704  -22.3796   21.7333 H   0  0  0  0  0  0
  -30.8875  -20.4904   18.2958 H   0  0  0  0  0  0
  -30.6811  -19.3204   17.0256 H   0  0  0  0  0  0
  -29.9524  -23.9428   19.4601 H   0  0  0  0  0  0
  -29.9321  -24.3690   21.1230 H   0  0  0  0  0  0
  -27.6672  -24.6975   19.1543 H   0  0  0  0  0  0
  -27.3392  -24.7178   20.8782 H   0  0  0  0  0  0
  -28.7354  -16.9336   18.7064 H   0  0  0  0  0  0
  1 25  1  0  0  0
  1 30  2  0  0  0
  1 80  1  0  0  0
  2  3  1  0  0  0
  2 25  1  0  0  0
  2 88  1  0  0  0
  2 89  1  0  0  0
  3  4  1  0  0  0
  3 90  1  0  0  0
  3 91  1  0  0  0
  4  5  1  0  0  0
  4 92  1  0  0  0
  4 93  1  0  0  0
  5  6  1  0  0  0
  5 26  1  0  0  0
  5 94  1  0  0  0
  6 25  1  0  0  0
  6 95  1  0  0  0
  6 96  1  0  0  0
  7  8  2  0  0  0
  7 26  1  0  0  0
  7 29  1  0  0  0
  8  9  1  0  0  0
  8 22  1  0  0  0
  9 10  1  0  0  0
  9 27  2  0  0  0
 10 11  2  0  0  0
 10 15  1  0  0  0
 11 12  1  0  0  0
 11 97  1  0  0  0
 12 13  2  0  0  0
 12 98  1  0  0  0
 13 14  1  0  0  0
 13 31  1  0  0  0
 14 15  2  0  0  0
 14 99  1  0  0  0
 15100  1  0  0  0
 16 17  2  0  0  0
 16 21  1  0  0  0
 16 31  1  0  0  0
 17 18  1  0  0  0
 17101  1  0  0  0
 18 19  2  0  0  0
 18102  1  0  0  0
 19 20  1  0  0  0
 19 24  1  0  0  0
 20 21  2  0  0  0
 20103  1  0  0  0
 21 23  1  0  0  0
 22 28  1  0  0  0
 22 32  2  0  0  0
 26 27  1  0  0  0
 28104  1  0  0  0
 28105  1  0  0  0
 29106  1  0  0  0
 29107  1  0  0  0
 33 34  1  0  0  0
 33 66  1  0  0  0
 33 70  2  0  0  0
 34 36  1  0  0  0
 34 59  1  0  0  0
 34108  1  0  0  0
 35 44  2  0  0  0
 35 45  1  0  0  0
 35 68  1  0  0  0
 36 56  1  0  0  0
 36109  1  0  0  0
 37 39  1  0  0  0
 37 47  1  0  0  0
 37 66  1  0  0  0
 37110  1  0  0  0
 38 43  2  0  0  0
 38 46  1  0  0  0
 38 47  1  0  0  0
 39 64  1  0  0  0
 39 67  2  0  0  0
 40 52  1  0  0  0
 40 53  2  0  0  0
 40 58  1  0  0  0
 41111  1  0  0  0
 41112  1  0  0  0
 41113  1  0  0  0
 41 48  1  0  0  0
 42 43  1  0  0  0
 42 66  1  0  0  0
 42114  1  0  0  0
 42115  1  0  0  0
 43 44  1  0  0  0
 44116  1  0  0  0
 45 46  2  0  0  0
 45117  1  0  0  0
 46118  1  0  0  0
 47119  1  0  0  0
 47120  1  0  0  0
 48 56  1  0  0  0
 48 65  1  0  0  0
 48121  1  0  0  0
 49 50  1  0  0  0
 49 53  1  0  0  0
 49 64  1  0  0  0
 49122  1  0  0  0
 50 51  1  0  0  0
 50123  1  0  0  0
 50124  1  0  0  0
 51 52  1  0  0  0
 51125  1  0  0  0
 51126  1  0  0  0
 52127  1  0  0  0
 52128  1  0  0  0
 53 54  1  0  0  0
 54 55  2  0  0  0
 54129  1  0  0  0
 55 57  1  0  0  0
 55130  1  0  0  0
 56 69  2  0  0  0
 57 58  2  0  0  0
 57131  1  0  0  0
 58132  1  0  0  0
 59 60  1  0  0  0
 59 61  1  0  0  0
 59 62  1  0  0  0
 60133  1  0  0  0
 60134  1  0  0  0
 60135  1  0  0  0
 61136  1  0  0  0
 61137  1  0  0  0
 61138  1  0  0  0
 62139  1  0  0  0
 62140  1  0  0  0
 62141  1  0  0  0
 63 65  1  0  0  0
 63142  1  0  0  0
 63143  1  0  0  0
 63144  1  0  0  0
 64145  1  0  0  0
 65146  1  0  0  0
 68 83  1  0  0  0
 71 73  2  0  0  0
 71 76  1  0  0  0
 71147  1  0  0  0
 72 74  1  0  0  0
 72 76  2  0  0  0
 72148  1  0  0  0
 73 75  1  0  0  0
 73 80  1  0  0  0
 74 75  2  0  0  0
 74 85  1  0  0  0
 75 86  1  0  0  0
 76 87  1  0  0  0
 77 78  2  0  0  0
 77149  1  0  0  0
 77150  1  0  0  0
 78 81  1  0  0  0
 78151  1  0  0  0
 79 82  1  0  0  0
 79 85  2  0  0  0
 79152  1  0  0  0
 80 84  2  0  0  0
 81 86  1  0  0  0
 81153  1  0  0  0
 81154  1  0  0  0
 82 83  1  0  0  0
 82155  1  0  0  0
 82156  1  0  0  0
 83157  1  0  0  0
 83158  1  0  0  0
 84159  1  0  0  0
M  ISO  4   1 100  68 101  80 100  83 101
M  END
> <chiral flag>
0

> <version>
0

> <s_m_source_file>
/data/baiqing/PycharmProjects/Reinvent-master-3.2/result/LINK_invent/BTK/process_docking_weight1_custom_product_contain_oxygen_bond_distance_aromatic_linkinvent_7_9_3/rearranged_h_0114.sdf

> <i_m_source_file_index>
61

> <r_mmod_Potential_Energy-OPLS-2005>
343.326354980469

> <r_mmod_Stretch_Energy-OPLS-2005>
126.597175598145

> <r_mmod_Bend_Energy-OPLS-2005>
167.555892944336

> <r_mmod_Torsional_Energy-OPLS-2005>
264.966156005859

> <r_mmod_Improper_Torsional_Energy-OPLS-2005>
19.0843677520752

> <r_mmod_Van_der_Waal_Energy-OPLS-2005>
143.498245239258

> <r_mmod_Electrostatic_Energy-OPLS-2005>
-268.494781494141

> <r_mmod_Solvation_Energy-OPLS-2005>
-199.49365234375

> <b_mmod_Minimization_Converged-OPLS-2005>
0

> <r_mmod_RMS_Derivative-OPLS-2005>
4.38428354263306

$$$$
61
                    3D
 Structure written by MMmdl.
162171  0  0  1  0            999 V2000
  -30.6665  -14.4532   20.6085 C   0  0  0  0  0  0
  -30.4269  -12.2998   19.4096 C   0  0  0  0  0  0
  -29.5171  -12.5546   18.1925 C   0  0  0  0  0  0
  -28.0211  -12.4682   18.5762 C   0  0  0  0  0  0
  -27.6732  -13.2246   19.8875 C   0  0  2  0  0  0
  -28.7043  -12.9291   21.0008 C   0  0  0  0  0  0
  -25.2605  -13.8194   20.5615 C   0  0  0  0  0  0
  -24.1866  -13.0467   20.9153 C   0  0  0  0  0  0
  -24.6427  -11.6926   20.8678 C   0  0  0  0  0  0
  -23.9080  -10.4335   21.0380 C   0  0  0  0  0  0
  -24.3637   -9.4273   21.9175 C   0  0  0  0  0  0
  -23.6335   -8.2276   22.0754 C   0  0  0  0  0  0
  -22.4307   -8.0298   21.3536 C   0  0  0  0  0  0
  -21.9923   -9.0279   20.4657 C   0  0  0  0  0  0
  -22.7247  -10.2165   20.3050 C   0  0  0  0  0  0
  -21.6879   -6.0717   22.5269 C   0  0  0  0  0  0
  -21.4021   -6.5632   23.8204 C   0  0  0  0  0  0
  -21.3678   -5.6782   24.9175 C   0  0  0  0  0  0
  -21.6060   -4.3035   24.7222 C   0  0  0  0  0  0
  -21.8814   -3.8125   23.4329 C   0  0  0  0  0  0
  -21.9196   -4.6935   22.3385 C   0  0  0  0  0  0
  -22.7889  -13.5270   21.1815 C   0  0  0  0  0  0
  -22.1668   -4.2122   21.0961 F   0  0  0  0  0  0
  -21.5652   -3.4538   25.7727 F   0  0  0  0  0  0
  -30.0407  -13.2484   20.4674 N   0  0  0  0  0  0
  -26.3071  -12.9421   20.3309 N   0  0  0  0  0  0
  -25.9364  -11.6552   20.5620 N   0  0  0  0  0  0
  -22.0456  -12.8336   22.0370 N   0  0  0  0  0  0
  -25.4233  -15.1934   20.4024 N   0  0  0  0  0  0
  -31.7824  -14.6744   20.1333 O   0  0  0  0  0  0
  -21.6677   -6.8875   21.4234 O   0  0  0  0  0  0
  -22.3570  -14.5567   20.6621 O   0  0  0  0  0  0
  -24.6232  -31.8606   23.2080 C   0  0  0  0  0  0
  -25.9119  -32.4751   23.8377 C   0  0  1  0  0  0
  -27.2093  -27.3742   20.0862 C   0  0  0  0  0  0
  -25.5968  -33.8562   24.2273 N   0  0  0  0  0  0
  -23.4142  -30.4852   21.5469 C   0  0  2  0  0  0
  -24.8503  -28.9403   20.1125 C   0  0  0  0  0  0
  -22.7448  -29.4606   22.4943 C   0  0  0  0  0  0
  -18.0284  -28.1421   22.8447 C   0  0  0  0  0  0
  -24.1500  -36.7286   23.2634 C   0  0  0  0  0  0
  -25.9542  -30.7895   21.3869 C   0  0  0  0  0  0
  -26.0165  -29.4263   20.7230 C   0  0  0  0  0  0
  -27.2027  -28.6478   20.7110 C   0  0  0  0  0  0
  -26.0307  -26.9117   19.4744 C   0  0  0  0  0  0
  -24.8522  -27.6807   19.4893 C   0  0  0  0  0  0
  -23.6252  -29.8247   20.1592 C   0  0  0  0  0  0
  -25.4130  -36.3046   24.0310 C   0  0  1  0  0  0
  -20.5880  -28.3687   23.1294 C   0  0  2  0  0  0
  -20.6769  -26.9420   22.5413 C   0  0  0  0  0  0
  -19.5766  -26.6392   21.5194 C   0  0  0  0  0  0
  -18.1932  -26.7967   22.1581 C   0  0  0  0  0  0
  -19.1542  -28.8874   23.2862 C   0  0  0  0  0  0
  -18.9454  -30.1484   23.8850 C   0  0  0  0  0  0
  -17.6459  -30.6593   24.0574 C   0  0  0  0  0  0
  -25.9063  -34.9427   23.5072 C   0  0  0  0  0  0
  -16.5340  -29.9091   23.6369 C   0  0  0  0  0  0
  -16.7267  -28.6546   23.0304 C   0  0  0  0  0  0
  -26.4497  -31.6584   25.0767 C   0  0  0  0  0  0
  -25.3766  -31.3727   26.1533 C   0  0  0  0  0  0
  -27.0399  -30.3023   24.6273 C   0  0  0  0  0  0
  -27.6016  -32.4374   25.7548 C   0  0  0  0  0  0
  -27.5591  -37.1805   24.8437 C   0  0  0  0  0  0
  -21.4168  -29.3036   22.3686 N   0  0  0  0  0  0
  -26.4277  -37.3763   23.9405 N   0  0  0  0  0  0
  -24.6809  -31.0642   22.1018 N   0  0  0  0  0  0
  -23.4195  -28.8141   23.2999 O   0  0  0  0  0  0
  -28.3207  -26.5600   20.0190 O   0  0  0  0  0  0
  -26.5590  -34.8885   22.4612 O   0  0  0  0  0  0
  -23.5405  -32.1382   23.7436 O   0  0  0  0  0  0
  -30.6645  -18.9258   20.0745 C   0  0  0  0  0  0
  -28.3581  -18.7876   20.7976 C   0  0  0  0  0  0
  -30.8727  -17.5762   20.4505 C   0  0  0  0  0  0
  -28.5666  -17.4369   21.1761 C   0  0  0  0  0  0
  -29.3994  -19.5460   20.2139 C   0  0  0  0  0  0
  -29.8114  -16.7954   20.9569 C   0  0  0  0  0  0
  -28.5639  -24.2895   20.9583 C   0  0  0  0  0  0
  -28.4662  -24.1383   16.0710 C   0  0  0  0  0  0
  -28.4957  -25.6509   21.0419 C   0  0  0  0  0  0
  -28.1080  -23.5966   17.2453 C   0  0  0  0  0  0
  -29.1292  -20.8969   19.5594 C   0  0  0  0  0  0
  -28.9434  -23.7674   18.4488 C   0  0  0  0  0  0
  -28.7830  -23.4182   22.1753 C   0  0  0  0  0  0
  -28.5666  -21.9591   21.7341 C   0  0  0  0  0  0
  -28.2997  -23.3430   19.7843 C   0  0  1  0  0  0
  -28.6219  -21.9581   20.2735 N   0  0  0  0  0  0
  -29.9252  -15.3921   21.2417 N   0  0  0  0  0  0
  -29.3598  -20.9433   18.3491 O   0  0  0  0  0  0
  -30.1085  -24.1682   18.3840 O   0  0  0  0  0  0
  -31.4752  -12.3984   19.1227 H   0  0  0  0  0  0
  -30.3107  -11.2701   19.7469 H   0  0  0  0  0  0
  -29.7432  -11.8543   17.3883 H   0  0  0  0  0  0
  -29.7359  -13.5463   17.7919 H   0  0  0  0  0  0
  -27.7489  -11.4185   18.6611 H   0  0  0  0  0  0
  -27.4181  -12.8758   17.7621 H   0  0  0  0  0  0
  -27.7357  -14.2900   19.6613 H   0  0  0  0  0  0
  -28.6637  -11.8817   21.3058 H   0  0  0  0  0  0
  -28.4590  -13.4913   21.9032 H   0  0  0  0  0  0
  -25.2768   -9.5798   22.4745 H   0  0  0  0  0  0
  -24.0066   -7.4693   22.7505 H   0  0  0  0  0  0
  -21.0824   -8.8851   19.8985 H   0  0  0  0  0  0
  -22.3735  -10.9712   19.6161 H   0  0  0  0  0  0
  -21.2019   -7.6139   23.9715 H   0  0  0  0  0  0
  -21.1518   -6.0491   25.9082 H   0  0  0  0  0  0
  -22.0569   -2.7570   23.2830 H   0  0  0  0  0  0
  -22.3987  -12.0010   22.4844 H   0  0  0  0  0  0
  -21.1037  -13.1406   22.2408 H   0  0  0  0  0  0
  -24.6322  -15.8239   20.4720 H   0  0  0  0  0  0
  -26.2623  -15.6443   20.0546 H   0  0  0  0  0  0
  -26.7182  -32.5348   23.1111 H   0  0  0  0  0  0
  -25.0221  -33.9703   25.0483 H   0  0  0  0  0  0
  -22.7078  -31.3055   21.4063 H   0  0  0  0  0  0
  -23.3743  -35.9630   23.3268 H   0  0  0  0  0  0
  -24.3608  -36.8939   22.2052 H   0  0  0  0  0  0
  -23.7257  -37.6486   23.6681 H   0  0  0  0  0  0
  -26.1197  -31.5575   20.6296 H   0  0  0  0  0  0
  -26.8228  -30.8024   22.0362 H   0  0  0  0  0  0
  -28.1056  -29.0033   21.1871 H   0  0  0  0  0  0
  -26.0267  -25.9454   18.9900 H   0  0  0  0  0  0
  -23.9566  -27.2991   19.0143 H   0  0  0  0  0  0
  -23.7599  -30.6011   19.4048 H   0  0  0  0  0  0
  -22.7400  -29.2647   19.8515 H   0  0  0  0  0  0
  -25.1299  -36.1891   25.0792 H   0  0  0  0  0  0
  -20.9967  -28.3263   24.1419 H   0  0  0  0  0  0
  -20.5683  -26.2280   23.3599 H   0  0  0  0  0  0
  -21.6642  -26.7472   22.1207 H   0  0  0  0  0  0
  -19.6934  -25.6297   21.1241 H   0  0  0  0  0  0
  -19.6758  -27.3182   20.6715 H   0  0  0  0  0  0
  -17.4225  -26.6729   21.3957 H   0  0  0  0  0  0
  -18.0315  -26.0126   22.8992 H   0  0  0  0  0  0
  -19.7932  -30.7332   24.2180 H   0  0  0  0  0  0
  -17.5009  -31.6263   24.5207 H   0  0  0  0  0  0
  -15.5349  -30.2953   23.7775 H   0  0  0  0  0  0
  -15.8669  -28.0900   22.6970 H   0  0  0  0  0  0
  -24.5829  -30.7204   25.7886 H   0  0  0  0  0  0
  -24.9100  -32.2901   26.5134 H   0  0  0  0  0  0
  -25.8118  -30.8761   27.0215 H   0  0  0  0  0  0
  -26.3025  -29.6757   24.1256 H   0  0  0  0  0  0
  -27.4050  -29.7308   25.4813 H   0  0  0  0  0  0
  -27.8895  -30.4340   23.9575 H   0  0  0  0  0  0
  -27.2553  -33.3620   26.2201 H   0  0  0  0  0  0
  -28.3791  -32.7064   25.0379 H   0  0  0  0  0  0
  -28.0755  -31.8500   26.5426 H   0  0  0  0  0  0
  -28.2539  -38.0164   24.7514 H   0  0  0  0  0  0
  -28.1132  -36.2682   24.6181 H   0  0  0  0  0  0
  -27.2324  -37.1380   25.8840 H   0  0  0  0  0  0
  -20.9362  -29.8756   21.6890 H   0  0  0  0  0  0
  -26.0135  -38.2822   24.1418 H   0  0  0  0  0  0
  -31.4911  -19.4647   19.6288 H   0  0  0  0  0  0
  -27.3706  -19.2217   20.8917 H   0  0  0  0  0  0
  -31.8514  -17.1422   20.3069 H   0  0  0  0  0  0
  -27.7355  -16.8735   21.5823 H   0  0  0  0  0  0
  -27.8529  -24.0000   15.1938 H   0  0  0  0  0  0
  -29.3717  -24.7236   15.9732 H   0  0  0  0  0  0
  -28.6329  -26.1669   21.9832 H   0  0  0  0  0  0
  -27.1981  -23.0125   17.3164 H   0  0  0  0  0  0
  -28.0817  -23.6879   22.9655 H   0  0  0  0  0  0
  -29.7984  -23.5709   22.5484 H   0  0  0  0  0  0
  -27.5757  -21.6146   22.0363 H   0  0  0  0  0  0
  -29.2951  -21.2983   22.2075 H   0  0  0  0  0  0
  -27.2182  -23.3995   19.6558 H   0  0  0  0  0  0
  -29.1117  -14.9837   21.6800 H   0  0  0  0  0  0
  1 25  1  0  0  0
  1 30  2  0  0  0
  1 87  1  0  0  0
  2  3  1  0  0  0
  2 25  1  0  0  0
  2 90  1  0  0  0
  2 91  1  0  0  0
  3  4  1  0  0  0
  3 92  1  0  0  0
  3 93  1  0  0  0
  4  5  1  0  0  0
  4 94  1  0  0  0
  4 95  1  0  0  0
  5  6  1  0  0  0
  5 26  1  0  0  0
  5 96  1  0  0  0
  6 25  1  0  0  0
  6 97  1  0  0  0
  6 98  1  0  0  0
  7  8  2  0  0  0
  7 26  1  0  0  0
  7 29  1  0  0  0
  8  9  1  0  0  0
  8 22  1  0  0  0
  9 10  1  0  0  0
  9 27  2  0  0  0
 10 11  2  0  0  0
 10 15  1  0  0  0
 11 12  1  0  0  0
 11 99  1  0  0  0
 12 13  2  0  0  0
 12100  1  0  0  0
 13 14  1  0  0  0
 13 31  1  0  0  0
 14 15  2  0  0  0
 14101  1  0  0  0
 15102  1  0  0  0
 16 17  2  0  0  0
 16 21  1  0  0  0
 16 31  1  0  0  0
 17 18  1  0  0  0
 17103  1  0  0  0
 18 19  2  0  0  0
 18104  1  0  0  0
 19 20  1  0  0  0
 19 24  1  0  0  0
 20 21  2  0  0  0
 20105  1  0  0  0
 21 23  1  0  0  0
 22 28  1  0  0  0
 22 32  2  0  0  0
 26 27  1  0  0  0
 28106  1  0  0  0
 28107  1  0  0  0
 29108  1  0  0  0
 29109  1  0  0  0
 33 34  1  0  0  0
 33 66  1  0  0  0
 33 70  2  0  0  0
 34 36  1  0  0  0
 34 59  1  0  0  0
 34110  1  0  0  0
 35 44  2  0  0  0
 35 45  1  0  0  0
 35 68  1  0  0  0
 36 56  1  0  0  0
 36111  1  0  0  0
 37 39  1  0  0  0
 37 47  1  0  0  0
 37 66  1  0  0  0
 37112  1  0  0  0
 38 43  2  0  0  0
 38 46  1  0  0  0
 38 47  1  0  0  0
 39 64  1  0  0  0
 39 67  2  0  0  0
 40 52  1  0  0  0
 40 53  2  0  0  0
 40 58  1  0  0  0
 41113  1  0  0  0
 41114  1  0  0  0
 41115  1  0  0  0
 41 48  1  0  0  0
 42 43  1  0  0  0
 42 66  1  0  0  0
 42116  1  0  0  0
 42117  1  0  0  0
 43 44  1  0  0  0
 44118  1  0  0  0
 45 46  2  0  0  0
 45119  1  0  0  0
 46120  1  0  0  0
 47121  1  0  0  0
 47122  1  0  0  0
 48 56  1  0  0  0
 48 65  1  0  0  0
 48123  1  0  0  0
 49 50  1  0  0  0
 49 53  1  0  0  0
 49 64  1  0  0  0
 49124  1  0  0  0
 50 51  1  0  0  0
 50125  1  0  0  0
 50126  1  0  0  0
 51 52  1  0  0  0
 51127  1  0  0  0
 51128  1  0  0  0
 52129  1  0  0  0
 52130  1  0  0  0
 53 54  1  0  0  0
 54 55  2  0  0  0
 54131  1  0  0  0
 55 57  1  0  0  0
 55132  1  0  0  0
 56 69  2  0  0  0
 57 58  2  0  0  0
 57133  1  0  0  0
 58134  1  0  0  0
 59 60  1  0  0  0
 59 61  1  0  0  0
 59 62  1  0  0  0
 60135  1  0  0  0
 60136  1  0  0  0
 60137  1  0  0  0
 61138  1  0  0  0
 61139  1  0  0  0
 61140  1  0  0  0
 62141  1  0  0  0
 62142  1  0  0  0
 62143  1  0  0  0
 63 65  1  0  0  0
 63144  1  0  0  0
 63145  1  0  0  0
 63146  1  0  0  0
 64147  1  0  0  0
 65148  1  0  0  0
 68 79  1  0  0  0
 71 73  2  0  0  0
 71 75  1  0  0  0
 71149  1  0  0  0
 72 74  1  0  0  0
 72 75  2  0  0  0
 72150  1  0  0  0
 73 76  1  0  0  0
 73151  1  0  0  0
 74 76  2  0  0  0
 74152  1  0  0  0
 75 81  1  0  0  0
 76 87  1  0  0  0
 77 79  2  0  0  0
 77 83  1  0  0  0
 77 85  1  0  0  0
 78 80  2  0  0  0
 78153  1  0  0  0
 78154  1  0  0  0
 79155  1  0  0  0
 80 82  1  0  0  0
 80156  1  0  0  0
 81 86  1  0  0  0
 81 88  2  0  0  0
 82 89  2  0  0  0
 82 85  1  0  0  0
 83 84  1  0  0  0
 83157  1  0  0  0
 83158  1  0  0  0
 84 86  1  0  0  0
 84159  1  0  0  0
 84160  1  0  0  0
 85 86  1  0  0  0
 85161  1  0  0  0
 87162  1  0  0  0
M  ISO  4   1 100  68 101  79 101  87 100
M  END
> <chiral flag>
0

> <version>
0

> <s_m_source_file>
/data/baiqing/PycharmProjects/Reinvent-master-3.2/result/LINK_invent/BTK/process_docking_weight1_custom_product_contain_oxygen_bond_distance_aromatic_linkinvent_7_9_3/rearranged_h_0114.sdf

> <i_m_source_file_index>
62

> <r_mmod_Potential_Energy-OPLS-2005>
59.8263511657715

> <r_mmod_Stretch_Energy-OPLS-2005>
50.9996948242188

> <r_mmod_Bend_Energy-OPLS-2005>
150.603454589844

> <r_mmod_Torsional_Energy-OPLS-2005>
291.08349609375

> <r_mmod_Improper_Torsional_Energy-OPLS-2005>
6.56135320663452

> <r_mmod_Van_der_Waal_Energy-OPLS-2005>
149.785858154297

> <r_mmod_Electrostatic_Energy-OPLS-2005>
-367.751617431641

> <r_mmod_Solvation_Energy-OPLS-2005>
-241.759643554688

> <b_mmod_Minimization_Converged-OPLS-2005>
0

> <r_mmod_RMS_Derivative-OPLS-2005>
7.24187517166138

$$$$
62
                    3D
 Structure written by MMmdl.
156164  0  0  1  0            999 V2000
  -27.1643  -17.7187   21.1424 C   0  0  0  0  0  0
  -29.1729  -15.1563   19.9615 C   0  0  0  0  0  0
  -29.2305  -13.8212   18.8911 C   0  0  0  0  0  0
  -28.2627  -12.6926   19.2149 C   0  0  0  0  0  0
  -27.2765  -13.5233   20.0064 C   0  0  2  0  0  0
  -27.7062  -14.4778   21.2148 C   0  0  0  0  0  0
  -24.9885  -13.8116   20.5335 C   0  0  0  0  0  0
  -24.0117  -12.9903   20.9297 C   0  0  0  0  0  0
  -24.5527  -11.6670   20.8884 C   0  0  0  0  0  0
  -23.8701  -10.3967   21.0473 C   0  0  0  0  0  0
  -24.3435   -9.3992   21.9229 C   0  0  0  0  0  0
  -23.6185   -8.2006   22.0755 C   0  0  0  0  0  0
  -22.4175   -8.0046   21.3526 C   0  0  0  0  0  0
  -21.9730   -8.9936   20.4600 C   0  0  0  0  0  0
  -22.6971  -10.1815   20.3029 C   0  0  0  0  0  0
  -21.6784   -6.0618   22.5305 C   0  0  0  0  0  0
  -21.3965   -6.5571   23.8221 C   0  0  0  0  0  0
  -21.3649   -5.6751   24.9201 C   0  0  0  0  0  0
  -21.6053   -4.3014   24.7263 C   0  0  0  0  0  0
  -21.8826   -3.8075   23.4394 C   0  0  0  0  0  0
  -21.9174   -4.6867   22.3437 C   0  0  0  0  0  0
  -22.6303  -13.4563   21.2121 C   0  0  0  0  0  0
  -22.1654   -4.2065   21.1013 F   0  0  0  0  0  0
  -21.5643   -3.4512   25.7786 F   0  0  0  0  0  0
  -27.7950  -16.0005   20.7618 N   0  0  0  0  0  0
  -26.0560  -12.9811   20.3389 N   0  0  0  0  0  0
  -25.8455  -11.6763   20.5855 N   0  0  0  0  0  0
  -21.9343  -12.7591   22.0936 N   0  0  0  0  0  0
  -25.0505  -15.1918   20.3259 N   0  0  0  0  0  0
  -28.5253  -17.6624   20.9324 O   0  0  0  0  0  0
  -21.6534   -6.8685   21.4242 O   0  0  0  0  0  0
  -22.1998  -14.4916   20.7053 O   0  0  0  0  0  0
  -24.6573  -32.0572   23.0175 C   0  0  0  0  0  0
  -25.9230  -32.5598   23.7958 C   0  0  1  0  0  0
  -26.6627  -27.4674   20.8898 C   0  0  0  0  0  0
  -25.6027  -33.9144   24.2286 N   0  0  0  0  0  0
  -23.5749  -30.7132   21.1533 C   0  0  2  0  0  0
  -25.0718  -29.2665   19.6884 C   0  0  0  0  0  0
  -23.5910  -29.4258   21.8766 C   0  0  0  0  0  0
  -18.9982  -25.6722   22.3888 C   0  0  0  0  0  0
  -24.1451  -36.7582   23.2602 C   0  0  0  0  0  0
  -26.0553  -31.1317   21.1186 C   0  0  0  0  0  0
  -26.1392  -29.7308   20.4917 C   0  0  0  0  0  0
  -27.0497  -28.8033   21.0073 C   0  0  0  0  0  0
  -25.9627  -27.0151   19.7544 C   0  0  0  0  0  0
  -25.0394  -27.9277   19.2265 C   0  0  0  0  0  0
  -23.8342  -30.1719   19.7124 C   0  0  0  0  0  0
  -25.4072  -36.3496   24.0360 C   0  0  1  0  0  0
  -22.6402  -26.9314   22.2974 C   0  0  2  0  0  0
  -22.0555  -26.7660   20.4891 C   0  0  0  0  0  0
  -20.3232  -26.3766   19.9265 C   0  0  0  0  0  0
  -18.9198  -25.8673   20.8217 C   0  0  0  0  0  0
  -21.1561  -26.3973   23.8394 C   0  0  0  0  0  0
  -20.3062  -27.5017   25.2483 C   0  0  0  0  0  0
  -18.6404  -28.0359   25.2959 C   0  0  0  0  0  0
  -25.9068  -34.9968   23.5096 C   0  0  0  0  0  0
  -17.3933  -27.5502   24.3210 C   0  0  0  0  0  0
  -17.4916  -26.4447   23.0589 C   0  0  0  0  0  0
  -26.4254  -31.7129   25.0405 C   0  0  0  0  0  0
  -25.3415  -31.4091   26.0997 C   0  0  0  0  0  0
  -27.0253  -30.3759   24.5895 C   0  0  0  0  0  0
  -27.5826  -32.4585   25.7467 C   0  0  0  0  0  0
  -27.5628  -37.1907   24.8447 C   0  0  0  0  0  0
  -22.9140  -28.3230   21.5701 N   0  0  0  0  0  0
  -26.4278  -37.4154   23.9521 N   0  0  0  0  0  0
  -24.7525  -31.4635   21.7635 N   0  0  0  0  0  0
  -24.3588  -29.3922   22.7852 O   0  0  0  0  0  0
  -26.3163  -26.7878   22.0693 O   0  0  0  0  0  0
  -26.5544  -34.9415   22.4601 O   0  0  0  0  0  0
  -23.5632  -32.1899   23.5915 O   0  0  0  0  0  0
  -19.4774  -27.6239   23.1510 C   0  0  0  0  0  0
  -19.3248  -25.4800   24.5035 C   0  0  0  0  0  0
  -21.2466  -25.0781   21.9409 C   0  0  0  0  0  0
  -21.9722  -23.4165   22.6481 C   0  0  0  0  0  0
  -20.4413  -27.4132   22.0655 C   0  0  0  0  0  0
  -20.5655  -24.0126   23.8645 C   0  0  0  0  0  0
  -23.8175  -21.1177   22.0955 C   0  0  0  0  0  0
  -25.4692  -19.6842   21.6544 C   0  0  0  0  0  0
  -22.1686  -28.8335   24.0535 C   0  0  0  0  0  0
  -19.0843  -22.8117   25.3227 C   0  0  0  0  0  0
  -23.7406  -27.7458   24.3888 C   0  0  0  0  0  0
  -25.3942  -27.2487   23.4554 C   0  0  0  0  0  0
  -21.0363  -28.7272   23.0474 N   0  0  0  0  0  0
  -20.3487  -22.9100   24.6626 O   0  0  0  0  0  0
  -29.5981  -15.9557   19.3537 H   0  0  0  0  0  0
  -29.9795  -15.0334   20.6900 H   0  0  0  0  0  0
  -30.2497  -13.4459   18.8014 H   0  0  0  0  0  0
  -28.9731  -14.1965   17.8987 H   0  0  0  0  0  0
  -28.7164  -11.9267   19.8444 H   0  0  0  0  0  0
  -27.8294  -12.2237   18.3300 H   0  0  0  0  0  0
  -26.9661  -14.1943   19.1997 H   0  0  0  0  0  0
  -28.5202  -14.0653   21.8159 H   0  0  0  0  0  0
  -26.9541  -14.4889   21.9999 H   0  0  0  0  0  0
  -25.2545   -9.5579   22.4826 H   0  0  0  0  0  0
  -23.9906   -7.4405   22.7473 H   0  0  0  0  0  0
  -21.0675   -8.8384   19.8907 H   0  0  0  0  0  0
  -22.3394  -10.9347   19.6146 H   0  0  0  0  0  0
  -21.1936   -7.6078   23.9696 H   0  0  0  0  0  0
  -21.1483   -6.0492   25.9101 H   0  0  0  0  0  0
  -22.0624   -2.7536   23.2916 H   0  0  0  0  0  0
  -22.3186  -11.9302   22.5216 H   0  0  0  0  0  0
  -21.0012  -13.0546   22.3434 H   0  0  0  0  0  0
  -24.2241  -15.7782   20.3553 H   0  0  0  0  0  0
  -25.8593  -15.6328   19.9080 H   0  0  0  0  0  0
  -26.7790  -32.6516   23.1365 H   0  0  0  0  0  0
  -25.0229  -34.0175   25.0485 H   0  0  0  0  0  0
  -22.6302  -31.2419   21.2571 H   0  0  0  0  0  0
  -23.3816  -35.9810   23.3207 H   0  0  0  0  0  0
  -24.3593  -36.9236   22.2033 H   0  0  0  0  0  0
  -23.7040  -37.6716   23.6604 H   0  0  0  0  0  0
  -26.2162  -31.8692   20.3296 H   0  0  0  0  0  0
  -26.9186  -31.2098   21.7682 H   0  0  0  0  0  0
  -27.6396  -29.1096   21.8602 H   0  0  0  0  0  0
  -25.7584  -25.9625   19.6120 H   0  0  0  0  0  0
  -24.2471  -27.5672   18.5863 H   0  0  0  0  0  0
  -23.9943  -30.9969   19.0205 H   0  0  0  0  0  0
  -22.9697  -29.6371   19.3137 H   0  0  0  0  0  0
  -25.1200  -36.2353   25.0847 H   0  0  0  0  0  0
  -23.4968  -26.2604   22.3386 H   0  0  0  0  0  0
  -22.6818  -25.9491   20.1089 H   0  0  0  0  0  0
  -22.4305  -27.4252   19.7039 H   0  0  0  0  0  0
  -20.4156  -25.6806   19.1014 H   0  0  0  0  0  0
  -20.0117  -27.2825   19.4082 H   0  0  0  0  0  0
  -18.1440  -26.6061   20.6273 H   0  0  0  0  0  0
  -18.5357  -24.9413   20.3947 H   0  0  0  0  0  0
  -20.9357  -27.9038   26.0367 H   0  0  0  0  0  0
  -18.3907  -28.7284   26.0865 H   0  0  0  0  0  0
  -16.4234  -27.9794   24.5283 H   0  0  0  0  0  0
  -16.5810  -26.3101   22.4823 H   0  0  0  0  0  0
  -25.7495  -30.8285   26.9287 H   0  0  0  0  0  0
  -24.5157  -30.8324   25.6835 H   0  0  0  0  0  0
  -24.9235  -32.3246   26.5209 H   0  0  0  0  0  0
  -26.2232  -29.7345   24.2717 H   0  0  0  0  0  0
  -27.5466  -29.8641   25.3992 H   0  0  0  0  0  0
  -27.7262  -30.4916   23.7659 H   0  0  0  0  0  0
  -27.2506  -33.3856   26.2158 H   0  0  0  0  0  0
  -28.3749  -32.7136   25.0416 H   0  0  0  0  0  0
  -28.0309  -31.8534   26.5352 H   0  0  0  0  0  0
  -28.2579  -38.0290   24.7829 H   0  0  0  0  0  0
  -28.1191  -36.2884   24.5856 H   0  0  0  0  0  0
  -27.2401  -37.1083   25.8840 H   0  0  0  0  0  0
  -22.2910  -28.4513   20.7905 H   0  0  0  0  0  0
  -26.0235  -38.3213   24.1755 H   0  0  0  0  0  0
  -18.9298  -28.5774   23.0897 H   0  0  0  0  0  0
  -18.6368  -25.3742   25.3272 H   0  0  0  0  0  0
  -21.3872  -24.6570   20.9569 H   0  0  0  0  0  0
  -23.0439  -20.3624   22.0901 H   0  0  0  0  0  0
  -26.2367  -20.4402   21.6316 H   0  0  0  0  0  0
  -22.2071  -29.7238   24.6830 H   0  0  0  0  0  0
  -18.2578  -23.1108   24.6753 H   0  0  0  0  0  0
  -19.0534  -23.4020   26.2402 H   0  0  0  0  0  0
  -18.8825  -21.7811   25.6177 H   0  0  0  0  0  0
  -23.3965  -26.8177   24.8450 H   0  0  0  0  0  0
  -24.1553  -28.2440   25.2648 H   0  0  0  0  0  0
  -25.4684  -26.2494   23.8892 H   0  0  0  0  0  0
  -26.1666  -27.7435   24.0317 H   0  0  0  0  0  0
  1 25  1  0  0  0
  1 30  2  0  0  0
  1 78  1  0  0  0
  2  3  1  0  0  0
  2 25  1  0  0  0
  2 85  1  0  0  0
  2 86  1  0  0  0
  3  4  1  0  0  0
  3 87  1  0  0  0
  3 88  1  0  0  0
  4  5  1  0  0  0
  4 89  1  0  0  0
  4 90  1  0  0  0
  5  6  1  0  0  0
  5 26  1  0  0  0
  5 91  1  0  0  0
  6 25  1  0  0  0
  6 92  1  0  0  0
  6 93  1  0  0  0
  7  8  2  0  0  0
  7 26  1  0  0  0
  7 29  1  0  0  0
  8  9  1  0  0  0
  8 22  1  0  0  0
  9 10  1  0  0  0
  9 27  2  0  0  0
 10 11  2  0  0  0
 10 15  1  0  0  0
 11 12  1  0  0  0
 11 94  1  0  0  0
 12 13  2  0  0  0
 12 95  1  0  0  0
 13 14  1  0  0  0
 13 31  1  0  0  0
 14 15  2  0  0  0
 14 96  1  0  0  0
 15 97  1  0  0  0
 16 17  2  0  0  0
 16 21  1  0  0  0
 16 31  1  0  0  0
 17 18  1  0  0  0
 17 98  1  0  0  0
 18 19  2  0  0  0
 18 99  1  0  0  0
 19 20  1  0  0  0
 19 24  1  0  0  0
 20 21  2  0  0  0
 20100  1  0  0  0
 21 23  1  0  0  0
 22 28  1  0  0  0
 22 32  2  0  0  0
 26 27  1  0  0  0
 28101  1  0  0  0
 28102  1  0  0  0
 29103  1  0  0  0
 29104  1  0  0  0
 33 34  1  0  0  0
 33 66  1  0  0  0
 33 70  2  0  0  0
 34 36  1  0  0  0
 34 59  1  0  0  0
 34105  1  0  0  0
 35 44  2  0  0  0
 35 45  1  0  0  0
 35 68  1  0  0  0
 36 56  1  0  0  0
 36106  1  0  0  0
 37 39  1  0  0  0
 37 47  1  0  0  0
 37 66  1  0  0  0
 37107  1  0  0  0
 38 43  2  0  0  0
 38 46  1  0  0  0
 38 47  1  0  0  0
 39 64  1  0  0  0
 39 67  2  0  0  0
 40 52  1  0  0  0
 40 53  2  0  0  0
 40 58  1  0  0  0
 41108  1  0  0  0
 41109  1  0  0  0
 41110  1  0  0  0
 41 48  1  0  0  0
 42 43  1  0  0  0
 42 66  1  0  0  0
 42111  1  0  0  0
 42112  1  0  0  0
 43 44  1  0  0  0
 44113  1  0  0  0
 45 46  2  0  0  0
 45114  1  0  0  0
 46115  1  0  0  0
 47116  1  0  0  0
 47117  1  0  0  0
 48 56  1  0  0  0
 48 65  1  0  0  0
 48118  1  0  0  0
 49 50  1  0  0  0
 49 53  1  0  0  0
 49 64  1  0  0  0
 49119  1  0  0  0
 50 51  1  0  0  0
 50120  1  0  0  0
 50121  1  0  0  0
 51 52  1  0  0  0
 51122  1  0  0  0
 51123  1  0  0  0
 52124  1  0  0  0
 52125  1  0  0  0
 53 54  1  0  0  0
 54 55  2  0  0  0
 54126  1  0  0  0
 55 57  1  0  0  0
 55127  1  0  0  0
 56 69  2  0  0  0
 57 58  2  0  0  0
 57128  1  0  0  0
 58129  1  0  0  0
 59 60  1  0  0  0
 59 61  1  0  0  0
 59 62  1  0  0  0
 60130  1  0  0  0
 60131  1  0  0  0
 60132  1  0  0  0
 61133  1  0  0  0
 61134  1  0  0  0
 61135  1  0  0  0
 62136  1  0  0  0
 62137  1  0  0  0
 62138  1  0  0  0
 63 65  1  0  0  0
 63139  1  0  0  0
 63140  1  0  0  0
 63141  1  0  0  0
 64142  1  0  0  0
 65143  1  0  0  0
 68 82  1  0  0  0
 71 72  2  0  0  0
 71 75  1  0  0  0
 71144  1  0  0  0
 72 76  1  0  0  0
 72145  1  0  0  0
 73 74  1  0  0  0
 73 75  2  0  0  0
 73146  1  0  0  0
 74 76  2  0  0  0
 74 77  1  0  0  0
 75 83  1  0  0  0
 76 84  1  0  0  0
 77 78  2  0  0  0
 77147  1  0  0  0
 78148  1  0  0  0
 79 81  1  0  0  0
 79 83  2  0  0  0
 79149  1  0  0  0
 80 84  1  0  0  0
 80150  1  0  0  0
 80151  1  0  0  0
 80152  1  0  0  0
 81 82  1  0  0  0
 81153  1  0  0  0
 81154  1  0  0  0
 82155  1  0  0  0
 82156  1  0  0  0
M  ISO  4   1 100  68 101  78 100  82 101
M  END
> <chiral flag>
0

> <version>
0

> <s_m_source_file>
/data/baiqing/PycharmProjects/Reinvent-master-3.2/result/LINK_invent/BTK/process_docking_weight1_custom_product_contain_oxygen_bond_distance_aromatic_linkinvent_7_9_3/rearranged_h_0114.sdf

> <i_m_source_file_index>
63

> <r_mmod_Potential_Energy-OPLS-2005>
47303.91796875

> <r_mmod_Stretch_Energy-OPLS-2005>
21956.294921875

> <r_mmod_Bend_Energy-OPLS-2005>
2984.25219726562

> <r_mmod_Torsional_Energy-OPLS-2005>
717.085083007812

> <r_mmod_Improper_Torsional_Energy-OPLS-2005>
103.516899108887

> <r_mmod_Van_der_Waal_Energy-OPLS-2005>
5826.8291015625

> <r_mmod_Electrostatic_Energy-OPLS-2005>
-353.731781005859

> <r_mmod_Solvation_Energy-OPLS-2005>
-189.719711303711

> <b_mmod_Minimization_Converged-OPLS-2005>
0

> <r_mmod_RMS_Derivative-OPLS-2005>
14.9667568206787

$$$$
63
                    3D
 Structure written by MMmdl.
156164  0  0  1  0            999 V2000
  -30.6677  -14.4855   20.5533 C   0  0  0  0  0  0
  -30.4259  -12.3115   19.4152 C   0  0  0  0  0  0
  -29.4843  -12.5153   18.2087 C   0  0  0  0  0  0
  -28.0067  -12.3697   18.6215 C   0  0  0  0  0  0
  -27.6555  -13.2075   19.8773 C   0  0  2  0  0  0
  -28.7014  -12.9728   20.9899 C   0  0  0  0  0  0
  -25.2441  -13.8140   20.5577 C   0  0  0  0  0  0
  -24.1753  -13.0416   20.9189 C   0  0  0  0  0  0
  -24.6338  -11.6907   20.8759 C   0  0  0  0  0  0
  -23.9025  -10.4283   21.0386 C   0  0  0  0  0  0
  -24.3584   -9.4194   21.9153 C   0  0  0  0  0  0
  -23.6266   -8.2226   22.0717 C   0  0  0  0  0  0
  -22.4244   -8.0253   21.3511 C   0  0  0  0  0  0
  -21.9878   -9.0242   20.4619 C   0  0  0  0  0  0
  -22.7205  -10.2116   20.3027 C   0  0  0  0  0  0
  -21.6848   -6.0694   22.5265 C   0  0  0  0  0  0
  -21.4021   -6.5611   23.8196 C   0  0  0  0  0  0
  -21.3636   -5.6769   24.9165 C   0  0  0  0  0  0
  -21.6039   -4.3031   24.7226 C   0  0  0  0  0  0
  -21.8834   -3.8120   23.4348 C   0  0  0  0  0  0
  -21.9218   -4.6929   22.3398 C   0  0  0  0  0  0
  -22.7776  -13.5210   21.1865 C   0  0  0  0  0  0
  -22.1684   -4.2110   21.0977 F   0  0  0  0  0  0
  -21.5616   -3.4517   25.7740 F   0  0  0  0  0  0
  -30.0347  -13.2846   20.4452 N   0  0  0  0  0  0
  -26.2962  -12.9364   20.3427 N   0  0  0  0  0  0
  -25.9277  -11.6523   20.5864 N   0  0  0  0  0  0
  -22.0441  -12.8231   22.0465 N   0  0  0  0  0  0
  -25.3969  -15.1807   20.3671 N   0  0  0  0  0  0
  -31.8191  -14.6405   20.1356 O   0  0  0  0  0  0
  -21.6615   -6.8837   21.4221 O   0  0  0  0  0  0
  -22.3466  -14.5522   20.6709 O   0  0  0  0  0  0
  -24.6090  -31.8645   23.2111 C   0  0  0  0  0  0
  -25.8987  -32.4794   23.8391 C   0  0  1  0  0  0
  -27.2655  -27.4622   20.1110 C   0  0  0  0  0  0
  -25.5869  -33.8599   24.2318 N   0  0  0  0  0  0
  -23.3981  -30.4829   21.5498 C   0  0  2  0  0  0
  -24.8537  -28.9441   20.1183 C   0  0  0  0  0  0
  -22.7372  -29.4629   22.5017 C   0  0  0  0  0  0
  -18.0276  -28.1350   22.8569 C   0  0  0  0  0  0
  -24.1482  -36.7318   23.2647 C   0  0  0  0  0  0
  -25.9198  -30.8419   21.3572 C   0  0  0  0  0  0
  -26.0030  -29.4738   20.7107 C   0  0  0  0  0  0
  -27.2087  -28.7434   20.6983 C   0  0  0  0  0  0
  -26.0960  -26.9282   19.5202 C   0  0  0  0  0  0
  -24.8930  -27.6711   19.5147 C   0  0  0  0  0  0
  -23.6079  -29.8031   20.1656 C   0  0  0  0  0  0
  -25.4100  -36.3090   24.0330 C   0  0  1  0  0  0
  -20.5857  -28.3682   23.1352 C   0  0  2  0  0  0
  -20.6778  -26.9414   22.5501 C   0  0  0  0  0  0
  -19.5759  -26.6354   21.5331 C   0  0  0  0  0  0
  -18.1942  -26.7894   22.1734 C   0  0  0  0  0  0
  -19.1523  -28.8845   23.2931 C   0  0  0  0  0  0
  -18.9440  -30.1504   23.8862 C   0  0  0  0  0  0
  -17.6427  -30.6600   24.0496 C   0  0  0  0  0  0
  -25.9021  -34.9456   23.5124 C   0  0  0  0  0  0
  -16.5331  -29.9086   23.6281 C   0  0  0  0  0  0
  -16.7261  -28.6459   23.0392 C   0  0  0  0  0  0
  -26.4462  -31.6584   25.0706 C   0  0  0  0  0  0
  -25.3756  -31.3666   26.1473 C   0  0  0  0  0  0
  -27.0285  -30.3023   24.6059 C   0  0  0  0  0  0
  -27.6039  -32.4316   25.7464 C   0  0  0  0  0  0
  -27.5561  -37.1809   24.8466 C   0  0  0  0  0  0
  -21.4101  -29.3007   22.3701 N   0  0  0  0  0  0
  -26.4283  -37.3773   23.9395 N   0  0  0  0  0  0
  -24.6596  -31.0771   22.0994 N   0  0  0  0  0  0
  -23.4131  -28.8180   23.3088 O   0  0  0  0  0  0
  -28.4856  -26.8216   20.1209 O   0  0  0  0  0  0
  -26.5596  -34.8898   22.4692 O   0  0  0  0  0  0
  -23.5301  -32.1389   23.7516 O   0  0  0  0  0  0
  -26.9850  -18.7734   20.8698 C   0  0  0  0  0  0
  -27.8543  -17.6808   20.7842 C   0  0  0  0  0  0
  -27.5060  -20.0779   21.0457 C   0  0  0  0  0  0
  -29.2391  -17.8826   20.8681 C   0  0  0  0  0  0
  -28.9300  -20.1946   21.0880 C   0  0  0  0  0  0
  -30.1700  -16.7220   20.7776 C   0  0  0  0  0  0
  -29.7909  -24.9444   20.8736 C   0  0  0  0  0  0
  -29.9817  -23.7464   21.4650 C   0  0  0  0  0  0
  -25.2682  -21.0176   21.1985 C   0  0  0  0  0  0
  -28.5505  -25.3981   20.1121 C   0  0  0  0  0  0
  -28.9998  -22.5928   21.4487 C   0  0  0  0  0  0
  -29.7551  -19.1272   21.0009 N   0  0  0  0  0  0
  -29.8133  -15.5048   20.9703 N   0  0  0  0  0  0
  -26.6850  -21.1871   21.1606 O   0  0  0  0  0  0
  -29.6640  -21.3606   21.2034 O   0  0  0  0  0  0
  -31.4644  -12.4293   19.1006 H   0  0  0  0  0  0
  -30.3487  -11.2949   19.8051 H   0  0  0  0  0  0
  -29.7247  -11.8095   17.4126 H   0  0  0  0  0  0
  -29.6399  -13.5095   17.7910 H   0  0  0  0  0  0
  -27.8071  -11.3171   18.8170 H   0  0  0  0  0  0
  -27.3532  -12.6520   17.7938 H   0  0  0  0  0  0
  -27.7031  -14.2578   19.5817 H   0  0  0  0  0  0
  -28.6798  -11.9324   21.3202 H   0  0  0  0  0  0
  -28.4675  -13.5631   21.8777 H   0  0  0  0  0  0
  -25.2706   -9.5695   22.4743 H   0  0  0  0  0  0
  -23.9945   -7.4618   22.7437 H   0  0  0  0  0  0
  -21.0802   -8.8786   19.8929 H   0  0  0  0  0  0
  -22.3659  -10.9661   19.6138 H   0  0  0  0  0  0
  -21.2012   -7.6122   23.9682 H   0  0  0  0  0  0
  -21.1429   -6.0491   25.9056 H   0  0  0  0  0  0
  -22.0635   -2.7579   23.2873 H   0  0  0  0  0  0
  -22.4104  -11.9906   22.4833 H   0  0  0  0  0  0
  -21.1064  -13.1245   22.2714 H   0  0  0  0  0  0
  -24.5940  -15.8005   20.3504 H   0  0  0  0  0  0
  -26.2364  -15.5982   19.9902 H   0  0  0  0  0  0
  -26.7048  -32.5506   23.1159 H   0  0  0  0  0  0
  -24.9952  -33.9773   25.0410 H   0  0  0  0  0  0
  -22.6881  -31.2983   21.4077 H   0  0  0  0  0  0
  -23.3702  -35.9700   23.3342 H   0  0  0  0  0  0
  -24.3573  -36.8896   22.2059 H   0  0  0  0  0  0
  -23.7295  -37.6556   23.6650 H   0  0  0  0  0  0
  -26.0202  -31.6075   20.5859 H   0  0  0  0  0  0
  -26.8130  -30.9027   21.9692 H   0  0  0  0  0  0
  -28.0990  -29.1639   21.1430 H   0  0  0  0  0  0
  -26.1084  -25.9535   19.0503 H   0  0  0  0  0  0
  -24.0068  -27.2604   19.0507 H   0  0  0  0  0  0
  -23.7106  -30.5735   19.3983 H   0  0  0  0  0  0
  -22.7400  -29.2062   19.8743 H   0  0  0  0  0  0
  -25.1290  -36.1935   25.0825 H   0  0  0  0  0  0
  -20.9934  -28.3302   24.1477 H   0  0  0  0  0  0
  -20.5747  -26.2331   23.3726 H   0  0  0  0  0  0
  -21.6657  -26.7447   22.1302 H   0  0  0  0  0  0
  -19.6981  -25.6257   21.1408 H   0  0  0  0  0  0
  -19.6704  -27.3166   20.6859 H   0  0  0  0  0  0
  -17.4249  -26.6619   21.4111 H   0  0  0  0  0  0
  -18.0294  -26.0022   22.9092 H   0  0  0  0  0  0
  -19.7890  -30.7403   24.2191 H   0  0  0  0  0  0
  -17.4966  -31.6320   24.5001 H   0  0  0  0  0  0
  -15.5324  -30.3016   23.7520 H   0  0  0  0  0  0
  -15.8725  -28.0722   22.7084 H   0  0  0  0  0  0
  -24.5935  -30.7004   25.7818 H   0  0  0  0  0  0
  -24.8949  -32.2818   26.4948 H   0  0  0  0  0  0
  -25.8153  -30.8826   27.0199 H   0  0  0  0  0  0
  -26.2818  -29.6776   24.1136 H   0  0  0  0  0  0
  -27.4086  -29.7265   25.4508 H   0  0  0  0  0  0
  -27.8645  -30.4346   23.9177 H   0  0  0  0  0  0
  -27.2649  -33.3589   26.2096 H   0  0  0  0  0  0
  -28.3832  -32.6899   25.0285 H   0  0  0  0  0  0
  -28.0730  -31.8389   26.5335 H   0  0  0  0  0  0
  -28.2601  -38.0073   24.7451 H   0  0  0  0  0  0
  -28.1017  -36.2597   24.6361 H   0  0  0  0  0  0
  -27.2272  -37.1564   25.8868 H   0  0  0  0  0  0
  -20.9263  -29.8653   21.6857 H   0  0  0  0  0  0
  -26.0148  -38.2841   24.1381 H   0  0  0  0  0  0
  -25.9280  -18.5810   20.7945 H   0  0  0  0  0  0
  -27.4563  -16.6869   20.6550 H   0  0  0  0  0  0
  -31.1937  -16.9842   20.4983 H   0  0  0  0  0  0
  -30.5865  -25.6727   20.9385 H   0  0  0  0  0  0
  -30.9017  -23.5619   22.0025 H   0  0  0  0  0  0
  -24.9610  -20.4551   22.0821 H   0  0  0  0  0  0
  -24.8860  -20.5235   20.3064 H   0  0  0  0  0  0
  -24.7860  -21.9955   21.2529 H   0  0  0  0  0  0
  -27.6684  -24.9536   20.5703 H   0  0  0  0  0  0
  -28.6169  -25.0426   19.0818 H   0  0  0  0  0  0
  -28.2879  -22.7875   20.6527 H   0  0  0  0  0  0
  -28.4790  -22.5527   22.4054 H   0  0  0  0  0  0
  1 25  1  0  0  0
  1 30  2  0  0  0
  1 83  1  0  0  0
  2  3  1  0  0  0
  2 25  1  0  0  0
  2 86  1  0  0  0
  2 87  1  0  0  0
  3  4  1  0  0  0
  3 88  1  0  0  0
  3 89  1  0  0  0
  4  5  1  0  0  0
  4 90  1  0  0  0
  4 91  1  0  0  0
  5  6  1  0  0  0
  5 26  1  0  0  0
  5 92  1  0  0  0
  6 25  1  0  0  0
  6 93  1  0  0  0
  6 94  1  0  0  0
  7  8  2  0  0  0
  7 26  1  0  0  0
  7 29  1  0  0  0
  8  9  1  0  0  0
  8 22  1  0  0  0
  9 10  1  0  0  0
  9 27  2  0  0  0
 10 11  2  0  0  0
 10 15  1  0  0  0
 11 12  1  0  0  0
 11 95  1  0  0  0
 12 13  2  0  0  0
 12 96  1  0  0  0
 13 14  1  0  0  0
 13 31  1  0  0  0
 14 15  2  0  0  0
 14 97  1  0  0  0
 15 98  1  0  0  0
 16 17  2  0  0  0
 16 21  1  0  0  0
 16 31  1  0  0  0
 17 18  1  0  0  0
 17 99  1  0  0  0
 18 19  2  0  0  0
 18100  1  0  0  0
 19 20  1  0  0  0
 19 24  1  0  0  0
 20 21  2  0  0  0
 20101  1  0  0  0
 21 23  1  0  0  0
 22 28  1  0  0  0
 22 32  2  0  0  0
 26 27  1  0  0  0
 28102  1  0  0  0
 28103  1  0  0  0
 29104  1  0  0  0
 29105  1  0  0  0
 33 34  1  0  0  0
 33 66  1  0  0  0
 33 70  2  0  0  0
 34 36  1  0  0  0
 34 59  1  0  0  0
 34106  1  0  0  0
 35 44  2  0  0  0
 35 45  1  0  0  0
 35 68  1  0  0  0
 36 56  1  0  0  0
 36107  1  0  0  0
 37 39  1  0  0  0
 37 47  1  0  0  0
 37 66  1  0  0  0
 37108  1  0  0  0
 38 43  2  0  0  0
 38 46  1  0  0  0
 38 47  1  0  0  0
 39 64  1  0  0  0
 39 67  2  0  0  0
 40 52  1  0  0  0
 40 53  2  0  0  0
 40 58  1  0  0  0
 41109  1  0  0  0
 41110  1  0  0  0
 41111  1  0  0  0
 41 48  1  0  0  0
 42 43  1  0  0  0
 42 66  1  0  0  0
 42112  1  0  0  0
 42113  1  0  0  0
 43 44  1  0  0  0
 44114  1  0  0  0
 45 46  2  0  0  0
 45115  1  0  0  0
 46116  1  0  0  0
 47117  1  0  0  0
 47118  1  0  0  0
 48 56  1  0  0  0
 48 65  1  0  0  0
 48119  1  0  0  0
 49 50  1  0  0  0
 49 53  1  0  0  0
 49 64  1  0  0  0
 49120  1  0  0  0
 50 51  1  0  0  0
 50121  1  0  0  0
 50122  1  0  0  0
 51 52  1  0  0  0
 51123  1  0  0  0
 51124  1  0  0  0
 52125  1  0  0  0
 52126  1  0  0  0
 53 54  1  0  0  0
 54 55  2  0  0  0
 54127  1  0  0  0
 55 57  1  0  0  0
 55128  1  0  0  0
 56 69  2  0  0  0
 57 58  2  0  0  0
 57129  1  0  0  0
 58130  1  0  0  0
 59 60  1  0  0  0
 59 61  1  0  0  0
 59 62  1  0  0  0
 60131  1  0  0  0
 60132  1  0  0  0
 60133  1  0  0  0
 61134  1  0  0  0
 61135  1  0  0  0
 61136  1  0  0  0
 62137  1  0  0  0
 62138  1  0  0  0
 62139  1  0  0  0
 63 65  1  0  0  0
 63140  1  0  0  0
 63141  1  0  0  0
 63142  1  0  0  0
 64143  1  0  0  0
 65144  1  0  0  0
 68 80  1  0  0  0
 71 72  2  0  0  0
 71 73  1  0  0  0
 71145  1  0  0  0
 72 74  1  0  0  0
 72146  1  0  0  0
 73 75  2  0  0  0
 73 84  1  0  0  0
 74 76  1  0  0  0
 74 82  2  0  0  0
 75 82  1  0  0  0
 75 85  1  0  0  0
 76 83  2  0  0  0
 76147  1  0  0  0
 77 78  2  0  0  0
 77 80  1  0  0  0
 77148  1  0  0  0
 78 81  1  0  0  0
 78149  1  0  0  0
 79 84  1  0  0  0
 79150  1  0  0  0
 79151  1  0  0  0
 79152  1  0  0  0
 80153  1  0  0  0
 80154  1  0  0  0
 81 85  1  0  0  0
 81155  1  0  0  0
 81156  1  0  0  0
M  ISO  4   1 100  68 101  80 101  83 100
M  END
> <chiral flag>
0

> <version>
0

> <s_m_source_file>
/data/baiqing/PycharmProjects/Reinvent-master-3.2/result/LINK_invent/BTK/process_docking_weight1_custom_product_contain_oxygen_bond_distance_aromatic_linkinvent_7_9_3/rearranged_h_0114.sdf

> <i_m_source_file_index>
64

> <r_mmod_Potential_Energy-OPLS-2005>
-151.496994018555

> <r_mmod_Stretch_Energy-OPLS-2005>
38.2685394287109

> <r_mmod_Bend_Energy-OPLS-2005>
119.057975769043

> <r_mmod_Torsional_Energy-OPLS-2005>
171.108688354492

> <r_mmod_Improper_Torsional_Energy-OPLS-2005>
5.73824071884155

> <r_mmod_Van_der_Waal_Energy-OPLS-2005>
182.702407836914

> <r_mmod_Electrostatic_Energy-OPLS-2005>
-490.908508300781

> <r_mmod_Solvation_Energy-OPLS-2005>
-192.415145874023

> <b_mmod_Minimization_Converged-OPLS-2005>
0

> <r_mmod_RMS_Derivative-OPLS-2005>
5.30334901809692

$$$$
64
                    3D
 Structure written by MMmdl.
169177  0  0  1  0            999 V2000
  -30.7426  -14.4578   20.6046 C   0  0  0  0  0  0
  -30.4126  -12.3098   19.4389 C   0  0  0  0  0  0
  -29.4942  -12.5203   18.2188 C   0  0  0  0  0  0
  -28.0157  -12.3797   18.6228 C   0  0  0  0  0  0
  -27.6640  -13.2087   19.8868 C   0  0  2  0  0  0
  -28.6995  -12.9811   21.0120 C   0  0  0  0  0  0
  -25.2581  -13.8161   20.5658 C   0  0  0  0  0  0
  -24.1831  -13.0424   20.9124 C   0  0  0  0  0  0
  -24.6385  -11.6897   20.8713 C   0  0  0  0  0  0
  -23.9053  -10.4281   21.0392 C   0  0  0  0  0  0
  -24.3603   -9.4208   21.9181 C   0  0  0  0  0  0
  -23.6289   -8.2247   22.0760 C   0  0  0  0  0  0
  -22.4278   -8.0271   21.3548 C   0  0  0  0  0  0
  -21.9901   -9.0236   20.4649 C   0  0  0  0  0  0
  -22.7225  -10.2119   20.3045 C   0  0  0  0  0  0
  -21.6849   -6.0725   22.5279 C   0  0  0  0  0  0
  -21.4009   -6.5634   23.8209 C   0  0  0  0  0  0
  -21.3670   -5.6793   24.9176 C   0  0  0  0  0  0
  -21.6046   -4.3055   24.7231 C   0  0  0  0  0  0
  -21.8824   -3.8137   23.4355 C   0  0  0  0  0  0
  -21.9193   -4.6951   22.3408 C   0  0  0  0  0  0
  -22.7868  -13.5226   21.1815 C   0  0  0  0  0  0
  -22.1655   -4.2135   21.0988 F   0  0  0  0  0  0
  -21.5641   -3.4545   25.7748 F   0  0  0  0  0  0
  -30.0347  -13.2949   20.4740 N   0  0  0  0  0  0
  -26.3045  -12.9336   20.3415 N   0  0  0  0  0  0
  -25.9324  -11.6487   20.5787 N   0  0  0  0  0  0
  -22.0502  -12.8218   22.0383 N   0  0  0  0  0  0
  -25.4283  -15.1872   20.4046 N   0  0  0  0  0  0
  -31.7984  -14.6576   19.9919 O   0  0  0  0  0  0
  -21.6650   -6.8861   21.4235 O   0  0  0  0  0  0
  -22.3563  -14.5550   20.6690 O   0  0  0  0  0  0
  -24.6136  -31.8680   23.2136 C   0  0  0  0  0  0
  -25.9014  -32.4828   23.8424 C   0  0  1  0  0  0
  -27.2295  -27.4571   20.0993 C   0  0  0  0  0  0
  -25.5864  -33.8619   24.2325 N   0  0  0  0  0  0
  -23.4010  -30.4940   21.5530 C   0  0  2  0  0  0
  -24.8473  -28.9646   20.1125 C   0  0  0  0  0  0
  -22.7390  -29.4672   22.5000 C   0  0  0  0  0  0
  -18.0273  -28.1364   22.8466 C   0  0  0  0  0  0
  -24.1475  -36.7326   23.2644 C   0  0  0  0  0  0
  -25.9252  -30.8462   21.3560 C   0  0  0  0  0  0
  -26.0070  -29.4801   20.7080 C   0  0  0  0  0  0
  -27.2061  -28.7319   20.7012 C   0  0  0  0  0  0
  -26.0615  -26.9493   19.4958 C   0  0  0  0  0  0
  -24.8680  -27.6975   19.5025 C   0  0  0  0  0  0
  -23.6062  -29.8294   20.1644 C   0  0  0  0  0  0
  -25.4101  -36.3111   24.0332 C   0  0  1  0  0  0
  -20.5867  -28.3656   23.1310 C   0  0  2  0  0  0
  -20.6781  -26.9389   22.5417 C   0  0  0  0  0  0
  -19.5757  -26.6382   21.5224 C   0  0  0  0  0  0
  -18.1913  -26.7912   22.1605 C   0  0  0  0  0  0
  -19.1521  -28.8814   23.2872 C   0  0  0  0  0  0
  -18.9470  -30.1413   23.8890 C   0  0  0  0  0  0
  -17.6480  -30.6576   24.0543 C   0  0  0  0  0  0
  -25.9026  -34.9470   23.5135 C   0  0  0  0  0  0
  -16.5352  -29.9069   23.6347 C   0  0  0  0  0  0
  -16.7267  -28.6478   23.0369 C   0  0  0  0  0  0
  -26.4424  -31.6638   25.0763 C   0  0  0  0  0  0
  -25.3665  -31.3746   26.1502 C   0  0  0  0  0  0
  -27.0286  -30.3105   24.6113 C   0  0  0  0  0  0
  -27.6001  -32.4370   25.7515 C   0  0  0  0  0  0
  -27.5569  -37.1797   24.8448 C   0  0  0  0  0  0
  -21.4125  -29.3017   22.3705 N   0  0  0  0  0  0
  -26.4278  -37.3812   23.9412 N   0  0  0  0  0  0
  -24.6652  -31.0809   22.1030 N   0  0  0  0  0  0
  -23.4135  -28.8224   23.3063 O   0  0  0  0  0  0
  -28.3841  -26.7127   20.0978 O   0  0  0  0  0  0
  -26.5631  -34.8907   22.4713 O   0  0  0  0  0  0
  -23.5334  -32.1423   23.7557 O   0  0  0  0  0  0
  -26.6971  -19.1620   22.5411 C   0  0  0  0  0  0
  -29.1740  -19.8032   21.4256 C   0  0  0  0  0  0
  -27.8043  -18.3128   22.7933 C   0  0  0  0  0  0
  -29.0676  -18.6226   22.2091 C   0  0  0  0  0  0
  -26.8260  -20.3571   21.7970 C   0  0  0  0  0  0
  -28.0832  -20.6774   21.2403 C   0  0  0  0  0  0
  -26.4455  -16.4389   23.7883 C   0  0  0  0  0  0
  -27.5969  -17.1149   23.6401 C   0  0  0  0  0  0
  -30.2120  -15.5638   21.5204 C   0  0  0  0  0  0
  -23.8250  -22.4658   22.2557 C   0  0  0  0  0  0
  -31.6127  -18.5938   22.6102 C   0  0  0  0  0  0
  -28.2827  -24.2460   20.2723 C   0  0  0  0  0  0
  -24.7355  -21.2669   22.5451 C   0  0  0  0  0  0
  -28.3676  -25.6015   21.0054 C   0  0  0  0  0  0
  -28.3448  -23.0355   21.2297 C   0  0  0  0  0  0
  -30.3266  -17.7545   22.4523 C   0  0  2  0  0  0
  -30.5864  -16.7849   21.3922 N   0  0  0  0  0  0
  -25.7770  -21.2263   21.5716 O   0  0  0  0  0  0
  -28.2526  -21.8174   20.4865 O   0  0  0  0  0  0
  -31.4572  -12.3878   19.1369 H   0  0  0  0  0  0
  -30.2999  -11.2959   19.8259 H   0  0  0  0  0  0
  -29.7374  -11.8032   17.4338 H   0  0  0  0  0  0
  -29.6655  -13.5110   17.7939 H   0  0  0  0  0  0
  -27.8206  -11.3215   18.8071 H   0  0  0  0  0  0
  -27.3702  -12.6687   17.7909 H   0  0  0  0  0  0
  -27.7130  -14.2608   19.6031 H   0  0  0  0  0  0
  -28.6787  -11.9398   21.3389 H   0  0  0  0  0  0
  -28.4344  -13.5550   21.8976 H   0  0  0  0  0  0
  -25.2735   -9.5703   22.4768 H   0  0  0  0  0  0
  -23.9991   -7.4647   22.7496 H   0  0  0  0  0  0
  -21.0831   -8.8753   19.8967 H   0  0  0  0  0  0
  -22.3665  -10.9656   19.6170 H   0  0  0  0  0  0
  -21.1993   -7.6137   23.9705 H   0  0  0  0  0  0
  -21.1495   -6.0525   25.9079 H   0  0  0  0  0  0
  -22.0595   -2.7597   23.2865 H   0  0  0  0  0  0
  -22.4103  -11.9833   22.4708 H   0  0  0  0  0  0
  -21.1151  -13.1285   22.2628 H   0  0  0  0  0  0
  -24.6601  -15.8398   20.5045 H   0  0  0  0  0  0
  -26.2950  -15.6343   20.1322 H   0  0  0  0  0  0
  -26.7073  -32.5564   23.1192 H   0  0  0  0  0  0
  -24.9983  -33.9773   25.0451 H   0  0  0  0  0  0
  -22.6902  -31.3124   21.4122 H   0  0  0  0  0  0
  -23.3721  -35.9673   23.3310 H   0  0  0  0  0  0
  -24.3538  -36.8964   22.2056 H   0  0  0  0  0  0
  -23.7236  -37.6527   23.6673 H   0  0  0  0  0  0
  -26.0227  -31.6170   20.5883 H   0  0  0  0  0  0
  -26.8174  -30.9098   21.9675 H   0  0  0  0  0  0
  -28.1003  -29.1208   21.1670 H   0  0  0  0  0  0
  -26.0772  -25.9843   19.0091 H   0  0  0  0  0  0
  -23.9805  -27.2948   19.0320 H   0  0  0  0  0  0
  -23.7066  -30.6081   19.4066 H   0  0  0  0  0  0
  -22.7295  -29.2486   19.8748 H   0  0  0  0  0  0
  -25.1259  -36.1985   25.0830 H   0  0  0  0  0  0
  -20.9928  -28.3227   24.1445 H   0  0  0  0  0  0
  -20.5737  -26.2228   23.3582 H   0  0  0  0  0  0
  -21.6637  -26.7496   22.1150 H   0  0  0  0  0  0
  -19.6936  -25.6313   21.1210 H   0  0  0  0  0  0
  -19.6711  -27.3229   20.6763 H   0  0  0  0  0  0
  -17.4198  -26.6692   21.3972 H   0  0  0  0  0  0
  -18.0244  -26.0060   22.8993 H   0  0  0  0  0  0
  -19.7971  -30.7202   24.2242 H   0  0  0  0  0  0
  -17.5068  -31.6270   24.5140 H   0  0  0  0  0  0
  -15.5343  -30.2956   23.7724 H   0  0  0  0  0  0
  -15.8658  -28.0793   22.7102 H   0  0  0  0  0  0
  -24.5801  -30.7141   25.7814 H   0  0  0  0  0  0
  -24.8887  -32.2919   26.4994 H   0  0  0  0  0  0
  -25.7971  -30.8867   27.0250 H   0  0  0  0  0  0
  -26.2849  -29.6825   24.1190 H   0  0  0  0  0  0
  -27.4125  -29.7370   25.4551 H   0  0  0  0  0  0
  -27.8623  -30.4463   23.9199 H   0  0  0  0  0  0
  -27.2627  -33.3672   26.2095 H   0  0  0  0  0  0
  -28.3794  -32.6952   25.0334 H   0  0  0  0  0  0
  -28.0671  -31.8507   26.5444 H   0  0  0  0  0  0
  -28.2548  -38.0122   24.7545 H   0  0  0  0  0  0
  -28.1079  -36.2646   24.6209 H   0  0  0  0  0  0
  -27.2258  -37.1390   25.8835 H   0  0  0  0  0  0
  -20.9280  -29.8699   21.6906 H   0  0  0  0  0  0
  -26.0144  -38.2865   24.1497 H   0  0  0  0  0  0
  -25.7340  -18.8925   22.9504 H   0  0  0  0  0  0
  -30.1157  -20.0741   20.9758 H   0  0  0  0  0  0
  -26.3899  -15.5885   24.4530 H   0  0  0  0  0  0
  -25.5432  -16.7068   23.2576 H   0  0  0  0  0  0
  -28.4294  -16.7626   24.2295 H   0  0  0  0  0  0
  -29.5289  -15.3004   22.3301 H   0  0  0  0  0  0
  -24.3976  -23.3909   22.2188 H   0  0  0  0  0  0
  -23.0671  -22.5803   23.0356 H   0  0  0  0  0  0
  -23.3099  -22.3518   21.3022 H   0  0  0  0  0  0
  -31.5042  -19.3556   23.3827 H   0  0  0  0  0  0
  -31.9137  -19.0915   21.6882 H   0  0  0  0  0  0
  -32.4501  -17.9578   22.9017 H   0  0  0  0  0  0
  -29.0908  -24.1873   19.5405 H   0  0  0  0  0  0
  -27.3569  -24.1993   19.7030 H   0  0  0  0  0  0
  -24.1457  -20.3503   22.5196 H   0  0  0  0  0  0
  -25.1635  -21.3746   23.5435 H   0  0  0  0  0  0
  -29.2821  -25.6476   21.5981 H   0  0  0  0  0  0
  -27.5452  -25.6793   21.7203 H   0  0  0  0  0  0
  -27.5452  -23.1137   21.9685 H   0  0  0  0  0  0
  -29.2864  -23.0520   21.7829 H   0  0  0  0  0  0
  -30.2337  -17.2521   23.4144 H   0  0  0  0  0  0
  1 25  1  0  0  0
  1 30  2  0  0  0
  1 79  1  0  0  0
  2  3  1  0  0  0
  2 25  1  0  0  0
  2 90  1  0  0  0
  2 91  1  0  0  0
  3  4  1  0  0  0
  3 92  1  0  0  0
  3 93  1  0  0  0
  4  5  1  0  0  0
  4 94  1  0  0  0
  4 95  1  0  0  0
  5  6  1  0  0  0
  5 26  1  0  0  0
  5 96  1  0  0  0
  6 25  1  0  0  0
  6 97  1  0  0  0
  6 98  1  0  0  0
  7  8  2  0  0  0
  7 26  1  0  0  0
  7 29  1  0  0  0
  8  9  1  0  0  0
  8 22  1  0  0  0
  9 10  1  0  0  0
  9 27  2  0  0  0
 10 11  2  0  0  0
 10 15  1  0  0  0
 11 12  1  0  0  0
 11 99  1  0  0  0
 12 13  2  0  0  0
 12100  1  0  0  0
 13 14  1  0  0  0
 13 31  1  0  0  0
 14 15  2  0  0  0
 14101  1  0  0  0
 15102  1  0  0  0
 16 17  2  0  0  0
 16 21  1  0  0  0
 16 31  1  0  0  0
 17 18  1  0  0  0
 17103  1  0  0  0
 18 19  2  0  0  0
 18104  1  0  0  0
 19 20  1  0  0  0
 19 24  1  0  0  0
 20 21  2  0  0  0
 20105  1  0  0  0
 21 23  1  0  0  0
 22 28  1  0  0  0
 22 32  2  0  0  0
 26 27  1  0  0  0
 28106  1  0  0  0
 28107  1  0  0  0
 29108  1  0  0  0
 29109  1  0  0  0
 33 34  1  0  0  0
 33 66  1  0  0  0
 33 70  2  0  0  0
 34 36  1  0  0  0
 34 59  1  0  0  0
 34110  1  0  0  0
 35 44  2  0  0  0
 35 45  1  0  0  0
 35 68  1  0  0  0
 36 56  1  0  0  0
 36111  1  0  0  0
 37 39  1  0  0  0
 37 47  1  0  0  0
 37 66  1  0  0  0
 37112  1  0  0  0
 38 43  2  0  0  0
 38 46  1  0  0  0
 38 47  1  0  0  0
 39 64  1  0  0  0
 39 67  2  0  0  0
 40 52  1  0  0  0
 40 53  2  0  0  0
 40 58  1  0  0  0
 41113  1  0  0  0
 41114  1  0  0  0
 41115  1  0  0  0
 41 48  1  0  0  0
 42 43  1  0  0  0
 42 66  1  0  0  0
 42116  1  0  0  0
 42117  1  0  0  0
 43 44  1  0  0  0
 44118  1  0  0  0
 45 46  2  0  0  0
 45119  1  0  0  0
 46120  1  0  0  0
 47121  1  0  0  0
 47122  1  0  0  0
 48 56  1  0  0  0
 48 65  1  0  0  0
 48123  1  0  0  0
 49 50  1  0  0  0
 49 53  1  0  0  0
 49 64  1  0  0  0
 49124  1  0  0  0
 50 51  1  0  0  0
 50125  1  0  0  0
 50126  1  0  0  0
 51 52  1  0  0  0
 51127  1  0  0  0
 51128  1  0  0  0
 52129  1  0  0  0
 52130  1  0  0  0
 53 54  1  0  0  0
 54 55  2  0  0  0
 54131  1  0  0  0
 55 57  1  0  0  0
 55132  1  0  0  0
 56 69  2  0  0  0
 57 58  2  0  0  0
 57133  1  0  0  0
 58134  1  0  0  0
 59 60  1  0  0  0
 59 61  1  0  0  0
 59 62  1  0  0  0
 60135  1  0  0  0
 60136  1  0  0  0
 60137  1  0  0  0
 61138  1  0  0  0
 61139  1  0  0  0
 61140  1  0  0  0
 62141  1  0  0  0
 62142  1  0  0  0
 62143  1  0  0  0
 63 65  1  0  0  0
 63144  1  0  0  0
 63145  1  0  0  0
 63146  1  0  0  0
 64147  1  0  0  0
 65148  1  0  0  0
 68 84  1  0  0  0
 71 73  2  0  0  0
 71 75  1  0  0  0
 71149  1  0  0  0
 72 74  2  0  0  0
 72 76  1  0  0  0
 72150  1  0  0  0
 73 74  1  0  0  0
 73 78  1  0  0  0
 74 86  1  0  0  0
 75 76  2  0  0  0
 75 88  1  0  0  0
 76 89  1  0  0  0
 77 78  2  0  0  0
 77151  1  0  0  0
 77152  1  0  0  0
 78153  1  0  0  0
 79 87  2  0  0  0
 79154  1  0  0  0
 80 83  1  0  0  0
 80155  1  0  0  0
 80156  1  0  0  0
 80157  1  0  0  0
 81158  1  0  0  0
 81159  1  0  0  0
 81160  1  0  0  0
 81 86  1  0  0  0
 82 84  1  0  0  0
 82 85  1  0  0  0
 82161  1  0  0  0
 82162  1  0  0  0
 83 88  1  0  0  0
 83163  1  0  0  0
 83164  1  0  0  0
 84165  1  0  0  0
 84166  1  0  0  0
 85 89  1  0  0  0
 85167  1  0  0  0
 85168  1  0  0  0
 86 87  1  0  0  0
 86169  1  0  0  0
M  ISO  4   1 100  68 101  79 100  84 101
M  END
> <chiral flag>
0

> <version>
0

> <s_m_source_file>
/data/baiqing/PycharmProjects/Reinvent-master-3.2/result/LINK_invent/BTK/process_docking_weight1_custom_product_contain_oxygen_bond_distance_aromatic_linkinvent_7_9_3/rearranged_h_0114.sdf

> <i_m_source_file_index>
65

> <r_mmod_Potential_Energy-OPLS-2005>
58.965217590332

> <r_mmod_Stretch_Energy-OPLS-2005>
43.5911750793457

> <r_mmod_Bend_Energy-OPLS-2005>
111.967849731445

> <r_mmod_Torsional_Energy-OPLS-2005>
246.804214477539

> <r_mmod_Improper_Torsional_Energy-OPLS-2005>
2.28750228881836

> <r_mmod_Van_der_Waal_Energy-OPLS-2005>
153.167434692383

> <r_mmod_Electrostatic_Energy-OPLS-2005>
-293.431701660156

> <r_mmod_Solvation_Energy-OPLS-2005>
-216.030990600586

> <b_mmod_Minimization_Converged-OPLS-2005>
0

> <r_mmod_RMS_Derivative-OPLS-2005>
4.32938718795776

$$$$
65
                    3D
 Structure written by MMmdl.
161170  0  0  1  0            999 V2000
  -30.5330  -15.0579   20.4097 C   0  0  0  0  0  0
  -30.4291  -12.6710   19.4920 C   0  0  0  0  0  0
  -29.5143  -12.5339   18.2552 C   0  0  0  0  0  0
  -28.0544  -12.3020   18.6851 C   0  0  0  0  0  0
  -27.6153  -13.2581   19.8250 C   0  0  2  0  0  0
  -28.6603  -13.3587   20.9534 C   0  0  0  0  0  0
  -25.2414  -13.8229   20.5748 C   0  0  0  0  0  0
  -24.1742  -13.0434   20.9237 C   0  0  0  0  0  0
  -24.6375  -11.6925   20.8765 C   0  0  0  0  0  0
  -23.9073  -10.4289   21.0411 C   0  0  0  0  0  0
  -24.3620   -9.4202   21.9186 C   0  0  0  0  0  0
  -23.6293   -8.2238   22.0754 C   0  0  0  0  0  0
  -22.4276   -8.0272   21.3540 C   0  0  0  0  0  0
  -21.9912   -9.0248   20.4644 C   0  0  0  0  0  0
  -22.7247  -10.2127   20.3055 C   0  0  0  0  0  0
  -21.6854   -6.0729   22.5278 C   0  0  0  0  0  0
  -21.4018   -6.5638   23.8212 C   0  0  0  0  0  0
  -21.3663   -5.6791   24.9177 C   0  0  0  0  0  0
  -21.6046   -4.3052   24.7229 C   0  0  0  0  0  0
  -21.8817   -3.8140   23.4349 C   0  0  0  0  0  0
  -21.9193   -4.6955   22.3405 C   0  0  0  0  0  0
  -22.7767  -13.5198   21.1880 C   0  0  0  0  0  0
  -22.1659   -4.2140   21.0983 F   0  0  0  0  0  0
  -21.5628   -3.4538   25.7743 F   0  0  0  0  0  0
  -29.9079  -13.8047   20.3206 N   0  0  0  0  0  0
  -26.2826  -12.9474   20.3234 N   0  0  0  0  0  0
  -25.9312  -11.6593   20.5748 N   0  0  0  0  0  0
  -22.0425  -12.8184   22.0440 N   0  0  0  0  0  0
  -25.4082  -15.1963   20.4219 N   0  0  0  0  0  0
  -31.7521  -15.0411   20.1951 O   0  0  0  0  0  0
  -21.6641   -6.8867   21.4234 O   0  0  0  0  0  0
  -22.3456  -14.5503   20.6722 O   0  0  0  0  0  0
  -24.6512  -31.8376   23.1788 C   0  0  0  0  0  0
  -25.9252  -32.4657   23.8219 C   0  0  1  0  0  0
  -27.2115  -27.0569   20.1755 C   0  0  0  0  0  0
  -25.5982  -33.8467   24.2155 N   0  0  0  0  0  0
  -23.4560  -30.4534   21.5274 C   0  0  2  0  0  0
  -24.9028  -28.8552   20.1214 C   0  0  0  0  0  0
  -22.7597  -29.4527   22.4847 C   0  0  0  0  0  0
  -18.0313  -28.1402   22.8489 C   0  0  0  0  0  0
  -24.1496  -36.7225   23.2644 C   0  0  0  0  0  0
  -26.0171  -30.6892   21.3819 C   0  0  0  0  0  0
  -26.0851  -29.2875   20.7359 C   0  0  0  0  0  0
  -27.2417  -28.4092   20.7334 C   0  0  0  0  0  0
  -25.9992  -26.7336   19.5332 C   0  0  0  0  0  0
  -24.8763  -27.5932   19.5051 C   0  0  0  0  0  0
  -23.6845  -29.7700   20.1525 C   0  0  0  0  0  0
  -25.4128  -36.3004   24.0314 C   0  0  1  0  0  0
  -20.5935  -28.3725   23.1237 C   0  0  2  0  0  0
  -20.6797  -26.9421   22.5408 C   0  0  0  0  0  0
  -19.5767  -26.6390   21.5222 C   0  0  0  0  0  0
  -18.1948  -26.7949   22.1625 C   0  0  0  0  0  0
  -19.1573  -28.8886   23.2862 C   0  0  0  0  0  0
  -18.9484  -30.1485   23.8875 C   0  0  0  0  0  0
  -17.6477  -30.6597   24.0560 C   0  0  0  0  0  0
  -25.9086  -34.9382   23.5041 C   0  0  0  0  0  0
  -16.5373  -29.9079   23.6334 C   0  0  0  0  0  0
  -16.7297  -28.6502   23.0357 C   0  0  0  0  0  0
  -26.4535  -31.6533   25.0681 C   0  0  0  0  0  0
  -25.3689  -31.3731   26.1349 C   0  0  0  0  0  0
  -27.0371  -30.2917   24.6273 C   0  0  0  0  0  0
  -27.6080  -32.4275   25.7468 C   0  0  0  0  0  0
  -27.5565  -37.1770   24.8474 C   0  0  0  0  0  0
  -21.4281  -29.3049   22.3605 N   0  0  0  0  0  0
  -26.4274  -37.3732   23.9419 N   0  0  0  0  0  0
  -24.7293  -31.0175   22.0842 N   0  0  0  0  0  0
  -23.4218  -28.8090   23.3022 O   0  0  0  0  0  0
  -28.2823  -26.0730   20.1245 O   0  0  0  0  0  0
  -26.5672  -34.8903   22.4620 O   0  0  0  0  0  0
  -23.5611  -32.1279   23.6965 O   0  0  0  0  0  0
  -31.7271  -18.1708   23.1422 C   0  0  0  0  0  0
  -31.1137  -17.3108   22.2311 C   0  0  0  0  0  0
  -30.6306  -20.0138   22.0726 C   0  0  0  0  0  0
  -29.9380  -19.2264   21.1031 C   0  0  0  0  0  0
  -31.4902  -19.5334   23.0621 C   0  0  0  0  0  0
  -30.2398  -17.6905   21.1653 C   0  0  0  0  0  0
  -29.1478  -20.2862   20.1546 C   0  0  0  0  0  0
  -26.4015  -21.9763   21.1014 C   0  0  0  0  0  0
  -26.7557  -22.6697   19.7750 C   0  0  0  0  0  0
  -27.7429  -21.5308   21.7170 C   0  0  0  0  0  0
  -28.2433  -22.9945   19.9317 C   0  0  1  0  0  0
  -32.1462  -20.4868   24.0415 C   0  0  0  0  0  0
  -28.2833  -24.5729   20.6595 C   0  0  0  0  0  0
  -28.7013  -21.6025   20.6164 N   0  0  0  0  0  0
  -29.8336  -16.3362   20.4936 N   0  0  0  0  0  0
  -29.0211  -19.9856   18.9657 O   0  0  0  0  0  0
  -31.4580  -12.8357   19.1674 H   0  0  0  0  0  0
  -30.4471  -11.7442   20.0674 H   0  0  0  0  0  0
  -29.8539  -11.7147   17.6197 H   0  0  0  0  0  0
  -29.5784  -13.4402   17.6516 H   0  0  0  0  0  0
  -27.9742  -11.2675   19.0207 H   0  0  0  0  0  0
  -27.3847  -12.3967   17.8296 H   0  0  0  0  0  0
  -27.5543  -14.2443   19.3628 H   0  0  0  0  0  0
  -28.7861  -12.4039   21.4659 H   0  0  0  0  0  0
  -28.3428  -14.0818   21.7066 H   0  0  0  0  0  0
  -25.2765   -9.5684   22.4765 H   0  0  0  0  0  0
  -24.0004   -7.4631   22.7477 H   0  0  0  0  0  0
  -21.0845   -8.8757   19.8955 H   0  0  0  0  0  0
  -22.3696  -10.9656   19.6160 H   0  0  0  0  0  0
  -21.2014   -7.6148   23.9712 H   0  0  0  0  0  0
  -21.1489   -6.0526   25.9079 H   0  0  0  0  0  0
  -22.0595   -2.7599   23.2856 H   0  0  0  0  0  0
  -22.4060  -11.9850   22.4826 H   0  0  0  0  0  0
  -21.1037  -13.1183   22.2642 H   0  0  0  0  0  0
  -24.6424  -15.8492   20.5474 H   0  0  0  0  0  0
  -26.2620  -15.6421   20.1144 H   0  0  0  0  0  0
  -26.7314  -32.5234   23.0941 H   0  0  0  0  0  0
  -25.0135  -33.9578   25.0304 H   0  0  0  0  0  0
  -22.7616  -31.2796   21.3630 H   0  0  0  0  0  0
  -23.3774  -35.9539   23.3279 H   0  0  0  0  0  0
  -24.3583  -36.8874   22.2064 H   0  0  0  0  0  0
  -23.7238  -37.6405   23.6694 H   0  0  0  0  0  0
  -26.1697  -31.4322   20.5975 H   0  0  0  0  0  0
  -26.8910  -30.7511   22.0201 H   0  0  0  0  0  0
  -28.1531  -28.7496   21.2041 H   0  0  0  0  0  0
  -25.9104  -25.7722   19.0490 H   0  0  0  0  0  0
  -23.9738  -27.2567   19.0130 H   0  0  0  0  0  0
  -23.8273  -30.5354   19.3890 H   0  0  0  0  0  0
  -22.7965  -29.2148   19.8439 H   0  0  0  0  0  0
  -25.1320  -36.1803   25.0805 H   0  0  0  0  0  0
  -21.0045  -28.3309   24.1355 H   0  0  0  0  0  0
  -20.5697  -26.2333   23.3627 H   0  0  0  0  0  0
  -21.6656  -26.7426   22.1191 H   0  0  0  0  0  0
  -19.6923  -25.6299   21.1246 H   0  0  0  0  0  0
  -19.6701  -27.3207   20.6758 H   0  0  0  0  0  0
  -17.4220  -26.6723   21.4016 H   0  0  0  0  0  0
  -18.0315  -26.0092   22.9017 H   0  0  0  0  0  0
  -19.7957  -30.7322   24.2225 H   0  0  0  0  0  0
  -17.5019  -31.6269   24.5168 H   0  0  0  0  0  0
  -15.5368  -30.2969   23.7677 H   0  0  0  0  0  0
  -15.8703  -28.0810   22.7081 H   0  0  0  0  0  0
  -24.5955  -30.6976   25.7677 H   0  0  0  0  0  0
  -24.8772  -32.2896   26.4622 H   0  0  0  0  0  0
  -25.7975  -30.9032   27.0218 H   0  0  0  0  0  0
  -26.2978  -29.6661   24.1263 H   0  0  0  0  0  0
  -27.3962  -29.7204   25.4848 H   0  0  0  0  0  0
  -27.8902  -30.4137   23.9598 H   0  0  0  0  0  0
  -27.2743  -33.3680   26.1868 H   0  0  0  0  0  0
  -28.4004  -32.6644   25.0351 H   0  0  0  0  0  0
  -28.0601  -31.8462   26.5520 H   0  0  0  0  0  0
  -28.2575  -38.0073   24.7525 H   0  0  0  0  0  0
  -28.1068  -36.2606   24.6294 H   0  0  0  0  0  0
  -27.2278  -37.1398   25.8874 H   0  0  0  0  0  0
  -20.9505  -29.8725   21.6743 H   0  0  0  0  0  0
  -26.0122  -38.2788   24.1440 H   0  0  0  0  0  0
  -32.3802  -17.7691   23.9049 H   0  0  0  0  0  0
  -31.3611  -16.2807   22.4319 H   0  0  0  0  0  0
  -30.5343  -21.0900   22.0794 H   0  0  0  0  0  0
  -25.7422  -21.1253   20.9229 H   0  0  0  0  0  0
  -25.8810  -22.6523   21.7811 H   0  0  0  0  0  0
  -26.1302  -23.5406   19.5775 H   0  0  0  0  0  0
  -26.6141  -21.9776   18.9430 H   0  0  0  0  0  0
  -27.6570  -20.5452   22.1795 H   0  0  0  0  0  0
  -28.0611  -22.2183   22.5029 H   0  0  0  0  0  0
  -28.7278  -23.0572   18.9568 H   0  0  0  0  0  0
  -33.1300  -20.1249   24.3410 H   0  0  0  0  0  0
  -31.5327  -20.5838   24.9381 H   0  0  0  0  0  0
  -32.2742  -21.4782   23.6062 H   0  0  0  0  0  0
  -29.2199  -24.5539   21.2155 H   0  0  0  0  0  0
  -27.5328  -24.5720   21.4500 H   0  0  0  0  0  0
  -28.8542  -16.2690   20.2610 H   0  0  0  0  0  0
  1 25  1  0  0  0
  1 30  2  0  0  0
  1 85  1  0  0  0
  2  3  1  0  0  0
  2 25  1  0  0  0
  2 87  1  0  0  0
  2 88  1  0  0  0
  3  4  1  0  0  0
  3 89  1  0  0  0
  3 90  1  0  0  0
  4  5  1  0  0  0
  4 91  1  0  0  0
  4 92  1  0  0  0
  5  6  1  0  0  0
  5 26  1  0  0  0
  5 93  1  0  0  0
  6 25  1  0  0  0
  6 94  1  0  0  0
  6 95  1  0  0  0
  7  8  2  0  0  0
  7 26  1  0  0  0
  7 29  1  0  0  0
  8  9  1  0  0  0
  8 22  1  0  0  0
  9 10  1  0  0  0
  9 27  2  0  0  0
 10 11  2  0  0  0
 10 15  1  0  0  0
 11 12  1  0  0  0
 11 96  1  0  0  0
 12 13  2  0  0  0
 12 97  1  0  0  0
 13 14  1  0  0  0
 13 31  1  0  0  0
 14 15  2  0  0  0
 14 98  1  0  0  0
 15 99  1  0  0  0
 16 17  2  0  0  0
 16 21  1  0  0  0
 16 31  1  0  0  0
 17 18  1  0  0  0
 17100  1  0  0  0
 18 19  2  0  0  0
 18101  1  0  0  0
 19 20  1  0  0  0
 19 24  1  0  0  0
 20 21  2  0  0  0
 20102  1  0  0  0
 21 23  1  0  0  0
 22 28  1  0  0  0
 22 32  2  0  0  0
 26 27  1  0  0  0
 28103  1  0  0  0
 28104  1  0  0  0
 29105  1  0  0  0
 29106  1  0  0  0
 33 34  1  0  0  0
 33 66  1  0  0  0
 33 70  2  0  0  0
 34 36  1  0  0  0
 34 59  1  0  0  0
 34107  1  0  0  0
 35 44  2  0  0  0
 35 45  1  0  0  0
 35 68  1  0  0  0
 36 56  1  0  0  0
 36108  1  0  0  0
 37 39  1  0  0  0
 37 47  1  0  0  0
 37 66  1  0  0  0
 37109  1  0  0  0
 38 43  2  0  0  0
 38 46  1  0  0  0
 38 47  1  0  0  0
 39 64  1  0  0  0
 39 67  2  0  0  0
 40 52  1  0  0  0
 40 53  2  0  0  0
 40 58  1  0  0  0
 41110  1  0  0  0
 41111  1  0  0  0
 41112  1  0  0  0
 41 48  1  0  0  0
 42 43  1  0  0  0
 42 66  1  0  0  0
 42113  1  0  0  0
 42114  1  0  0  0
 43 44  1  0  0  0
 44115  1  0  0  0
 45 46  2  0  0  0
 45116  1  0  0  0
 46117  1  0  0  0
 47118  1  0  0  0
 47119  1  0  0  0
 48 56  1  0  0  0
 48 65  1  0  0  0
 48120  1  0  0  0
 49 50  1  0  0  0
 49 53  1  0  0  0
 49 64  1  0  0  0
 49121  1  0  0  0
 50 51  1  0  0  0
 50122  1  0  0  0
 50123  1  0  0  0
 51 52  1  0  0  0
 51124  1  0  0  0
 51125  1  0  0  0
 52126  1  0  0  0
 52127  1  0  0  0
 53 54  1  0  0  0
 54 55  2  0  0  0
 54128  1  0  0  0
 55 57  1  0  0  0
 55129  1  0  0  0
 56 69  2  0  0  0
 57 58  2  0  0  0
 57130  1  0  0  0
 58131  1  0  0  0
 59 60  1  0  0  0
 59 61  1  0  0  0
 59 62  1  0  0  0
 60132  1  0  0  0
 60133  1  0  0  0
 60134  1  0  0  0
 61135  1  0  0  0
 61136  1  0  0  0
 61137  1  0  0  0
 62138  1  0  0  0
 62139  1  0  0  0
 62140  1  0  0  0
 63 65  1  0  0  0
 63141  1  0  0  0
 63142  1  0  0  0
 63143  1  0  0  0
 64144  1  0  0  0
 65145  1  0  0  0
 68 83  1  0  0  0
 71 72  2  0  0  0
 71 75  1  0  0  0
 71146  1  0  0  0
 72 76  1  0  0  0
 72147  1  0  0  0
 73 74  1  0  0  0
 73 75  2  0  0  0
 73148  1  0  0  0
 74 76  2  0  0  0
 74 77  1  0  0  0
 75 82  1  0  0  0
 76 85  1  0  0  0
 77 84  1  0  0  0
 77 86  2  0  0  0
 78 79  1  0  0  0
 78 80  1  0  0  0
 78149  1  0  0  0
 78150  1  0  0  0
 79 81  1  0  0  0
 79151  1  0  0  0
 79152  1  0  0  0
 80 84  1  0  0  0
 80153  1  0  0  0
 80154  1  0  0  0
 81 83  1  0  0  0
 81 84  1  0  0  0
 81155  1  0  0  0
 82156  1  0  0  0
 82157  1  0  0  0
 82158  1  0  0  0
 83159  1  0  0  0
 83160  1  0  0  0
 85161  1  0  0  0
M  ISO  4   1 100  68 101  83 101  85 100
M  END
> <chiral flag>
0

> <version>
0

> <s_m_source_file>
/data/baiqing/PycharmProjects/Reinvent-master-3.2/result/LINK_invent/BTK/process_docking_weight1_custom_product_contain_oxygen_bond_distance_aromatic_linkinvent_7_9_3/rearranged_h_0114.sdf

> <i_m_source_file_index>
66

> <r_mmod_Potential_Energy-OPLS-2005>
1153.07092285156

> <r_mmod_Stretch_Energy-OPLS-2005>
403.663391113281

> <r_mmod_Bend_Energy-OPLS-2005>
467.998718261719

> <r_mmod_Torsional_Energy-OPLS-2005>
381.603088378906

> <r_mmod_Improper_Torsional_Energy-OPLS-2005>
11.2655487060547

> <r_mmod_Van_der_Waal_Energy-OPLS-2005>
144.500335693359

> <r_mmod_Electrostatic_Energy-OPLS-2005>
-292.522583007812

> <r_mmod_Solvation_Energy-OPLS-2005>
-227.728897094727

> <b_mmod_Minimization_Converged-OPLS-2005>
0

> <r_mmod_RMS_Derivative-OPLS-2005>
1.65096282958984

$$$$
66
                    3D
 Structure written by MMmdl.
165174  0  0  1  0            999 V2000
  -30.5130  -14.9657   20.4348 C   0  0  0  0  0  0
  -30.4560  -12.6004   19.5009 C   0  0  0  0  0  0
  -29.5330  -12.5405   18.2593 C   0  0  0  0  0  0
  -28.0654  -12.3147   18.6708 C   0  0  0  0  0  0
  -27.6353  -13.2347   19.8426 C   0  0  2  0  0  0
  -28.6801  -13.2517   20.9812 C   0  0  0  0  0  0
  -25.2401  -13.7884   20.5550 C   0  0  0  0  0  0
  -24.1740  -13.0228   20.9213 C   0  0  0  0  0  0
  -24.6400  -11.6752   20.8760 C   0  0  0  0  0  0
  -23.9067  -10.4188   21.0399 C   0  0  0  0  0  0
  -24.3615   -9.4131   21.9183 C   0  0  0  0  0  0
  -23.6277   -8.2190   22.0762 C   0  0  0  0  0  0
  -22.4265   -8.0244   21.3544 C   0  0  0  0  0  0
  -21.9889   -9.0215   20.4650 C   0  0  0  0  0  0
  -22.7237  -10.2071   20.3047 C   0  0  0  0  0  0
  -21.6849   -6.0712   22.5269 C   0  0  0  0  0  0
  -21.4008   -6.5618   23.8199 C   0  0  0  0  0  0
  -21.3650   -5.6770   24.9157 C   0  0  0  0  0  0
  -21.6053   -4.3038   24.7205 C   0  0  0  0  0  0
  -21.8833   -3.8127   23.4328 C   0  0  0  0  0  0
  -21.9196   -4.6944   22.3383 C   0  0  0  0  0  0
  -22.7781  -13.5096   21.1870 C   0  0  0  0  0  0
  -22.1670   -4.2131   21.0965 F   0  0  0  0  0  0
  -21.5620   -3.4521   25.7720 F   0  0  0  0  0  0
  -29.9574  -13.6854   20.3948 N   0  0  0  0  0  0
  -26.2922  -12.9227   20.3234 N   0  0  0  0  0  0
  -25.9362  -11.6381   20.5783 N   0  0  0  0  0  0
  -22.0391  -12.8161   22.0456 N   0  0  0  0  0  0
  -25.3866  -15.1449   20.3646 N   0  0  0  0  0  0
  -31.7059  -15.0782   20.1298 O   0  0  0  0  0  0
  -21.6624   -6.8848   21.4240 O   0  0  0  0  0  0
  -22.3511  -14.5425   20.6714 O   0  0  0  0  0  0
  -24.6395  -31.8451   23.1888 C   0  0  0  0  0  0
  -25.9175  -32.4694   23.8277 C   0  0  1  0  0  0
  -27.2443  -27.1741   20.1644 C   0  0  0  0  0  0
  -25.5932  -33.8501   24.2193 N   0  0  0  0  0  0
  -23.4433  -30.4601   21.5336 C   0  0  2  0  0  0
  -24.8999  -28.8868   20.1167 C   0  0  0  0  0  0
  -22.7566  -29.4519   22.4880 C   0  0  0  0  0  0
  -18.0299  -28.1414   22.8467 C   0  0  0  0  0  0
  -24.1490  -36.7263   23.2640 C   0  0  0  0  0  0
  -25.9953  -30.7340   21.3798 C   0  0  0  0  0  0
  -26.0726  -29.3456   20.7284 C   0  0  0  0  0  0
  -27.2461  -28.5073   20.7303 C   0  0  0  0  0  0
  -26.0426  -26.8009   19.5216 C   0  0  0  0  0  0
  -24.8949  -27.6264   19.4969 C   0  0  0  0  0  0
  -23.6711  -29.7826   20.1549 C   0  0  0  0  0  0
  -25.4115  -36.3025   24.0313 C   0  0  1  0  0  0
  -20.5909  -28.3703   23.1258 C   0  0  2  0  0  0
  -20.6783  -26.9410   22.5411 C   0  0  0  0  0  0
  -19.5757  -26.6386   21.5218 C   0  0  0  0  0  0
  -18.1937  -26.7950   22.1626 C   0  0  0  0  0  0
  -19.1556  -28.8885   23.2850 C   0  0  0  0  0  0
  -18.9474  -30.1493   23.8854 C   0  0  0  0  0  0
  -17.6466  -30.6599   24.0568 C   0  0  0  0  0  0
  -25.9069  -34.9401   23.5069 C   0  0  0  0  0  0
  -16.5359  -29.9088   23.6346 C   0  0  0  0  0  0
  -16.7281  -28.6528   23.0325 C   0  0  0  0  0  0
  -26.4512  -31.6551   25.0702 C   0  0  0  0  0  0
  -25.3709  -31.3740   26.1412 C   0  0  0  0  0  0
  -27.0375  -30.2950   24.6245 C   0  0  0  0  0  0
  -27.6043  -32.4314   25.7490 C   0  0  0  0  0  0
  -27.5574  -37.1784   24.8459 C   0  0  0  0  0  0
  -21.4261  -29.3023   22.3643 N   0  0  0  0  0  0
  -26.4279  -37.3732   23.9413 N   0  0  0  0  0  0
  -24.7121  -31.0333   22.0899 N   0  0  0  0  0  0
  -23.4231  -28.8069   23.3020 O   0  0  0  0  0  0
  -28.3499  -26.2566   20.1808 O   0  0  0  0  0  0
  -26.5651  -34.8895   22.4641 O   0  0  0  0  0  0
  -23.5518  -32.1302   23.7125 O   0  0  0  0  0  0
  -30.5959  -19.9690   20.1312 C   0  0  0  0  0  0
  -30.6869  -18.5118   20.1373 C   0  0  0  0  0  0
  -28.4596  -19.8756   21.1446 C   0  0  0  0  0  0
  -28.5083  -18.4134   21.0581 C   0  0  0  0  0  0
  -29.4850  -20.7368   20.6388 C   0  0  0  0  0  0
  -29.6549  -17.6320   20.6136 C   0  0  0  0  0  0
  -30.2731  -22.5831   22.0041 C   0  0  0  0  0  0
  -26.5830  -21.5409   21.3330 C   0  0  0  0  0  0
  -27.3189  -20.5311   21.8300 C   0  0  0  0  0  0
  -30.9138  -23.9497   21.8451 C   0  0  0  0  0  0
  -30.6775  -24.2394   20.3671 C   0  0  0  0  0  0
  -29.3302  -23.5593   20.0993 C   0  0  2  0  0  0
  -26.0938  -18.0243   20.4053 C   0  0  0  0  0  0
  -27.2131  -17.6937   21.4181 C   0  0  0  0  0  0
  -28.1987  -24.7436   20.4740 C   0  0  0  0  0  0
  -29.5126  -22.2406   20.9428 N   0  0  0  0  0  0
  -29.6567  -16.0835   20.6522 N   0  0  0  0  0  0
  -30.4764  -21.8928   23.0085 O   0  0  0  0  0  0
  -31.4875  -12.7745   19.1903 H   0  0  0  0  0  0
  -30.4616  -11.6435   20.0253 H   0  0  0  0  0  0
  -29.8617  -11.7478   17.5856 H   0  0  0  0  0  0
  -29.6133  -13.4739   17.6988 H   0  0  0  0  0  0
  -27.9657  -11.2709   18.9672 H   0  0  0  0  0  0
  -27.4037  -12.4515   17.8144 H   0  0  0  0  0  0
  -27.5970  -14.2403   19.4227 H   0  0  0  0  0  0
  -28.7759  -12.2668   21.4403 H   0  0  0  0  0  0
  -28.3729  -13.9293   21.7790 H   0  0  0  0  0  0
  -25.2766   -9.5616   22.4743 H   0  0  0  0  0  0
  -23.9972   -7.4597   22.7504 H   0  0  0  0  0  0
  -21.0799   -8.8754   19.8977 H   0  0  0  0  0  0
  -22.3714  -10.9613   19.6145 H   0  0  0  0  0  0
  -21.2010   -7.6129   23.9689 H   0  0  0  0  0  0
  -21.1456   -6.0503   25.9059 H   0  0  0  0  0  0
  -22.0628   -2.7596   23.2825 H   0  0  0  0  0  0
  -22.3962  -11.9840   22.4908 H   0  0  0  0  0  0
  -21.1027  -13.1245   22.2631 H   0  0  0  0  0  0
  -24.5972  -15.7750   20.4522 H   0  0  0  0  0  0
  -26.2057  -15.5880   19.9726 H   0  0  0  0  0  0
  -26.7244  -32.5323   23.1016 H   0  0  0  0  0  0
  -25.0035  -33.9615   25.0310 H   0  0  0  0  0  0
  -22.7423  -31.2832   21.3779 H   0  0  0  0  0  0
  -23.3746  -35.9603   23.3278 H   0  0  0  0  0  0
  -24.3572  -36.8916   22.2060 H   0  0  0  0  0  0
  -23.7271  -37.6458   23.6698 H   0  0  0  0  0  0
  -26.1381  -31.4882   20.6050 H   0  0  0  0  0  0
  -26.8690  -30.7902   22.0166 H   0  0  0  0  0  0
  -28.1461  -28.8633   21.2116 H   0  0  0  0  0  0
  -25.9757  -25.8411   19.0309 H   0  0  0  0  0  0
  -24.0001  -27.2731   19.0031 H   0  0  0  0  0  0
  -23.8050  -30.5547   19.3964 H   0  0  0  0  0  0
  -22.7887  -29.2188   19.8461 H   0  0  0  0  0  0
  -25.1315  -36.1833   25.0806 H   0  0  0  0  0  0
  -20.9988  -28.3288   24.1386 H   0  0  0  0  0  0
  -20.5684  -26.2315   23.3624 H   0  0  0  0  0  0
  -21.6652  -26.7432   22.1206 H   0  0  0  0  0  0
  -19.6908  -25.6290   21.1263 H   0  0  0  0  0  0
  -19.6704  -27.3192   20.6743 H   0  0  0  0  0  0
  -17.4210  -26.6682   21.4027 H   0  0  0  0  0  0
  -18.0328  -26.0118   22.9049 H   0  0  0  0  0  0
  -19.7944  -30.7337   24.2188 H   0  0  0  0  0  0
  -17.5008  -31.6265   24.5194 H   0  0  0  0  0  0
  -15.5351  -30.2969   23.7703 H   0  0  0  0  0  0
  -15.8686  -28.0860   22.7003 H   0  0  0  0  0  0
  -24.5867  -30.7102   25.7745 H   0  0  0  0  0  0
  -24.8918  -32.2928   26.4808 H   0  0  0  0  0  0
  -25.7997  -30.8933   27.0213 H   0  0  0  0  0  0
  -26.2990  -29.6670   24.1244 H   0  0  0  0  0  0
  -27.4005  -29.7234   25.4797 H   0  0  0  0  0  0
  -27.8885  -30.4199   23.9542 H   0  0  0  0  0  0
  -27.2627  -33.3623   26.2033 H   0  0  0  0  0  0
  -28.3874  -32.6859   25.0335 H   0  0  0  0  0  0
  -28.0689  -31.8461   26.5434 H   0  0  0  0  0  0
  -28.2577  -38.0092   24.7497 H   0  0  0  0  0  0
  -28.1083  -36.2620   24.6291 H   0  0  0  0  0  0
  -27.2291  -37.1440   25.8860 H   0  0  0  0  0  0
  -20.9478  -29.8748   21.6826 H   0  0  0  0  0  0
  -26.0135  -38.2795   24.1411 H   0  0  0  0  0  0
  -31.4595  -20.5149   19.7797 H   0  0  0  0  0  0
  -31.5965  -18.0676   19.7588 H   0  0  0  0  0  0
  -25.7761  -21.9765   21.9048 H   0  0  0  0  0  0
  -26.7712  -21.9423   20.3476 H   0  0  0  0  0  0
  -27.0874  -20.1713   22.8238 H   0  0  0  0  0  0
  -31.9718  -23.9350   22.1051 H   0  0  0  0  0  0
  -30.4043  -24.6666   22.4889 H   0  0  0  0  0  0
  -31.4606  -23.7762   19.7646 H   0  0  0  0  0  0
  -30.6900  -25.3052   20.1402 H   0  0  0  0  0  0
  -29.2522  -23.3126   19.0406 H   0  0  0  0  0  0
  -25.1302  -17.6574   20.7534 H   0  0  0  0  0  0
  -26.3040  -17.5837   19.4306 H   0  0  0  0  0  0
  -25.9507  -19.0889   20.2385 H   0  0  0  0  0  0
  -26.9038  -17.9722   22.4248 H   0  0  0  0  0  0
  -27.3550  -16.6176   21.4702 H   0  0  0  0  0  0
  -28.0512  -24.7016   21.5534 H   0  0  0  0  0  0
  -27.2503  -24.4006   20.0658 H   0  0  0  0  0  0
  -28.7493  -15.7286   20.9082 H   0  0  0  0  0  0
  1 25  1  0  0  0
  1 30  2  0  0  0
  1 87  1  0  0  0
  2  3  1  0  0  0
  2 25  1  0  0  0
  2 89  1  0  0  0
  2 90  1  0  0  0
  3  4  1  0  0  0
  3 91  1  0  0  0
  3 92  1  0  0  0
  4  5  1  0  0  0
  4 93  1  0  0  0
  4 94  1  0  0  0
  5  6  1  0  0  0
  5 26  1  0  0  0
  5 95  1  0  0  0
  6 25  1  0  0  0
  6 96  1  0  0  0
  6 97  1  0  0  0
  7  8  2  0  0  0
  7 26  1  0  0  0
  7 29  1  0  0  0
  8  9  1  0  0  0
  8 22  1  0  0  0
  9 10  1  0  0  0
  9 27  2  0  0  0
 10 11  2  0  0  0
 10 15  1  0  0  0
 11 12  1  0  0  0
 11 98  1  0  0  0
 12 13  2  0  0  0
 12 99  1  0  0  0
 13 14  1  0  0  0
 13 31  1  0  0  0
 14 15  2  0  0  0
 14100  1  0  0  0
 15101  1  0  0  0
 16 17  2  0  0  0
 16 21  1  0  0  0
 16 31  1  0  0  0
 17 18  1  0  0  0
 17102  1  0  0  0
 18 19  2  0  0  0
 18103  1  0  0  0
 19 20  1  0  0  0
 19 24  1  0  0  0
 20 21  2  0  0  0
 20104  1  0  0  0
 21 23  1  0  0  0
 22 28  1  0  0  0
 22 32  2  0  0  0
 26 27  1  0  0  0
 28105  1  0  0  0
 28106  1  0  0  0
 29107  1  0  0  0
 29108  1  0  0  0
 33 34  1  0  0  0
 33 66  1  0  0  0
 33 70  2  0  0  0
 34 36  1  0  0  0
 34 59  1  0  0  0
 34109  1  0  0  0
 35 44  2  0  0  0
 35 45  1  0  0  0
 35 68  1  0  0  0
 36 56  1  0  0  0
 36110  1  0  0  0
 37 39  1  0  0  0
 37 47  1  0  0  0
 37 66  1  0  0  0
 37111  1  0  0  0
 38 43  2  0  0  0
 38 46  1  0  0  0
 38 47  1  0  0  0
 39 64  1  0  0  0
 39 67  2  0  0  0
 40 52  1  0  0  0
 40 53  2  0  0  0
 40 58  1  0  0  0
 41112  1  0  0  0
 41113  1  0  0  0
 41114  1  0  0  0
 41 48  1  0  0  0
 42 43  1  0  0  0
 42 66  1  0  0  0
 42115  1  0  0  0
 42116  1  0  0  0
 43 44  1  0  0  0
 44117  1  0  0  0
 45 46  2  0  0  0
 45118  1  0  0  0
 46119  1  0  0  0
 47120  1  0  0  0
 47121  1  0  0  0
 48 56  1  0  0  0
 48 65  1  0  0  0
 48122  1  0  0  0
 49 50  1  0  0  0
 49 53  1  0  0  0
 49 64  1  0  0  0
 49123  1  0  0  0
 50 51  1  0  0  0
 50124  1  0  0  0
 50125  1  0  0  0
 51 52  1  0  0  0
 51126  1  0  0  0
 51127  1  0  0  0
 52128  1  0  0  0
 52129  1  0  0  0
 53 54  1  0  0  0
 54 55  2  0  0  0
 54130  1  0  0  0
 55 57  1  0  0  0
 55131  1  0  0  0
 56 69  2  0  0  0
 57 58  2  0  0  0
 57132  1  0  0  0
 58133  1  0  0  0
 59 60  1  0  0  0
 59 61  1  0  0  0
 59 62  1  0  0  0
 60134  1  0  0  0
 60135  1  0  0  0
 60136  1  0  0  0
 61137  1  0  0  0
 61138  1  0  0  0
 61139  1  0  0  0
 62140  1  0  0  0
 62141  1  0  0  0
 62142  1  0  0  0
 63 65  1  0  0  0
 63143  1  0  0  0
 63144  1  0  0  0
 63145  1  0  0  0
 64146  1  0  0  0
 65147  1  0  0  0
 68 85  1  0  0  0
 71 72  2  0  0  0
 71 75  1  0  0  0
 71148  1  0  0  0
 72 76  1  0  0  0
 72149  1  0  0  0
 73 74  1  0  0  0
 73 75  2  0  0  0
 73 79  1  0  0  0
 74 76  2  0  0  0
 74 84  1  0  0  0
 75 86  1  0  0  0
 76 87  1  0  0  0
 77 80  1  0  0  0
 77 86  1  0  0  0
 77 88  2  0  0  0
 78 79  2  0  0  0
 78150  1  0  0  0
 78151  1  0  0  0
 79152  1  0  0  0
 80 81  1  0  0  0
 80153  1  0  0  0
 80154  1  0  0  0
 81 82  1  0  0  0
 81155  1  0  0  0
 81156  1  0  0  0
 82 85  1  0  0  0
 82 86  1  0  0  0
 82157  1  0  0  0
 83 84  1  0  0  0
 83158  1  0  0  0
 83159  1  0  0  0
 83160  1  0  0  0
 84161  1  0  0  0
 84162  1  0  0  0
 85163  1  0  0  0
 85164  1  0  0  0
 87165  1  0  0  0
M  ISO  4   1 100  68 101  85 101  87 100
M  END
> <chiral flag>
0

> <version>
0

> <s_m_source_file>
/data/baiqing/PycharmProjects/Reinvent-master-3.2/result/LINK_invent/BTK/process_docking_weight1_custom_product_contain_oxygen_bond_distance_aromatic_linkinvent_7_9_3/rearranged_h_0114.sdf

> <i_m_source_file_index>
67

> <r_mmod_Potential_Energy-OPLS-2005>
631.573425292969

> <r_mmod_Stretch_Energy-OPLS-2005>
238.697509765625

> <r_mmod_Bend_Energy-OPLS-2005>
300.519226074219

> <r_mmod_Torsional_Energy-OPLS-2005>
349.211059570312

> <r_mmod_Improper_Torsional_Energy-OPLS-2005>
7.76858329772949

> <r_mmod_Van_der_Waal_Energy-OPLS-2005>
145.941146850586

> <r_mmod_Electrostatic_Energy-OPLS-2005>
-372.068176269531

> <r_mmod_Solvation_Energy-OPLS-2005>
-217.646850585938

> <b_mmod_Minimization_Converged-OPLS-2005>
0

> <r_mmod_RMS_Derivative-OPLS-2005>
1.99908494949341

$$$$
67
                    3D
 Structure written by MMmdl.
157165  0  0  1  0            999 V2000
  -30.6857  -14.4608   20.5886 C   0  0  0  0  0  0
  -30.4267  -12.3042   19.4215 C   0  0  0  0  0  0
  -29.4918  -12.5116   18.2108 C   0  0  0  0  0  0
  -28.0133  -12.3668   18.6228 C   0  0  0  0  0  0
  -27.6616  -13.1906   19.8901 C   0  0  2  0  0  0
  -28.7044  -12.9548   21.0055 C   0  0  0  0  0  0
  -25.2593  -13.8121   20.5696 C   0  0  0  0  0  0
  -24.1817  -13.0421   20.9157 C   0  0  0  0  0  0
  -24.6351  -11.6877   20.8741 C   0  0  0  0  0  0
  -23.9023  -10.4272   21.0412 C   0  0  0  0  0  0
  -24.3589   -9.4191   21.9183 C   0  0  0  0  0  0
  -23.6263   -8.2232   22.0753 C   0  0  0  0  0  0
  -22.4246   -8.0271   21.3542 C   0  0  0  0  0  0
  -21.9879   -9.0238   20.4646 C   0  0  0  0  0  0
  -22.7205  -10.2114   20.3055 C   0  0  0  0  0  0
  -21.6840   -6.0723   22.5277 C   0  0  0  0  0  0
  -21.4015   -6.5633   23.8210 C   0  0  0  0  0  0
  -21.3651   -5.6788   24.9173 C   0  0  0  0  0  0
  -21.6041   -4.3051   24.7229 C   0  0  0  0  0  0
  -21.8821   -3.8142   23.4352 C   0  0  0  0  0  0
  -21.9184   -4.6951   22.3404 C   0  0  0  0  0  0
  -22.7843  -13.5231   21.1821 C   0  0  0  0  0  0
  -22.1653   -4.2137   21.0977 F   0  0  0  0  0  0
  -21.5630   -3.4543   25.7744 F   0  0  0  0  0  0
  -30.0406  -13.2680   20.4640 N   0  0  0  0  0  0
  -26.3011  -12.9245   20.3444 N   0  0  0  0  0  0
  -25.9275  -11.6423   20.5806 N   0  0  0  0  0  0
  -22.0495  -12.8229   22.0391 N   0  0  0  0  0  0
  -25.4380  -15.1842   20.4139 N   0  0  0  0  0  0
  -31.7800  -14.6969   20.0654 O   0  0  0  0  0  0
  -21.6616   -6.8865   21.4237 O   0  0  0  0  0  0
  -22.3523  -14.5530   20.6660 O   0  0  0  0  0  0
  -24.6136  -31.8670   23.2083 C   0  0  0  0  0  0
  -25.9033  -32.4817   23.8379 C   0  0  1  0  0  0
  -27.2448  -27.4413   20.0796 C   0  0  0  0  0  0
  -25.5894  -33.8614   24.2316 N   0  0  0  0  0  0
  -23.4017  -30.4894   21.5479 C   0  0  2  0  0  0
  -24.8486  -28.9541   20.1114 C   0  0  0  0  0  0
  -22.7391  -29.4658   22.4982 C   0  0  0  0  0  0
  -18.0269  -28.1379   22.8499 C   0  0  0  0  0  0
  -24.1488  -36.7307   23.2637 C   0  0  0  0  0  0
  -25.9289  -30.8323   21.3615 C   0  0  0  0  0  0
  -26.0055  -29.4667   20.7086 C   0  0  0  0  0  0
  -27.2004  -28.7128   20.6969 C   0  0  0  0  0  0
  -26.0620  -26.9338   19.4944 C   0  0  0  0  0  0
  -24.8703  -27.6854   19.5060 C   0  0  0  0  0  0
  -23.6089  -29.8185   20.1627 C   0  0  0  0  0  0
  -25.4112  -36.3102   24.0335 C   0  0  1  0  0  0
  -20.5855  -28.3665   23.1321 C   0  0  2  0  0  0
  -20.6757  -26.9398   22.5426 C   0  0  0  0  0  0
  -19.5740  -26.6388   21.5217 C   0  0  0  0  0  0
  -18.1916  -26.7930   22.1622 C   0  0  0  0  0  0
  -19.1518  -28.8837   23.2912 C   0  0  0  0  0  0
  -18.9446  -30.1443   23.8922 C   0  0  0  0  0  0
  -17.6450  -30.6589   24.0570 C   0  0  0  0  0  0
  -25.9036  -34.9469   23.5127 C   0  0  0  0  0  0
  -16.5342  -29.9093   23.6331 C   0  0  0  0  0  0
  -16.7258  -28.6508   23.0358 C   0  0  0  0  0  0
  -26.4467  -31.6594   25.0711 C   0  0  0  0  0  0
  -25.3739  -31.3697   26.1463 C   0  0  0  0  0  0
  -27.0300  -30.3039   24.6088 C   0  0  0  0  0  0
  -27.6049  -32.4304   25.7470 C   0  0  0  0  0  0
  -27.5588  -37.1803   24.8462 C   0  0  0  0  0  0
  -21.4121  -29.3034   22.3721 N   0  0  0  0  0  0
  -26.4298  -37.3792   23.9410 N   0  0  0  0  0  0
  -24.6661  -31.0775   22.0979 N   0  0  0  0  0  0
  -23.4165  -28.8207   23.3032 O   0  0  0  0  0  0
  -28.4322  -26.7373   20.1282 O   0  0  0  0  0  0
  -26.5599  -34.8928   22.4689 O   0  0  0  0  0  0
  -23.5335  -32.1420   23.7484 O   0  0  0  0  0  0
  -29.7127  -19.1308   21.4906 C   0  0  0  0  0  0
  -30.0517  -17.7939   21.8023 C   0  0  0  0  0  0
  -28.8889  -18.4017   19.3295 C   0  0  0  0  0  0
  -29.0880  -19.4407   20.2619 C   0  0  0  0  0  0
  -29.8148  -16.7511   20.8784 C   0  0  0  0  0  0
  -29.2392  -17.0578   19.6176 C   0  0  0  0  0  0
  -28.6375  -20.8012   19.8881 C   0  0  0  0  0  0
  -29.0883  -21.9901   20.3449 C   0  0  0  0  0  0
  -28.4804  -23.2608   19.8788 C   0  0  0  0  0  0
  -28.2600  -16.2853   17.5566 C   0  0  0  0  0  0
  -29.3948  -24.4898   19.7446 C   0  0  0  0  0  0
  -28.7661  -25.7680   19.1251 C   0  0  0  0  0  0
  -30.0217  -15.3982   21.2872 N   0  0  0  0  0  0
  -27.2849  -23.3485   19.5808 O   0  0  0  0  0  0
  -29.0106  -16.0235   18.7347 O   0  0  0  0  0  0
  -31.4696  -12.4158   19.1165 H   0  0  0  0  0  0
  -30.3377  -11.2863   19.8054 H   0  0  0  0  0  0
  -29.7318  -11.7982   17.4216 H   0  0  0  0  0  0
  -29.6578  -13.5021   17.7859 H   0  0  0  0  0  0
  -27.8218  -11.3085   18.8064 H   0  0  0  0  0  0
  -27.3631  -12.6517   17.7957 H   0  0  0  0  0  0
  -27.6979  -14.2390   19.6149 H   0  0  0  0  0  0
  -28.6802  -11.9127   21.3278 H   0  0  0  0  0  0
  -28.4562  -13.5331   21.8961 H   0  0  0  0  0  0
  -25.2748   -9.5651   22.4734 H   0  0  0  0  0  0
  -23.9961   -7.4619   22.7477 H   0  0  0  0  0  0
  -21.0815   -8.8761   19.8947 H   0  0  0  0  0  0
  -22.3679  -10.9651   19.6153 H   0  0  0  0  0  0
  -21.2014   -7.6143   23.9714 H   0  0  0  0  0  0
  -21.1469   -6.0521   25.9071 H   0  0  0  0  0  0
  -22.0603   -2.7603   23.2864 H   0  0  0  0  0  0
  -22.4122  -11.9891   22.4770 H   0  0  0  0  0  0
  -21.1115  -13.1245   22.2625 H   0  0  0  0  0  0
  -24.6844  -15.8513   20.5404 H   0  0  0  0  0  0
  -26.3135  -15.6201   20.1546 H   0  0  0  0  0  0
  -26.7108  -32.5525   23.1142 H   0  0  0  0  0  0
  -25.0056  -33.9772   25.0468 H   0  0  0  0  0  0
  -22.6914  -31.3063   21.4061 H   0  0  0  0  0  0
  -23.3756  -35.9634   23.3290 H   0  0  0  0  0  0
  -24.3583  -36.8935   22.2054 H   0  0  0  0  0  0
  -23.7232  -37.6506   23.6659 H   0  0  0  0  0  0
  -26.0438  -31.5995   20.5943 H   0  0  0  0  0  0
  -26.8163  -30.8835   21.9811 H   0  0  0  0  0  0
  -28.0939  -29.1056   21.1621 H   0  0  0  0  0  0
  -26.0278  -25.9495   19.0523 H   0  0  0  0  0  0
  -23.9760  -27.2784   19.0554 H   0  0  0  0  0  0
  -23.7115  -30.5913   19.3997 H   0  0  0  0  0  0
  -22.7346  -29.2339   19.8707 H   0  0  0  0  0  0
  -25.1289  -36.1971   25.0831 H   0  0  0  0  0  0
  -20.9959  -28.3236   24.1435 H   0  0  0  0  0  0
  -20.5662  -26.2266   23.3610 H   0  0  0  0  0  0
  -21.6629  -26.7442   22.1218 H   0  0  0  0  0  0
  -19.6903  -25.6305   21.1233 H   0  0  0  0  0  0
  -19.6693  -27.3214   20.6755 H   0  0  0  0  0  0
  -17.4190  -26.6695   21.4013 H   0  0  0  0  0  0
  -18.0306  -26.0066   22.9006 H   0  0  0  0  0  0
  -19.7921  -30.7253   24.2310 H   0  0  0  0  0  0
  -17.5004  -31.6271   24.5161 H   0  0  0  0  0  0
  -15.5347  -30.3004   23.7641 H   0  0  0  0  0  0
  -15.8657  -28.0834   22.7067 H   0  0  0  0  0  0
  -24.5905  -30.7055   25.7794 H   0  0  0  0  0  0
  -24.8942  -32.2854   26.4926 H   0  0  0  0  0  0
  -25.8096  -30.8848   27.0205 H   0  0  0  0  0  0
  -26.2842  -29.6789   24.1163 H   0  0  0  0  0  0
  -27.4093  -29.7290   25.4544 H   0  0  0  0  0  0
  -27.8662  -30.4363   23.9221 H   0  0  0  0  0  0
  -27.2681  -33.3599   26.2068 H   0  0  0  0  0  0
  -28.3847  -32.6862   25.0286 H   0  0  0  0  0  0
  -28.0722  -31.8407   26.5365 H   0  0  0  0  0  0
  -28.2596  -38.0109   24.7528 H   0  0  0  0  0  0
  -28.1094  -36.2641   24.6267 H   0  0  0  0  0  0
  -27.2301  -37.1433   25.8863 H   0  0  0  0  0  0
  -20.9274  -29.8741   21.6937 H   0  0  0  0  0  0
  -26.0184  -38.2869   24.1427 H   0  0  0  0  0  0
  -29.8904  -19.9045   22.2242 H   0  0  0  0  0  0
  -30.4721  -17.5678   22.7722 H   0  0  0  0  0  0
  -28.4351  -18.6622   18.3854 H   0  0  0  0  0  0
  -27.8272  -20.8210   19.1712 H   0  0  0  0  0  0
  -29.9018  -22.0479   21.0527 H   0  0  0  0  0  0
  -28.0686  -15.3472   17.0364 H   0  0  0  0  0  0
  -28.8058  -16.9392   16.8750 H   0  0  0  0  0  0
  -27.2909  -16.7299   17.7879 H   0  0  0  0  0  0
  -30.2151  -24.1749   19.1004 H   0  0  0  0  0  0
  -29.8419  -24.7149   20.7120 H   0  0  0  0  0  0
  -27.9722  -25.5306   18.4209 H   0  0  0  0  0  0
  -29.5301  -26.2426   18.5086 H   0  0  0  0  0  0
  -29.2797  -15.0222   21.8568 H   0  0  0  0  0  0
  1 25  1  0  0  0
  1 30  2  0  0  0
  1 83  1  0  0  0
  2  3  1  0  0  0
  2 25  1  0  0  0
  2 86  1  0  0  0
  2 87  1  0  0  0
  3  4  1  0  0  0
  3 88  1  0  0  0
  3 89  1  0  0  0
  4  5  1  0  0  0
  4 90  1  0  0  0
  4 91  1  0  0  0
  5  6  1  0  0  0
  5 26  1  0  0  0
  5 92  1  0  0  0
  6 25  1  0  0  0
  6 93  1  0  0  0
  6 94  1  0  0  0
  7  8  2  0  0  0
  7 26  1  0  0  0
  7 29  1  0  0  0
  8  9  1  0  0  0
  8 22  1  0  0  0
  9 10  1  0  0  0
  9 27  2  0  0  0
 10 11  2  0  0  0
 10 15  1  0  0  0
 11 12  1  0  0  0
 11 95  1  0  0  0
 12 13  2  0  0  0
 12 96  1  0  0  0
 13 14  1  0  0  0
 13 31  1  0  0  0
 14 15  2  0  0  0
 14 97  1  0  0  0
 15 98  1  0  0  0
 16 17  2  0  0  0
 16 21  1  0  0  0
 16 31  1  0  0  0
 17 18  1  0  0  0
 17 99  1  0  0  0
 18 19  2  0  0  0
 18100  1  0  0  0
 19 20  1  0  0  0
 19 24  1  0  0  0
 20 21  2  0  0  0
 20101  1  0  0  0
 21 23  1  0  0  0
 22 28  1  0  0  0
 22 32  2  0  0  0
 26 27  1  0  0  0
 28102  1  0  0  0
 28103  1  0  0  0
 29104  1  0  0  0
 29105  1  0  0  0
 33 34  1  0  0  0
 33 66  1  0  0  0
 33 70  2  0  0  0
 34 36  1  0  0  0
 34 59  1  0  0  0
 34106  1  0  0  0
 35 44  2  0  0  0
 35 45  1  0  0  0
 35 68  1  0  0  0
 36 56  1  0  0  0
 36107  1  0  0  0
 37 39  1  0  0  0
 37 47  1  0  0  0
 37 66  1  0  0  0
 37108  1  0  0  0
 38 43  2  0  0  0
 38 46  1  0  0  0
 38 47  1  0  0  0
 39 64  1  0  0  0
 39 67  2  0  0  0
 40 52  1  0  0  0
 40 53  2  0  0  0
 40 58  1  0  0  0
 41109  1  0  0  0
 41110  1  0  0  0
 41111  1  0  0  0
 41 48  1  0  0  0
 42 43  1  0  0  0
 42 66  1  0  0  0
 42112  1  0  0  0
 42113  1  0  0  0
 43 44  1  0  0  0
 44114  1  0  0  0
 45 46  2  0  0  0
 45115  1  0  0  0
 46116  1  0  0  0
 47117  1  0  0  0
 47118  1  0  0  0
 48 56  1  0  0  0
 48 65  1  0  0  0
 48119  1  0  0  0
 49 50  1  0  0  0
 49 53  1  0  0  0
 49 64  1  0  0  0
 49120  1  0  0  0
 50 51  1  0  0  0
 50121  1  0  0  0
 50122  1  0  0  0
 51 52  1  0  0  0
 51123  1  0  0  0
 51124  1  0  0  0
 52125  1  0  0  0
 52126  1  0  0  0
 53 54  1  0  0  0
 54 55  2  0  0  0
 54127  1  0  0  0
 55 57  1  0  0  0
 55128  1  0  0  0
 56 69  2  0  0  0
 57 58  2  0  0  0
 57129  1  0  0  0
 58130  1  0  0  0
 59 60  1  0  0  0
 59 61  1  0  0  0
 59 62  1  0  0  0
 60131  1  0  0  0
 60132  1  0  0  0
 60133  1  0  0  0
 61134  1  0  0  0
 61135  1  0  0  0
 61136  1  0  0  0
 62137  1  0  0  0
 62138  1  0  0  0
 62139  1  0  0  0
 63 65  1  0  0  0
 63140  1  0  0  0
 63141  1  0  0  0
 63142  1  0  0  0
 64143  1  0  0  0
 65144  1  0  0  0
 68 82  1  0  0  0
 71 72  2  0  0  0
 71 74  1  0  0  0
 71145  1  0  0  0
 72 75  1  0  0  0
 72146  1  0  0  0
 73 74  2  0  0  0
 73 76  1  0  0  0
 73147  1  0  0  0
 74 77  1  0  0  0
 75 76  2  0  0  0
 75 83  1  0  0  0
 76 85  1  0  0  0
 77 78  2  0  0  0
 77148  1  0  0  0
 78 79  1  0  0  0
 78149  1  0  0  0
 79 81  1  0  0  0
 79 84  2  0  0  0
 80 85  1  0  0  0
 80150  1  0  0  0
 80151  1  0  0  0
 80152  1  0  0  0
 81 82  1  0  0  0
 81153  1  0  0  0
 81154  1  0  0  0
 82155  1  0  0  0
 82156  1  0  0  0
 83157  1  0  0  0
M  ISO  4   1 100  68 101  82 101  83 100
M  END
> <chiral flag>
0

> <version>
0

> <s_m_source_file>
/data/baiqing/PycharmProjects/Reinvent-master-3.2/result/LINK_invent/BTK/process_docking_weight1_custom_product_contain_oxygen_bond_distance_aromatic_linkinvent_7_9_3/rearranged_h_0114.sdf

> <i_m_source_file_index>
68

> <r_mmod_Potential_Energy-OPLS-2005>
-89.5654907226562

> <r_mmod_Stretch_Energy-OPLS-2005>
37.7083854675293

> <r_mmod_Bend_Energy-OPLS-2005>
112.607467651367

> <r_mmod_Torsional_Energy-OPLS-2005>
253.130187988281

> <r_mmod_Improper_Torsional_Energy-OPLS-2005>
5.07071304321289

> <r_mmod_Van_der_Waal_Energy-OPLS-2005>
155.203857421875

> <r_mmod_Electrostatic_Energy-OPLS-2005>
-438.818389892578

> <r_mmod_Solvation_Energy-OPLS-2005>
-226.267929077148

> <b_mmod_Minimization_Converged-OPLS-2005>
0

> <r_mmod_RMS_Derivative-OPLS-2005>
1.47960948944092

$$$$
68
                    3D
 Structure written by MMmdl.
174183  0  0  1  0            999 V2000
  -30.6005  -14.7656   20.4649 C   0  0  0  0  0  0
  -30.4312  -12.4663   19.4964 C   0  0  0  0  0  0
  -29.5139  -12.5181   18.2531 C   0  0  0  0  0  0
  -28.0388  -12.3387   18.6589 C   0  0  0  0  0  0
  -27.6426  -13.2309   19.8640 C   0  0  2  0  0  0
  -28.6844  -13.1698   21.0045 C   0  0  0  0  0  0
  -25.2514  -13.8194   20.5749 C   0  0  0  0  0  0
  -24.1782  -13.0442   20.9197 C   0  0  0  0  0  0
  -24.6370  -11.6919   20.8763 C   0  0  0  0  0  0
  -23.9035  -10.4307   21.0427 C   0  0  0  0  0  0
  -24.3593   -9.4226   21.9205 C   0  0  0  0  0  0
  -23.6277   -8.2256   22.0761 C   0  0  0  0  0  0
  -22.4262   -8.0286   21.3544 C   0  0  0  0  0  0
  -21.9896   -9.0258   20.4648 C   0  0  0  0  0  0
  -22.7217  -10.2141   20.3067 C   0  0  0  0  0  0
  -21.6842   -6.0747   22.5275 C   0  0  0  0  0  0
  -21.4018   -6.5651   23.8208 C   0  0  0  0  0  0
  -21.3670   -5.6794   24.9165 C   0  0  0  0  0  0
  -21.6045   -4.3054   24.7213 C   0  0  0  0  0  0
  -21.8823   -3.8151   23.4337 C   0  0  0  0  0  0
  -21.9195   -4.6977   22.3395 C   0  0  0  0  0  0
  -22.7808  -13.5239   21.1849 C   0  0  0  0  0  0
  -22.1651   -4.2161   21.0976 F   0  0  0  0  0  0
  -21.5622   -3.4548   25.7734 F   0  0  0  0  0  0
  -29.9918  -13.5265   20.4378 N   0  0  0  0  0  0
  -26.2932  -12.9386   20.3348 N   0  0  0  0  0  0
  -25.9303  -11.6531   20.5776 N   0  0  0  0  0  0
  -22.0436  -12.8267   22.0424 N   0  0  0  0  0  0
  -25.4245  -15.1924   20.4298 N   0  0  0  0  0  0
  -31.7516  -14.8855   20.0357 O   0  0  0  0  0  0
  -21.6611   -6.8895   21.4239 O   0  0  0  0  0  0
  -22.3508  -14.5550   20.6688 O   0  0  0  0  0  0
  -24.6318  -31.8493   23.1930 C   0  0  0  0  0  0
  -25.9132  -32.4726   23.8299 C   0  0  1  0  0  0
  -27.2397  -27.2615   20.1325 C   0  0  0  0  0  0
  -25.5932  -33.8529   24.2236 N   0  0  0  0  0  0
  -23.4310  -30.4658   21.5341 C   0  0  2  0  0  0
  -24.8844  -28.9073   20.0980 C   0  0  0  0  0  0
  -22.7511  -29.4558   22.4894 C   0  0  0  0  0  0
  -18.0299  -28.1382   22.8478 C   0  0  0  0  0  0
  -24.1485  -36.7283   23.2639 C   0  0  0  0  0  0
  -25.9726  -30.7635   21.3708 C   0  0  0  0  0  0
  -26.0490  -29.3858   20.7113 C   0  0  0  0  0  0
  -27.2226  -28.5701   20.7218 C   0  0  0  0  0  0
  -26.0619  -26.8460   19.4797 C   0  0  0  0  0  0
  -24.8971  -27.6479   19.4686 C   0  0  0  0  0  0
  -23.6495  -29.7897   20.1519 C   0  0  0  0  0  0
  -25.4113  -36.3062   24.0326 C   0  0  1  0  0  0
  -20.5893  -28.3690   23.1272 C   0  0  2  0  0  0
  -20.6771  -26.9407   22.5418 C   0  0  0  0  0  0
  -19.5746  -26.6372   21.5213 C   0  0  0  0  0  0
  -18.1933  -26.7924   22.1621 C   0  0  0  0  0  0
  -19.1546  -28.8858   23.2865 C   0  0  0  0  0  0
  -18.9464  -30.1459   23.8882 C   0  0  0  0  0  0
  -17.6458  -30.6574   24.0564 C   0  0  0  0  0  0
  -25.9054  -34.9429   23.5086 C   0  0  0  0  0  0
  -16.5350  -29.9072   23.6322 C   0  0  0  0  0  0
  -16.7286  -28.6488   23.0347 C   0  0  0  0  0  0
  -26.4507  -31.6564   25.0698 C   0  0  0  0  0  0
  -25.3727  -31.3698   26.1416 C   0  0  0  0  0  0
  -27.0350  -30.2975   24.6197 C   0  0  0  0  0  0
  -27.6059  -32.4314   25.7458 C   0  0  0  0  0  0
  -27.5573  -37.1796   24.8464 C   0  0  0  0  0  0
  -21.4213  -29.3027   22.3655 N   0  0  0  0  0  0
  -26.4283  -37.3767   23.9410 N   0  0  0  0  0  0
  -24.6972  -31.0460   22.0896 N   0  0  0  0  0  0
  -23.4191  -28.8117   23.3027 O   0  0  0  0  0  0
  -28.3154  -26.3671   20.3327 O   0  0  0  0  0  0
  -26.5625  -34.8913   22.4656 O   0  0  0  0  0  0
  -23.5469  -32.1298   23.7237 O   0  0  0  0  0  0
  -28.0105  -19.1058   18.7170 C   0  0  0  0  0  0
  -29.4287  -18.4893   20.5605 C   0  0  0  0  0  0
  -28.8493  -16.8160   18.8819 C   0  0  0  0  0  0
  -28.7468  -19.5733   19.8367 C   0  0  0  0  0  0
  -28.1111  -17.7984   18.1980 C   0  0  0  0  0  0
  -29.4644  -17.0879   20.1172 C   0  0  0  0  0  0
  -29.9210  -24.7838   17.4480 C   0  0  0  0  0  0
  -29.5371  -25.5784   18.5134 C   0  0  0  0  0  0
  -28.6455  -25.2178   19.5513 C   0  0  0  0  0  0
  -28.2562  -23.9118   19.9522 C   0  0  0  0  0  0
  -29.3757  -23.5891   16.8433 C   0  0  0  0  0  0
  -27.4720  -15.4470   15.3205 C   0  0  0  0  0  0
  -28.0522  -16.4133   16.0532 C   0  0  0  0  0  0
  -27.9224  -23.2612   17.1044 C   0  0  0  0  0  0
  -27.8668  -22.1525   18.1457 C   0  0  0  0  0  0
  -27.3229  -23.7434   21.1461 C   0  0  0  0  0  0
  -25.8843  -17.0977   17.2470 C   0  0  0  0  0  0
  -28.6054  -21.1335   20.3262 C   0  0  0  0  0  0
  -27.3459  -17.4489   16.9250 C   0  0  1  0  0  0
  -29.8864  -15.8835   20.8861 N   0  0  0  0  0  0
  -28.6080  -22.4221   19.4047 N   0  3  2  0  0  0
  -30.0461  -26.7246   18.5090 O   0  5  0  0  0  0
  -30.0528  -22.8501   16.1301 O   0  0  0  0  0  0
  -31.4719  -12.5888   19.1930 H   0  0  0  0  0  0
  -30.3753  -11.4867   19.9750 H   0  0  0  0  0  0
  -29.8024  -11.7447   17.5409 H   0  0  0  0  0  0
  -29.6412  -13.4707   17.7363 H   0  0  0  0  0  0
  -27.8958  -11.2888   18.9150 H   0  0  0  0  0  0
  -27.3810  -12.5363   17.8104 H   0  0  0  0  0  0
  -27.6313  -14.2522   19.4896 H   0  0  0  0  0  0
  -28.7205  -12.1747   21.4503 H   0  0  0  0  0  0
  -28.4080  -13.8538   21.8077 H   0  0  0  0  0  0
  -25.2743   -9.5693   22.4768 H   0  0  0  0  0  0
  -24.0003   -7.4642   22.7470 H   0  0  0  0  0  0
  -21.0833   -8.8759   19.8948 H   0  0  0  0  0  0
  -22.3680  -10.9671   19.6160 H   0  0  0  0  0  0
  -21.2006   -7.6151   23.9721 H   0  0  0  0  0  0
  -21.1483   -6.0515   25.9068 H   0  0  0  0  0  0
  -22.0599   -2.7619   23.2810 H   0  0  0  0  0  0
  -22.4005  -11.9918   22.4827 H   0  0  0  0  0  0
  -21.1051  -13.1305   22.2605 H   0  0  0  0  0  0
  -24.6594  -15.8470   20.5433 H   0  0  0  0  0  0
  -26.2842  -15.6364   20.1346 H   0  0  0  0  0  0
  -26.7212  -32.5371   23.1055 H   0  0  0  0  0  0
  -25.0125  -33.9643   25.0420 H   0  0  0  0  0  0
  -22.7285  -31.2870   21.3819 H   0  0  0  0  0  0
  -23.3748  -35.9617   23.3295 H   0  0  0  0  0  0
  -24.3575  -36.8907   22.2052 H   0  0  0  0  0  0
  -23.7223  -37.6479   23.6668 H   0  0  0  0  0  0
  -26.1068  -31.5221   20.5986 H   0  0  0  0  0  0
  -26.8515  -30.8162   22.0025 H   0  0  0  0  0  0
  -28.1066  -28.9151   21.2392 H   0  0  0  0  0  0
  -26.0278  -25.8652   19.0287 H   0  0  0  0  0  0
  -24.0056  -27.2735   18.9834 H   0  0  0  0  0  0
  -23.7684  -30.5594   19.3886 H   0  0  0  0  0  0
  -22.7714  -29.2147   19.8546 H   0  0  0  0  0  0
  -25.1299  -36.1909   25.0819 H   0  0  0  0  0  0
  -20.9991  -28.3265   24.1395 H   0  0  0  0  0  0
  -20.5648  -26.2304   23.3619 H   0  0  0  0  0  0
  -21.6638  -26.7401   22.1223 H   0  0  0  0  0  0
  -19.6892  -25.6283   21.1241 H   0  0  0  0  0  0
  -19.6686  -27.3189   20.6749 H   0  0  0  0  0  0
  -17.4201  -26.6699   21.4015 H   0  0  0  0  0  0
  -18.0309  -26.0068   22.9012 H   0  0  0  0  0  0
  -19.7941  -30.7285   24.2232 H   0  0  0  0  0  0
  -17.5010  -31.6250   24.5174 H   0  0  0  0  0  0
  -15.5346  -30.2967   23.7643 H   0  0  0  0  0  0
  -15.8693  -28.0801   22.7062 H   0  0  0  0  0  0
  -24.5941  -30.7008   25.7738 H   0  0  0  0  0  0
  -24.8880  -32.2851   26.4823 H   0  0  0  0  0  0
  -25.8048  -30.8891   27.0203 H   0  0  0  0  0  0
  -26.2935  -29.6713   24.1225 H   0  0  0  0  0  0
  -27.4027  -29.7247   25.4724 H   0  0  0  0  0  0
  -27.8819  -30.4243   23.9445 H   0  0  0  0  0  0
  -27.2692  -33.3642   26.2003 H   0  0  0  0  0  0
  -28.3881  -32.6832   25.0278 H   0  0  0  0  0  0
  -28.0739  -31.8460   26.5387 H   0  0  0  0  0  0
  -28.2596  -38.0090   24.7521 H   0  0  0  0  0  0
  -28.1061  -36.2618   24.6289 H   0  0  0  0  0  0
  -27.2291  -37.1456   25.8867 H   0  0  0  0  0  0
  -20.9396  -29.8754   21.6868 H   0  0  0  0  0  0
  -26.0157  -38.2837   24.1420 H   0  0  0  0  0  0
  -27.2940  -19.7288   18.2138 H   0  0  0  0  0  0
  -29.8815  -18.7322   21.5112 H   0  0  0  0  0  0
  -28.8584  -15.8104   18.4895 H   0  0  0  0  0  0
  -30.6593  -25.2242   16.7910 H   0  0  0  0  0  0
  -28.0749  -14.7668   14.7358 H   0  0  0  0  0  0
  -26.4023  -15.3100   15.2822 H   0  0  0  0  0  0
  -29.1302  -16.4891   16.0259 H   0  0  0  0  0  0
  -27.4547  -22.9329   16.1750 H   0  0  0  0  0  0
  -27.3780  -24.1485   17.4251 H   0  0  0  0  0  0
  -28.3532  -21.3241   17.6410 H   0  0  0  0  0  0
  -26.8292  -21.8951   18.3637 H   0  0  0  0  0  0
  -26.9138  -24.6991   21.4751 H   0  0  0  0  0  0
  -27.8480  -23.3121   21.9986 H   0  0  0  0  0  0
  -26.4700  -23.1117   20.8967 H   0  0  0  0  0  0
  -25.4118  -17.8880   17.8320 H   0  0  0  0  0  0
  -25.8166  -16.1753   17.8225 H   0  0  0  0  0  0
  -25.2916  -16.9797   16.3405 H   0  0  0  0  0  0
  -29.3686  -21.2978   21.0873 H   0  0  0  0  0  0
  -27.6650  -21.1389   20.8746 H   0  0  0  0  0  0
  -27.3370  -18.3558   16.3180 H   0  0  0  0  0  0
  -29.2035  -15.6269   21.5856 H   0  0  0  0  0  0
  -29.5767  -22.4476   19.1197 H   0  0  0  0  0  0
  1 25  1  0  0  0
  1 30  2  0  0  0
  1 90  1  0  0  0
  2  3  1  0  0  0
  2 25  1  0  0  0
  2 94  1  0  0  0
  2 95  1  0  0  0
  3  4  1  0  0  0
  3 96  1  0  0  0
  3 97  1  0  0  0
  4  5  1  0  0  0
  4 98  1  0  0  0
  4 99  1  0  0  0
  5  6  1  0  0  0
  5 26  1  0  0  0
  5100  1  0  0  0
  6 25  1  0  0  0
  6101  1  0  0  0
  6102  1  0  0  0
  7  8  2  0  0  0
  7 26  1  0  0  0
  7 29  1  0  0  0
  8  9  1  0  0  0
  8 22  1  0  0  0
  9 10  1  0  0  0
  9 27  2  0  0  0
 10 11  2  0  0  0
 10 15  1  0  0  0
 11 12  1  0  0  0
 11103  1  0  0  0
 12 13  2  0  0  0
 12104  1  0  0  0
 13 14  1  0  0  0
 13 31  1  0  0  0
 14 15  2  0  0  0
 14105  1  0  0  0
 15106  1  0  0  0
 16 17  2  0  0  0
 16 21  1  0  0  0
 16 31  1  0  0  0
 17 18  1  0  0  0
 17107  1  0  0  0
 18 19  2  0  0  0
 18108  1  0  0  0
 19 20  1  0  0  0
 19 24  1  0  0  0
 20 21  2  0  0  0
 20109  1  0  0  0
 21 23  1  0  0  0
 22 28  1  0  0  0
 22 32  2  0  0  0
 26 27  1  0  0  0
 28110  1  0  0  0
 28111  1  0  0  0
 29112  1  0  0  0
 29113  1  0  0  0
 33 34  1  0  0  0
 33 66  1  0  0  0
 33 70  2  0  0  0
 34 36  1  0  0  0
 34 59  1  0  0  0
 34114  1  0  0  0
 35 44  2  0  0  0
 35 45  1  0  0  0
 35 68  1  0  0  0
 36 56  1  0  0  0
 36115  1  0  0  0
 37 39  1  0  0  0
 37 47  1  0  0  0
 37 66  1  0  0  0
 37116  1  0  0  0
 38 43  2  0  0  0
 38 46  1  0  0  0
 38 47  1  0  0  0
 39 64  1  0  0  0
 39 67  2  0  0  0
 40 52  1  0  0  0
 40 53  2  0  0  0
 40 58  1  0  0  0
 41117  1  0  0  0
 41118  1  0  0  0
 41119  1  0  0  0
 41 48  1  0  0  0
 42 43  1  0  0  0
 42 66  1  0  0  0
 42120  1  0  0  0
 42121  1  0  0  0
 43 44  1  0  0  0
 44122  1  0  0  0
 45 46  2  0  0  0
 45123  1  0  0  0
 46124  1  0  0  0
 47125  1  0  0  0
 47126  1  0  0  0
 48 56  1  0  0  0
 48 65  1  0  0  0
 48127  1  0  0  0
 49 50  1  0  0  0
 49 53  1  0  0  0
 49 64  1  0  0  0
 49128  1  0  0  0
 50 51  1  0  0  0
 50129  1  0  0  0
 50130  1  0  0  0
 51 52  1  0  0  0
 51131  1  0  0  0
 51132  1  0  0  0
 52133  1  0  0  0
 52134  1  0  0  0
 53 54  1  0  0  0
 54 55  2  0  0  0
 54135  1  0  0  0
 55 57  1  0  0  0
 55136  1  0  0  0
 56 69  2  0  0  0
 57 58  2  0  0  0
 57137  1  0  0  0
 58138  1  0  0  0
 59 60  1  0  0  0
 59 61  1  0  0  0
 59 62  1  0  0  0
 60139  1  0  0  0
 60140  1  0  0  0
 60141  1  0  0  0
 61142  1  0  0  0
 61143  1  0  0  0
 61144  1  0  0  0
 62145  1  0  0  0
 62146  1  0  0  0
 62147  1  0  0  0
 63 65  1  0  0  0
 63148  1  0  0  0
 63149  1  0  0  0
 63150  1  0  0  0
 64151  1  0  0  0
 65152  1  0  0  0
 68 79  1  0  0  0
 71 74  2  0  0  0
 71 75  1  0  0  0
 71153  1  0  0  0
 72 74  1  0  0  0
 72 76  2  0  0  0
 72154  1  0  0  0
 73 75  2  0  0  0
 73 76  1  0  0  0
 73155  1  0  0  0
 74 88  1  0  0  0
 75 89  1  0  0  0
 76 90  1  0  0  0
 77 78  2  0  0  0
 77 81  1  0  0  0
 77156  1  0  0  0
 78 79  1  0  0  0
 78 92  1  0  0  0
 79 80  2  0  0  0
 80 86  1  0  0  0
 80 91  1  0  0  0
 81 84  1  0  0  0
 81 93  2  0  0  0
 82 83  2  0  0  0
 82157  1  0  0  0
 82158  1  0  0  0
 83 89  1  0  0  0
 83159  1  0  0  0
 84 85  1  0  0  0
 84160  1  0  0  0
 84161  1  0  0  0
 85 91  1  0  0  0
 85162  1  0  0  0
 85163  1  0  0  0
 86164  1  0  0  0
 86165  1  0  0  0
 86166  1  0  0  0
 87167  1  0  0  0
 87168  1  0  0  0
 87169  1  0  0  0
 87 89  1  0  0  0
 88170  1  0  0  0
 88171  1  0  0  0
 88 91  1  0  0  0
 89172  1  0  0  0
 90173  1  0  0  0
 91174  1  0  0  0
M  CHG  2  91   1  92  -1
M  ISO  4   1 100  68 101  79 101  90 100
M  END
> <chiral flag>
0

> <version>
0

> <s_m_source_file>
/data/baiqing/PycharmProjects/Reinvent-master-3.2/result/LINK_invent/BTK/process_docking_weight1_custom_product_contain_oxygen_bond_distance_aromatic_linkinvent_7_9_3/rearranged_h_0114.sdf

> <i_m_source_file_index>
69

> <r_mmod_Potential_Energy-OPLS-2005>
79.7590179443359

> <r_mmod_Stretch_Energy-OPLS-2005>
180.415115356445

> <r_mmod_Bend_Energy-OPLS-2005>
318.929870605469

> <r_mmod_Torsional_Energy-OPLS-2005>
307.750854492188

> <r_mmod_Improper_Torsional_Energy-OPLS-2005>
8.53388118743896

> <r_mmod_Van_der_Waal_Energy-OPLS-2005>
156.537643432617

> <r_mmod_Electrostatic_Energy-OPLS-2005>
-601.830017089844

> <r_mmod_Solvation_Energy-OPLS-2005>
-388.677459716797

> <b_mmod_Minimization_Converged-OPLS-2005>
0

> <r_mmod_RMS_Derivative-OPLS-2005>
2.31609296798706

$$$$
69
                    3D
 Structure written by MMmdl.
160169  0  0  1  0            999 V2000
  -30.7112  -14.4861   20.5319 C   0  0  0  0  0  0
  -30.4171  -12.3005   19.4384 C   0  0  0  0  0  0
  -29.4973  -12.4978   18.2143 C   0  0  0  0  0  0
  -28.0164  -12.3631   18.6210 C   0  0  0  0  0  0
  -27.6597  -13.2099   19.8728 C   0  0  2  0  0  0
  -28.7019  -13.0034   20.9953 C   0  0  0  0  0  0
  -25.2579  -13.8167   20.5679 C   0  0  0  0  0  0
  -24.1833  -13.0442   20.9176 C   0  0  0  0  0  0
  -24.6389  -11.6908   20.8732 C   0  0  0  0  0  0
  -23.9053  -10.4292   21.0401 C   0  0  0  0  0  0
  -24.3606   -9.4211   21.9185 C   0  0  0  0  0  0
  -23.6284   -8.2245   22.0759 C   0  0  0  0  0  0
  -22.4268   -8.0278   21.3545 C   0  0  0  0  0  0
  -21.9903   -9.0249   20.4646 C   0  0  0  0  0  0
  -22.7225  -10.2132   20.3053 C   0  0  0  0  0  0
  -21.6853   -6.0731   22.5276 C   0  0  0  0  0  0
  -21.4014   -6.5635   23.8209 C   0  0  0  0  0  0
  -21.3662   -5.6786   24.9173 C   0  0  0  0  0  0
  -21.6046   -4.3049   24.7220 C   0  0  0  0  0  0
  -21.8818   -3.8141   23.4340 C   0  0  0  0  0  0
  -21.9191   -4.6958   22.3398 C   0  0  0  0  0  0
  -22.7855  -13.5234   21.1838 C   0  0  0  0  0  0
  -22.1658   -4.2145   21.0975 F   0  0  0  0  0  0
  -21.5634   -3.4534   25.7735 F   0  0  0  0  0  0
  -30.0315  -13.3060   20.4439 N   0  0  0  0  0  0
  -26.3018  -12.9344   20.3357 N   0  0  0  0  0  0
  -25.9317  -11.6498   20.5760 N   0  0  0  0  0  0
  -22.0492  -12.8228   22.0390 N   0  0  0  0  0  0
  -25.4301  -15.1883   20.4078 N   0  0  0  0  0  0
  -31.8706  -14.5838   20.1189 O   0  0  0  0  0  0
  -21.6635   -6.8874   21.4240 O   0  0  0  0  0  0
  -22.3548  -14.5541   20.6686 O   0  0  0  0  0  0
  -24.6154  -31.8690   23.2118 C   0  0  0  0  0  0
  -25.9042  -32.4831   23.8413 C   0  0  1  0  0  0
  -27.2220  -27.4175   20.0921 C   0  0  0  0  0  0
  -25.5891  -33.8627   24.2337 N   0  0  0  0  0  0
  -23.4034  -30.4957   21.5537 C   0  0  2  0  0  0
  -24.8465  -28.9691   20.1113 C   0  0  0  0  0  0
  -22.7417  -29.4665   22.4987 C   0  0  0  0  0  0
  -18.0275  -28.1380   22.8497 C   0  0  0  0  0  0
  -24.1483  -36.7323   23.2638 C   0  0  0  0  0  0
  -25.9356  -30.8291   21.3694 C   0  0  0  0  0  0
  -26.0104  -29.4644   20.7125 C   0  0  0  0  0  0
  -27.2005  -28.6957   20.7028 C   0  0  0  0  0  0
  -26.0391  -26.9610   19.4586 C   0  0  0  0  0  0
  -24.8568  -27.7174   19.4807 C   0  0  0  0  0  0
  -23.6104  -29.8362   20.1661 C   0  0  0  0  0  0
  -25.4104  -36.3118   24.0338 C   0  0  1  0  0  0
  -20.5865  -28.3670   23.1315 C   0  0  2  0  0  0
  -20.6768  -26.9409   22.5411 C   0  0  0  0  0  0
  -19.5744  -26.6395   21.5210 C   0  0  0  0  0  0
  -18.1923  -26.7930   22.1627 C   0  0  0  0  0  0
  -19.1525  -28.8841   23.2905 C   0  0  0  0  0  0
  -18.9452  -30.1445   23.8916 C   0  0  0  0  0  0
  -17.6455  -30.6589   24.0568 C   0  0  0  0  0  0
  -25.9033  -34.9480   23.5135 C   0  0  0  0  0  0
  -16.5347  -29.9092   23.6326 C   0  0  0  0  0  0
  -16.7264  -28.6506   23.0354 C   0  0  0  0  0  0
  -26.4468  -31.6608   25.0738 C   0  0  0  0  0  0
  -25.3735  -31.3677   26.1479 C   0  0  0  0  0  0
  -27.0323  -30.3065   24.6108 C   0  0  0  0  0  0
  -27.6031  -32.4338   25.7505 C   0  0  0  0  0  0
  -27.5586  -37.1819   24.8463 C   0  0  0  0  0  0
  -21.4142  -29.3040   22.3725 N   0  0  0  0  0  0
  -26.4297  -37.3803   23.9407 N   0  0  0  0  0  0
  -24.6701  -31.0781   22.1031 N   0  0  0  0  0  0
  -23.4188  -28.8195   23.3018 O   0  0  0  0  0  0
  -28.3712  -26.6410   20.1421 O   0  0  0  0  0  0
  -26.5603  -34.8930   22.4701 O   0  0  0  0  0  0
  -23.5340  -32.1445   23.7500 O   0  0  0  0  0  0
  -28.5764  -18.3661   21.5283 C   0  0  0  0  0  0
  -29.8548  -18.2223   21.0569 C   0  0  0  0  0  0
  -30.4967  -19.4844   20.7957 C   0  0  0  0  0  0
  -29.6876  -20.5750   21.0398 C   0  0  0  0  0  0
  -29.1907  -24.2383   20.5538 C   0  0  0  0  0  0
  -29.1688  -22.8981   20.2826 C   0  0  0  0  0  0
  -30.1942  -24.7486   21.5163 C   0  0  0  0  0  0
  -30.4927  -16.9078   20.7966 C   0  0  0  0  0  0
  -29.9435  -15.6735   20.9322 C   0  0  0  0  0  0
  -31.4095  -23.8578   21.7405 C   0  0  0  0  0  0
  -30.9893  -22.3909   21.9072 C   0  0  0  0  0  0
  -28.2177  -22.3350   19.2244 C   0  0  0  0  0  0
  -28.1909  -25.2230   19.9176 C   0  0  0  0  0  0
  -30.0013  -21.9474   20.9169 N   0  0  0  0  0  0
  -31.8098  -19.5703   20.3105 N   0  0  0  0  0  0
  -30.1153  -25.8180   22.1284 O   0  0  0  0  0  0
  -28.1334  -20.0509   21.6612 S   0  0  0  0  0  0
  -31.4642  -12.3745   19.1401 H   0  0  0  0  0  0
  -30.3004  -11.2953   19.8475 H   0  0  0  0  0  0
  -29.7389  -11.7695   17.4389 H   0  0  0  0  0  0
  -29.6718  -13.4816   17.7758 H   0  0  0  0  0  0
  -27.8257  -11.3085   18.8230 H   0  0  0  0  0  0
  -27.3682  -12.6338   17.7869 H   0  0  0  0  0  0
  -27.6991  -14.2549   19.5664 H   0  0  0  0  0  0
  -28.6794  -11.9692   21.3419 H   0  0  0  0  0  0
  -28.4687  -13.6005   21.8769 H   0  0  0  0  0  0
  -25.2750   -9.5692   22.4764 H   0  0  0  0  0  0
  -23.9990   -7.4644   22.7491 H   0  0  0  0  0  0
  -21.0831   -8.8760   19.8954 H   0  0  0  0  0  0
  -22.3675  -10.9668   19.6160 H   0  0  0  0  0  0
  -21.2007   -7.6143   23.9711 H   0  0  0  0  0  0
  -21.1488   -6.0517   25.9076 H   0  0  0  0  0  0
  -22.0596   -2.7604   23.2839 H   0  0  0  0  0  0
  -22.4108  -11.9884   22.4768 H   0  0  0  0  0  0
  -21.1113  -13.1262   22.2594 H   0  0  0  0  0  0
  -24.6601  -15.8416   20.5050 H   0  0  0  0  0  0
  -26.2775  -15.6220   20.0645 H   0  0  0  0  0  0
  -26.7109  -32.5544   23.1175 H   0  0  0  0  0  0
  -25.0031  -33.9780   25.0476 H   0  0  0  0  0  0
  -22.6923  -31.3135   21.4183 H   0  0  0  0  0  0
  -23.3751  -35.9652   23.3293 H   0  0  0  0  0  0
  -24.3572  -36.8952   22.2053 H   0  0  0  0  0  0
  -23.7237  -37.6523   23.6663 H   0  0  0  0  0  0
  -26.0512  -31.5950   20.6013 H   0  0  0  0  0  0
  -26.8223  -30.8800   21.9890 H   0  0  0  0  0  0
  -28.0941  -29.0688   21.1840 H   0  0  0  0  0  0
  -25.9964  -26.0157   18.9381 H   0  0  0  0  0  0
  -23.9654  -27.3353   19.0026 H   0  0  0  0  0  0
  -23.7182  -30.6145   19.4096 H   0  0  0  0  0  0
  -22.7334  -29.2581   19.8708 H   0  0  0  0  0  0
  -25.1284  -36.1987   25.0831 H   0  0  0  0  0  0
  -20.9959  -28.3236   24.1436 H   0  0  0  0  0  0
  -20.5688  -26.2270   23.3594 H   0  0  0  0  0  0
  -21.6637  -26.7460   22.1198 H   0  0  0  0  0  0
  -19.6905  -25.6313   21.1229 H   0  0  0  0  0  0
  -19.6680  -27.3210   20.6742 H   0  0  0  0  0  0
  -17.4196  -26.6680   21.4028 H   0  0  0  0  0  0
  -18.0318  -26.0063   22.9009 H   0  0  0  0  0  0
  -19.7926  -30.7256   24.2299 H   0  0  0  0  0  0
  -17.5012  -31.6268   24.5175 H   0  0  0  0  0  0
  -15.5349  -30.3005   23.7637 H   0  0  0  0  0  0
  -15.8660  -28.0831   22.7065 H   0  0  0  0  0  0
  -24.5920  -30.7017   25.7804 H   0  0  0  0  0  0
  -24.8908  -32.2810   26.4961 H   0  0  0  0  0  0
  -25.8098  -30.8826   27.0219 H   0  0  0  0  0  0
  -26.2876  -29.6812   24.1170 H   0  0  0  0  0  0
  -27.4118  -29.7308   25.4559 H   0  0  0  0  0  0
  -27.8692  -30.4409   23.9252 H   0  0  0  0  0  0
  -27.2652  -33.3643   26.2077 H   0  0  0  0  0  0
  -28.3842  -32.6890   25.0332 H   0  0  0  0  0  0
  -28.0697  -31.8470   26.5426 H   0  0  0  0  0  0
  -28.2590  -38.0131   24.7543 H   0  0  0  0  0  0
  -28.1095  -36.2663   24.6258 H   0  0  0  0  0  0
  -27.2296  -37.1438   25.8862 H   0  0  0  0  0  0
  -20.9290  -29.8777   21.6969 H   0  0  0  0  0  0
  -26.0186  -38.2881   24.1413 H   0  0  0  0  0  0
  -27.8619  -17.6028   21.8041 H   0  0  0  0  0  0
  -31.5106  -16.9748   20.4383 H   0  0  0  0  0  0
  -28.9355  -15.5909   21.3020 H   0  0  0  0  0  0
  -31.9751  -24.1948   22.6092 H   0  0  0  0  0  0
  -32.0615  -23.9608   20.8737 H   0  0  0  0  0  0
  -30.5658  -22.2520   22.9033 H   0  0  0  0  0  0
  -31.8779  -21.7611   21.8624 H   0  0  0  0  0  0
  -27.1851  -22.3965   19.5693 H   0  0  0  0  0  0
  -28.4207  -21.2998   18.9502 H   0  0  0  0  0  0
  -28.2977  -22.8995   18.2957 H   0  0  0  0  0  0
  -27.2363  -24.8943   20.3314 H   0  0  0  0  0  0
  -28.1597  -25.0626   18.8407 H   0  0  0  0  0  0
  -32.1723  -18.7590   19.8252 H   0  0  0  0  0  0
  -32.0348  -20.4398   19.8405 H   0  0  0  0  0  0
  1 25  1  0  0  0
  1 30  2  0  0  0
  1 79  1  0  0  0
  2  3  1  0  0  0
  2 25  1  0  0  0
  2 88  1  0  0  0
  2 89  1  0  0  0
  3  4  1  0  0  0
  3 90  1  0  0  0
  3 91  1  0  0  0
  4  5  1  0  0  0
  4 92  1  0  0  0
  4 93  1  0  0  0
  5  6  1  0  0  0
  5 26  1  0  0  0
  5 94  1  0  0  0
  6 25  1  0  0  0
  6 95  1  0  0  0
  6 96  1  0  0  0
  7  8  2  0  0  0
  7 26  1  0  0  0
  7 29  1  0  0  0
  8  9  1  0  0  0
  8 22  1  0  0  0
  9 10  1  0  0  0
  9 27  2  0  0  0
 10 11  2  0  0  0
 10 15  1  0  0  0
 11 12  1  0  0  0
 11 97  1  0  0  0
 12 13  2  0  0  0
 12 98  1  0  0  0
 13 14  1  0  0  0
 13 31  1  0  0  0
 14 15  2  0  0  0
 14 99  1  0  0  0
 15100  1  0  0  0
 16 17  2  0  0  0
 16 21  1  0  0  0
 16 31  1  0  0  0
 17 18  1  0  0  0
 17101  1  0  0  0
 18 19  2  0  0  0
 18102  1  0  0  0
 19 20  1  0  0  0
 19 24  1  0  0  0
 20 21  2  0  0  0
 20103  1  0  0  0
 21 23  1  0  0  0
 22 28  1  0  0  0
 22 32  2  0  0  0
 26 27  1  0  0  0
 28104  1  0  0  0
 28105  1  0  0  0
 29106  1  0  0  0
 29107  1  0  0  0
 33 34  1  0  0  0
 33 66  1  0  0  0
 33 70  2  0  0  0
 34 36  1  0  0  0
 34 59  1  0  0  0
 34108  1  0  0  0
 35 44  2  0  0  0
 35 45  1  0  0  0
 35 68  1  0  0  0
 36 56  1  0  0  0
 36109  1  0  0  0
 37 39  1  0  0  0
 37 47  1  0  0  0
 37 66  1  0  0  0
 37110  1  0  0  0
 38 43  2  0  0  0
 38 46  1  0  0  0
 38 47  1  0  0  0
 39 64  1  0  0  0
 39 67  2  0  0  0
 40 52  1  0  0  0
 40 53  2  0  0  0
 40 58  1  0  0  0
 41111  1  0  0  0
 41112  1  0  0  0
 41113  1  0  0  0
 41 48  1  0  0  0
 42 43  1  0  0  0
 42 66  1  0  0  0
 42114  1  0  0  0
 42115  1  0  0  0
 43 44  1  0  0  0
 44116  1  0  0  0
 45 46  2  0  0  0
 45117  1  0  0  0
 46118  1  0  0  0
 47119  1  0  0  0
 47120  1  0  0  0
 48 56  1  0  0  0
 48 65  1  0  0  0
 48121  1  0  0  0
 49 50  1  0  0  0
 49 53  1  0  0  0
 49 64  1  0  0  0
 49122  1  0  0  0
 50 51  1  0  0  0
 50123  1  0  0  0
 50124  1  0  0  0
 51 52  1  0  0  0
 51125  1  0  0  0
 51126  1  0  0  0
 52127  1  0  0  0
 52128  1  0  0  0
 53 54  1  0  0  0
 54 55  2  0  0  0
 54129  1  0  0  0
 55 57  1  0  0  0
 55130  1  0  0  0
 56 69  2  0  0  0
 57 58  2  0  0  0
 57131  1  0  0  0
 58132  1  0  0  0
 59 60  1  0  0  0
 59 61  1  0  0  0
 59 62  1  0  0  0
 60133  1  0  0  0
 60134  1  0  0  0
 60135  1  0  0  0
 61136  1  0  0  0
 61137  1  0  0  0
 61138  1  0  0  0
 62139  1  0  0  0
 62140  1  0  0  0
 62141  1  0  0  0
 63 65  1  0  0  0
 63142  1  0  0  0
 63143  1  0  0  0
 63144  1  0  0  0
 64145  1  0  0  0
 65146  1  0  0  0
 68 83  1  0  0  0
 71 72  2  0  0  0
 71 87  1  0  0  0
 71147  1  0  0  0
 72 73  1  0  0  0
 72 78  1  0  0  0
 73 74  2  0  0  0
 73 85  1  0  0  0
 74 84  1  0  0  0
 74 87  1  0  0  0
 75 76  2  0  0  0
 75 77  1  0  0  0
 75 83  1  0  0  0
 76 82  1  0  0  0
 76 84  1  0  0  0
 77 80  1  0  0  0
 77 86  2  0  0  0
 78 79  2  0  0  0
 78148  1  0  0  0
 79149  1  0  0  0
 80 81  1  0  0  0
 80150  1  0  0  0
 80151  1  0  0  0
 81 84  1  0  0  0
 81152  1  0  0  0
 81153  1  0  0  0
 82154  1  0  0  0
 82155  1  0  0  0
 82156  1  0  0  0
 83157  1  0  0  0
 83158  1  0  0  0
 85159  1  0  0  0
 85160  1  0  0  0
M  ISO  4   1 100  68 101  79 100  83 101
M  END
> <chiral flag>
0

> <version>
0

> <s_m_source_file>
/data/baiqing/PycharmProjects/Reinvent-master-3.2/result/LINK_invent/BTK/process_docking_weight1_custom_product_contain_oxygen_bond_distance_aromatic_linkinvent_7_9_3/rearranged_h_0114.sdf

> <i_m_source_file_index>
70

> <r_mmod_Potential_Energy-OPLS-2005>
-64.4602508544922

> <r_mmod_Stretch_Energy-OPLS-2005>
44.6168098449707

> <r_mmod_Bend_Energy-OPLS-2005>
107.554229736328

> <r_mmod_Torsional_Energy-OPLS-2005>
183.427307128906

> <r_mmod_Improper_Torsional_Energy-OPLS-2005>
10.3030204772949

> <r_mmod_Van_der_Waal_Energy-OPLS-2005>
168.199493408203

> <r_mmod_Electrostatic_Energy-OPLS-2005>
-372.863525390625

> <r_mmod_Solvation_Energy-OPLS-2005>
-224.391143798828

> <b_mmod_Minimization_Converged-OPLS-2005>
0

> <r_mmod_RMS_Derivative-OPLS-2005>
1.01272177696228

$$$$
70
                    3D
 Structure written by MMmdl.
175184  0  0  1  0            999 V2000
  -30.7034  -14.4685   20.3963 C   0  0  0  0  0  0
  -30.3894  -12.2256   19.4770 C   0  0  0  0  0  0
  -29.4851  -12.3527   18.2356 C   0  0  0  0  0  0
  -27.9990  -12.3041   18.6411 C   0  0  0  0  0  0
  -27.6394  -13.2002   19.8640 C   0  0  2  0  0  0
  -28.6921  -13.0822   20.9939 C   0  0  0  0  0  0
  -25.2423  -13.8175   20.5712 C   0  0  0  0  0  0
  -24.1713  -13.0419   20.9282 C   0  0  0  0  0  0
  -24.6266  -11.6911   20.8809 C   0  0  0  0  0  0
  -23.8961  -10.4279   21.0455 C   0  0  0  0  0  0
  -24.3575   -9.4215   21.9227 C   0  0  0  0  0  0
  -23.6328   -8.2199   22.0776 C   0  0  0  0  0  0
  -22.4329   -8.0208   21.3559 C   0  0  0  0  0  0
  -21.9921   -9.0143   20.4670 C   0  0  0  0  0  0
  -22.7147  -10.2082   20.3093 C   0  0  0  0  0  0
  -21.6868   -6.0688   22.5265 C   0  0  0  0  0  0
  -21.4007   -6.5617   23.8164 C   0  0  0  0  0  0
  -21.3674   -5.6788   24.9146 C   0  0  0  0  0  0
  -21.6040   -4.3034   24.7226 C   0  0  0  0  0  0
  -21.8831   -3.8132   23.4353 C   0  0  0  0  0  0
  -21.9223   -4.6938   22.3401 C   0  0  0  0  0  0
  -22.7729  -13.5187   21.1988 C   0  0  0  0  0  0
  -22.1678   -4.2117   21.0977 F   0  0  0  0  0  0
  -21.5673   -3.4525   25.7735 F   0  0  0  0  0  0
  -30.0217  -13.2980   20.4063 N   0  0  0  0  0  0
  -26.2856  -12.9319   20.3440 N   0  0  0  0  0  0
  -25.9203  -11.6491   20.5893 N   0  0  0  0  0  0
  -22.0385  -12.8131   22.0520 N   0  0  0  0  0  0
  -25.4065  -15.1911   20.4024 N   0  0  0  0  0  0
  -31.9070  -14.5601   20.1443 O   0  0  0  0  0  0
  -21.6689   -6.8802   21.4215 O   0  0  0  0  0  0
  -22.3404  -14.5495   20.6861 O   0  0  0  0  0  0
  -24.6173  -31.8668   23.2108 C   0  0  0  0  0  0
  -25.9054  -32.4814   23.8409 C   0  0  1  0  0  0
  -27.2360  -27.4419   20.0489 C   0  0  0  0  0  0
  -25.5917  -33.8620   24.2355 N   0  0  0  0  0  0
  -23.4049  -30.4904   21.5541 C   0  0  2  0  0  0
  -24.8429  -28.9535   20.1120 C   0  0  0  0  0  0
  -22.7415  -29.4649   22.5027 C   0  0  0  0  0  0
  -18.0276  -28.1382   22.8489 C   0  0  0  0  0  0
  -24.1484  -36.7317   23.2635 C   0  0  0  0  0  0
  -25.9327  -30.8249   21.3633 C   0  0  0  0  0  0
  -26.0034  -29.4589   20.7098 C   0  0  0  0  0  0
  -27.1963  -28.7029   20.6868 C   0  0  0  0  0  0
  -26.0474  -26.9372   19.4710 C   0  0  0  0  0  0
  -24.8568  -27.6879   19.5018 C   0  0  0  0  0  0
  -23.6083  -29.8241   20.1674 C   0  0  0  0  0  0
  -25.4095  -36.3122   24.0354 C   0  0  1  0  0  0
  -20.5861  -28.3658   23.1327 C   0  0  2  0  0  0
  -20.6758  -26.9401   22.5415 C   0  0  0  0  0  0
  -19.5740  -26.6398   21.5201 C   0  0  0  0  0  0
  -18.1915  -26.7934   22.1610 C   0  0  0  0  0  0
  -19.1524  -28.8838   23.2908 C   0  0  0  0  0  0
  -18.9450  -30.1447   23.8913 C   0  0  0  0  0  0
  -17.6450  -30.6585   24.0566 C   0  0  0  0  0  0
  -25.9029  -34.9472   23.5149 C   0  0  0  0  0  0
  -16.5344  -29.9083   23.6330 C   0  0  0  0  0  0
  -16.7262  -28.6508   23.0338 C   0  0  0  0  0  0
  -26.4464  -31.6580   25.0728 C   0  0  0  0  0  0
  -25.3756  -31.3638   26.1501 C   0  0  0  0  0  0
  -27.0266  -30.3041   24.6035 C   0  0  0  0  0  0
  -27.6080  -32.4254   25.7461 C   0  0  0  0  0  0
  -27.5595  -37.1800   24.8455 C   0  0  0  0  0  0
  -21.4149  -29.3042   22.3752 N   0  0  0  0  0  0
  -26.4282  -37.3807   23.9437 N   0  0  0  0  0  0
  -24.6708  -31.0734   22.1023 N   0  0  0  0  0  0
  -23.4174  -28.8202   23.3081 O   0  0  0  0  0  0
  -28.4231  -26.7398   20.0605 O   0  0  0  0  0  0
  -26.5578  -34.8928   22.4706 O   0  0  0  0  0  0
  -23.5358  -32.1432   23.7494 O   0  0  0  0  0  0
  -31.2924  -18.8537   18.1364 C   0  0  0  0  0  0
  -30.3493  -16.7202   19.6037 C   0  0  0  0  0  0
  -31.5110  -18.8641   19.5212 C   0  0  0  0  0  0
  -31.0577  -17.7486   20.2603 C   0  0  0  0  0  0
  -30.1211  -16.8516   18.2081 C   0  0  0  0  0  0
  -29.9121  -23.5961   18.9234 C   0  0  0  0  0  0
  -29.8692  -24.8963   19.3382 C   0  0  0  0  0  0
  -27.6167  -22.8727   18.3362 C   0  0  0  0  0  0
  -29.3093  -15.8821   17.4483 C   0  0  0  0  0  0
  -28.9147  -23.0263   18.0318 C   0  0  0  0  0  0
  -29.2564  -15.7500   16.1094 C   0  0  0  0  0  0
  -30.9783  -25.5210   20.1913 C   0  0  0  0  0  0
  -31.9864  -24.5241   20.7768 C   0  0  0  0  0  0
  -32.3033  -23.4317   19.7580 C   0  0  0  0  0  0
  -31.0336  -22.6521   19.3677 C   0  0  1  0  0  0
  -28.3161  -14.7967   15.3965 C   0  0  0  0  0  0
  -28.7822  -25.9091   18.9455 C   0  0  0  0  0  0
  -30.4974  -21.6883   20.4611 C   0  0  0  0  0  0
  -31.5021  -20.6827   21.0601 C   0  0  0  0  0  0
  -30.6232  -17.8804   17.4918 N   0  0  0  0  0  0
  -29.9351  -15.5663   20.3385 N   0  0  0  0  0  0
  -32.1952  -19.9244   20.0708 O   0  0  0  0  0  0
  -31.3005  -17.6549   21.5912 F   0  0  0  0  0  0
  -31.4415  -12.2543   19.1921 H   0  0  0  0  0  0
  -30.2272  -11.2605   19.9627 H   0  0  0  0  0  0
  -29.6944  -11.5286   17.5500 H   0  0  0  0  0  0
  -29.7149  -13.2582   17.6825 H   0  0  0  0  0  0
  -27.7911  -11.2595   18.8792 H   0  0  0  0  0  0
  -27.3627  -12.5395   17.7890 H   0  0  0  0  0  0
  -27.6390  -14.2292   19.5184 H   0  0  0  0  0  0
  -28.6508  -12.1060   21.4779 H   0  0  0  0  0  0
  -28.4933  -13.8131   21.7797 H   0  0  0  0  0  0
  -25.2708   -9.5736   22.4802 H   0  0  0  0  0  0
  -24.0107   -7.4594   22.7488 H   0  0  0  0  0  0
  -21.0874   -8.8536   19.8968 H   0  0  0  0  0  0
  -22.3512  -10.9595   19.6238 H   0  0  0  0  0  0
  -21.1912   -7.6120   23.9624 H   0  0  0  0  0  0
  -21.1548   -6.0543   25.9036 H   0  0  0  0  0  0
  -22.0620   -2.7601   23.2827 H   0  0  0  0  0  0
  -22.4049  -11.9826   22.4949 H   0  0  0  0  0  0
  -21.0958  -13.1065   22.2710 H   0  0  0  0  0  0
  -24.6256  -15.8347   20.4855 H   0  0  0  0  0  0
  -26.2529  -15.6483   20.0932 H   0  0  0  0  0  0
  -26.7119  -32.5498   23.1169 H   0  0  0  0  0  0
  -25.0111  -33.9769   25.0529 H   0  0  0  0  0  0
  -22.6972  -31.3103   21.4176 H   0  0  0  0  0  0
  -23.3756  -35.9636   23.3270 H   0  0  0  0  0  0
  -24.3602  -36.8946   22.2056 H   0  0  0  0  0  0
  -23.7203  -37.6510   23.6640 H   0  0  0  0  0  0
  -26.0390  -31.5862   20.5891 H   0  0  0  0  0  0
  -26.8265  -30.8829   21.9727 H   0  0  0  0  0  0
  -28.0950  -29.0846   21.1501 H   0  0  0  0  0  0
  -26.0032  -25.9609   19.0131 H   0  0  0  0  0  0
  -23.9577  -27.2854   19.0560 H   0  0  0  0  0  0
  -23.7212  -30.6016   19.4115 H   0  0  0  0  0  0
  -22.7283  -29.2499   19.8716 H   0  0  0  0  0  0
  -25.1246  -36.2001   25.0839 H   0  0  0  0  0  0
  -20.9941  -28.3207   24.1453 H   0  0  0  0  0  0
  -20.5638  -26.2260   23.3593 H   0  0  0  0  0  0
  -21.6627  -26.7432   22.1219 H   0  0  0  0  0  0
  -19.6890  -25.6314   21.1210 H   0  0  0  0  0  0
  -19.6683  -27.3224   20.6743 H   0  0  0  0  0  0
  -17.4189  -26.6714   21.4007 H   0  0  0  0  0  0
  -18.0306  -26.0066   22.8989 H   0  0  0  0  0  0
  -19.7923  -30.7268   24.2280 H   0  0  0  0  0  0
  -17.5001  -31.6256   24.5176 H   0  0  0  0  0  0
  -15.5343  -30.2981   23.7643 H   0  0  0  0  0  0
  -15.8670  -28.0830   22.7027 H   0  0  0  0  0  0
  -24.6001  -30.6879   25.7879 H   0  0  0  0  0  0
  -24.8841  -32.2740   26.4942 H   0  0  0  0  0  0
  -25.8176  -30.8875   27.0266 H   0  0  0  0  0  0
  -26.2760  -29.6826   24.1141 H   0  0  0  0  0  0
  -27.4132  -29.7248   25.4429 H   0  0  0  0  0  0
  -27.8554  -30.4406   23.9091 H   0  0  0  0  0  0
  -27.2774  -33.3578   26.2052 H   0  0  0  0  0  0
  -28.3872  -32.6763   25.0249 H   0  0  0  0  0  0
  -28.0756  -31.8343   26.5350 H   0  0  0  0  0  0
  -28.2565  -38.0145   24.7578 H   0  0  0  0  0  0
  -28.1135  -36.2684   24.6160 H   0  0  0  0  0  0
  -27.2340  -37.1312   25.8861 H   0  0  0  0  0  0
  -20.9315  -29.8785   21.6994 H   0  0  0  0  0  0
  -26.0179  -38.2878   24.1483 H   0  0  0  0  0  0
  -31.6378  -19.6778   17.5303 H   0  0  0  0  0  0
  -26.9283  -22.4386   17.6246 H   0  0  0  0  0  0
  -27.2235  -23.1763   19.2947 H   0  0  0  0  0  0
  -28.6631  -15.2481   18.0264 H   0  0  0  0  0  0
  -29.2454  -22.6994   17.0542 H   0  0  0  0  0  0
  -29.8990  -16.3475   15.4756 H   0  0  0  0  0  0
  -30.5703  -26.1317   20.9967 H   0  0  0  0  0  0
  -31.5099  -26.2094   19.5333 H   0  0  0  0  0  0
  -31.6017  -24.0880   21.7017 H   0  0  0  0  0  0
  -32.8980  -25.0579   21.0488 H   0  0  0  0  0  0
  -33.0922  -22.7685   20.1111 H   0  0  0  0  0  0
  -32.7028  -23.9092   18.8612 H   0  0  0  0  0  0
  -31.2985  -22.0320   18.5102 H   0  0  0  0  0  0
  -27.6382  -14.3096   16.0994 H   0  0  0  0  0  0
  -28.8710  -14.0223   14.8663 H   0  0  0  0  0  0
  -27.7133  -15.3508   14.6752 H   0  0  0  0  0  0
  -27.9346  -25.4197   18.4809 H   0  0  0  0  0  0
  -29.1996  -26.5597   18.1763 H   0  0  0  0  0  0
  -29.6483  -21.1326   20.0656 H   0  0  0  0  0  0
  -30.0851  -22.2784   21.2813 H   0  0  0  0  0  0
  -30.9737  -20.0340   21.7580 H   0  0  0  0  0  0
  -32.2397  -21.2228   21.6516 H   0  0  0  0  0  0
  -28.9478  -15.4458   20.5084 H   0  0  0  0  0  0
  1 25  1  0  0  0
  1 30  2  0  0  0
  1 91  1  0  0  0
  2  3  1  0  0  0
  2 25  1  0  0  0
  2 94  1  0  0  0
  2 95  1  0  0  0
  3  4  1  0  0  0
  3 96  1  0  0  0
  3 97  1  0  0  0
  4  5  1  0  0  0
  4 98  1  0  0  0
  4 99  1  0  0  0
  5  6  1  0  0  0
  5 26  1  0  0  0
  5100  1  0  0  0
  6 25  1  0  0  0
  6101  1  0  0  0
  6102  1  0  0  0
  7  8  2  0  0  0
  7 26  1  0  0  0
  7 29  1  0  0  0
  8  9  1  0  0  0
  8 22  1  0  0  0
  9 10  1  0  0  0
  9 27  2  0  0  0
 10 11  2  0  0  0
 10 15  1  0  0  0
 11 12  1  0  0  0
 11103  1  0  0  0
 12 13  2  0  0  0
 12104  1  0  0  0
 13 14  1  0  0  0
 13 31  1  0  0  0
 14 15  2  0  0  0
 14105  1  0  0  0
 15106  1  0  0  0
 16 17  2  0  0  0
 16 21  1  0  0  0
 16 31  1  0  0  0
 17 18  1  0  0  0
 17107  1  0  0  0
 18 19  2  0  0  0
 18108  1  0  0  0
 19 20  1  0  0  0
 19 24  1  0  0  0
 20 21  2  0  0  0
 20109  1  0  0  0
 21 23  1  0  0  0
 22 28  1  0  0  0
 22 32  2  0  0  0
 26 27  1  0  0  0
 28110  1  0  0  0
 28111  1  0  0  0
 29112  1  0  0  0
 29113  1  0  0  0
 33 34  1  0  0  0
 33 66  1  0  0  0
 33 70  2  0  0  0
 34 36  1  0  0  0
 34 59  1  0  0  0
 34114  1  0  0  0
 35 44  2  0  0  0
 35 45  1  0  0  0
 35 68  1  0  0  0
 36 56  1  0  0  0
 36115  1  0  0  0
 37 39  1  0  0  0
 37 47  1  0  0  0
 37 66  1  0  0  0
 37116  1  0  0  0
 38 43  2  0  0  0
 38 46  1  0  0  0
 38 47  1  0  0  0
 39 64  1  0  0  0
 39 67  2  0  0  0
 40 52  1  0  0  0
 40 53  2  0  0  0
 40 58  1  0  0  0
 41117  1  0  0  0
 41118  1  0  0  0
 41119  1  0  0  0
 41 48  1  0  0  0
 42 43  1  0  0  0
 42 66  1  0  0  0
 42120  1  0  0  0
 42121  1  0  0  0
 43 44  1  0  0  0
 44122  1  0  0  0
 45 46  2  0  0  0
 45123  1  0  0  0
 46124  1  0  0  0
 47125  1  0  0  0
 47126  1  0  0  0
 48 56  1  0  0  0
 48 65  1  0  0  0
 48127  1  0  0  0
 49 50  1  0  0  0
 49 53  1  0  0  0
 49 64  1  0  0  0
 49128  1  0  0  0
 50 51  1  0  0  0
 50129  1  0  0  0
 50130  1  0  0  0
 51 52  1  0  0  0
 51131  1  0  0  0
 51132  1  0  0  0
 52133  1  0  0  0
 52134  1  0  0  0
 53 54  1  0  0  0
 54 55  2  0  0  0
 54135  1  0  0  0
 55 57  1  0  0  0
 55136  1  0  0  0
 56 69  2  0  0  0
 57 58  2  0  0  0
 57137  1  0  0  0
 58138  1  0  0  0
 59 60  1  0  0  0
 59 61  1  0  0  0
 59 62  1  0  0  0
 60139  1  0  0  0
 60140  1  0  0  0
 60141  1  0  0  0
 61142  1  0  0  0
 61143  1  0  0  0
 61144  1  0  0  0
 62145  1  0  0  0
 62146  1  0  0  0
 62147  1  0  0  0
 63 65  1  0  0  0
 63148  1  0  0  0
 63149  1  0  0  0
 63150  1  0  0  0
 64151  1  0  0  0
 65152  1  0  0  0
 68 87  1  0  0  0
 71 73  2  0  0  0
 71 90  1  0  0  0
 71153  1  0  0  0
 72 74  2  0  0  0
 72 75  1  0  0  0
 72 91  1  0  0  0
 73 74  1  0  0  0
 73 92  1  0  0  0
 74 93  1  0  0  0
 75 79  1  0  0  0
 75 90  2  0  0  0
 76 77  2  0  0  0
 76 80  1  0  0  0
 76 85  1  0  0  0
 77 82  1  0  0  0
 77 87  1  0  0  0
 78 80  2  0  0  0
 78154  1  0  0  0
 78155  1  0  0  0
 79 81  2  0  0  0
 79156  1  0  0  0
 80157  1  0  0  0
 81 86  1  0  0  0
 81158  1  0  0  0
 82 83  1  0  0  0
 82159  1  0  0  0
 82160  1  0  0  0
 83 84  1  0  0  0
 83161  1  0  0  0
 83162  1  0  0  0
 84 85  1  0  0  0
 84163  1  0  0  0
 84164  1  0  0  0
 85 88  1  0  0  0
 85165  1  0  0  0
 86166  1  0  0  0
 86167  1  0  0  0
 86168  1  0  0  0
 87169  1  0  0  0
 87170  1  0  0  0
 88 89  1  0  0  0
 88171  1  0  0  0
 88172  1  0  0  0
 89 92  1  0  0  0
 89173  1  0  0  0
 89174  1  0  0  0
 91175  1  0  0  0
M  ISO  4   1 100  68 101  87 101  91 100
M  END
> <chiral flag>
0

> <version>
0

> <s_m_source_file>
/data/baiqing/PycharmProjects/Reinvent-master-3.2/result/LINK_invent/BTK/process_docking_weight1_custom_product_contain_oxygen_bond_distance_aromatic_linkinvent_7_9_3/rearranged_h_0114.sdf

> <i_m_source_file_index>
71

> <r_mmod_Potential_Energy-OPLS-2005>
-76.2218780517578

> <r_mmod_Stretch_Energy-OPLS-2005>
38.6052474975586

> <r_mmod_Bend_Energy-OPLS-2005>
119.197448730469

> <r_mmod_Torsional_Energy-OPLS-2005>
316.843231201172

> <r_mmod_Improper_Torsional_Energy-OPLS-2005>
10.2469711303711

> <r_mmod_Van_der_Waal_Energy-OPLS-2005>
163.180404663086

> <r_mmod_Electrostatic_Energy-OPLS-2005>
-543.177551269531

> <r_mmod_Solvation_Energy-OPLS-2005>
-210.508392333984

> <b_mmod_Minimization_Converged-OPLS-2005>
0

> <r_mmod_RMS_Derivative-OPLS-2005>
4.60925531387329

$$$$
71
                    3D
 Structure written by MMmdl.
162170  0  0  1  0            999 V2000
  -30.6757  -14.5502   20.5667 C   0  0  0  0  0  0
  -30.4317  -12.3627   19.4200 C   0  0  0  0  0  0
  -29.4925  -12.5122   18.2047 C   0  0  0  0  0  0
  -28.0181  -12.3506   18.6262 C   0  0  0  0  0  0
  -27.6552  -13.2101   19.8658 C   0  0  2  0  0  0
  -28.7027  -13.0314   20.9855 C   0  0  0  0  0  0
  -25.2566  -13.8174   20.5675 C   0  0  0  0  0  0
  -24.1837  -13.0445   20.9202 C   0  0  0  0  0  0
  -24.6409  -11.6911   20.8783 C   0  0  0  0  0  0
  -23.9089  -10.4291   21.0444 C   0  0  0  0  0  0
  -24.3638   -9.4192   21.9207 C   0  0  0  0  0  0
  -23.6307   -8.2232   22.0753 C   0  0  0  0  0  0
  -22.4284   -8.0295   21.3546 C   0  0  0  0  0  0
  -21.9945   -9.0272   20.4640 C   0  0  0  0  0  0
  -22.7287  -10.2143   20.3066 C   0  0  0  0  0  0
  -21.6851   -6.0757   22.5288 C   0  0  0  0  0  0
  -21.4015   -6.5649   23.8219 C   0  0  0  0  0  0
  -21.3649   -5.6796   24.9173 C   0  0  0  0  0  0
  -21.6043   -4.3062   24.7221 C   0  0  0  0  0  0
  -21.8815   -3.8165   23.4336 C   0  0  0  0  0  0
  -21.9193   -4.6987   22.3403 C   0  0  0  0  0  0
  -22.7853  -13.5227   21.1872 C   0  0  0  0  0  0
  -22.1657   -4.2181   21.0980 F   0  0  0  0  0  0
  -21.5625   -3.4535   25.7730 F   0  0  0  0  0  0
  -30.0195  -13.3632   20.4164 N   0  0  0  0  0  0
  -26.2990  -12.9332   20.3336 N   0  0  0  0  0  0
  -25.9340  -11.6503   20.5798 N   0  0  0  0  0  0
  -22.0497  -12.8186   22.0417 N   0  0  0  0  0  0
  -25.4288  -15.1884   20.4017 N   0  0  0  0  0  0
  -31.8415  -14.7143   20.1992 O   0  0  0  0  0  0
  -21.6636   -6.8903   21.4255 O   0  0  0  0  0  0
  -22.3533  -14.5555   20.6762 O   0  0  0  0  0  0
  -24.6184  -31.8651   23.2101 C   0  0  0  0  0  0
  -25.9056  -32.4818   23.8393 C   0  0  1  0  0  0
  -27.2429  -27.3846   20.0937 C   0  0  0  0  0  0
  -25.5896  -33.8617   24.2305 N   0  0  0  0  0  0
  -23.4084  -30.4848   21.5527 C   0  0  2  0  0  0
  -24.8580  -28.9494   20.1157 C   0  0  0  0  0  0
  -22.7454  -29.4580   22.4992 C   0  0  0  0  0  0
  -18.0279  -28.1393   22.8473 C   0  0  0  0  0  0
  -24.1488  -36.7297   23.2633 C   0  0  0  0  0  0
  -25.9438  -30.8110   21.3732 C   0  0  0  0  0  0
  -26.0193  -29.4440   20.7149 C   0  0  0  0  0  0
  -27.2085  -28.6706   20.6986 C   0  0  0  0  0  0
  -26.0488  -26.9110   19.4983 C   0  0  0  0  0  0
  -24.8707  -27.6832   19.5039 C   0  0  0  0  0  0
  -23.6205  -29.8205   20.1654 C   0  0  0  0  0  0
  -25.4118  -36.3104   24.0319 C   0  0  1  0  0  0
  -20.5875  -28.3623   23.1362 C   0  0  2  0  0  0
  -20.6768  -26.9345   22.5436 C   0  0  0  0  0  0
  -19.5750  -26.6373   21.5232 C   0  0  0  0  0  0
  -18.1917  -26.7938   22.1617 C   0  0  0  0  0  0
  -19.1530  -28.8837   23.2911 C   0  0  0  0  0  0
  -18.9444  -30.1458   23.8878 C   0  0  0  0  0  0
  -17.6445  -30.6567   24.0563 C   0  0  0  0  0  0
  -25.9059  -34.9472   23.5115 C   0  0  0  0  0  0
  -16.5336  -29.9054   23.6385 C   0  0  0  0  0  0
  -16.7263  -28.6510   23.0318 C   0  0  0  0  0  0
  -26.4467  -31.6628   25.0758 C   0  0  0  0  0  0
  -25.3705  -31.3674   26.1480 C   0  0  0  0  0  0
  -27.0308  -30.3088   24.6141 C   0  0  0  0  0  0
  -27.6095  -32.4328   25.7468 C   0  0  0  0  0  0
  -27.5580  -37.1781   24.8447 C   0  0  0  0  0  0
  -21.4172  -29.2970   22.3762 N   0  0  0  0  0  0
  -26.4291  -37.3809   23.9402 N   0  0  0  0  0  0
  -24.6751  -31.0685   22.1035 N   0  0  0  0  0  0
  -23.4215  -28.8126   23.3057 O   0  0  0  0  0  0
  -28.4302  -26.6543   20.1272 O   0  0  0  0  0  0
  -26.5627  -34.8911   22.4677 O   0  0  0  0  0  0
  -23.5364  -32.1404   23.7472 O   0  0  0  0  0  0
  -31.6399  -18.1735   19.9297 C   0  0  0  0  0  0
  -29.8415  -19.3405   21.0738 C   0  0  0  0  0  0
  -32.0199  -19.3805   19.3000 C   0  0  0  0  0  0
  -30.5621  -18.1328   20.8325 C   0  0  0  0  0  0
  -30.1851  -20.5773   20.4505 C   0  0  0  0  0  0
  -31.3123  -20.5788   19.5770 C   0  0  0  0  0  0
  -34.2917  -18.6123   18.5481 C   0  0  0  0  0  0
  -33.2305  -19.4340   18.4532 C   0  0  0  0  0  0
  -32.6851  -22.4376   19.9198 C   0  0  0  0  0  0
  -30.3283  -16.8501   21.6673 C   0  0  0  0  0  0
  -28.8596  -24.1695   20.5317 C   0  0  0  0  0  0
  -28.5805  -25.3381   19.5226 C   0  0  0  0  0  0
  -29.1317  -22.7715   19.8760 C   0  0  0  0  0  0
  -29.9209  -15.5790   21.0217 N   0  0  0  0  0  0
  -31.8016  -21.7448   19.0466 O   0  0  0  0  0  0
  -29.4932  -21.7354   20.8317 O   0  0  0  0  0  0
  -31.4707  -12.4911   19.1124 H   0  0  0  0  0  0
  -30.3628  -11.3589   19.8412 H   0  0  0  0  0  0
  -29.7440  -11.7785   17.4387 H   0  0  0  0  0  0
  -29.6327  -13.4925   17.7466 H   0  0  0  0  0  0
  -27.8559  -11.2956   18.8525 H   0  0  0  0  0  0
  -27.3561  -12.5869   17.7926 H   0  0  0  0  0  0
  -27.6840  -14.2505   19.5435 H   0  0  0  0  0  0
  -28.7020  -12.0018   21.3473 H   0  0  0  0  0  0
  -28.4571  -13.6448   21.8535 H   0  0  0  0  0  0
  -25.2792   -9.5648   22.4783 H   0  0  0  0  0  0
  -24.0012   -7.4612   22.7466 H   0  0  0  0  0  0
  -21.0884   -8.8816   19.8937 H   0  0  0  0  0  0
  -22.3790  -10.9690   19.6166 H   0  0  0  0  0  0
  -21.2011   -7.6158   23.9745 H   0  0  0  0  0  0
  -21.1465   -6.0516   25.9083 H   0  0  0  0  0  0
  -22.0610   -2.7634   23.2831 H   0  0  0  0  0  0
  -22.4097  -11.9798   22.4728 H   0  0  0  0  0  0
  -21.1133  -13.1199   22.2670 H   0  0  0  0  0  0
  -24.6608  -15.8449   20.4927 H   0  0  0  0  0  0
  -26.2721  -15.6201   20.0463 H   0  0  0  0  0  0
  -26.7098  -32.5487   23.1105 H   0  0  0  0  0  0
  -25.0021  -33.9815   25.0428 H   0  0  0  0  0  0
  -22.6971  -31.3015   21.4137 H   0  0  0  0  0  0
  -23.3783  -35.9595   23.3300 H   0  0  0  0  0  0
  -24.3554  -36.8939   22.2044 H   0  0  0  0  0  0
  -23.7228  -37.6483   23.6683 H   0  0  0  0  0  0
  -26.0659  -31.5768   20.6087 H   0  0  0  0  0  0
  -26.8308  -30.8616   21.9926 H   0  0  0  0  0  0
  -28.1083  -29.0551   21.1577 H   0  0  0  0  0  0
  -25.9841  -25.9435   19.0295 H   0  0  0  0  0  0
  -23.9755  -27.2915   19.0478 H   0  0  0  0  0  0
  -23.7220  -30.6018   19.4125 H   0  0  0  0  0  0
  -22.7435  -29.2419   19.8695 H   0  0  0  0  0  0
  -25.1292  -36.1960   25.0818 H   0  0  0  0  0  0
  -20.9937  -28.3170   24.1500 H   0  0  0  0  0  0
  -20.5753  -26.2162   23.3587 H   0  0  0  0  0  0
  -21.6622  -26.7439   22.1150 H   0  0  0  0  0  0
  -19.6916  -25.6303   21.1211 H   0  0  0  0  0  0
  -19.6760  -27.3226   20.6800 H   0  0  0  0  0  0
  -17.4196  -26.6696   21.4002 H   0  0  0  0  0  0
  -18.0290  -26.0087   22.9031 H   0  0  0  0  0  0
  -19.7929  -30.7313   24.2169 H   0  0  0  0  0  0
  -17.4986  -31.6261   24.5147 H   0  0  0  0  0  0
  -15.5334  -30.2908   23.7768 H   0  0  0  0  0  0
  -15.8669  -28.0874   22.6958 H   0  0  0  0  0  0
  -24.5909  -30.7022   25.7729 H   0  0  0  0  0  0
  -24.8836  -32.2785   26.5001 H   0  0  0  0  0  0
  -25.8012  -30.8757   27.0215 H   0  0  0  0  0  0
  -26.2845  -29.6833   24.1235 H   0  0  0  0  0  0
  -27.4123  -29.7376   25.4610 H   0  0  0  0  0  0
  -27.8660  -30.4427   23.9261 H   0  0  0  0  0  0
  -27.2830  -33.3669   26.2046 H   0  0  0  0  0  0
  -28.3886  -32.6812   25.0251 H   0  0  0  0  0  0
  -28.0767  -31.8417   26.5362 H   0  0  0  0  0  0
  -28.2556  -38.0117   24.7587 H   0  0  0  0  0  0
  -28.1122  -36.2660   24.6186 H   0  0  0  0  0  0
  -27.2285  -37.1317   25.8840 H   0  0  0  0  0  0
  -20.9325  -29.8678   21.6979 H   0  0  0  0  0  0
  -26.0184  -38.2865   24.1506 H   0  0  0  0  0  0
  -32.2178  -17.2742   19.7687 H   0  0  0  0  0  0
  -29.0360  -19.3284   21.7958 H   0  0  0  0  0  0
  -35.1358  -18.7172   17.8807 H   0  0  0  0  0  0
  -34.3498  -17.8310   19.2930 H   0  0  0  0  0  0
  -33.2455  -20.1959   17.6840 H   0  0  0  0  0  0
  -33.0458  -23.3442   19.4350 H   0  0  0  0  0  0
  -33.5583  -21.8332   20.1707 H   0  0  0  0  0  0
  -32.1841  -22.7260   20.8447 H   0  0  0  0  0  0
  -29.5693  -17.0704   22.4193 H   0  0  0  0  0  0
  -31.2395  -16.6634   22.2367 H   0  0  0  0  0  0
  -28.0273  -24.0848   21.2299 H   0  0  0  0  0  0
  -29.7275  -24.4368   21.1352 H   0  0  0  0  0  0
  -27.7858  -25.0610   18.8363 H   0  0  0  0  0  0
  -29.4588  -25.4198   18.8802 H   0  0  0  0  0  0
  -29.8653  -22.9127   19.0902 H   0  0  0  0  0  0
  -28.2277  -22.4405   19.3636 H   0  0  0  0  0  0
  -28.9513  -15.3387   21.1522 H   0  0  0  0  0  0
  1 25  1  0  0  0
  1 30  2  0  0  0
  1 84  1  0  0  0
  2  3  1  0  0  0
  2 25  1  0  0  0
  2 87  1  0  0  0
  2 88  1  0  0  0
  3  4  1  0  0  0
  3 89  1  0  0  0
  3 90  1  0  0  0
  4  5  1  0  0  0
  4 91  1  0  0  0
  4 92  1  0  0  0
  5  6  1  0  0  0
  5 26  1  0  0  0
  5 93  1  0  0  0
  6 25  1  0  0  0
  6 94  1  0  0  0
  6 95  1  0  0  0
  7  8  2  0  0  0
  7 26  1  0  0  0
  7 29  1  0  0  0
  8  9  1  0  0  0
  8 22  1  0  0  0
  9 10  1  0  0  0
  9 27  2  0  0  0
 10 11  2  0  0  0
 10 15  1  0  0  0
 11 12  1  0  0  0
 11 96  1  0  0  0
 12 13  2  0  0  0
 12 97  1  0  0  0
 13 14  1  0  0  0
 13 31  1  0  0  0
 14 15  2  0  0  0
 14 98  1  0  0  0
 15 99  1  0  0  0
 16 17  2  0  0  0
 16 21  1  0  0  0
 16 31  1  0  0  0
 17 18  1  0  0  0
 17100  1  0  0  0
 18 19  2  0  0  0
 18101  1  0  0  0
 19 20  1  0  0  0
 19 24  1  0  0  0
 20 21  2  0  0  0
 20102  1  0  0  0
 21 23  1  0  0  0
 22 28  1  0  0  0
 22 32  2  0  0  0
 26 27  1  0  0  0
 28103  1  0  0  0
 28104  1  0  0  0
 29105  1  0  0  0
 29106  1  0  0  0
 33 34  1  0  0  0
 33 66  1  0  0  0
 33 70  2  0  0  0
 34 36  1  0  0  0
 34 59  1  0  0  0
 34107  1  0  0  0
 35 44  2  0  0  0
 35 45  1  0  0  0
 35 68  1  0  0  0
 36 56  1  0  0  0
 36108  1  0  0  0
 37 39  1  0  0  0
 37 47  1  0  0  0
 37 66  1  0  0  0
 37109  1  0  0  0
 38 43  2  0  0  0
 38 46  1  0  0  0
 38 47  1  0  0  0
 39 64  1  0  0  0
 39 67  2  0  0  0
 40 52  1  0  0  0
 40 53  2  0  0  0
 40 58  1  0  0  0
 41110  1  0  0  0
 41111  1  0  0  0
 41112  1  0  0  0
 41 48  1  0  0  0
 42 43  1  0  0  0
 42 66  1  0  0  0
 42113  1  0  0  0
 42114  1  0  0  0
 43 44  1  0  0  0
 44115  1  0  0  0
 45 46  2  0  0  0
 45116  1  0  0  0
 46117  1  0  0  0
 47118  1  0  0  0
 47119  1  0  0  0
 48 56  1  0  0  0
 48 65  1  0  0  0
 48120  1  0  0  0
 49 50  1  0  0  0
 49 53  1  0  0  0
 49 64  1  0  0  0
 49121  1  0  0  0
 50 51  1  0  0  0
 50122  1  0  0  0
 50123  1  0  0  0
 51 52  1  0  0  0
 51124  1  0  0  0
 51125  1  0  0  0
 52126  1  0  0  0
 52127  1  0  0  0
 53 54  1  0  0  0
 54 55  2  0  0  0
 54128  1  0  0  0
 55 57  1  0  0  0
 55129  1  0  0  0
 56 69  2  0  0  0
 57 58  2  0  0  0
 57130  1  0  0  0
 58131  1  0  0  0
 59 60  1  0  0  0
 59 61  1  0  0  0
 59 62  1  0  0  0
 60132  1  0  0  0
 60133  1  0  0  0
 60134  1  0  0  0
 61135  1  0  0  0
 61136  1  0  0  0
 61137  1  0  0  0
 62138  1  0  0  0
 62139  1  0  0  0
 62140  1  0  0  0
 63 65  1  0  0  0
 63141  1  0  0  0
 63142  1  0  0  0
 63143  1  0  0  0
 64144  1  0  0  0
 65145  1  0  0  0
 68 82  1  0  0  0
 71 73  2  0  0  0
 71 74  1  0  0  0
 71146  1  0  0  0
 72 74  2  0  0  0
 72 75  1  0  0  0
 72147  1  0  0  0
 73 76  1  0  0  0
 73 78  1  0  0  0
 74 80  1  0  0  0
 75 76  2  0  0  0
 75 86  1  0  0  0
 76 85  1  0  0  0
 77 78  2  0  0  0
 77148  1  0  0  0
 77149  1  0  0  0
 78150  1  0  0  0
 79 85  1  0  0  0
 79151  1  0  0  0
 79152  1  0  0  0
 79153  1  0  0  0
 80 84  1  0  0  0
 80154  1  0  0  0
 80155  1  0  0  0
 81 82  1  0  0  0
 81 83  1  0  0  0
 81156  1  0  0  0
 81157  1  0  0  0
 82158  1  0  0  0
 82159  1  0  0  0
 83 86  1  0  0  0
 83160  1  0  0  0
 83161  1  0  0  0
 84162  1  0  0  0
M  ISO  4   1 100  68 101  82 101  84 100
M  END
> <chiral flag>
0

> <version>
0

> <s_m_source_file>
/data/baiqing/PycharmProjects/Reinvent-master-3.2/result/LINK_invent/BTK/process_docking_weight1_custom_product_contain_oxygen_bond_distance_aromatic_linkinvent_7_9_3/rearranged_h_0114.sdf

> <i_m_source_file_index>
72

> <r_mmod_Potential_Energy-OPLS-2005>
0.013051207177341

> <r_mmod_Stretch_Energy-OPLS-2005>
55.387580871582

> <r_mmod_Bend_Energy-OPLS-2005>
137.764175415039

> <r_mmod_Torsional_Energy-OPLS-2005>
254.944519042969

> <r_mmod_Improper_Torsional_Energy-OPLS-2005>
5.52897644042969

> <r_mmod_Van_der_Waal_Energy-OPLS-2005>
151.707870483398

> <r_mmod_Electrostatic_Energy-OPLS-2005>
-415.732666015625

> <r_mmod_Solvation_Energy-OPLS-2005>
-214.602462768555

> <b_mmod_Minimization_Converged-OPLS-2005>
0

> <r_mmod_RMS_Derivative-OPLS-2005>
4.00159978866577

$$$$
72
                    3D
 Structure written by MMmdl.
156164  0  0  1  0            999 V2000
  -30.6504  -14.6150   20.5894 C   0  0  0  0  0  0
  -30.4368  -12.4047   19.4519 C   0  0  0  0  0  0
  -29.5077  -12.5372   18.2233 C   0  0  0  0  0  0
  -28.0281  -12.3665   18.6225 C   0  0  0  0  0  0
  -27.6548  -13.2116   19.8675 C   0  0  2  0  0  0
  -28.6895  -13.0060   20.9904 C   0  0  0  0  0  0
  -25.2557  -13.8156   20.5658 C   0  0  0  0  0  0
  -24.1820  -13.0428   20.9166 C   0  0  0  0  0  0
  -24.6382  -11.6899   20.8715 C   0  0  0  0  0  0
  -23.9051  -10.4288   21.0398 C   0  0  0  0  0  0
  -24.3608   -9.4210   21.9179 C   0  0  0  0  0  0
  -23.6289   -8.2243   22.0753 C   0  0  0  0  0  0
  -22.4270   -8.0276   21.3543 C   0  0  0  0  0  0
  -21.9902   -9.0248   20.4644 C   0  0  0  0  0  0
  -22.7225  -10.2128   20.3051 C   0  0  0  0  0  0
  -21.6853   -6.0733   22.5279 C   0  0  0  0  0  0
  -21.4011   -6.5638   23.8212 C   0  0  0  0  0  0
  -21.3659   -5.6791   24.9175 C   0  0  0  0  0  0
  -21.6048   -4.3055   24.7225 C   0  0  0  0  0  0
  -21.8820   -3.8146   23.4347 C   0  0  0  0  0  0
  -21.9192   -4.6961   22.3403 C   0  0  0  0  0  0
  -22.7850  -13.5229   21.1852 C   0  0  0  0  0  0
  -22.1663   -4.2148   21.0980 F   0  0  0  0  0  0
  -21.5629   -3.4540   25.7738 F   0  0  0  0  0  0
  -30.0129  -13.3966   20.4674 N   0  0  0  0  0  0
  -26.2978  -12.9329   20.3287 N   0  0  0  0  0  0
  -25.9301  -11.6484   20.5703 N   0  0  0  0  0  0
  -22.0497  -12.8219   22.0412 N   0  0  0  0  0  0
  -25.4280  -15.1879   20.4091 N   0  0  0  0  0  0
  -31.7354  -14.8190   20.0314 O   0  0  0  0  0  0
  -21.6636   -6.8874   21.4241 O   0  0  0  0  0  0
  -22.3536  -14.5544   20.6714 O   0  0  0  0  0  0
  -24.6240  -31.8594   23.2017 C   0  0  0  0  0  0
  -25.9089  -32.4779   23.8345 C   0  0  1  0  0  0
  -27.2305  -27.3371   20.1205 C   0  0  0  0  0  0
  -25.5912  -33.8578   24.2275 N   0  0  0  0  0  0
  -23.4179  -30.4812   21.5444 C   0  0  2  0  0  0
  -24.8660  -28.9335   20.1138 C   0  0  0  0  0  0
  -22.7464  -29.4614   22.4946 C   0  0  0  0  0  0
  -18.0283  -28.1381   22.8479 C   0  0  0  0  0  0
  -24.1488  -36.7294   23.2641 C   0  0  0  0  0  0
  -25.9558  -30.7975   21.3674 C   0  0  0  0  0  0
  -26.0332  -29.4239   20.7140 C   0  0  0  0  0  0
  -27.2214  -28.6385   20.7038 C   0  0  0  0  0  0
  -26.0445  -26.8889   19.5025 C   0  0  0  0  0  0
  -24.8722  -27.6700   19.4988 C   0  0  0  0  0  0
  -23.6317  -29.8110   20.1612 C   0  0  0  0  0  0
  -25.4111  -36.3082   24.0334 C   0  0  1  0  0  0
  -20.5883  -28.3672   23.1292 C   0  0  2  0  0  0
  -20.6770  -26.9397   22.5412 C   0  0  0  0  0  0
  -19.5747  -26.6380   21.5210 C   0  0  0  0  0  0
  -18.1925  -26.7924   22.1619 C   0  0  0  0  0  0
  -19.1537  -28.8843   23.2880 C   0  0  0  0  0  0
  -18.9463  -30.1446   23.8891 C   0  0  0  0  0  0
  -17.6463  -30.6581   24.0557 C   0  0  0  0  0  0
  -25.9046  -34.9453   23.5106 C   0  0  0  0  0  0
  -16.5353  -29.9077   23.6332 C   0  0  0  0  0  0
  -16.7270  -28.6502   23.0341 C   0  0  0  0  0  0
  -26.4490  -31.6583   25.0707 C   0  0  0  0  0  0
  -25.3737  -31.3708   26.1444 C   0  0  0  0  0  0
  -27.0332  -30.3017   24.6126 C   0  0  0  0  0  0
  -27.6050  -32.4316   25.7480 C   0  0  0  0  0  0
  -27.5575  -37.1800   24.8467 C   0  0  0  0  0  0
  -21.4180  -29.3031   22.3693 N   0  0  0  0  0  0
  -26.4285  -37.3778   23.9414 N   0  0  0  0  0  0
  -24.6847  -31.0624   22.0954 N   0  0  0  0  0  0
  -23.4195  -28.8165   23.3029 O   0  0  0  0  0  0
  -28.3572  -26.5101   20.1193 O   0  0  0  0  0  0
  -26.5619  -34.8923   22.4676 O   0  0  0  0  0  0
  -23.5411  -32.1376   23.7362 O   0  0  0  0  0  0
  -30.1664  -17.6862   19.6755 C   0  0  0  0  0  0
  -29.3994  -18.2311   21.8658 C   0  0  0  0  0  0
  -29.8766  -17.2166   20.9827 C   0  0  0  0  0  0
  -30.0087  -19.0538   19.2770 C   0  0  0  0  0  0
  -29.5288  -20.0572   20.1858 C   0  0  0  0  0  0
  -29.2264  -19.5934   21.4957 C   0  0  0  0  0  0
  -29.8400  -20.3219   17.0871 C   0  0  0  0  0  0
  -30.3225  -19.3327   17.8592 C   0  0  0  0  0  0
  -30.0023  -15.7508   21.4725 C   0  0  0  0  0  0
  -28.8624  -23.9230   19.8612 C   0  0  0  0  0  0
  -28.2067  -25.1382   20.6471 C   0  0  0  0  0  0
  -28.8650  -22.4925   20.5662 C   0  0  0  0  0  0
  -29.6218  -15.4782   22.6529 N   0  0  0  0  0  0
  -29.4200  -21.4040   19.7594 O   0  0  0  0  0  0
  -28.7640  -20.4487   22.4392 F   0  0  0  0  0  0
  -31.4775  -12.5355   19.1501 H   0  0  0  0  0  0
  -30.3817  -11.3956   19.8640 H   0  0  0  0  0  0
  -29.7768  -11.8003   17.4652 H   0  0  0  0  0  0
  -29.6506  -13.5156   17.7621 H   0  0  0  0  0  0
  -27.8587  -11.3090   18.8294 H   0  0  0  0  0  0
  -27.3778  -12.6203   17.7847 H   0  0  0  0  0  0
  -27.6920  -14.2587   19.5659 H   0  0  0  0  0  0
  -28.7087  -11.9582   21.2937 H   0  0  0  0  0  0
  -28.3761  -13.5363   21.8838 H   0  0  0  0  0  0
  -25.2757   -9.5691   22.4747 H   0  0  0  0  0  0
  -24.0002   -7.4638   22.7476 H   0  0  0  0  0  0
  -21.0833   -8.8763   19.8953 H   0  0  0  0  0  0
  -22.3683  -10.9664   19.6156 H   0  0  0  0  0  0
  -21.2003   -7.6147   23.9715 H   0  0  0  0  0  0
  -21.1481   -6.0522   25.9077 H   0  0  0  0  0  0
  -22.0600   -2.7608   23.2847 H   0  0  0  0  0  0
  -22.4111  -11.9869   22.4778 H   0  0  0  0  0  0
  -21.1121  -13.1250   22.2637 H   0  0  0  0  0  0
  -24.6648  -15.8458   20.5247 H   0  0  0  0  0  0
  -26.2882  -15.6285   20.1086 H   0  0  0  0  0  0
  -26.7152  -32.5459   23.1093 H   0  0  0  0  0  0
  -25.0072  -33.9719   25.0429 H   0  0  0  0  0  0
  -22.7113  -31.3011   21.3997 H   0  0  0  0  0  0
  -23.3749  -35.9629   23.3308 H   0  0  0  0  0  0
  -24.3577  -36.8907   22.2053 H   0  0  0  0  0  0
  -23.7247  -37.6501   23.6658 H   0  0  0  0  0  0
  -26.0799  -31.5591   20.5961 H   0  0  0  0  0  0
  -26.8387  -30.8513   21.9928 H   0  0  0  0  0  0
  -28.1211  -29.0137   21.1709 H   0  0  0  0  0  0
  -26.0220  -25.9199   19.0249 H   0  0  0  0  0  0
  -23.9788  -27.2879   19.0245 H   0  0  0  0  0  0
  -23.7480  -30.5849   19.4018 H   0  0  0  0  0  0
  -22.7523  -29.2376   19.8619 H   0  0  0  0  0  0
  -25.1292  -36.1934   25.0828 H   0  0  0  0  0  0
  -20.9972  -28.3240   24.1416 H   0  0  0  0  0  0
  -20.5672  -26.2275   23.3608 H   0  0  0  0  0  0
  -21.6636  -26.7426   22.1203 H   0  0  0  0  0  0
  -19.6908  -25.6297   21.1224 H   0  0  0  0  0  0
  -19.6690  -27.3202   20.6755 H   0  0  0  0  0  0
  -17.4197  -26.6673   21.4017 H   0  0  0  0  0  0
  -18.0313  -26.0074   22.9024 H   0  0  0  0  0  0
  -19.7944  -30.7260   24.2254 H   0  0  0  0  0  0
  -17.5023  -31.6261   24.5157 H   0  0  0  0  0  0
  -15.5350  -30.2973   23.7667 H   0  0  0  0  0  0
  -15.8674  -28.0821   22.7049 H   0  0  0  0  0  0
  -24.5912  -30.7055   25.7775 H   0  0  0  0  0  0
  -24.8929  -32.2869   26.4882 H   0  0  0  0  0  0
  -25.8074  -30.8879   27.0209 H   0  0  0  0  0  0
  -26.2889  -29.6768   24.1174 H   0  0  0  0  0  0
  -27.4084  -29.7268   25.4601 H   0  0  0  0  0  0
  -27.8732  -30.4327   23.9302 H   0  0  0  0  0  0
  -27.2660  -33.3619   26.2054 H   0  0  0  0  0  0
  -28.3863  -32.6868   25.0306 H   0  0  0  0  0  0
  -28.0716  -31.8443   26.5399 H   0  0  0  0  0  0
  -28.2593  -38.0094   24.7511 H   0  0  0  0  0  0
  -28.1070  -36.2627   24.6298 H   0  0  0  0  0  0
  -27.2296  -37.1461   25.8870 H   0  0  0  0  0  0
  -20.9353  -29.8766   21.6914 H   0  0  0  0  0  0
  -26.0168  -38.2854   24.1418 H   0  0  0  0  0  0
  -30.5142  -16.9731   18.9413 H   0  0  0  0  0  0
  -29.1419  -17.9820   22.8836 H   0  0  0  0  0  0
  -30.1647  -20.4217   16.0611 H   0  0  0  0  0  0
  -29.1184  -21.0416   17.4418 H   0  0  0  0  0  0
  -31.0374  -18.6616   17.4018 H   0  0  0  0  0  0
  -29.8947  -24.1838   19.6274 H   0  0  0  0  0  0
  -28.3575  -23.8320   18.8994 H   0  0  0  0  0  0
  -28.6553  -25.1603   21.6403 H   0  0  0  0  0  0
  -27.1577  -24.9002   20.8278 H   0  0  0  0  0  0
  -27.8424  -22.2319   20.8418 H   0  0  0  0  0  0
  -29.4361  -22.5713   21.4914 H   0  0  0  0  0  0
  -29.2437  -16.2908   23.1216 H   0  0  0  0  0  0
  1 25  1  0  0  0
  1 30  2  0  0  0
  1 79  1  0  0  0
  2  3  1  0  0  0
  2 25  1  0  0  0
  2 86  1  0  0  0
  2 87  1  0  0  0
  3  4  1  0  0  0
  3 88  1  0  0  0
  3 89  1  0  0  0
  4  5  1  0  0  0
  4 90  1  0  0  0
  4 91  1  0  0  0
  5  6  1  0  0  0
  5 26  1  0  0  0
  5 92  1  0  0  0
  6 25  1  0  0  0
  6 93  1  0  0  0
  6 94  1  0  0  0
  7  8  2  0  0  0
  7 26  1  0  0  0
  7 29  1  0  0  0
  8  9  1  0  0  0
  8 22  1  0  0  0
  9 10  1  0  0  0
  9 27  2  0  0  0
 10 11  2  0  0  0
 10 15  1  0  0  0
 11 12  1  0  0  0
 11 95  1  0  0  0
 12 13  2  0  0  0
 12 96  1  0  0  0
 13 14  1  0  0  0
 13 31  1  0  0  0
 14 15  2  0  0  0
 14 97  1  0  0  0
 15 98  1  0  0  0
 16 17  2  0  0  0
 16 21  1  0  0  0
 16 31  1  0  0  0
 17 18  1  0  0  0
 17 99  1  0  0  0
 18 19  2  0  0  0
 18100  1  0  0  0
 19 20  1  0  0  0
 19 24  1  0  0  0
 20 21  2  0  0  0
 20101  1  0  0  0
 21 23  1  0  0  0
 22 28  1  0  0  0
 22 32  2  0  0  0
 26 27  1  0  0  0
 28102  1  0  0  0
 28103  1  0  0  0
 29104  1  0  0  0
 29105  1  0  0  0
 33 34  1  0  0  0
 33 66  1  0  0  0
 33 70  2  0  0  0
 34 36  1  0  0  0
 34 59  1  0  0  0
 34106  1  0  0  0
 35 44  2  0  0  0
 35 45  1  0  0  0
 35 68  1  0  0  0
 36 56  1  0  0  0
 36107  1  0  0  0
 37 39  1  0  0  0
 37 47  1  0  0  0
 37 66  1  0  0  0
 37108  1  0  0  0
 38 43  2  0  0  0
 38 46  1  0  0  0
 38 47  1  0  0  0
 39 64  1  0  0  0
 39 67  2  0  0  0
 40 52  1  0  0  0
 40 53  2  0  0  0
 40 58  1  0  0  0
 41109  1  0  0  0
 41110  1  0  0  0
 41111  1  0  0  0
 41 48  1  0  0  0
 42 43  1  0  0  0
 42 66  1  0  0  0
 42112  1  0  0  0
 42113  1  0  0  0
 43 44  1  0  0  0
 44114  1  0  0  0
 45 46  2  0  0  0
 45115  1  0  0  0
 46116  1  0  0  0
 47117  1  0  0  0
 47118  1  0  0  0
 48 56  1  0  0  0
 48 65  1  0  0  0
 48119  1  0  0  0
 49 50  1  0  0  0
 49 53  1  0  0  0
 49 64  1  0  0  0
 49120  1  0  0  0
 50 51  1  0  0  0
 50121  1  0  0  0
 50122  1  0  0  0
 51 52  1  0  0  0
 51123  1  0  0  0
 51124  1  0  0  0
 52125  1  0  0  0
 52126  1  0  0  0
 53 54  1  0  0  0
 54 55  2  0  0  0
 54127  1  0  0  0
 55 57  1  0  0  0
 55128  1  0  0  0
 56 69  2  0  0  0
 57 58  2  0  0  0
 57129  1  0  0  0
 58130  1  0  0  0
 59 60  1  0  0  0
 59 61  1  0  0  0
 59 62  1  0  0  0
 60131  1  0  0  0
 60132  1  0  0  0
 60133  1  0  0  0
 61134  1  0  0  0
 61135  1  0  0  0
 61136  1  0  0  0
 62137  1  0  0  0
 62138  1  0  0  0
 62139  1  0  0  0
 63 65  1  0  0  0
 63140  1  0  0  0
 63141  1  0  0  0
 63142  1  0  0  0
 64143  1  0  0  0
 65144  1  0  0  0
 68 81  1  0  0  0
 71 73  2  0  0  0
 71 74  1  0  0  0
 71145  1  0  0  0
 72 73  1  0  0  0
 72 76  2  0  0  0
 72146  1  0  0  0
 73 79  1  0  0  0
 74 75  2  0  0  0
 74 78  1  0  0  0
 75 76  1  0  0  0
 75 84  1  0  0  0
 76 85  1  0  0  0
 77 78  2  0  0  0
 77147  1  0  0  0
 77148  1  0  0  0
 78149  1  0  0  0
 79 83  2  0  0  0
 80 81  1  0  0  0
 80 82  1  0  0  0
 80150  1  0  0  0
 80151  1  0  0  0
 81152  1  0  0  0
 81153  1  0  0  0
 82 84  1  0  0  0
 82154  1  0  0  0
 82155  1  0  0  0
 83156  1  0  0  0
M  ISO  4   1 100  68 101  79 100  81 101
M  END
> <chiral flag>
0

> <version>
0

> <s_m_source_file>
/data/baiqing/PycharmProjects/Reinvent-master-3.2/result/LINK_invent/BTK/process_docking_weight1_custom_product_contain_oxygen_bond_distance_aromatic_linkinvent_7_9_3/rearranged_h_0114.sdf

> <i_m_source_file_index>
73

> <r_mmod_Potential_Energy-OPLS-2005>
226.274322509766

> <r_mmod_Stretch_Energy-OPLS-2005>
90.263801574707

> <r_mmod_Bend_Energy-OPLS-2005>
157.807113647461

> <r_mmod_Torsional_Energy-OPLS-2005>
212.624374389648

> <r_mmod_Improper_Torsional_Energy-OPLS-2005>
2.331955909729

> <r_mmod_Van_der_Waal_Energy-OPLS-2005>
157.456588745117

> <r_mmod_Electrostatic_Energy-OPLS-2005>
-236.370101928711

> <r_mmod_Solvation_Energy-OPLS-2005>
-195.796112060547

> <b_mmod_Minimization_Converged-OPLS-2005>
0

> <r_mmod_RMS_Derivative-OPLS-2005>
0.821904361248016

$$$$
73
                    3D
 Structure written by MMmdl.
159167  0  0  1  0            999 V2000
  -30.7241  -14.5316   20.3564 C   0  0  0  0  0  0
  -30.4036  -12.2927   19.4231 C   0  0  0  0  0  0
  -29.4581  -12.3862   18.2042 C   0  0  0  0  0  0
  -27.9910  -12.2909   18.6435 C   0  0  0  0  0  0
  -27.6438  -13.2142   19.8428 C   0  0  2  0  0  0
  -28.7080  -13.1317   20.9600 C   0  0  0  0  0  0
  -25.2560  -13.8211   20.5748 C   0  0  0  0  0  0
  -24.1816  -13.0471   20.9216 C   0  0  0  0  0  0
  -24.6377  -11.6939   20.8792 C   0  0  0  0  0  0
  -23.9049  -10.4313   21.0425 C   0  0  0  0  0  0
  -24.3606   -9.4210   21.9186 C   0  0  0  0  0  0
  -23.6291   -8.2237   22.0746 C   0  0  0  0  0  0
  -22.4274   -8.0277   21.3531 C   0  0  0  0  0  0
  -21.9913   -9.0255   20.4637 C   0  0  0  0  0  0
  -22.7232  -10.2142   20.3062 C   0  0  0  0  0  0
  -21.6859   -6.0733   22.5272 C   0  0  0  0  0  0
  -21.4019   -6.5633   23.8203 C   0  0  0  0  0  0
  -21.3662   -5.6784   24.9170 C   0  0  0  0  0  0
  -21.6047   -4.3049   24.7220 C   0  0  0  0  0  0
  -21.8823   -3.8141   23.4341 C   0  0  0  0  0  0
  -21.9193   -4.6961   22.3399 C   0  0  0  0  0  0
  -22.7825  -13.5243   21.1838 C   0  0  0  0  0  0
  -22.1655   -4.2140   21.0982 F   0  0  0  0  0  0
  -21.5622   -3.4536   25.7734 F   0  0  0  0  0  0
  -30.0205  -13.3673   20.3474 N   0  0  0  0  0  0
  -26.2978  -12.9393   20.3388 N   0  0  0  0  0  0
  -25.9314  -11.6554   20.5890 N   0  0  0  0  0  0
  -22.0460  -12.8250   22.0402 N   0  0  0  0  0  0
  -25.4281  -15.1928   20.4152 N   0  0  0  0  0  0
  -31.9552  -14.5476   20.3469 O   0  0  0  0  0  0
  -21.6639   -6.8875   21.4227 O   0  0  0  0  0  0
  -22.3510  -14.5533   20.6664 O   0  0  0  0  0  0
  -24.6152  -31.8682   23.2089 C   0  0  0  0  0  0
  -25.9048  -32.4825   23.8388 C   0  0  1  0  0  0
  -27.2250  -27.4252   20.1095 C   0  0  0  0  0  0
  -25.5897  -33.8616   24.2329 N   0  0  0  0  0  0
  -23.4033  -30.4909   21.5501 C   0  0  2  0  0  0
  -24.8504  -28.9560   20.1131 C   0  0  0  0  0  0
  -22.7418  -29.4662   22.4998 C   0  0  0  0  0  0
  -18.0266  -28.1374   22.8503 C   0  0  0  0  0  0
  -24.1485  -36.7310   23.2637 C   0  0  0  0  0  0
  -25.9323  -30.8330   21.3617 C   0  0  0  0  0  0
  -26.0106  -29.4657   20.7109 C   0  0  0  0  0  0
  -27.2048  -28.7076   20.7055 C   0  0  0  0  0  0
  -26.0544  -26.9308   19.5013 C   0  0  0  0  0  0
  -24.8671  -27.6884   19.5027 C   0  0  0  0  0  0
  -23.6120  -29.8229   20.1649 C   0  0  0  0  0  0
  -25.4105  -36.3111   24.0342 C   0  0  1  0  0  0
  -20.5858  -28.3665   23.1316 C   0  0  2  0  0  0
  -20.6769  -26.9407   22.5414 C   0  0  0  0  0  0
  -19.5745  -26.6386   21.5214 C   0  0  0  0  0  0
  -18.1916  -26.7922   22.1624 C   0  0  0  0  0  0
  -19.1518  -28.8835   23.2899 C   0  0  0  0  0  0
  -18.9455  -30.1445   23.8912 C   0  0  0  0  0  0
  -17.6458  -30.6589   24.0566 C   0  0  0  0  0  0
  -25.9038  -34.9477   23.5134 C   0  0  0  0  0  0
  -16.5346  -29.9089   23.6327 C   0  0  0  0  0  0
  -16.7257  -28.6498   23.0363 C   0  0  0  0  0  0
  -26.4476  -31.6602   25.0717 C   0  0  0  0  0  0
  -25.3739  -31.3704   26.1467 C   0  0  0  0  0  0
  -27.0314  -30.3048   24.6088 C   0  0  0  0  0  0
  -27.6068  -32.4312   25.7467 C   0  0  0  0  0  0
  -27.5580  -37.1803   24.8463 C   0  0  0  0  0  0
  -21.4149  -29.3027   22.3729 N   0  0  0  0  0  0
  -26.4288  -37.3801   23.9411 N   0  0  0  0  0  0
  -24.6689  -31.0776   22.0991 N   0  0  0  0  0  0
  -23.4191  -28.8208   23.3047 O   0  0  0  0  0  0
  -28.3564  -26.6424   20.1277 O   0  0  0  0  0  0
  -26.5603  -34.8928   22.4700 O   0  0  0  0  0  0
  -23.5345  -32.1437   23.7484 O   0  0  0  0  0  0
  -28.0817  -18.7009   20.2639 C   0  0  0  0  0  0
  -28.4608  -17.4179   19.8171 C   0  0  0  0  0  0
  -29.7156  -18.5469   22.0417 C   0  0  0  0  0  0
  -28.7451  -19.3106   21.3540 C   0  0  0  0  0  0
  -29.5281  -16.7043   20.4220 C   0  0  0  0  0  0
  -30.1115  -17.2649   21.5900 C   0  0  0  0  0  0
  -31.2485  -15.2089   17.5309 C   0  0  0  0  0  0
  -30.4681  -15.9015   18.3905 C   0  0  0  0  0  0
  -28.3071  -21.5895   20.9803 C   0  0  0  0  0  0
  -28.2712  -24.1637   20.4753 C   0  0  0  0  0  0
  -31.5656  -15.6525   16.1198 C   0  0  0  0  0  0
  -27.9175  -23.0017   21.4347 C   0  0  0  0  0  0
  -28.2939  -25.5778   21.1017 C   0  0  0  0  0  0
  -28.4411  -20.6130   21.8027 N   0  0  0  0  0  0
  -30.0919  -15.5679   19.7281 N   0  0  0  0  0  0
  -28.4999  -23.9891   19.2723 O   0  0  0  0  0  0
  -31.1045  -16.6250   22.2522 F   0  0  0  0  0  0
  -31.4439  -12.3653   19.1013 H   0  0  0  0  0  0
  -30.3074  -11.3236   19.9153 H   0  0  0  0  0  0
  -29.6836  -11.5884   17.4950 H   0  0  0  0  0  0
  -29.5839  -13.3132   17.6566 H   0  0  0  0  0  0
  -27.8116  -11.2496   18.9119 H   0  0  0  0  0  0
  -27.3296  -12.5007   17.8021 H   0  0  0  0  0  0
  -27.6470  -14.2330   19.4552 H   0  0  0  0  0  0
  -28.6928  -12.1558   21.4472 H   0  0  0  0  0  0
  -28.5093  -13.8744   21.7346 H   0  0  0  0  0  0
  -25.2743   -9.5684   22.4777 H   0  0  0  0  0  0
  -23.9988   -7.4637   22.7485 H   0  0  0  0  0  0
  -21.0831   -8.8782   19.8962 H   0  0  0  0  0  0
  -22.3675  -10.9684   19.6188 H   0  0  0  0  0  0
  -21.2015   -7.6142   23.9699 H   0  0  0  0  0  0
  -21.1477   -6.0521   25.9066 H   0  0  0  0  0  0
  -22.0602   -2.7600   23.2848 H   0  0  0  0  0  0
  -22.4071  -11.9919   22.4820 H   0  0  0  0  0  0
  -21.1064  -13.1266   22.2575 H   0  0  0  0  0  0
  -24.6677  -15.8526   20.5364 H   0  0  0  0  0  0
  -26.2996  -15.6362   20.1552 H   0  0  0  0  0  0
  -26.7125  -32.5550   23.1157 H   0  0  0  0  0  0
  -25.0060  -33.9778   25.0482 H   0  0  0  0  0  0
  -22.6911  -31.3073   21.4102 H   0  0  0  0  0  0
  -23.3746  -35.9646   23.3313 H   0  0  0  0  0  0
  -24.3571  -36.8913   22.2047 H   0  0  0  0  0  0
  -23.7234  -37.6518   23.6644 H   0  0  0  0  0  0
  -26.0398  -31.5988   20.5927 H   0  0  0  0  0  0
  -26.8212  -30.8904   21.9780 H   0  0  0  0  0  0
  -28.1008  -29.0923   21.1728 H   0  0  0  0  0  0
  -26.0615  -25.9554   19.0351 H   0  0  0  0  0  0
  -23.9757  -27.2908   19.0358 H   0  0  0  0  0  0
  -23.7180  -30.5982   19.4058 H   0  0  0  0  0  0
  -22.7359  -29.2427   19.8714 H   0  0  0  0  0  0
  -25.1280  -36.1978   25.0835 H   0  0  0  0  0  0
  -20.9940  -28.3240   24.1438 H   0  0  0  0  0  0
  -20.5684  -26.2285   23.3602 H   0  0  0  0  0  0
  -21.6639  -26.7461   22.1198 H   0  0  0  0  0  0
  -19.6917  -25.6301   21.1227 H   0  0  0  0  0  0
  -19.6675  -27.3216   20.6755 H   0  0  0  0  0  0
  -17.4191  -26.6679   21.4014 H   0  0  0  0  0  0
  -18.0305  -26.0050   22.9004 H   0  0  0  0  0  0
  -19.7937  -30.7246   24.2300 H   0  0  0  0  0  0
  -17.5018  -31.6275   24.5164 H   0  0  0  0  0  0
  -15.5354  -30.2997   23.7651 H   0  0  0  0  0  0
  -15.8651  -28.0818   22.7082 H   0  0  0  0  0  0
  -24.5906  -30.7062   25.7795 H   0  0  0  0  0  0
  -24.8930  -32.2855   26.4932 H   0  0  0  0  0  0
  -25.8081  -30.8853   27.0217 H   0  0  0  0  0  0
  -26.2862  -29.6780   24.1175 H   0  0  0  0  0  0
  -27.4132  -29.7309   25.4540 H   0  0  0  0  0  0
  -27.8669  -30.4370   23.9209 H   0  0  0  0  0  0
  -27.2719  -33.3614   26.2066 H   0  0  0  0  0  0
  -28.3862  -32.6865   25.0274 H   0  0  0  0  0  0
  -28.0752  -31.8413   26.5354 H   0  0  0  0  0  0
  -28.2609  -38.0096   24.7530 H   0  0  0  0  0  0
  -28.1074  -36.2629   24.6274 H   0  0  0  0  0  0
  -27.2299  -37.1441   25.8870 H   0  0  0  0  0  0
  -20.9319  -29.8737   21.6936 H   0  0  0  0  0  0
  -26.0184  -38.2883   24.1421 H   0  0  0  0  0  0
  -27.2953  -19.2210   19.7356 H   0  0  0  0  0  0
  -27.9728  -17.0199   18.9385 H   0  0  0  0  0  0
  -30.2091  -18.9622   22.9083 H   0  0  0  0  0  0
  -31.7041  -14.2716   17.8138 H   0  0  0  0  0  0
  -30.0719  -16.8430   18.0400 H   0  0  0  0  0  0
  -28.4521  -21.4670   19.9030 H   0  0  0  0  0  0
  -30.9698  -16.5177   15.8274 H   0  0  0  0  0  0
  -31.3566  -14.8424   15.4195 H   0  0  0  0  0  0
  -32.6213  -15.9097   16.0341 H   0  0  0  0  0  0
  -28.3832  -23.1990   22.3995 H   0  0  0  0  0  0
  -26.8401  -23.0221   21.5980 H   0  0  0  0  0  0
  -29.1721  -25.6475   21.7429 H   0  0  0  0  0  0
  -27.4249  -25.6876   21.7533 H   0  0  0  0  0  0
  1 25  1  0  0  0
  1 30  2  0  0  0
  1 85  1  0  0  0
  2  3  1  0  0  0
  2 25  1  0  0  0
  2 88  1  0  0  0
  2 89  1  0  0  0
  3  4  1  0  0  0
  3 90  1  0  0  0
  3 91  1  0  0  0
  4  5  1  0  0  0
  4 92  1  0  0  0
  4 93  1  0  0  0
  5  6  1  0  0  0
  5 26  1  0  0  0
  5 94  1  0  0  0
  6 25  1  0  0  0
  6 95  1  0  0  0
  6 96  1  0  0  0
  7  8  2  0  0  0
  7 26  1  0  0  0
  7 29  1  0  0  0
  8  9  1  0  0  0
  8 22  1  0  0  0
  9 10  1  0  0  0
  9 27  2  0  0  0
 10 11  2  0  0  0
 10 15  1  0  0  0
 11 12  1  0  0  0
 11 97  1  0  0  0
 12 13  2  0  0  0
 12 98  1  0  0  0
 13 14  1  0  0  0
 13 31  1  0  0  0
 14 15  2  0  0  0
 14 99  1  0  0  0
 15100  1  0  0  0
 16 17  2  0  0  0
 16 21  1  0  0  0
 16 31  1  0  0  0
 17 18  1  0  0  0
 17101  1  0  0  0
 18 19  2  0  0  0
 18102  1  0  0  0
 19 20  1  0  0  0
 19 24  1  0  0  0
 20 21  2  0  0  0
 20103  1  0  0  0
 21 23  1  0  0  0
 22 28  1  0  0  0
 22 32  2  0  0  0
 26 27  1  0  0  0
 28104  1  0  0  0
 28105  1  0  0  0
 29106  1  0  0  0
 29107  1  0  0  0
 33 34  1  0  0  0
 33 66  1  0  0  0
 33 70  2  0  0  0
 34 36  1  0  0  0
 34 59  1  0  0  0
 34108  1  0  0  0
 35 44  2  0  0  0
 35 45  1  0  0  0
 35 68  1  0  0  0
 36 56  1  0  0  0
 36109  1  0  0  0
 37 39  1  0  0  0
 37 47  1  0  0  0
 37 66  1  0  0  0
 37110  1  0  0  0
 38 43  2  0  0  0
 38 46  1  0  0  0
 38 47  1  0  0  0
 39 64  1  0  0  0
 39 67  2  0  0  0
 40 52  1  0  0  0
 40 53  2  0  0  0
 40 58  1  0  0  0
 41111  1  0  0  0
 41112  1  0  0  0
 41113  1  0  0  0
 41 48  1  0  0  0
 42 43  1  0  0  0
 42 66  1  0  0  0
 42114  1  0  0  0
 42115  1  0  0  0
 43 44  1  0  0  0
 44116  1  0  0  0
 45 46  2  0  0  0
 45117  1  0  0  0
 46118  1  0  0  0
 47119  1  0  0  0
 47120  1  0  0  0
 48 56  1  0  0  0
 48 65  1  0  0  0
 48121  1  0  0  0
 49 50  1  0  0  0
 49 53  1  0  0  0
 49 64  1  0  0  0
 49122  1  0  0  0
 50 51  1  0  0  0
 50123  1  0  0  0
 50124  1  0  0  0
 51 52  1  0  0  0
 51125  1  0  0  0
 51126  1  0  0  0
 52127  1  0  0  0
 52128  1  0  0  0
 53 54  1  0  0  0
 54 55  2  0  0  0
 54129  1  0  0  0
 55 57  1  0  0  0
 55130  1  0  0  0
 56 69  2  0  0  0
 57 58  2  0  0  0
 57131  1  0  0  0
 58132  1  0  0  0
 59 60  1  0  0  0
 59 61  1  0  0  0
 59 62  1  0  0  0
 60133  1  0  0  0
 60134  1  0  0  0
 60135  1  0  0  0
 61136  1  0  0  0
 61137  1  0  0  0
 61138  1  0  0  0
 62139  1  0  0  0
 62140  1  0  0  0
 62141  1  0  0  0
 63 65  1  0  0  0
 63142  1  0  0  0
 63143  1  0  0  0
 63144  1  0  0  0
 64145  1  0  0  0
 65146  1  0  0  0
 68 83  1  0  0  0
 71 72  2  0  0  0
 71 74  1  0  0  0
 71147  1  0  0  0
 72 75  1  0  0  0
 72148  1  0  0  0
 73 74  2  0  0  0
 73 76  1  0  0  0
 73149  1  0  0  0
 74 84  1  0  0  0
 75 76  2  0  0  0
 75 85  1  0  0  0
 76 87  1  0  0  0
 77 78  2  0  0  0
 77 81  1  0  0  0
 77150  1  0  0  0
 78 85  1  0  0  0
 78151  1  0  0  0
 79 82  1  0  0  0
 79 84  2  0  0  0
 79152  1  0  0  0
 80 82  1  0  0  0
 80 83  1  0  0  0
 80 86  2  0  0  0
 81153  1  0  0  0
 81154  1  0  0  0
 81155  1  0  0  0
 82156  1  0  0  0
 82157  1  0  0  0
 83158  1  0  0  0
 83159  1  0  0  0
M  ISO  4   1 100  68 101  83 101  85 100
M  END
> <chiral flag>
0

> <version>
0

> <s_m_source_file>
/data/baiqing/PycharmProjects/Reinvent-master-3.2/result/LINK_invent/BTK/process_docking_weight1_custom_product_contain_oxygen_bond_distance_aromatic_linkinvent_7_9_3/rearranged_h_0114.sdf

> <i_m_source_file_index>
74

> <r_mmod_Potential_Energy-OPLS-2005>
180.431289672852

> <r_mmod_Stretch_Energy-OPLS-2005>
46.8342247009277

> <r_mmod_Bend_Energy-OPLS-2005>
112.858375549316

> <r_mmod_Torsional_Energy-OPLS-2005>
348.992645263672

> <r_mmod_Improper_Torsional_Energy-OPLS-2005>
26.0893878936768

> <r_mmod_Van_der_Waal_Energy-OPLS-2005>
162.745269775391

> <r_mmod_Electrostatic_Energy-OPLS-2005>
-350.051605224609

> <r_mmod_Solvation_Energy-OPLS-2005>
-213.643585205078

> <b_mmod_Minimization_Converged-OPLS-2005>
0

> <r_mmod_RMS_Derivative-OPLS-2005>
1.78823912143707

$$$$
74
                    3D
 Structure written by MMmdl.
162170  0  0  1  0            999 V2000
  -30.5443  -15.0067   20.3897 C   0  0  0  0  0  0
  -30.4319  -12.6236   19.5023 C   0  0  0  0  0  0
  -29.5213  -12.5411   18.2561 C   0  0  0  0  0  0
  -28.0543  -12.3220   18.6730 C   0  0  0  0  0  0
  -27.6232  -13.2608   19.8302 C   0  0  2  0  0  0
  -28.6668  -13.3252   20.9657 C   0  0  0  0  0  0
  -25.2437  -13.8241   20.5729 C   0  0  0  0  0  0
  -24.1763  -13.0448   20.9249 C   0  0  0  0  0  0
  -24.6393  -11.6935   20.8748 C   0  0  0  0  0  0
  -23.9079  -10.4297   21.0404 C   0  0  0  0  0  0
  -24.3633   -9.4208   21.9172 C   0  0  0  0  0  0
  -23.6305   -8.2240   22.0749 C   0  0  0  0  0  0
  -22.4279   -8.0284   21.3546 C   0  0  0  0  0  0
  -21.9919   -9.0259   20.4643 C   0  0  0  0  0  0
  -22.7258  -10.2132   20.3047 C   0  0  0  0  0  0
  -21.6850   -6.0733   22.5282 C   0  0  0  0  0  0
  -21.4017   -6.5637   23.8217 C   0  0  0  0  0  0
  -21.3658   -5.6787   24.9176 C   0  0  0  0  0  0
  -21.6048   -4.3049   24.7226 C   0  0  0  0  0  0
  -21.8817   -3.8142   23.4343 C   0  0  0  0  0  0
  -21.9195   -4.6961   22.3402 C   0  0  0  0  0  0
  -22.7775  -13.5204   21.1904 C   0  0  0  0  0  0
  -22.1662   -4.2149   21.0977 F   0  0  0  0  0  0
  -21.5629   -3.4531   25.7734 F   0  0  0  0  0  0
  -29.9340  -13.7464   20.3564 N   0  0  0  0  0  0
  -26.2865  -12.9493   20.3219 N   0  0  0  0  0  0
  -25.9330  -11.6613   20.5708 N   0  0  0  0  0  0
  -22.0415  -12.8194   22.0451 N   0  0  0  0  0  0
  -25.4093  -15.1971   20.4161 N   0  0  0  0  0  0
  -31.7563  -15.0052   20.1515 O   0  0  0  0  0  0
  -21.6646   -6.8877   21.4240 O   0  0  0  0  0  0
  -22.3454  -14.5499   20.6738 O   0  0  0  0  0  0
  -24.6510  -31.8375   23.1843 C   0  0  0  0  0  0
  -25.9258  -32.4652   23.8251 C   0  0  1  0  0  0
  -27.2188  -27.0792   20.1505 C   0  0  0  0  0  0
  -25.5990  -33.8462   24.2170 N   0  0  0  0  0  0
  -23.4570  -30.4579   21.5294 C   0  0  2  0  0  0
  -24.9062  -28.8741   20.1107 C   0  0  0  0  0  0
  -22.7609  -29.4527   22.4823 C   0  0  0  0  0  0
  -18.0304  -28.1407   22.8469 C   0  0  0  0  0  0
  -24.1490  -36.7229   23.2645 C   0  0  0  0  0  0
  -26.0190  -30.6912   21.3916 C   0  0  0  0  0  0
  -26.0885  -29.2985   20.7319 C   0  0  0  0  0  0
  -27.2451  -28.4203   20.7300 C   0  0  0  0  0  0
  -26.0069  -26.7748   19.4866 C   0  0  0  0  0  0
  -24.8835  -27.6286   19.4701 C   0  0  0  0  0  0
  -23.6876  -29.7846   20.1511 C   0  0  0  0  0  0
  -25.4128  -36.3013   24.0316 C   0  0  1  0  0  0
  -20.5921  -28.3740   23.1202 C   0  0  2  0  0  0
  -20.6793  -26.9439   22.5385 C   0  0  0  0  0  0
  -19.5770  -26.6388   21.5191 C   0  0  0  0  0  0
  -18.1951  -26.7940   22.1604 C   0  0  0  0  0  0
  -19.1566  -28.8891   23.2831 C   0  0  0  0  0  0
  -18.9481  -30.1479   23.8870 C   0  0  0  0  0  0
  -17.6478  -30.6602   24.0553 C   0  0  0  0  0  0
  -25.9086  -34.9389   23.5059 C   0  0  0  0  0  0
  -16.5370  -29.9089   23.6336 C   0  0  0  0  0  0
  -16.7285  -28.6504   23.0366 C   0  0  0  0  0  0
  -26.4565  -31.6537   25.0711 C   0  0  0  0  0  0
  -25.3745  -31.3714   26.1402 C   0  0  0  0  0  0
  -27.0428  -30.2925   24.6326 C   0  0  0  0  0  0
  -27.6103  -32.4318   25.7487 C   0  0  0  0  0  0
  -27.5575  -37.1780   24.8466 C   0  0  0  0  0  0
  -21.4290  -29.3059   22.3578 N   0  0  0  0  0  0
  -26.4274  -37.3742   23.9413 N   0  0  0  0  0  0
  -24.7295  -31.0186   22.0899 N   0  0  0  0  0  0
  -23.4223  -28.8091   23.3010 O   0  0  0  0  0  0
  -28.2530  -26.0506   20.2085 O   0  0  0  0  0  0
  -26.5671  -34.8905   22.4635 O   0  0  0  0  0  0
  -23.5620  -32.1259   23.7055 O   0  0  0  0  0  0
  -29.2601  -18.9759   20.4021 C   0  0  0  0  0  0
  -31.4695  -18.0900   20.0182 C   0  0  0  0  0  0
  -29.6648  -20.4162   20.2175 C   0  0  0  0  0  0
  -30.1337  -17.7550   20.3186 C   0  0  0  0  0  0
  -31.9307  -19.4199   19.8181 C   0  0  0  0  0  0
  -31.0571  -20.5419   19.9398 C   0  0  0  0  0  0
  -28.7535  -21.7780   20.2614 C   0  0  0  0  0  0
  -28.9572  -23.2013   20.1371 C   0  0  0  0  0  0
  -35.5761  -19.1401   19.0741 C   0  0  0  0  0  0
  -33.0443  -23.5926   20.2948 C   0  0  0  0  0  0
  -27.9129  -24.5078   20.0974 C   0  0  0  0  0  0
  -34.1664  -18.6075   19.3361 C   0  0  0  0  0  0
  -32.4035  -22.2862   20.7636 C   0  0  0  0  0  0
  -29.7940  -16.2382   20.4832 N   0  0  0  0  0  0
  -33.2472  -19.6904   19.4734 O   0  0  0  0  0  0
  -31.5824  -21.7893   19.7129 O   0  0  0  0  0  0
  -31.4677  -12.7703   19.1913 H   0  0  0  0  0  0
  -30.4184  -11.6817   20.0544 H   0  0  0  0  0  0
  -29.8504  -11.7389   17.5953 H   0  0  0  0  0  0
  -29.6063  -13.4654   17.6813 H   0  0  0  0  0  0
  -27.9526  -11.2810   18.9839 H   0  0  0  0  0  0
  -27.3939  -12.4487   17.8136 H   0  0  0  0  0  0
  -27.5738  -14.2561   19.3871 H   0  0  0  0  0  0
  -28.7684  -12.3610   21.4653 H   0  0  0  0  0  0
  -28.3597  -14.0414   21.7300 H   0  0  0  0  0  0
  -25.2773   -9.5684   22.4750 H   0  0  0  0  0  0
  -24.0017   -7.4623   22.7464 H   0  0  0  0  0  0
  -21.0850   -8.8780   19.8946 H   0  0  0  0  0  0
  -22.3716  -10.9669   19.6155 H   0  0  0  0  0  0
  -21.2007   -7.6145   23.9722 H   0  0  0  0  0  0
  -21.1484   -6.0511   25.9079 H   0  0  0  0  0  0
  -22.0597   -2.7606   23.2840 H   0  0  0  0  0  0
  -22.4053  -11.9875   22.4850 H   0  0  0  0  0  0
  -21.1016  -13.1193   22.2630 H   0  0  0  0  0  0
  -24.6388  -15.8465   20.5317 H   0  0  0  0  0  0
  -26.2472  -15.6383   20.0611 H   0  0  0  0  0  0
  -26.7334  -32.5224   23.0977 H   0  0  0  0  0  0
  -25.0150  -33.9551   25.0334 H   0  0  0  0  0  0
  -22.7624  -31.2855   21.3708 H   0  0  0  0  0  0
  -23.3762  -35.9546   23.3269 H   0  0  0  0  0  0
  -24.3585  -36.8893   22.2067 H   0  0  0  0  0  0
  -23.7218  -37.6409   23.6697 H   0  0  0  0  0  0
  -26.1835  -31.4401   20.6164 H   0  0  0  0  0  0
  -26.8873  -30.7418   22.0370 H   0  0  0  0  0  0
  -28.1425  -28.7466   21.2371 H   0  0  0  0  0  0
  -25.8856  -25.8308   18.9817 H   0  0  0  0  0  0
  -23.9849  -27.3038   18.9623 H   0  0  0  0  0  0
  -23.8349  -30.5549   19.3936 H   0  0  0  0  0  0
  -22.7989  -29.2336   19.8379 H   0  0  0  0  0  0
  -25.1313  -36.1840   25.0804 H   0  0  0  0  0  0
  -21.0007  -28.3345   24.1323 H   0  0  0  0  0  0
  -20.5661  -26.2376   23.3623 H   0  0  0  0  0  0
  -21.6670  -26.7439   22.1209 H   0  0  0  0  0  0
  -19.6943  -25.6286   21.1254 H   0  0  0  0  0  0
  -19.6707  -27.3171   20.6700 H   0  0  0  0  0  0
  -17.4225  -26.6670   21.4006 H   0  0  0  0  0  0
  -18.0371  -26.0086   22.9011 H   0  0  0  0  0  0
  -19.7964  -30.7299   24.2242 H   0  0  0  0  0  0
  -17.5033  -31.6273   24.5176 H   0  0  0  0  0  0
  -15.5373  -30.2993   23.7663 H   0  0  0  0  0  0
  -15.8681  -28.0807   22.7107 H   0  0  0  0  0  0
  -24.5959  -30.7018   25.7717 H   0  0  0  0  0  0
  -24.8888  -32.2872   26.4780 H   0  0  0  0  0  0
  -25.8048  -30.8930   27.0207 H   0  0  0  0  0  0
  -26.3040  -29.6643   24.1331 H   0  0  0  0  0  0
  -27.4002  -29.7250   25.4926 H   0  0  0  0  0  0
  -27.8977  -30.4126   23.9671 H   0  0  0  0  0  0
  -27.2709  -33.3666   26.1964 H   0  0  0  0  0  0
  -28.3960  -32.6796   25.0332 H   0  0  0  0  0  0
  -28.0714  -31.8494   26.5473 H   0  0  0  0  0  0
  -28.2586  -38.0092   24.7551 H   0  0  0  0  0  0
  -28.1090  -36.2626   24.6253 H   0  0  0  0  0  0
  -27.2305  -37.1386   25.8876 H   0  0  0  0  0  0
  -20.9535  -29.8747   21.6709 H   0  0  0  0  0  0
  -26.0134  -38.2801   24.1435 H   0  0  0  0  0  0
  -28.2142  -18.8020   20.6080 H   0  0  0  0  0  0
  -32.1705  -17.2839   19.9179 H   0  0  0  0  0  0
  -27.7122  -21.5256   20.3981 H   0  0  0  0  0  0
  -29.9735  -23.5287   19.9908 H   0  0  0  0  0  0
  -36.2813  -18.3117   18.9934 H   0  0  0  0  0  0
  -35.9128  -19.7823   19.8886 H   0  0  0  0  0  0
  -35.6286  -19.7080   18.1444 H   0  0  0  0  0  0
  -33.7103  -23.9965   21.0582 H   0  0  0  0  0  0
  -32.2853  -24.3449   20.0783 H   0  0  0  0  0  0
  -33.6304  -23.4304   19.3910 H   0  0  0  0  0  0
  -27.1253  -24.2993   20.8224 H   0  0  0  0  0  0
  -27.4414  -24.3883   19.1237 H   0  0  0  0  0  0
  -34.1944  -18.0088   20.2481 H   0  0  0  0  0  0
  -33.8649  -17.9618   18.5090 H   0  0  0  0  0  0
  -31.7956  -22.4667   21.6510 H   0  0  0  0  0  0
  -33.1853  -21.5814   21.0448 H   0  0  0  0  0  0
  -28.8155  -16.0619   20.6529 H   0  0  0  0  0  0
  1 25  1  0  0  0
  1 30  2  0  0  0
  1 84  1  0  0  0
  2  3  1  0  0  0
  2 25  1  0  0  0
  2 87  1  0  0  0
  2 88  1  0  0  0
  3  4  1  0  0  0
  3 89  1  0  0  0
  3 90  1  0  0  0
  4  5  1  0  0  0
  4 91  1  0  0  0
  4 92  1  0  0  0
  5  6  1  0  0  0
  5 26  1  0  0  0
  5 93  1  0  0  0
  6 25  1  0  0  0
  6 94  1  0  0  0
  6 95  1  0  0  0
  7  8  2  0  0  0
  7 26  1  0  0  0
  7 29  1  0  0  0
  8  9  1  0  0  0
  8 22  1  0  0  0
  9 10  1  0  0  0
  9 27  2  0  0  0
 10 11  2  0  0  0
 10 15  1  0  0  0
 11 12  1  0  0  0
 11 96  1  0  0  0
 12 13  2  0  0  0
 12 97  1  0  0  0
 13 14  1  0  0  0
 13 31  1  0  0  0
 14 15  2  0  0  0
 14 98  1  0  0  0
 15 99  1  0  0  0
 16 17  2  0  0  0
 16 21  1  0  0  0
 16 31  1  0  0  0
 17 18  1  0  0  0
 17100  1  0  0  0
 18 19  2  0  0  0
 18101  1  0  0  0
 19 20  1  0  0  0
 19 24  1  0  0  0
 20 21  2  0  0  0
 20102  1  0  0  0
 21 23  1  0  0  0
 22 28  1  0  0  0
 22 32  2  0  0  0
 26 27  1  0  0  0
 28103  1  0  0  0
 28104  1  0  0  0
 29105  1  0  0  0
 29106  1  0  0  0
 33 34  1  0  0  0
 33 66  1  0  0  0
 33 70  2  0  0  0
 34 36  1  0  0  0
 34 59  1  0  0  0
 34107  1  0  0  0
 35 44  2  0  0  0
 35 45  1  0  0  0
 35 68  1  0  0  0
 36 56  1  0  0  0
 36108  1  0  0  0
 37 39  1  0  0  0
 37 47  1  0  0  0
 37 66  1  0  0  0
 37109  1  0  0  0
 38 43  2  0  0  0
 38 46  1  0  0  0
 38 47  1  0  0  0
 39 64  1  0  0  0
 39 67  2  0  0  0
 40 52  1  0  0  0
 40 53  2  0  0  0
 40 58  1  0  0  0
 41110  1  0  0  0
 41111  1  0  0  0
 41112  1  0  0  0
 41 48  1  0  0  0
 42 43  1  0  0  0
 42 66  1  0  0  0
 42113  1  0  0  0
 42114  1  0  0  0
 43 44  1  0  0  0
 44115  1  0  0  0
 45 46  2  0  0  0
 45116  1  0  0  0
 46117  1  0  0  0
 47118  1  0  0  0
 47119  1  0  0  0
 48 56  1  0  0  0
 48 65  1  0  0  0
 48120  1  0  0  0
 49 50  1  0  0  0
 49 53  1  0  0  0
 49 64  1  0  0  0
 49121  1  0  0  0
 50 51  1  0  0  0
 50122  1  0  0  0
 50123  1  0  0  0
 51 52  1  0  0  0
 51124  1  0  0  0
 51125  1  0  0  0
 52126  1  0  0  0
 52127  1  0  0  0
 53 54  1  0  0  0
 54 55  2  0  0  0
 54128  1  0  0  0
 55 57  1  0  0  0
 55129  1  0  0  0
 56 69  2  0  0  0
 57 58  2  0  0  0
 57130  1  0  0  0
 58131  1  0  0  0
 59 60  1  0  0  0
 59 61  1  0  0  0
 59 62  1  0  0  0
 60132  1  0  0  0
 60133  1  0  0  0
 60134  1  0  0  0
 61135  1  0  0  0
 61136  1  0  0  0
 61137  1  0  0  0
 62138  1  0  0  0
 62139  1  0  0  0
 62140  1  0  0  0
 63 65  1  0  0  0
 63141  1  0  0  0
 63142  1  0  0  0
 63143  1  0  0  0
 64144  1  0  0  0
 65145  1  0  0  0
 68 81  1  0  0  0
 71 73  2  0  0  0
 71 74  1  0  0  0
 71146  1  0  0  0
 72 74  2  0  0  0
 72 75  1  0  0  0
 72147  1  0  0  0
 73 76  1  0  0  0
 73 77  1  0  0  0
 74 84  1  0  0  0
 75 76  2  0  0  0
 75 85  1  0  0  0
 76 86  1  0  0  0
 77 78  2  0  0  0
 77148  1  0  0  0
 78 81  1  0  0  0
 78149  1  0  0  0
 79 82  1  0  0  0
 79150  1  0  0  0
 79151  1  0  0  0
 79152  1  0  0  0
 80 83  1  0  0  0
 80153  1  0  0  0
 80154  1  0  0  0
 80155  1  0  0  0
 81156  1  0  0  0
 81157  1  0  0  0
 82 85  1  0  0  0
 82158  1  0  0  0
 82159  1  0  0  0
 83 86  1  0  0  0
 83160  1  0  0  0
 83161  1  0  0  0
 84162  1  0  0  0
M  ISO  4   1 100  68 101  81 101  84 100
M  END
> <chiral flag>
0

> <version>
0

> <s_m_source_file>
/data/baiqing/PycharmProjects/Reinvent-master-3.2/result/LINK_invent/BTK/process_docking_weight1_custom_product_contain_oxygen_bond_distance_aromatic_linkinvent_7_9_3/rearranged_h_0114.sdf

> <i_m_source_file_index>
75

> <r_mmod_Potential_Energy-OPLS-2005>
658.135437011719

> <r_mmod_Stretch_Energy-OPLS-2005>
329.377166748047

> <r_mmod_Bend_Energy-OPLS-2005>
267.387115478516

> <r_mmod_Torsional_Energy-OPLS-2005>
247.030426025391

> <r_mmod_Improper_Torsional_Energy-OPLS-2005>
4.70584964752197

> <r_mmod_Van_der_Waal_Energy-OPLS-2005>
145.839645385742

> <r_mmod_Electrostatic_Energy-OPLS-2005>
-360.9599609375

> <r_mmod_Solvation_Energy-OPLS-2005>
-214.89111328125

> <b_mmod_Minimization_Converged-OPLS-2005>
0

> <r_mmod_RMS_Derivative-OPLS-2005>
2.38997435569763

$$$$
75
                    3D
 Structure written by MMmdl.
158167  0  0  1  0            999 V2000
  -30.6085  -14.7607   20.4964 C   0  0  0  0  0  0
  -30.4481  -12.4722   19.4884 C   0  0  0  0  0  0
  -29.5273  -12.5370   18.2496 C   0  0  0  0  0  0
  -28.0499  -12.3530   18.6504 C   0  0  0  0  0  0
  -27.6530  -13.2325   19.8658 C   0  0  2  0  0  0
  -28.6965  -13.1496   21.0039 C   0  0  0  0  0  0
  -25.2584  -13.8187   20.5706 C   0  0  0  0  0  0
  -24.1854  -13.0454   20.9192 C   0  0  0  0  0  0
  -24.6427  -11.6928   20.8742 C   0  0  0  0  0  0
  -23.9095  -10.4278   21.0345 C   0  0  0  0  0  0
  -24.3630   -9.4202   21.9137 C   0  0  0  0  0  0
  -23.6310   -8.2237   22.0728 C   0  0  0  0  0  0
  -22.4280   -8.0278   21.3545 C   0  0  0  0  0  0
  -21.9929   -9.0237   20.4633 C   0  0  0  0  0  0
  -22.7252  -10.2122   20.3009 C   0  0  0  0  0  0
  -21.6864   -6.0727   22.5258 C   0  0  0  0  0  0
  -21.4014   -6.5627   23.8180 C   0  0  0  0  0  0
  -21.3667   -5.6783   24.9158 C   0  0  0  0  0  0
  -21.6044   -4.3044   24.7209 C   0  0  0  0  0  0
  -21.8820   -3.8139   23.4335 C   0  0  0  0  0  0
  -21.9209   -4.6963   22.3391 C   0  0  0  0  0  0
  -22.7878  -13.5228   21.1821 C   0  0  0  0  0  0
  -22.1645   -4.2138   21.0971 F   0  0  0  0  0  0
  -21.5657   -3.4527   25.7723 F   0  0  0  0  0  0
  -30.0067  -13.5186   20.4439 N   0  0  0  0  0  0
  -26.3019  -12.9380   20.3343 N   0  0  0  0  0  0
  -25.9375  -11.6527   20.5784 N   0  0  0  0  0  0
  -22.0491  -12.8240   22.0382 N   0  0  0  0  0  0
  -25.4381  -15.1908   20.4113 N   0  0  0  0  0  0
  -31.7505  -14.9015   20.0449 O   0  0  0  0  0  0
  -21.6649   -6.8883   21.4220 O   0  0  0  0  0  0
  -22.3564  -14.5507   20.6634 O   0  0  0  0  0  0
  -24.6291  -31.8566   23.2006 C   0  0  0  0  0  0
  -25.9136  -32.4751   23.8340 C   0  0  1  0  0  0
  -27.2172  -27.2645   20.1473 C   0  0  0  0  0  0
  -25.5965  -33.8555   24.2268 N   0  0  0  0  0  0
  -23.4258  -30.4794   21.5395 C   0  0  2  0  0  0
  -24.8769  -28.9296   20.1092 C   0  0  0  0  0  0
  -22.7491  -29.4597   22.4887 C   0  0  0  0  0  0
  -18.0300  -28.1393   22.8475 C   0  0  0  0  0  0
  -24.1509  -36.7298   23.2626 C   0  0  0  0  0  0
  -25.9694  -30.7710   21.3813 C   0  0  0  0  0  0
  -26.0437  -29.3933   20.7283 C   0  0  0  0  0  0
  -27.2130  -28.5691   20.7441 C   0  0  0  0  0  0
  -26.0385  -26.8827   19.4664 C   0  0  0  0  0  0
  -24.8800  -27.6836   19.4644 C   0  0  0  0  0  0
  -23.6485  -29.8177   20.1534 C   0  0  0  0  0  0
  -25.4128  -36.3067   24.0317 C   0  0  1  0  0  0
  -20.5891  -28.3703   23.1278 C   0  0  2  0  0  0
  -20.6806  -26.9420   22.5413 C   0  0  0  0  0  0
  -19.5787  -26.6379   21.5223 C   0  0  0  0  0  0
  -18.1957  -26.7943   22.1615 C   0  0  0  0  0  0
  -19.1544  -28.8862   23.2880 C   0  0  0  0  0  0
  -18.9465  -30.1462   23.8894 C   0  0  0  0  0  0
  -17.6460  -30.6587   24.0565 C   0  0  0  0  0  0
  -25.9067  -34.9427   23.5079 C   0  0  0  0  0  0
  -16.5354  -29.9080   23.6315 C   0  0  0  0  0  0
  -16.7286  -28.6506   23.0322 C   0  0  0  0  0  0
  -26.4516  -31.6547   25.0706 C   0  0  0  0  0  0
  -25.3766  -31.3684   26.1444 C   0  0  0  0  0  0
  -27.0329  -30.2952   24.6145 C   0  0  0  0  0  0
  -27.6059  -32.4279   25.7503 C   0  0  0  0  0  0
  -27.5579  -37.1810   24.8445 C   0  0  0  0  0  0
  -21.4189  -29.3056   22.3655 N   0  0  0  0  0  0
  -26.4299  -37.3763   23.9395 N   0  0  0  0  0  0
  -24.6932  -31.0537   22.0974 N   0  0  0  0  0  0
  -23.4193  -28.8126   23.2984 O   0  0  0  0  0  0
  -28.3152  -26.3779   20.2504 O   0  0  0  0  0  0
  -26.5591  -34.8899   22.4622 O   0  0  0  0  0  0
  -23.5442  -32.1377   23.7311 O   0  0  0  0  0  0
  -28.8146  -17.1505   19.2311 C   0  0  0  0  0  0
  -28.2665  -18.3250   18.6810 C   0  0  0  0  0  0
  -29.8224  -18.4961   20.9904 C   0  0  0  0  0  0
  -29.2937  -19.7364   20.4141 C   0  0  0  0  0  0
  -29.5920  -17.1713   20.4102 C   0  0  0  0  0  0
  -28.4954  -19.5896   19.2585 C   0  0  0  0  0  0
  -27.5009  -22.1238   21.8122 C   0  0  0  0  0  0
  -27.1025  -23.3675   22.5933 C   0  0  0  0  0  0
  -28.3718  -24.2105   22.4860 C   0  0  0  0  0  0
  -28.8875  -23.8560   21.0831 C   0  0  2  0  0  0
  -29.6159  -21.2294   20.9034 C   0  0  0  0  0  0
  -28.1468  -24.8887   20.0757 C   0  0  0  0  0  0
  -28.5676  -22.3483   21.0161 N   0  0  0  0  0  0
  -29.9054  -15.8426   21.0091 N   0  0  0  0  0  0
  -26.9655  -21.0320   22.0279 O   0  0  0  0  0  0
  -27.9626  -20.6846   18.6685 F   0  0  0  0  0  0
  -31.4871  -12.6094   19.1826 H   0  0  0  0  0  0
  -30.4039  -11.4838   19.9480 H   0  0  0  0  0  0
  -29.8171  -11.7714   17.5281 H   0  0  0  0  0  0
  -29.6574  -13.4982   17.7493 H   0  0  0  0  0  0
  -27.9072  -11.3013   18.8929 H   0  0  0  0  0  0
  -27.4010  -12.5579   17.7989 H   0  0  0  0  0  0
  -27.6484  -14.2585   19.5057 H   0  0  0  0  0  0
  -28.7388  -12.1401   21.4119 H   0  0  0  0  0  0
  -28.4178  -13.8007   21.8337 H   0  0  0  0  0  0
  -25.2739   -9.5691   22.4757 H   0  0  0  0  0  0
  -24.0000   -7.4631   22.7454 H   0  0  0  0  0  0
  -21.0848   -8.8771   19.8943 H   0  0  0  0  0  0
  -22.3672  -10.9681   19.6149 H   0  0  0  0  0  0
  -21.1950   -7.6121   23.9690 H   0  0  0  0  0  0
  -21.1509   -6.0508   25.9075 H   0  0  0  0  0  0
  -22.0600   -2.7597   23.2826 H   0  0  0  0  0  0
  -22.4058  -11.9929   22.4871 H   0  0  0  0  0  0
  -21.1070  -13.1273   22.2450 H   0  0  0  0  0  0
  -24.6866  -15.8633   20.5178 H   0  0  0  0  0  0
  -26.3072  -15.6187   20.1253 H   0  0  0  0  0  0
  -26.7181  -32.5413   23.1071 H   0  0  0  0  0  0
  -25.0219  -33.9715   25.0472 H   0  0  0  0  0  0
  -22.7225  -31.3004   21.3935 H   0  0  0  0  0  0
  -23.3768  -35.9635   23.3267 H   0  0  0  0  0  0
  -24.3611  -36.8939   22.2046 H   0  0  0  0  0  0
  -23.7270  -37.6493   23.6671 H   0  0  0  0  0  0
  -26.1043  -31.5304   20.6106 H   0  0  0  0  0  0
  -26.8483  -30.8253   22.0098 H   0  0  0  0  0  0
  -28.0979  -28.9104   21.2622 H   0  0  0  0  0  0
  -25.9808  -25.9502   18.9263 H   0  0  0  0  0  0
  -23.9944  -27.3303   18.9541 H   0  0  0  0  0  0
  -23.7787  -30.5972   19.4011 H   0  0  0  0  0  0
  -22.7690  -29.2529   19.8408 H   0  0  0  0  0  0
  -25.1325  -36.1905   25.0804 H   0  0  0  0  0  0
  -21.0003  -28.3303   24.1398 H   0  0  0  0  0  0
  -20.5749  -26.2309   23.3625 H   0  0  0  0  0  0
  -21.6673  -26.7488   22.1178 H   0  0  0  0  0  0
  -19.6960  -25.6290   21.1264 H   0  0  0  0  0  0
  -19.6743  -27.3176   20.6754 H   0  0  0  0  0  0
  -17.4247  -26.6687   21.3999 H   0  0  0  0  0  0
  -18.0337  -26.0079   22.8998 H   0  0  0  0  0  0
  -19.7934  -30.7281   24.2258 H   0  0  0  0  0  0
  -17.5010  -31.6273   24.5172 H   0  0  0  0  0  0
  -15.5343  -30.2982   23.7663 H   0  0  0  0  0  0
  -15.8684  -28.0846   22.7008 H   0  0  0  0  0  0
  -24.5976  -30.6982   25.7805 H   0  0  0  0  0  0
  -24.8941  -32.2843   26.4855 H   0  0  0  0  0  0
  -25.8145  -30.8904   27.0214 H   0  0  0  0  0  0
  -26.2865  -29.6719   24.1207 H   0  0  0  0  0  0
  -27.4043  -29.7201   25.4632 H   0  0  0  0  0  0
  -27.8750  -30.4208   23.9339 H   0  0  0  0  0  0
  -27.2646  -33.3571   26.2076 H   0  0  0  0  0  0
  -28.3907  -32.6829   25.0374 H   0  0  0  0  0  0
  -28.0677  -31.8393   26.5438 H   0  0  0  0  0  0
  -28.2568  -38.0131   24.7506 H   0  0  0  0  0  0
  -28.1111  -36.2659   24.6273 H   0  0  0  0  0  0
  -27.2301  -37.1445   25.8847 H   0  0  0  0  0  0
  -20.9360  -29.8807   21.6890 H   0  0  0  0  0  0
  -26.0170  -38.2832   24.1409 H   0  0  0  0  0  0
  -28.5879  -16.2081   18.7526 H   0  0  0  0  0  0
  -27.6481  -18.2565   17.7951 H   0  0  0  0  0  0
  -30.4115  -18.5746   21.8936 H   0  0  0  0  0  0
  -26.8199  -23.1543   23.6253 H   0  0  0  0  0  0
  -26.2582  -23.8528   22.0988 H   0  0  0  0  0  0
  -29.0921  -23.8946   23.2416 H   0  0  0  0  0  0
  -28.1916  -25.2757   22.6390 H   0  0  0  0  0  0
  -29.9656  -24.0125   21.0143 H   0  0  0  0  0  0
  -30.3790  -21.6120   20.2237 H   0  0  0  0  0  0
  -30.1270  -21.1667   21.8672 H   0  0  0  0  0  0
  -27.0931  -24.6209   20.0981 H   0  0  0  0  0  0
  -28.4651  -24.6577   19.0600 H   0  0  0  0  0  0
  -29.1607  -15.5136   21.6066 H   0  0  0  0  0  0
  1 25  1  0  0  0
  1 30  2  0  0  0
  1 84  1  0  0  0
  2  3  1  0  0  0
  2 25  1  0  0  0
  2 87  1  0  0  0
  2 88  1  0  0  0
  3  4  1  0  0  0
  3 89  1  0  0  0
  3 90  1  0  0  0
  4  5  1  0  0  0
  4 91  1  0  0  0
  4 92  1  0  0  0
  5  6  1  0  0  0
  5 26  1  0  0  0
  5 93  1  0  0  0
  6 25  1  0  0  0
  6 94  1  0  0  0
  6 95  1  0  0  0
  7  8  2  0  0  0
  7 26  1  0  0  0
  7 29  1  0  0  0
  8  9  1  0  0  0
  8 22  1  0  0  0
  9 10  1  0  0  0
  9 27  2  0  0  0
 10 11  2  0  0  0
 10 15  1  0  0  0
 11 12  1  0  0  0
 11 96  1  0  0  0
 12 13  2  0  0  0
 12 97  1  0  0  0
 13 14  1  0  0  0
 13 31  1  0  0  0
 14 15  2  0  0  0
 14 98  1  0  0  0
 15 99  1  0  0  0
 16 17  2  0  0  0
 16 21  1  0  0  0
 16 31  1  0  0  0
 17 18  1  0  0  0
 17100  1  0  0  0
 18 19  2  0  0  0
 18101  1  0  0  0
 19 20  1  0  0  0
 19 24  1  0  0  0
 20 21  2  0  0  0
 20102  1  0  0  0
 21 23  1  0  0  0
 22 28  1  0  0  0
 22 32  2  0  0  0
 26 27  1  0  0  0
 28103  1  0  0  0
 28104  1  0  0  0
 29105  1  0  0  0
 29106  1  0  0  0
 33 34  1  0  0  0
 33 66  1  0  0  0
 33 70  2  0  0  0
 34 36  1  0  0  0
 34 59  1  0  0  0
 34107  1  0  0  0
 35 44  2  0  0  0
 35 45  1  0  0  0
 35 68  1  0  0  0
 36 56  1  0  0  0
 36108  1  0  0  0
 37 39  1  0  0  0
 37 47  1  0  0  0
 37 66  1  0  0  0
 37109  1  0  0  0
 38 43  2  0  0  0
 38 46  1  0  0  0
 38 47  1  0  0  0
 39 64  1  0  0  0
 39 67  2  0  0  0
 40 52  1  0  0  0
 40 53  2  0  0  0
 40 58  1  0  0  0
 41110  1  0  0  0
 41111  1  0  0  0
 41112  1  0  0  0
 41 48  1  0  0  0
 42 43  1  0  0  0
 42 66  1  0  0  0
 42113  1  0  0  0
 42114  1  0  0  0
 43 44  1  0  0  0
 44115  1  0  0  0
 45 46  2  0  0  0
 45116  1  0  0  0
 46117  1  0  0  0
 47118  1  0  0  0
 47119  1  0  0  0
 48 56  1  0  0  0
 48 65  1  0  0  0
 48120  1  0  0  0
 49 50  1  0  0  0
 49 53  1  0  0  0
 49 64  1  0  0  0
 49121  1  0  0  0
 50 51  1  0  0  0
 50122  1  0  0  0
 50123  1  0  0  0
 51 52  1  0  0  0
 51124  1  0  0  0
 51125  1  0  0  0
 52126  1  0  0  0
 52127  1  0  0  0
 53 54  1  0  0  0
 54 55  2  0  0  0
 54128  1  0  0  0
 55 57  1  0  0  0
 55129  1  0  0  0
 56 69  2  0  0  0
 57 58  2  0  0  0
 57130  1  0  0  0
 58131  1  0  0  0
 59 60  1  0  0  0
 59 61  1  0  0  0
 59 62  1  0  0  0
 60132  1  0  0  0
 60133  1  0  0  0
 60134  1  0  0  0
 61135  1  0  0  0
 61136  1  0  0  0
 61137  1  0  0  0
 62138  1  0  0  0
 62139  1  0  0  0
 62140  1  0  0  0
 63 65  1  0  0  0
 63141  1  0  0  0
 63142  1  0  0  0
 63143  1  0  0  0
 64144  1  0  0  0
 65145  1  0  0  0
 68 82  1  0  0  0
 71 72  2  0  0  0
 71 75  1  0  0  0
 71146  1  0  0  0
 72 76  1  0  0  0
 72147  1  0  0  0
 73 74  1  0  0  0
 73 75  2  0  0  0
 73148  1  0  0  0
 74 76  2  0  0  0
 74 81  1  0  0  0
 75 84  1  0  0  0
 76 86  1  0  0  0
 77 78  1  0  0  0
 77 83  1  0  0  0
 77 85  2  0  0  0
 78 79  1  0  0  0
 78149  1  0  0  0
 78150  1  0  0  0
 79 80  1  0  0  0
 79151  1  0  0  0
 79152  1  0  0  0
 80 82  1  0  0  0
 80 83  1  0  0  0
 80153  1  0  0  0
 81 83  1  0  0  0
 81154  1  0  0  0
 81155  1  0  0  0
 82156  1  0  0  0
 82157  1  0  0  0
 84158  1  0  0  0
M  ISO  4   1 100  68 101  82 101  84 100
M  END
> <chiral flag>
0

> <version>
0

> <s_m_source_file>
/data/baiqing/PycharmProjects/Reinvent-master-3.2/result/LINK_invent/BTK/process_docking_weight1_custom_product_contain_oxygen_bond_distance_aromatic_linkinvent_7_9_3/rearranged_h_0114.sdf

> <i_m_source_file_index>
76

> <r_mmod_Potential_Energy-OPLS-2005>
248.333648681641

> <r_mmod_Stretch_Energy-OPLS-2005>
136.917266845703

> <r_mmod_Bend_Energy-OPLS-2005>
213.633224487305

> <r_mmod_Torsional_Energy-OPLS-2005>
292.094573974609

> <r_mmod_Improper_Torsional_Energy-OPLS-2005>
9.7380838394165

> <r_mmod_Van_der_Waal_Energy-OPLS-2005>
129.591766357422

> <r_mmod_Electrostatic_Energy-OPLS-2005>
-397.809204101562

> <r_mmod_Solvation_Energy-OPLS-2005>
-224.180725097656

> <b_mmod_Minimization_Converged-OPLS-2005>
0

> <r_mmod_RMS_Derivative-OPLS-2005>
4.89741706848145

$$$$
76
                    3D
 Structure written by MMmdl.
150158  0  0  1  0            999 V2000
  -30.5828  -14.8184   20.4259 C   0  0  0  0  0  0
  -30.4312  -12.4902   19.5035 C   0  0  0  0  0  0
  -29.5212  -12.5185   18.2539 C   0  0  0  0  0  0
  -28.0446  -12.3381   18.6558 C   0  0  0  0  0  0
  -27.6382  -13.2426   19.8498 C   0  0  2  0  0  0
  -28.6759  -13.2025   20.9900 C   0  0  0  0  0  0
  -25.2491  -13.8214   20.5705 C   0  0  0  0  0  0
  -24.1790  -13.0436   20.9195 C   0  0  0  0  0  0
  -24.6394  -11.6922   20.8726 C   0  0  0  0  0  0
  -23.9073  -10.4294   21.0405 C   0  0  0  0  0  0
  -24.3625   -9.4211   21.9183 C   0  0  0  0  0  0
  -23.6295   -8.2248   22.0752 C   0  0  0  0  0  0
  -22.4274   -8.0283   21.3538 C   0  0  0  0  0  0
  -21.9909   -9.0260   20.4642 C   0  0  0  0  0  0
  -22.7245  -10.2138   20.3055 C   0  0  0  0  0  0
  -21.6859   -6.0736   22.5273 C   0  0  0  0  0  0
  -21.4030   -6.5643   23.8206 C   0  0  0  0  0  0
  -21.3658   -5.6793   24.9165 C   0  0  0  0  0  0
  -21.6036   -4.3054   24.7217 C   0  0  0  0  0  0
  -21.8822   -3.8145   23.4340 C   0  0  0  0  0  0
  -21.9194   -4.6963   22.3396 C   0  0  0  0  0  0
  -22.7814  -13.5211   21.1857 C   0  0  0  0  0  0
  -22.1661   -4.2153   21.0973 F   0  0  0  0  0  0
  -21.5618   -3.4534   25.7729 F   0  0  0  0  0  0
  -29.9752  -13.5723   20.4167 N   0  0  0  0  0  0
  -26.2917  -12.9440   20.3264 N   0  0  0  0  0  0
  -25.9328  -11.6568   20.5723 N   0  0  0  0  0  0
  -22.0472  -12.8198   22.0422 N   0  0  0  0  0  0
  -25.4165  -15.1944   20.4172 N   0  0  0  0  0  0
  -31.7729  -14.8692   20.0970 O   0  0  0  0  0  0
  -21.6640   -6.8879   21.4235 O   0  0  0  0  0  0
  -22.3492  -14.5511   20.6704 O   0  0  0  0  0  0
  -24.6354  -31.8503   23.1916 C   0  0  0  0  0  0
  -25.9161  -32.4725   23.8288 C   0  0  1  0  0  0
  -27.2254  -27.2190   20.1360 C   0  0  0  0  0  0
  -25.5938  -33.8526   24.2219 N   0  0  0  0  0  0
  -23.4345  -30.4693   21.5360 C   0  0  2  0  0  0
  -24.8817  -28.9036   20.1087 C   0  0  0  0  0  0
  -22.7522  -29.4579   22.4894 C   0  0  0  0  0  0
  -18.0296  -28.1398   22.8485 C   0  0  0  0  0  0
  -24.1489  -36.7270   23.2640 C   0  0  0  0  0  0
  -25.9816  -30.7492   21.3766 C   0  0  0  0  0  0
  -26.0523  -29.3666   20.7203 C   0  0  0  0  0  0
  -27.2226  -28.5371   20.7199 C   0  0  0  0  0  0
  -26.0273  -26.8248   19.5015 C   0  0  0  0  0  0
  -24.8763  -27.6430   19.4880 C   0  0  0  0  0  0
  -23.6541  -29.7960   20.1545 C   0  0  0  0  0  0
  -25.4118  -36.3053   24.0321 C   0  0  1  0  0  0
  -20.5904  -28.3714   23.1261 C   0  0  2  0  0  0
  -20.6783  -26.9432   22.5405 C   0  0  0  0  0  0
  -19.5757  -26.6397   21.5209 C   0  0  0  0  0  0
  -18.1940  -26.7941   22.1624 C   0  0  0  0  0  0
  -19.1552  -28.8873   23.2868 C   0  0  0  0  0  0
  -18.9471  -30.1470   23.8895 C   0  0  0  0  0  0
  -17.6469  -30.6597   24.0564 C   0  0  0  0  0  0
  -25.9065  -34.9424   23.5076 C   0  0  0  0  0  0
  -16.5359  -29.9094   23.6337 C   0  0  0  0  0  0
  -16.7283  -28.6511   23.0361 C   0  0  0  0  0  0
  -26.4511  -31.6571   25.0703 C   0  0  0  0  0  0
  -25.3711  -31.3745   26.1408 C   0  0  0  0  0  0
  -27.0371  -30.2978   24.6231 C   0  0  0  0  0  0
  -27.6054  -32.4320   25.7489 C   0  0  0  0  0  0
  -27.5578  -37.1793   24.8471 C   0  0  0  0  0  0
  -21.4226  -29.3046   22.3639 N   0  0  0  0  0  0
  -26.4293  -37.3753   23.9406 N   0  0  0  0  0  0
  -24.7033  -31.0427   22.0910 N   0  0  0  0  0  0
  -23.4197  -28.8145   23.3038 O   0  0  0  0  0  0
  -28.3392  -26.3389   20.2196 O   0  0  0  0  0  0
  -26.5648  -34.8914   22.4653 O   0  0  0  0  0  0
  -23.5499  -32.1349   23.7190 O   0  0  0  0  0  0
  -29.9050  -20.9494   19.4710 C   0  0  0  0  0  0
  -28.9527  -21.0658   20.4409 C   0  0  0  0  0  0
  -28.7884  -19.6800   20.9238 C   0  0  0  0  0  0
  -29.6902  -18.8221   20.2694 C   0  0  0  0  0  0
  -28.2071  -22.3392   20.9499 C   0  0  0  0  0  0
  -30.1395  -17.3703   20.2294 C   0  0  0  0  0  0
  -29.7701  -16.0934   20.6714 C   0  0  0  0  0  0
  -27.9877  -23.7134   20.7423 C   0  0  0  0  0  0
  -27.8228  -19.2466   21.9940 C   0  0  0  0  0  0
  -28.3857  -24.8905   19.7485 C   0  0  0  0  0  0
  -30.3457  -19.6398   19.3704 O   0  0  0  0  0  0
  -31.4751  -12.6065   19.2079 H   0  0  0  0  0  0
  -30.3731  -11.5202   20.0005 H   0  0  0  0  0  0
  -29.8169  -11.7377   17.5520 H   0  0  0  0  0  0
  -29.6465  -13.4674   17.7301 H   0  0  0  0  0  0
  -27.9029  -11.2904   18.9225 H   0  0  0  0  0  0
  -27.3931  -12.5243   17.8013 H   0  0  0  0  0  0
  -27.6247  -14.2620   19.4632 H   0  0  0  0  0  0
  -28.7211  -12.2095   21.4393 H   0  0  0  0  0  0
  -28.3947  -13.8821   21.7948 H   0  0  0  0  0  0
  -25.2777   -9.5683   22.4751 H   0  0  0  0  0  0
  -23.9998   -7.4643   22.7484 H   0  0  0  0  0  0
  -21.0832   -8.8788   19.8956 H   0  0  0  0  0  0
  -22.3707  -10.9676   19.6160 H   0  0  0  0  0  0
  -21.2046   -7.6155   23.9709 H   0  0  0  0  0  0
  -21.1471   -6.0524   25.9067 H   0  0  0  0  0  0
  -22.0603   -2.7609   23.2835 H   0  0  0  0  0  0
  -22.4097  -11.9869   22.4822 H   0  0  0  0  0  0
  -21.1089  -13.1225   22.2632 H   0  0  0  0  0  0
  -24.6497  -15.8466   20.5397 H   0  0  0  0  0  0
  -26.2686  -15.6394   20.1002 H   0  0  0  0  0  0
  -26.7228  -32.5360   23.1029 H   0  0  0  0  0  0
  -25.0061  -33.9653   25.0348 H   0  0  0  0  0  0
  -22.7331  -31.2923   21.3847 H   0  0  0  0  0  0
  -23.3754  -35.9603   23.3308 H   0  0  0  0  0  0
  -24.3571  -36.8889   22.2055 H   0  0  0  0  0  0
  -23.7251  -37.6471   23.6667 H   0  0  0  0  0  0
  -26.1254  -31.5071   20.6053 H   0  0  0  0  0  0
  -26.8564  -30.7988   22.0138 H   0  0  0  0  0  0
  -28.1191  -28.8868   21.2122 H   0  0  0  0  0  0
  -25.9465  -25.8545   19.0361 H   0  0  0  0  0  0
  -23.9779  -27.2801   19.0076 H   0  0  0  0  0  0
  -23.7798  -30.5677   19.3942 H   0  0  0  0  0  0
  -22.7713  -29.2292   19.8534 H   0  0  0  0  0  0
  -25.1306  -36.1889   25.0816 H   0  0  0  0  0  0
  -20.9995  -28.3300   24.1379 H   0  0  0  0  0  0
  -20.5682  -26.2329   23.3617 H   0  0  0  0  0  0
  -21.6653  -26.7451   22.1201 H   0  0  0  0  0  0
  -19.6918  -25.6305   21.1247 H   0  0  0  0  0  0
  -19.6692  -27.3202   20.6739 H   0  0  0  0  0  0
  -17.4207  -26.6688   21.4030 H   0  0  0  0  0  0
  -18.0342  -26.0083   22.9026 H   0  0  0  0  0  0
  -19.7948  -30.7287   24.2267 H   0  0  0  0  0  0
  -17.5025  -31.6278   24.5169 H   0  0  0  0  0  0
  -15.5363  -30.2994   23.7667 H   0  0  0  0  0  0
  -15.8682  -28.0825   22.7087 H   0  0  0  0  0  0
  -24.5890  -30.7092   25.7730 H   0  0  0  0  0  0
  -24.8896  -32.2925   26.4788 H   0  0  0  0  0  0
  -25.7999  -30.8945   27.0214 H   0  0  0  0  0  0
  -26.2975  -29.6709   24.1234 H   0  0  0  0  0  0
  -27.4015  -29.7260   25.4778 H   0  0  0  0  0  0
  -27.8865  -30.4241   23.9512 H   0  0  0  0  0  0
  -27.2650  -33.3618   26.2059 H   0  0  0  0  0  0
  -28.3872  -32.6884   25.0327 H   0  0  0  0  0  0
  -28.0719  -31.8449   26.5413 H   0  0  0  0  0  0
  -28.2604  -38.0079   24.7497 H   0  0  0  0  0  0
  -28.1064  -36.2610   24.6322 H   0  0  0  0  0  0
  -27.2292  -37.1473   25.8873 H   0  0  0  0  0  0
  -20.9430  -29.8738   21.6805 H   0  0  0  0  0  0
  -26.0168  -38.2829   24.1387 H   0  0  0  0  0  0
  -30.3863  -21.6536   18.8067 H   0  0  0  0  0  0
  -27.6339  -22.0398   21.8164 H   0  0  0  0  0  0
  -31.0698  -17.3249   19.6801 H   0  0  0  0  0  0
  -28.8493  -16.0120   21.2276 H   0  0  0  0  0  0
  -27.3030  -24.1224   21.4721 H   0  0  0  0  0  0
  -27.8034  -18.1605   22.0856 H   0  0  0  0  0  0
  -26.8142  -19.5859   21.7564 H   0  0  0  0  0  0
  -28.1141  -19.6658   22.9569 H   0  0  0  0  0  0
  -27.7999  -24.7839   18.8370 H   0  0  0  0  0  0
  -29.4120  -24.6924   19.4375 H   0  0  0  0  0  0
  1 25  1  0  0  0
  1 30  2  0  0  0
  1 77  1  0  0  0
  2  3  1  0  0  0
  2 25  1  0  0  0
  2 82  1  0  0  0
  2 83  1  0  0  0
  3  4  1  0  0  0
  3 84  1  0  0  0
  3 85  1  0  0  0
  4  5  1  0  0  0
  4 86  1  0  0  0
  4 87  1  0  0  0
  5  6  1  0  0  0
  5 26  1  0  0  0
  5 88  1  0  0  0
  6 25  1  0  0  0
  6 89  1  0  0  0
  6 90  1  0  0  0
  7  8  2  0  0  0
  7 26  1  0  0  0
  7 29  1  0  0  0
  8  9  1  0  0  0
  8 22  1  0  0  0
  9 10  1  0  0  0
  9 27  2  0  0  0
 10 11  2  0  0  0
 10 15  1  0  0  0
 11 12  1  0  0  0
 11 91  1  0  0  0
 12 13  2  0  0  0
 12 92  1  0  0  0
 13 14  1  0  0  0
 13 31  1  0  0  0
 14 15  2  0  0  0
 14 93  1  0  0  0
 15 94  1  0  0  0
 16 17  2  0  0  0
 16 21  1  0  0  0
 16 31  1  0  0  0
 17 18  1  0  0  0
 17 95  1  0  0  0
 18 19  2  0  0  0
 18 96  1  0  0  0
 19 20  1  0  0  0
 19 24  1  0  0  0
 20 21  2  0  0  0
 20 97  1  0  0  0
 21 23  1  0  0  0
 22 28  1  0  0  0
 22 32  2  0  0  0
 26 27  1  0  0  0
 28 98  1  0  0  0
 28 99  1  0  0  0
 29100  1  0  0  0
 29101  1  0  0  0
 33 34  1  0  0  0
 33 66  1  0  0  0
 33 70  2  0  0  0
 34 36  1  0  0  0
 34 59  1  0  0  0
 34102  1  0  0  0
 35 44  2  0  0  0
 35 45  1  0  0  0
 35 68  1  0  0  0
 36 56  1  0  0  0
 36103  1  0  0  0
 37 39  1  0  0  0
 37 47  1  0  0  0
 37 66  1  0  0  0
 37104  1  0  0  0
 38 43  2  0  0  0
 38 46  1  0  0  0
 38 47  1  0  0  0
 39 64  1  0  0  0
 39 67  2  0  0  0
 40 52  1  0  0  0
 40 53  2  0  0  0
 40 58  1  0  0  0
 41105  1  0  0  0
 41106  1  0  0  0
 41107  1  0  0  0
 41 48  1  0  0  0
 42 43  1  0  0  0
 42 66  1  0  0  0
 42108  1  0  0  0
 42109  1  0  0  0
 43 44  1  0  0  0
 44110  1  0  0  0
 45 46  2  0  0  0
 45111  1  0  0  0
 46112  1  0  0  0
 47113  1  0  0  0
 47114  1  0  0  0
 48 56  1  0  0  0
 48 65  1  0  0  0
 48115  1  0  0  0
 49 50  1  0  0  0
 49 53  1  0  0  0
 49 64  1  0  0  0
 49116  1  0  0  0
 50 51  1  0  0  0
 50117  1  0  0  0
 50118  1  0  0  0
 51 52  1  0  0  0
 51119  1  0  0  0
 51120  1  0  0  0
 52121  1  0  0  0
 52122  1  0  0  0
 53 54  1  0  0  0
 54 55  2  0  0  0
 54123  1  0  0  0
 55 57  1  0  0  0
 55124  1  0  0  0
 56 69  2  0  0  0
 57 58  2  0  0  0
 57125  1  0  0  0
 58126  1  0  0  0
 59 60  1  0  0  0
 59 61  1  0  0  0
 59 62  1  0  0  0
 60127  1  0  0  0
 60128  1  0  0  0
 60129  1  0  0  0
 61130  1  0  0  0
 61131  1  0  0  0
 61132  1  0  0  0
 62133  1  0  0  0
 62134  1  0  0  0
 62135  1  0  0  0
 63 65  1  0  0  0
 63136  1  0  0  0
 63137  1  0  0  0
 63138  1  0  0  0
 64139  1  0  0  0
 65140  1  0  0  0
 68 80  1  0  0  0
 71 72  2  0  0  0
 71 81  1  0  0  0
 71141  1  0  0  0
 72 73  1  0  0  0
 72 75  1  0  0  0
 73 74  2  0  0  0
 73 79  1  0  0  0
 74 76  1  0  0  0
 74 81  1  0  0  0
 75 78  2  0  0  0
 75142  1  0  0  0
 76 77  2  0  0  0
 76143  1  0  0  0
 77144  1  0  0  0
 78 80  1  0  0  0
 78145  1  0  0  0
 79146  1  0  0  0
 79147  1  0  0  0
 79148  1  0  0  0
 80149  1  0  0  0
 80150  1  0  0  0
M  ISO  4   1 100  68 101  77 100  80 101
M  END
> <chiral flag>
0

> <version>
0

> <s_m_source_file>
/data/baiqing/PycharmProjects/Reinvent-master-3.2/result/LINK_invent/BTK/process_docking_weight1_custom_product_contain_oxygen_bond_distance_aromatic_linkinvent_7_9_3/rearranged_h_0114.sdf

> <i_m_source_file_index>
77

> <r_mmod_Potential_Energy-OPLS-2005>
271.465423583984

> <r_mmod_Stretch_Energy-OPLS-2005>
145.663986206055

> <r_mmod_Bend_Energy-OPLS-2005>
263.516479492188

> <r_mmod_Torsional_Energy-OPLS-2005>
178.259902954102

> <r_mmod_Improper_Torsional_Energy-OPLS-2005>
3.4526960849762

> <r_mmod_Van_der_Waal_Energy-OPLS-2005>
114.601379394531

> <r_mmod_Electrostatic_Energy-OPLS-2005>
-348.425964355469

> <r_mmod_Solvation_Energy-OPLS-2005>
-198.106384277344

> <b_mmod_Minimization_Converged-OPLS-2005>
0

> <r_mmod_RMS_Derivative-OPLS-2005>
1.0932457447052

$$$$
77
                    3D
 Structure written by MMmdl.
162170  0  0  1  0            999 V2000
  -30.7008  -14.4233   20.5378 C   0  0  0  0  0  0
  -30.4131  -12.2663   19.4167 C   0  0  0  0  0  0
  -29.4951  -12.5256   18.2033 C   0  0  0  0  0  0
  -28.0054  -12.4221   18.5913 C   0  0  0  0  0  0
  -27.6629  -13.2128   19.8813 C   0  0  2  0  0  0
  -28.7070  -12.9575   20.9982 C   0  0  0  0  0  0
  -25.2599  -13.8198   20.5626 C   0  0  0  0  0  0
  -24.1852  -13.0456   20.9113 C   0  0  0  0  0  0
  -24.6416  -11.6923   20.8685 C   0  0  0  0  0  0
  -23.9067  -10.4306   21.0346 C   0  0  0  0  0  0
  -24.3610   -9.4223   21.9135 C   0  0  0  0  0  0
  -23.6320   -8.2237   22.0713 C   0  0  0  0  0  0
  -22.4309   -8.0262   21.3508 C   0  0  0  0  0  0
  -21.9933   -9.0224   20.4595 C   0  0  0  0  0  0
  -22.7228  -10.2131   20.2995 C   0  0  0  0  0  0
  -21.6883   -6.0715   22.5252 C   0  0  0  0  0  0
  -21.4008   -6.5618   23.8179 C   0  0  0  0  0  0
  -21.3684   -5.6787   24.9147 C   0  0  0  0  0  0
  -21.6070   -4.3054   24.7193 C   0  0  0  0  0  0
  -21.8836   -3.8116   23.4338 C   0  0  0  0  0  0
  -21.9193   -4.6934   22.3391 C   0  0  0  0  0  0
  -22.7884  -13.5236   21.1787 C   0  0  0  0  0  0
  -22.1648   -4.2113   21.0981 F   0  0  0  0  0  0
  -21.5669   -3.4536   25.7705 F   0  0  0  0  0  0
  -30.0458  -13.2386   20.4536 N   0  0  0  0  0  0
  -26.3030  -12.9364   20.3331 N   0  0  0  0  0  0
  -25.9332  -11.6530   20.5685 N   0  0  0  0  0  0
  -22.0548  -12.8180   22.0373 N   0  0  0  0  0  0
  -25.4315  -15.1901   20.4060 N   0  0  0  0  0  0
  -31.8531  -14.5918   20.1316 O   0  0  0  0  0  0
  -21.6676   -6.8840   21.4216 O   0  0  0  0  0  0
  -22.3527  -14.5511   20.6615 O   0  0  0  0  0  0
  -24.6109  -31.8694   23.2153 C   0  0  0  0  0  0
  -25.9032  -32.4819   23.8423 C   0  0  1  0  0  0
  -27.2512  -27.4562   20.0921 C   0  0  0  0  0  0
  -25.5914  -33.8615   24.2345 N   0  0  0  0  0  0
  -23.3968  -30.4928   21.5550 C   0  0  2  0  0  0
  -24.8455  -28.9525   20.1257 C   0  0  0  0  0  0
  -22.7380  -29.4639   22.5016 C   0  0  0  0  0  0
  -18.0262  -28.1328   22.8511 C   0  0  0  0  0  0
  -24.1485  -36.7315   23.2641 C   0  0  0  0  0  0
  -25.9266  -30.8365   21.3686 C   0  0  0  0  0  0
  -26.0028  -29.4745   20.7130 C   0  0  0  0  0  0
  -27.2040  -28.7343   20.6890 C   0  0  0  0  0  0
  -26.0662  -26.9307   19.5218 C   0  0  0  0  0  0
  -24.8690  -27.6756   19.5348 C   0  0  0  0  0  0
  -23.6099  -29.8276   20.1685 C   0  0  0  0  0  0
  -25.4108  -36.3106   24.0343 C   0  0  1  0  0  0
  -20.5843  -28.3601   23.1349 C   0  0  2  0  0  0
  -20.6752  -26.9349   22.5425 C   0  0  0  0  0  0
  -19.5736  -26.6342   21.5216 C   0  0  0  0  0  0
  -18.1909  -26.7889   22.1615 C   0  0  0  0  0  0
  -19.1508  -28.8788   23.2921 C   0  0  0  0  0  0
  -18.9433  -30.1402   23.8916 C   0  0  0  0  0  0
  -17.6434  -30.6551   24.0534 C   0  0  0  0  0  0
  -25.9035  -34.9478   23.5135 C   0  0  0  0  0  0
  -16.5324  -29.9044   23.6314 C   0  0  0  0  0  0
  -16.7251  -28.6445   23.0372 C   0  0  0  0  0  0
  -26.4465  -31.6606   25.0757 C   0  0  0  0  0  0
  -25.3710  -31.3742   26.1487 C   0  0  0  0  0  0
  -27.0329  -30.3053   24.6178 C   0  0  0  0  0  0
  -27.6054  -32.4308   25.7523 C   0  0  0  0  0  0
  -27.5574  -37.1829   24.8455 C   0  0  0  0  0  0
  -21.4111  -29.2987   22.3759 N   0  0  0  0  0  0
  -26.4291  -37.3788   23.9396 N   0  0  0  0  0  0
  -24.6624  -31.0800   22.1048 N   0  0  0  0  0  0
  -23.4177  -28.8166   23.3020 O   0  0  0  0  0  0
  -28.4746  -26.8192   20.0874 O   0  0  0  0  0  0
  -26.5577  -34.8917   22.4677 O   0  0  0  0  0  0
  -23.5313  -32.1447   23.7564 O   0  0  0  0  0  0
  -28.2520  -20.0301   20.3233 C   0  0  0  0  0  0
  -30.4762  -18.6305   21.3683 C   0  0  0  0  0  0
  -29.6116  -17.9991   20.4331 C   0  0  0  0  0  0
  -29.1580  -20.7067   21.1634 C   0  0  0  0  0  0
  -30.2650  -20.0022   21.6969 C   0  0  0  0  0  0
  -28.4944  -18.7046   19.9329 C   0  0  0  0  0  0
  -31.7693  -17.6294   23.2536 C   0  0  0  0  0  0
  -31.6026  -17.8600   21.9390 C   0  0  0  0  0  0
  -28.8716  -23.0328   20.4591 C   0  0  0  0  0  0
  -32.2907  -21.1384   21.6734 C   0  0  0  0  0  0
  -29.9159  -16.6131   19.8539 C   0  0  0  0  0  0
  -28.5122  -24.4763   20.8564 C   0  0  0  0  0  0
  -28.6185  -25.4630   19.6665 C   0  0  0  0  0  0
  -28.9730  -22.0990   21.4257 N   0  0  0  0  0  0
  -29.8944  -15.4649   20.7667 N   0  0  0  0  0  0
  -29.0845  -22.7609   19.2751 O   0  0  0  0  0  0
  -31.1795  -20.6973   22.4473 O   0  0  0  0  0  0
  -27.6576  -18.1300   19.0345 F   0  0  0  0  0  0
  -31.4618  -12.3489   19.1207 H   0  0  0  0  0  0
  -30.2818  -11.2502   19.7882 H   0  0  0  0  0  0
  -29.7218  -11.8229   17.3984 H   0  0  0  0  0  0
  -29.6984  -13.5212   17.8043 H   0  0  0  0  0  0
  -27.7545  -11.3684   18.7142 H   0  0  0  0  0  0
  -27.3897  -12.7851   17.7648 H   0  0  0  0  0  0
  -27.7051  -14.2668   19.6179 H   0  0  0  0  0  0
  -28.6632  -11.9152   21.3241 H   0  0  0  0  0  0
  -28.4910  -13.5558   21.8855 H   0  0  0  0  0  0
  -25.2745   -9.5730   22.4705 H   0  0  0  0  0  0
  -24.0026   -7.4680   22.7490 H   0  0  0  0  0  0
  -21.0835   -8.8763   19.8962 H   0  0  0  0  0  0
  -22.3662  -10.9666   19.6109 H   0  0  0  0  0  0
  -21.1975   -7.6120   23.9650 H   0  0  0  0  0  0
  -21.1507   -6.0511   25.9053 H   0  0  0  0  0  0
  -22.0581   -2.7563   23.2833 H   0  0  0  0  0  0
  -22.4167  -11.9849   22.4756 H   0  0  0  0  0  0
  -21.1151  -13.1145   22.2559 H   0  0  0  0  0  0
  -24.6668  -15.8484   20.5002 H   0  0  0  0  0  0
  -26.2835  -15.6275   20.0746 H   0  0  0  0  0  0
  -26.7102  -32.5533   23.1185 H   0  0  0  0  0  0
  -25.0091  -33.9782   25.0505 H   0  0  0  0  0  0
  -22.6832  -31.3078   21.4191 H   0  0  0  0  0  0
  -23.3733  -35.9658   23.3317 H   0  0  0  0  0  0
  -24.3572  -36.8915   22.2052 H   0  0  0  0  0  0
  -23.7251  -37.6540   23.6630 H   0  0  0  0  0  0
  -26.0473  -31.6101   20.6093 H   0  0  0  0  0  0
  -26.8109  -30.8778   21.9931 H   0  0  0  0  0  0
  -28.1022  -29.1466   21.1264 H   0  0  0  0  0  0
  -26.0366  -25.9568   19.0592 H   0  0  0  0  0  0
  -23.9745  -27.2572   19.0922 H   0  0  0  0  0  0
  -23.7406  -30.6127   19.4234 H   0  0  0  0  0  0
  -22.7301  -29.2661   19.8505 H   0  0  0  0  0  0
  -25.1286  -36.1986   25.0838 H   0  0  0  0  0  0
  -20.9942  -28.3142   24.1464 H   0  0  0  0  0  0
  -20.5653  -26.2192   23.3587 H   0  0  0  0  0  0
  -21.6616  -26.7393   22.1200 H   0  0  0  0  0  0
  -19.6883  -25.6256   21.1235 H   0  0  0  0  0  0
  -19.6702  -27.3151   20.6753 H   0  0  0  0  0  0
  -17.4200  -26.6666   21.4000 H   0  0  0  0  0  0
  -18.0286  -25.9999   22.8974 H   0  0  0  0  0  0
  -19.7910  -30.7203   24.2307 H   0  0  0  0  0  0
  -17.4986  -31.6256   24.5084 H   0  0  0  0  0  0
  -15.5319  -30.2944   23.7621 H   0  0  0  0  0  0
  -15.8650  -28.0747   22.7105 H   0  0  0  0  0  0
  -24.5838  -30.7150   25.7803 H   0  0  0  0  0  0
  -24.8936  -32.2920   26.4944 H   0  0  0  0  0  0
  -25.8007  -30.8873   27.0248 H   0  0  0  0  0  0
  -26.2937  -29.6807   24.1149 H   0  0  0  0  0  0
  -27.4019  -29.7294   25.4680 H   0  0  0  0  0  0
  -27.8782  -30.4383   23.9415 H   0  0  0  0  0  0
  -27.2698  -33.3589   26.2153 H   0  0  0  0  0  0
  -28.3854  -32.6892   25.0349 H   0  0  0  0  0  0
  -28.0724  -31.8385   26.5406 H   0  0  0  0  0  0
  -28.2602  -38.0120   24.7482 H   0  0  0  0  0  0
  -28.1072  -36.2656   24.6300 H   0  0  0  0  0  0
  -27.2290  -37.1489   25.8858 H   0  0  0  0  0  0
  -20.9233  -29.8750   21.7045 H   0  0  0  0  0  0
  -26.0190  -38.2873   24.1374 H   0  0  0  0  0  0
  -27.3933  -20.5445   19.9160 H   0  0  0  0  0  0
  -32.5995  -17.0335   23.6081 H   0  0  0  0  0  0
  -31.0788  -18.0143   23.9905 H   0  0  0  0  0  0
  -32.3251  -17.4564   21.2397 H   0  0  0  0  0  0
  -32.7683  -21.9936   22.1501 H   0  0  0  0  0  0
  -31.9969  -21.4535   20.6699 H   0  0  0  0  0  0
  -33.0378  -20.3512   21.5769 H   0  0  0  0  0  0
  -30.8629  -16.6946   19.3183 H   0  0  0  0  0  0
  -29.1962  -16.3833   19.0661 H   0  0  0  0  0  0
  -29.1743  -24.8008   21.6595 H   0  0  0  0  0  0
  -27.4996  -24.4920   21.2601 H   0  0  0  0  0  0
  -27.9634  -25.1900   18.8387 H   0  0  0  0  0  0
  -29.6220  -25.3948   19.2430 H   0  0  0  0  0  0
  -28.9638  -22.4017   22.3916 H   0  0  0  0  0  0
  -28.9987  -15.2294   21.1616 H   0  0  0  0  0  0
  1 25  1  0  0  0
  1 30  2  0  0  0
  1 85  1  0  0  0
  2  3  1  0  0  0
  2 25  1  0  0  0
  2 89  1  0  0  0
  2 90  1  0  0  0
  3  4  1  0  0  0
  3 91  1  0  0  0
  3 92  1  0  0  0
  4  5  1  0  0  0
  4 93  1  0  0  0
  4 94  1  0  0  0
  5  6  1  0  0  0
  5 26  1  0  0  0
  5 95  1  0  0  0
  6 25  1  0  0  0
  6 96  1  0  0  0
  6 97  1  0  0  0
  7  8  2  0  0  0
  7 26  1  0  0  0
  7 29  1  0  0  0
  8  9  1  0  0  0
  8 22  1  0  0  0
  9 10  1  0  0  0
  9 27  2  0  0  0
 10 11  2  0  0  0
 10 15  1  0  0  0
 11 12  1  0  0  0
 11 98  1  0  0  0
 12 13  2  0  0  0
 12 99  1  0  0  0
 13 14  1  0  0  0
 13 31  1  0  0  0
 14 15  2  0  0  0
 14100  1  0  0  0
 15101  1  0  0  0
 16 17  2  0  0  0
 16 21  1  0  0  0
 16 31  1  0  0  0
 17 18  1  0  0  0
 17102  1  0  0  0
 18 19  2  0  0  0
 18103  1  0  0  0
 19 20  1  0  0  0
 19 24  1  0  0  0
 20 21  2  0  0  0
 20104  1  0  0  0
 21 23  1  0  0  0
 22 28  1  0  0  0
 22 32  2  0  0  0
 26 27  1  0  0  0
 28105  1  0  0  0
 28106  1  0  0  0
 29107  1  0  0  0
 29108  1  0  0  0
 33 34  1  0  0  0
 33 66  1  0  0  0
 33 70  2  0  0  0
 34 36  1  0  0  0
 34 59  1  0  0  0
 34109  1  0  0  0
 35 44  2  0  0  0
 35 45  1  0  0  0
 35 68  1  0  0  0
 36 56  1  0  0  0
 36110  1  0  0  0
 37 39  1  0  0  0
 37 47  1  0  0  0
 37 66  1  0  0  0
 37111  1  0  0  0
 38 43  2  0  0  0
 38 46  1  0  0  0
 38 47  1  0  0  0
 39 64  1  0  0  0
 39 67  2  0  0  0
 40 52  1  0  0  0
 40 53  2  0  0  0
 40 58  1  0  0  0
 41112  1  0  0  0
 41113  1  0  0  0
 41114  1  0  0  0
 41 48  1  0  0  0
 42 43  1  0  0  0
 42 66  1  0  0  0
 42115  1  0  0  0
 42116  1  0  0  0
 43 44  1  0  0  0
 44117  1  0  0  0
 45 46  2  0  0  0
 45118  1  0  0  0
 46119  1  0  0  0
 47120  1  0  0  0
 47121  1  0  0  0
 48 56  1  0  0  0
 48 65  1  0  0  0
 48122  1  0  0  0
 49 50  1  0  0  0
 49 53  1  0  0  0
 49 64  1  0  0  0
 49123  1  0  0  0
 50 51  1  0  0  0
 50124  1  0  0  0
 50125  1  0  0  0
 51 52  1  0  0  0
 51126  1  0  0  0
 51127  1  0  0  0
 52128  1  0  0  0
 52129  1  0  0  0
 53 54  1  0  0  0
 54 55  2  0  0  0
 54130  1  0  0  0
 55 57  1  0  0  0
 55131  1  0  0  0
 56 69  2  0  0  0
 57 58  2  0  0  0
 57132  1  0  0  0
 58133  1  0  0  0
 59 60  1  0  0  0
 59 61  1  0  0  0
 59 62  1  0  0  0
 60134  1  0  0  0
 60135  1  0  0  0
 60136  1  0  0  0
 61137  1  0  0  0
 61138  1  0  0  0
 61139  1  0  0  0
 62140  1  0  0  0
 62141  1  0  0  0
 62142  1  0  0  0
 63 65  1  0  0  0
 63143  1  0  0  0
 63144  1  0  0  0
 63145  1  0  0  0
 64146  1  0  0  0
 65147  1  0  0  0
 68 83  1  0  0  0
 71 74  2  0  0  0
 71 76  1  0  0  0
 71148  1  0  0  0
 72 73  1  0  0  0
 72 75  2  0  0  0
 72 78  1  0  0  0
 73 76  2  0  0  0
 73 81  1  0  0  0
 74 75  1  0  0  0
 74 84  1  0  0  0
 75 87  1  0  0  0
 76 88  1  0  0  0
 77 78  2  0  0  0
 77149  1  0  0  0
 77150  1  0  0  0
 78151  1  0  0  0
 79 82  1  0  0  0
 79 84  1  0  0  0
 79 86  2  0  0  0
 80 87  1  0  0  0
 80152  1  0  0  0
 80153  1  0  0  0
 80154  1  0  0  0
 81 85  1  0  0  0
 81155  1  0  0  0
 81156  1  0  0  0
 82 83  1  0  0  0
 82157  1  0  0  0
 82158  1  0  0  0
 83159  1  0  0  0
 83160  1  0  0  0
 84161  1  0  0  0
 85162  1  0  0  0
M  ISO  4   1 100  68 101  83 101  85 100
M  END
> <chiral flag>
0

> <version>
0

> <s_m_source_file>
/data/baiqing/PycharmProjects/Reinvent-master-3.2/result/LINK_invent/BTK/process_docking_weight1_custom_product_contain_oxygen_bond_distance_aromatic_linkinvent_7_9_3/rearranged_h_0114.sdf

> <i_m_source_file_index>
78

> <r_mmod_Potential_Energy-OPLS-2005>
-38.0764617919922

> <r_mmod_Stretch_Energy-OPLS-2005>
37.1330032348633

> <r_mmod_Bend_Energy-OPLS-2005>
104.412673950195

> <r_mmod_Torsional_Energy-OPLS-2005>
310.668914794922

> <r_mmod_Improper_Torsional_Energy-OPLS-2005>
12.7400579452515

> <r_mmod_Van_der_Waal_Energy-OPLS-2005>
159.471389770508

> <r_mmod_Electrostatic_Energy-OPLS-2005>
-454.958709716797

> <r_mmod_Solvation_Energy-OPLS-2005>
-220.383285522461

> <b_mmod_Minimization_Converged-OPLS-2005>
0

> <r_mmod_RMS_Derivative-OPLS-2005>
5.41066312789917

$$$$
78
                    3D
 Structure written by MMmdl.
174184  0  0  1  0            999 V2000
  -30.8347  -14.3254   20.6710 C   0  0  0  0  0  0
  -30.4044  -12.2707   19.3882 C   0  0  0  0  0  0
  -29.4734  -12.5209   18.1915 C   0  0  0  0  0  0
  -28.0008  -12.3809   18.6185 C   0  0  0  0  0  0
  -27.6715  -13.2059   19.8913 C   0  0  2  0  0  0
  -28.7206  -12.9680   21.0058 C   0  0  0  0  0  0
  -25.2635  -13.8185   20.5746 C   0  0  0  0  0  0
  -24.1859  -13.0477   20.9201 C   0  0  0  0  0  0
  -24.6407  -11.6926   20.8767 C   0  0  0  0  0  0
  -23.9067  -10.4315   21.0406 C   0  0  0  0  0  0
  -24.3605   -9.4233   21.9191 C   0  0  0  0  0  0
  -23.6287   -8.2270   22.0774 C   0  0  0  0  0  0
  -22.4272   -8.0295   21.3561 C   0  0  0  0  0  0
  -21.9914   -9.0266   20.4655 C   0  0  0  0  0  0
  -22.7243  -10.2144   20.3057 C   0  0  0  0  0  0
  -21.6846   -6.0742   22.5281 C   0  0  0  0  0  0
  -21.4010   -6.5651   23.8210 C   0  0  0  0  0  0
  -21.3658   -5.6807   24.9176 C   0  0  0  0  0  0
  -21.6039   -4.3067   24.7218 C   0  0  0  0  0  0
  -21.8819   -3.8156   23.4340 C   0  0  0  0  0  0
  -21.9192   -4.6974   22.3397 C   0  0  0  0  0  0
  -22.7885  -13.5266   21.1826 C   0  0  0  0  0  0
  -22.1671   -4.2169   21.0974 F   0  0  0  0  0  0
  -21.5613   -3.4546   25.7734 F   0  0  0  0  0  0
  -30.0565  -13.2340   20.4455 N   0  0  0  0  0  0
  -26.3099  -12.9360   20.3516 N   0  0  0  0  0  0
  -25.9350  -11.6511   20.5852 N   0  0  0  0  0  0
  -22.0500  -12.8261   22.0341 N   0  0  0  0  0  0
  -25.4378  -15.1895   20.4102 N   0  0  0  0  0  0
  -31.8321  -14.5562   19.9822 O   0  0  0  0  0  0
  -21.6638   -6.8889   21.4245 O   0  0  0  0  0  0
  -22.3601  -14.5592   20.6680 O   0  0  0  0  0  0
  -24.6140  -31.8661   23.2088 C   0  0  0  0  0  0
  -25.9037  -32.4786   23.8396 C   0  0  1  0  0  0
  -27.2316  -27.4443   20.1237 C   0  0  0  0  0  0
  -25.5911  -33.8591   24.2333 N   0  0  0  0  0  0
  -23.4008  -30.4933   21.5405 C   0  0  2  0  0  0
  -24.8553  -28.9651   20.0987 C   0  0  0  0  0  0
  -22.7412  -29.4670   22.4909 C   0  0  0  0  0  0
  -18.0295  -28.1380   22.8458 C   0  0  0  0  0  0
  -24.1492  -36.7308   23.2627 C   0  0  0  0  0  0
  -25.9255  -30.8470   21.3502 C   0  0  0  0  0  0
  -26.0104  -29.4804   20.7027 C   0  0  0  0  0  0
  -27.2066  -28.7296   20.7119 C   0  0  0  0  0  0
  -26.0715  -26.9523   19.4859 C   0  0  0  0  0  0
  -24.8812  -27.7034   19.4803 C   0  0  0  0  0  0
  -23.6141  -29.8267   20.1515 C   0  0  0  0  0  0
  -25.4098  -36.3088   24.0345 C   0  0  1  0  0  0
  -20.5869  -28.3659   23.1276 C   0  0  2  0  0  0
  -20.6757  -26.9385   22.5391 C   0  0  0  0  0  0
  -19.5750  -26.6388   21.5168 C   0  0  0  0  0  0
  -18.1935  -26.7921   22.1589 C   0  0  0  0  0  0
  -19.1536  -28.8838   23.2865 C   0  0  0  0  0  0
  -18.9472  -30.1444   23.8868 C   0  0  0  0  0  0
  -17.6471  -30.6563   24.0566 C   0  0  0  0  0  0
  -25.9032  -34.9448   23.5127 C   0  0  0  0  0  0
  -16.5360  -29.9064   23.6324 C   0  0  0  0  0  0
  -16.7279  -28.6503   23.0296 C   0  0  0  0  0  0
  -26.4501  -31.6517   25.0680 C   0  0  0  0  0  0
  -25.3846  -31.3539   26.1474 C   0  0  0  0  0  0
  -27.0287  -30.2970   24.5922 C   0  0  0  0  0  0
  -27.6047  -32.4218   25.7502 C   0  0  0  0  0  0
  -27.5583  -37.1797   24.8449 C   0  0  0  0  0  0
  -21.4140  -29.3049   22.3699 N   0  0  0  0  0  0
  -26.4254  -37.3788   23.9453 N   0  0  0  0  0  0
  -24.6639  -31.0829   22.0925 N   0  0  0  0  0  0
  -23.4198  -28.8203   23.2929 O   0  0  0  0  0  0
  -28.3338  -26.6253   20.2296 O   0  0  0  0  0  0
  -26.5592  -34.8905   22.4681 O   0  0  0  0  0  0
  -23.5341  -32.1387   23.7507 O   0  0  0  0  0  0
  -30.9291  -18.7406   24.3378 C   0  0  0  0  0  0
  -33.0873  -19.1749   23.2795 C   0  0  0  0  0  0
  -32.0823  -19.6817   21.0948 C   0  0  0  0  0  0
  -30.4866  -17.7510   23.4077 C   0  0  0  0  0  0
  -30.6941  -17.6255   21.9683 C   0  0  0  0  0  0
  -31.9499  -19.6602   24.0959 C   0  0  0  0  0  0
  -32.6139  -20.1685   22.2857 C   0  0  0  0  0  0
  -31.2904  -18.5114   20.9804 C   0  0  0  0  0  0
  -27.7633  -15.7921   25.3132 C   0  0  0  0  0  0
  -28.4807  -16.8053   24.5782 C   0  0  0  0  0  0
  -28.2170  -14.5650   25.6257 C   0  0  0  0  0  0
  -29.7426  -16.6944   24.1229 C   0  0  0  0  0  0
  -30.2491  -16.3641   21.2880 C   0  0  0  0  0  0
  -29.4089  -24.7126   21.2122 C   0  0  0  0  0  0
  -29.5494  -23.7108   22.1183 C   0  0  0  0  0  0
  -28.2842  -25.6801   21.2334 C   0  0  0  0  0  0
  -26.3849  -16.2930   25.6576 C   0  0  0  0  0  0
  -27.5930  -18.0050   24.3542 C   0  0  0  0  0  0
  -26.1828  -17.4860   24.7000 C   0  0  0  0  0  0
  -30.7034  -22.7050   22.1320 C   0  0  0  0  0  0
  -30.4931  -21.3982   22.9484 C   0  0  0  0  0  0
  -30.4604  -15.1718   21.6955 N   0  0  0  0  0  0
  -31.7716  -20.7551   23.2371 N   0  0  0  0  0  0
  -27.3773  -25.6191   22.0744 O   0  0  0  0  0  0
  -28.6969  -23.4808   23.1333 O   0  0  0  0  0  0
  -31.1132  -18.1911   19.6702 F   0  0  0  0  0  0
  -31.4471  -12.3379   19.0730 H   0  0  0  0  0  0
  -30.2805  -11.2518   19.7583 H   0  0  0  0  0  0
  -29.6924  -11.8154   17.3902 H   0  0  0  0  0  0
  -29.6459  -13.5188   17.7855 H   0  0  0  0  0  0
  -27.8069  -11.3225   18.8021 H   0  0  0  0  0  0
  -27.3406  -12.6712   17.8010 H   0  0  0  0  0  0
  -27.7301  -14.2563   19.6069 H   0  0  0  0  0  0
  -28.6820  -11.9343   21.3499 H   0  0  0  0  0  0
  -28.4955  -13.5797   21.8801 H   0  0  0  0  0  0
  -25.2726   -9.5717   22.4794 H   0  0  0  0  0  0
  -23.9979   -7.4671   22.7525 H   0  0  0  0  0  0
  -21.0832   -8.8782   19.8967 H   0  0  0  0  0  0
  -22.3690  -10.9682   19.6171 H   0  0  0  0  0  0
  -21.2017   -7.6156   23.9719 H   0  0  0  0  0  0
  -21.1473   -6.0536   25.9080 H   0  0  0  0  0  0
  -22.0595   -2.7624   23.2828 H   0  0  0  0  0  0
  -22.4076  -11.9864   22.4647 H   0  0  0  0  0  0
  -21.1135  -13.1309   22.2559 H   0  0  0  0  0  0
  -24.6790  -15.8521   20.5240 H   0  0  0  0  0  0
  -26.3035  -15.6187   20.1096 H   0  0  0  0  0  0
  -26.7110  -32.5563   23.1186 H   0  0  0  0  0  0
  -25.0132  -33.9755   25.0526 H   0  0  0  0  0  0
  -22.6875  -31.3071   21.3958 H   0  0  0  0  0  0
  -23.3745  -35.9632   23.3188 H   0  0  0  0  0  0
  -24.3626  -36.9017   22.2065 H   0  0  0  0  0  0
  -23.7214  -37.6473   23.6695 H   0  0  0  0  0  0
  -26.0270  -31.6075   20.5747 H   0  0  0  0  0  0
  -26.8167  -30.9114   21.9642 H   0  0  0  0  0  0
  -28.0872  -29.1094   21.2095 H   0  0  0  0  0  0
  -26.0791  -25.9642   19.0444 H   0  0  0  0  0  0
  -23.9982  -27.2975   19.0053 H   0  0  0  0  0  0
  -23.7296  -30.5993   19.3906 H   0  0  0  0  0  0
  -22.7387  -29.2475   19.8502 H   0  0  0  0  0  0
  -25.1248  -36.1934   25.0828 H   0  0  0  0  0  0
  -20.9985  -28.3225   24.1384 H   0  0  0  0  0  0
  -20.5600  -26.2286   23.3595 H   0  0  0  0  0  0
  -21.6638  -26.7390   22.1233 H   0  0  0  0  0  0
  -19.6910  -25.6301   21.1189 H   0  0  0  0  0  0
  -19.6679  -27.3223   20.6707 H   0  0  0  0  0  0
  -17.4200  -26.6662   21.3987 H   0  0  0  0  0  0
  -18.0319  -26.0069   22.8989 H   0  0  0  0  0  0
  -19.7952  -30.7283   24.2189 H   0  0  0  0  0  0
  -17.5026  -31.6232   24.5192 H   0  0  0  0  0  0
  -15.5356  -30.2966   23.7652 H   0  0  0  0  0  0
  -15.8689  -28.0864   22.6921 H   0  0  0  0  0  0
  -24.6137  -30.6698   25.7891 H   0  0  0  0  0  0
  -24.8926  -32.2633   26.4909 H   0  0  0  0  0  0
  -25.8363  -30.8831   27.0217 H   0  0  0  0  0  0
  -26.2754  -29.6777   24.1027 H   0  0  0  0  0  0
  -27.4151  -29.7124   25.4272 H   0  0  0  0  0  0
  -27.8552  -30.4282   23.8938 H   0  0  0  0  0  0
  -27.2632  -33.3540   26.2021 H   0  0  0  0  0  0
  -28.3965  -32.6718   25.0422 H   0  0  0  0  0  0
  -28.0580  -31.8360   26.5520 H   0  0  0  0  0  0
  -28.2491  -38.0203   24.7613 H   0  0  0  0  0  0
  -28.1192  -36.2734   24.6094 H   0  0  0  0  0  0
  -27.2345  -37.1234   25.8857 H   0  0  0  0  0  0
  -20.9278  -29.8859   21.7019 H   0  0  0  0  0  0
  -26.0119  -38.2832   24.1518 H   0  0  0  0  0  0
  -30.5829  -18.6776   25.3620 H   0  0  0  0  0  0
  -33.3623  -18.1467   23.0958 H   0  0  0  0  0  0
  -32.3562  -20.1913   20.1832 H   0  0  0  0  0  0
  -29.2045  -14.2226   25.3520 H   0  0  0  0  0  0
  -27.5935  -13.8681   26.1681 H   0  0  0  0  0  0
  -30.3065  -15.7945   24.3209 H   0  0  0  0  0  0
  -29.8111  -16.5065   20.2947 H   0  0  0  0  0  0
  -30.1459  -24.8258   20.4305 H   0  0  0  0  0  0
  -26.3809  -16.6190   26.6989 H   0  0  0  0  0  0
  -25.6290  -15.5174   25.5276 H   0  0  0  0  0  0
  -27.6525  -18.3657   23.3267 H   0  0  0  0  0  0
  -27.9028  -18.8098   25.0229 H   0  0  0  0  0  0
  -25.5356  -18.2615   25.1092 H   0  0  0  0  0  0
  -25.7157  -17.1272   23.7820 H   0  0  0  0  0  0
  -31.5805  -23.2359   22.5069 H   0  0  0  0  0  0
  -30.9395  -22.4478   21.0975 H   0  0  0  0  0  0
  -29.8308  -20.7090   22.4195 H   0  0  0  0  0  0
  -30.0306  -21.6016   23.9160 H   0  0  0  0  0  0
  -28.0180  -24.1475   23.0935 H   0  0  0  0  0  0
  1 25  1  0  0  0
  1 30  2  0  0  0
  1 92  1  0  0  0
  2  3  1  0  0  0
  2 25  1  0  0  0
  2 97  1  0  0  0
  2 98  1  0  0  0
  3  4  1  0  0  0
  3 99  1  0  0  0
  3100  1  0  0  0
  4  5  1  0  0  0
  4101  1  0  0  0
  4102  1  0  0  0
  5  6  1  0  0  0
  5 26  1  0  0  0
  5103  1  0  0  0
  6 25  1  0  0  0
  6104  1  0  0  0
  6105  1  0  0  0
  7  8  2  0  0  0
  7 26  1  0  0  0
  7 29  1  0  0  0
  8  9  1  0  0  0
  8 22  1  0  0  0
  9 10  1  0  0  0
  9 27  2  0  0  0
 10 11  2  0  0  0
 10 15  1  0  0  0
 11 12  1  0  0  0
 11106  1  0  0  0
 12 13  2  0  0  0
 12107  1  0  0  0
 13 14  1  0  0  0
 13 31  1  0  0  0
 14 15  2  0  0  0
 14108  1  0  0  0
 15109  1  0  0  0
 16 17  2  0  0  0
 16 21  1  0  0  0
 16 31  1  0  0  0
 17 18  1  0  0  0
 17110  1  0  0  0
 18 19  2  0  0  0
 18111  1  0  0  0
 19 20  1  0  0  0
 19 24  1  0  0  0
 20 21  2  0  0  0
 20112  1  0  0  0
 21 23  1  0  0  0
 22 28  1  0  0  0
 22 32  2  0  0  0
 26 27  1  0  0  0
 28113  1  0  0  0
 28114  1  0  0  0
 29115  1  0  0  0
 29116  1  0  0  0
 33 34  1  0  0  0
 33 66  1  0  0  0
 33 70  2  0  0  0
 34 36  1  0  0  0
 34 59  1  0  0  0
 34117  1  0  0  0
 35 44  2  0  0  0
 35 45  1  0  0  0
 35 68  1  0  0  0
 36 56  1  0  0  0
 36118  1  0  0  0
 37 39  1  0  0  0
 37 47  1  0  0  0
 37 66  1  0  0  0
 37119  1  0  0  0
 38 43  2  0  0  0
 38 46  1  0  0  0
 38 47  1  0  0  0
 39 64  1  0  0  0
 39 67  2  0  0  0
 40 52  1  0  0  0
 40 53  2  0  0  0
 40 58  1  0  0  0
 41120  1  0  0  0
 41121  1  0  0  0
 41122  1  0  0  0
 41 48  1  0  0  0
 42 43  1  0  0  0
 42 66  1  0  0  0
 42123  1  0  0  0
 42124  1  0  0  0
 43 44  1  0  0  0
 44125  1  0  0  0
 45 46  2  0  0  0
 45126  1  0  0  0
 46127  1  0  0  0
 47128  1  0  0  0
 47129  1  0  0  0
 48 56  1  0  0  0
 48 65  1  0  0  0
 48130  1  0  0  0
 49 50  1  0  0  0
 49 53  1  0  0  0
 49 64  1  0  0  0
 49131  1  0  0  0
 50 51  1  0  0  0
 50132  1  0  0  0
 50133  1  0  0  0
 51 52  1  0  0  0
 51134  1  0  0  0
 51135  1  0  0  0
 52136  1  0  0  0
 52137  1  0  0  0
 53 54  1  0  0  0
 54 55  2  0  0  0
 54138  1  0  0  0
 55 57  1  0  0  0
 55139  1  0  0  0
 56 69  2  0  0  0
 57 58  2  0  0  0
 57140  1  0  0  0
 58141  1  0  0  0
 59 60  1  0  0  0
 59 61  1  0  0  0
 59 62  1  0  0  0
 60142  1  0  0  0
 60143  1  0  0  0
 60144  1  0  0  0
 61145  1  0  0  0
 61146  1  0  0  0
 61147  1  0  0  0
 62148  1  0  0  0
 62149  1  0  0  0
 62150  1  0  0  0
 63 65  1  0  0  0
 63151  1  0  0  0
 63152  1  0  0  0
 63153  1  0  0  0
 64154  1  0  0  0
 65155  1  0  0  0
 68 86  1  0  0  0
 71 74  1  0  0  0
 71 76  2  0  0  0
 71156  1  0  0  0
 72 76  1  0  0  0
 72 77  2  0  0  0
 72157  1  0  0  0
 73 77  1  0  0  0
 73 78  2  0  0  0
 73158  1  0  0  0
 74 75  2  0  0  0
 74 82  1  0  0  0
 75 78  1  0  0  0
 75 83  1  0  0  0
 76 93  1  0  0  0
 77 93  1  0  0  0
 78 96  1  0  0  0
 79 80  1  0  0  0
 79 81  2  0  0  0
 79 87  1  0  0  0
 80 82  2  0  0  0
 80 88  1  0  0  0
 81159  1  0  0  0
 81160  1  0  0  0
 82161  1  0  0  0
 83 92  2  0  0  0
 83162  1  0  0  0
 84 85  2  0  0  0
 84 86  1  0  0  0
 84163  1  0  0  0
 85 90  1  0  0  0
 85 95  1  0  0  0
 86 94  2  0  0  0
 87 89  1  0  0  0
 87164  1  0  0  0
 87165  1  0  0  0
 88 89  1  0  0  0
 88166  1  0  0  0
 88167  1  0  0  0
 89168  1  0  0  0
 89169  1  0  0  0
 90 91  1  0  0  0
 90170  1  0  0  0
 90171  1  0  0  0
 91 93  1  0  0  0
 91172  1  0  0  0
 91173  1  0  0  0
 95174  1  0  0  0
M  ISO  4   1 100  68 101  86 101  92 100
M  END
> <chiral flag>
0

> <version>
0

> <s_m_source_file>
/data/baiqing/PycharmProjects/Reinvent-master-3.2/result/LINK_invent/BTK/process_docking_weight1_custom_product_contain_oxygen_bond_distance_aromatic_linkinvent_7_9_3/rearranged_h_0114.sdf

> <i_m_source_file_index>
79

> <r_mmod_Potential_Energy-OPLS-2005>
1067.24560546875

> <r_mmod_Stretch_Energy-OPLS-2005>
54.7768135070801

> <r_mmod_Bend_Energy-OPLS-2005>
605.698669433594

> <r_mmod_Torsional_Energy-OPLS-2005>
630.224731445312

> <r_mmod_Improper_Torsional_Energy-OPLS-2005>
83.3271942138672

> <r_mmod_Van_der_Waal_Energy-OPLS-2005>
185.233215332031

> <r_mmod_Electrostatic_Energy-OPLS-2005>
-315.786254882812

> <r_mmod_Solvation_Energy-OPLS-2005>
-191.887008666992

> <b_mmod_Minimization_Converged-OPLS-2005>
0

> <r_mmod_RMS_Derivative-OPLS-2005>
3.80370378494263

$$$$
79
                    3D
 Structure written by MMmdl.
150158  0  0  1  0            999 V2000
  -30.6709  -14.5167   20.5496 C   0  0  0  0  0  0
  -30.4300  -12.3253   19.4317 C   0  0  0  0  0  0
  -29.5006  -12.5057   18.2121 C   0  0  0  0  0  0
  -28.0212  -12.3618   18.6222 C   0  0  0  0  0  0
  -27.6615  -13.2063   19.8738 C   0  0  2  0  0  0
  -28.7033  -12.9978   20.9969 C   0  0  0  0  0  0
  -25.2594  -13.8154   20.5677 C   0  0  0  0  0  0
  -24.1842  -13.0433   20.9172 C   0  0  0  0  0  0
  -24.6394  -11.6900   20.8730 C   0  0  0  0  0  0
  -23.9058  -10.4289   21.0401 C   0  0  0  0  0  0
  -24.3611   -9.4205   21.9180 C   0  0  0  0  0  0
  -23.6285   -8.2244   22.0755 C   0  0  0  0  0  0
  -22.4269   -8.0282   21.3544 C   0  0  0  0  0  0
  -21.9899   -9.0256   20.4650 C   0  0  0  0  0  0
  -22.7228  -10.2133   20.3056 C   0  0  0  0  0  0
  -21.6855   -6.0730   22.5277 C   0  0  0  0  0  0
  -21.4018   -6.5635   23.8208 C   0  0  0  0  0  0
  -21.3658   -5.6790   24.9171 C   0  0  0  0  0  0
  -21.6045   -4.3053   24.7226 C   0  0  0  0  0  0
  -21.8821   -3.8141   23.4347 C   0  0  0  0  0  0
  -21.9195   -4.6957   22.3402 C   0  0  0  0  0  0
  -22.7868  -13.5240   21.1837 C   0  0  0  0  0  0
  -22.1666   -4.2142   21.0980 F   0  0  0  0  0  0
  -21.5625   -3.4537   25.7738 F   0  0  0  0  0  0
  -30.0327  -13.3153   20.4471 N   0  0  0  0  0  0
  -26.3024  -12.9320   20.3352 N   0  0  0  0  0  0
  -25.9320  -11.6482   20.5756 N   0  0  0  0  0  0
  -22.0504  -12.8243   22.0399 N   0  0  0  0  0  0
  -25.4316  -15.1873   20.4084 N   0  0  0  0  0  0
  -31.8090  -14.6953   20.1018 O   0  0  0  0  0  0
  -21.6638   -6.8874   21.4239 O   0  0  0  0  0  0
  -22.3561  -14.5550   20.6688 O   0  0  0  0  0  0
  -24.6168  -31.8660   23.2082 C   0  0  0  0  0  0
  -25.9052  -32.4812   23.8386 C   0  0  1  0  0  0
  -27.2323  -27.4124   20.1073 C   0  0  0  0  0  0
  -25.5904  -33.8610   24.2322 N   0  0  0  0  0  0
  -23.4067  -30.4886   21.5489 C   0  0  2  0  0  0
  -24.8554  -28.9532   20.1126 C   0  0  0  0  0  0
  -22.7426  -29.4641   22.4976 C   0  0  0  0  0  0
  -18.0275  -28.1372   22.8486 C   0  0  0  0  0  0
  -24.1487  -36.7311   23.2636 C   0  0  0  0  0  0
  -25.9377  -30.8264   21.3639 C   0  0  0  0  0  0
  -26.0173  -29.4594   20.7105 C   0  0  0  0  0  0
  -27.2127  -28.6985   20.7008 C   0  0  0  0  0  0
  -26.0571  -26.9293   19.4950 C   0  0  0  0  0  0
  -24.8716  -27.6888   19.4986 C   0  0  0  0  0  0
  -23.6172  -29.8216   20.1634 C   0  0  0  0  0  0
  -25.4107  -36.3108   24.0337 C   0  0  1  0  0  0
  -20.5867  -28.3660   23.1312 C   0  0  2  0  0  0
  -20.6763  -26.9392   22.5421 C   0  0  0  0  0  0
  -19.5747  -26.6379   21.5211 C   0  0  0  0  0  0
  -18.1923  -26.7918   22.1617 C   0  0  0  0  0  0
  -19.1525  -28.8832   23.2896 C   0  0  0  0  0  0
  -18.9453  -30.1437   23.8908 C   0  0  0  0  0  0
  -17.6455  -30.6577   24.0561 C   0  0  0  0  0  0
  -25.9038  -34.9471   23.5129 C   0  0  0  0  0  0
  -16.5346  -29.9079   23.6321 C   0  0  0  0  0  0
  -16.7264  -28.6496   23.0343 C   0  0  0  0  0  0
  -26.4473  -31.6587   25.0714 C   0  0  0  0  0  0
  -25.3739  -31.3707   26.1465 C   0  0  0  0  0  0
  -27.0287  -30.3021   24.6093 C   0  0  0  0  0  0
  -27.6061  -32.4292   25.7473 C   0  0  0  0  0  0
  -27.5582  -37.1809   24.8464 C   0  0  0  0  0  0
  -21.4150  -29.3026   22.3718 N   0  0  0  0  0  0
  -26.4294  -37.3791   23.9409 N   0  0  0  0  0  0
  -24.6721  -31.0747   22.0990 N   0  0  0  0  0  0
  -23.4188  -28.8184   23.3026 O   0  0  0  0  0  0
  -28.3654  -26.6204   20.1182 O   0  0  0  0  0  0
  -26.5600  -34.8926   22.4692 O   0  0  0  0  0  0
  -23.5355  -32.1417   23.7466 O   0  0  0  0  0  0
  -29.1772  -17.8152   21.3142 C   0  0  0  0  0  0
  -29.7334  -19.0554   20.8646 C   0  0  0  0  0  0
  -30.0674  -16.8663   20.8811 C   0  0  0  0  0  0
  -29.0779  -20.3599   21.1562 C   0  0  0  0  0  0
  -29.5201  -21.6045   20.8452 C   0  0  0  0  0  0
  -28.8087  -22.9045   21.2609 C   0  0  0  0  0  0
  -28.9390  -24.1394   20.3152 C   0  0  0  0  0  0
  -28.2354  -25.4053   20.8947 C   0  0  0  0  0  0
  -30.8766  -18.8459   20.2160 N   0  0  0  0  0  0
  -29.9204  -15.5199   21.0584 N   0  0  0  0  0  0
  -31.0973  -17.4566   20.2156 O   0  0  0  0  0  0
  -31.4740  -12.4307   19.1310 H   0  0  0  0  0  0
  -30.3395  -11.3160   19.8363 H   0  0  0  0  0  0
  -29.7462  -11.7743   17.4410 H   0  0  0  0  0  0
  -29.6640  -13.4874   17.7642 H   0  0  0  0  0  0
  -27.8354  -11.3059   18.8232 H   0  0  0  0  0  0
  -27.3717  -12.6298   17.7881 H   0  0  0  0  0  0
  -27.7008  -14.2522   19.5691 H   0  0  0  0  0  0
  -28.6872  -11.9623   21.3401 H   0  0  0  0  0  0
  -28.4588  -13.5959   21.8757 H   0  0  0  0  0  0
  -25.2756   -9.5681   22.4754 H   0  0  0  0  0  0
  -23.9991   -7.4639   22.7480 H   0  0  0  0  0  0
  -21.0824   -8.8778   19.8963 H   0  0  0  0  0  0
  -22.3683  -10.9674   19.6168 H   0  0  0  0  0  0
  -21.2017   -7.6145   23.9711 H   0  0  0  0  0  0
  -21.1477   -6.0519   25.9072 H   0  0  0  0  0  0
  -22.0603   -2.7603   23.2852 H   0  0  0  0  0  0
  -22.4108  -11.9895   22.4777 H   0  0  0  0  0  0
  -21.1134  -13.1296   22.2622 H   0  0  0  0  0  0
  -24.6621  -15.8403   20.5103 H   0  0  0  0  0  0
  -26.2776  -15.6249   20.0656 H   0  0  0  0  0  0
  -26.7125  -32.5521   23.1152 H   0  0  0  0  0  0
  -25.0063  -33.9770   25.0475 H   0  0  0  0  0  0
  -22.6959  -31.3056   21.4089 H   0  0  0  0  0  0
  -23.3745  -35.9649   23.3308 H   0  0  0  0  0  0
  -24.3586  -36.8915   22.2050 H   0  0  0  0  0  0
  -23.7245  -37.6522   23.6643 H   0  0  0  0  0  0
  -26.0524  -31.5916   20.5949 H   0  0  0  0  0  0
  -26.8246  -30.8800   21.9837 H   0  0  0  0  0  0
  -28.1089  -29.0825   21.1678 H   0  0  0  0  0  0
  -26.0571  -25.9563   19.0237 H   0  0  0  0  0  0
  -23.9802  -27.2942   19.0307 H   0  0  0  0  0  0
  -23.7266  -30.5972   19.4044 H   0  0  0  0  0  0
  -22.7407  -29.2427   19.8664 H   0  0  0  0  0  0
  -25.1281  -36.1975   25.0830 H   0  0  0  0  0  0
  -20.9957  -28.3228   24.1434 H   0  0  0  0  0  0
  -20.5653  -26.2267   23.3610 H   0  0  0  0  0  0
  -21.6638  -26.7425   22.1225 H   0  0  0  0  0  0
  -19.6912  -25.6294   21.1228 H   0  0  0  0  0  0
  -19.6693  -27.3198   20.6748 H   0  0  0  0  0  0
  -17.4197  -26.6662   21.4017 H   0  0  0  0  0  0
  -18.0322  -26.0055   22.9009 H   0  0  0  0  0  0
  -19.7931  -30.7245   24.2287 H   0  0  0  0  0  0
  -17.5012  -31.6260   24.5157 H   0  0  0  0  0  0
  -15.5348  -30.2987   23.7637 H   0  0  0  0  0  0
  -15.8661  -28.0821   22.7052 H   0  0  0  0  0  0
  -24.5931  -30.7022   25.7820 H   0  0  0  0  0  0
  -24.8906  -32.2863   26.4882 H   0  0  0  0  0  0
  -25.8099  -30.8915   27.0240 H   0  0  0  0  0  0
  -26.2824  -29.6799   24.1137 H   0  0  0  0  0  0
  -27.4037  -29.7241   25.4549 H   0  0  0  0  0  0
  -27.8672  -30.4328   23.9249 H   0  0  0  0  0  0
  -27.2697  -33.3584   26.2083 H   0  0  0  0  0  0
  -28.3856  -32.6857   25.0285 H   0  0  0  0  0  0
  -28.0741  -31.8386   26.5360 H   0  0  0  0  0  0
  -28.2612  -38.0095   24.7502 H   0  0  0  0  0  0
  -28.1067  -36.2629   24.6294 H   0  0  0  0  0  0
  -27.2306  -37.1468   25.8869 H   0  0  0  0  0  0
  -20.9310  -29.8754   21.6947 H   0  0  0  0  0  0
  -26.0185  -38.2873   24.1405 H   0  0  0  0  0  0
  -28.2632  -17.6593   21.8685 H   0  0  0  0  0  0
  -28.1461  -20.2838   21.6978 H   0  0  0  0  0  0
  -30.4510  -21.7121   20.3054 H   0  0  0  0  0  0
  -29.2167  -23.1815   22.2342 H   0  0  0  0  0  0
  -27.7533  -22.6865   21.4326 H   0  0  0  0  0  0
  -28.5162  -23.9035   19.3380 H   0  0  0  0  0  0
  -29.9939  -24.3621   20.1507 H   0  0  0  0  0  0
  -28.6536  -25.6193   21.8790 H   0  0  0  0  0  0
  -27.1892  -25.1554   21.0794 H   0  0  0  0  0  0
  -29.0490  -15.2282   21.4680 H   0  0  0  0  0  0
  1 25  1  0  0  0
  1 30  2  0  0  0
  1 80  1  0  0  0
  2  3  1  0  0  0
  2 25  1  0  0  0
  2 82  1  0  0  0
  2 83  1  0  0  0
  3  4  1  0  0  0
  3 84  1  0  0  0
  3 85  1  0  0  0
  4  5  1  0  0  0
  4 86  1  0  0  0
  4 87  1  0  0  0
  5  6  1  0  0  0
  5 26  1  0  0  0
  5 88  1  0  0  0
  6 25  1  0  0  0
  6 89  1  0  0  0
  6 90  1  0  0  0
  7  8  2  0  0  0
  7 26  1  0  0  0
  7 29  1  0  0  0
  8  9  1  0  0  0
  8 22  1  0  0  0
  9 10  1  0  0  0
  9 27  2  0  0  0
 10 11  2  0  0  0
 10 15  1  0  0  0
 11 12  1  0  0  0
 11 91  1  0  0  0
 12 13  2  0  0  0
 12 92  1  0  0  0
 13 14  1  0  0  0
 13 31  1  0  0  0
 14 15  2  0  0  0
 14 93  1  0  0  0
 15 94  1  0  0  0
 16 17  2  0  0  0
 16 21  1  0  0  0
 16 31  1  0  0  0
 17 18  1  0  0  0
 17 95  1  0  0  0
 18 19  2  0  0  0
 18 96  1  0  0  0
 19 20  1  0  0  0
 19 24  1  0  0  0
 20 21  2  0  0  0
 20 97  1  0  0  0
 21 23  1  0  0  0
 22 28  1  0  0  0
 22 32  2  0  0  0
 26 27  1  0  0  0
 28 98  1  0  0  0
 28 99  1  0  0  0
 29100  1  0  0  0
 29101  1  0  0  0
 33 34  1  0  0  0
 33 66  1  0  0  0
 33 70  2  0  0  0
 34 36  1  0  0  0
 34 59  1  0  0  0
 34102  1  0  0  0
 35 44  2  0  0  0
 35 45  1  0  0  0
 35 68  1  0  0  0
 36 56  1  0  0  0
 36103  1  0  0  0
 37 39  1  0  0  0
 37 47  1  0  0  0
 37 66  1  0  0  0
 37104  1  0  0  0
 38 43  2  0  0  0
 38 46  1  0  0  0
 38 47  1  0  0  0
 39 64  1  0  0  0
 39 67  2  0  0  0
 40 52  1  0  0  0
 40 53  2  0  0  0
 40 58  1  0  0  0
 41105  1  0  0  0
 41106  1  0  0  0
 41107  1  0  0  0
 41 48  1  0  0  0
 42 43  1  0  0  0
 42 66  1  0  0  0
 42108  1  0  0  0
 42109  1  0  0  0
 43 44  1  0  0  0
 44110  1  0  0  0
 45 46  2  0  0  0
 45111  1  0  0  0
 46112  1  0  0  0
 47113  1  0  0  0
 47114  1  0  0  0
 48 56  1  0  0  0
 48 65  1  0  0  0
 48115  1  0  0  0
 49 50  1  0  0  0
 49 53  1  0  0  0
 49 64  1  0  0  0
 49116  1  0  0  0
 50 51  1  0  0  0
 50117  1  0  0  0
 50118  1  0  0  0
 51 52  1  0  0  0
 51119  1  0  0  0
 51120  1  0  0  0
 52121  1  0  0  0
 52122  1  0  0  0
 53 54  1  0  0  0
 54 55  2  0  0  0
 54123  1  0  0  0
 55 57  1  0  0  0
 55124  1  0  0  0
 56 69  2  0  0  0
 57 58  2  0  0  0
 57125  1  0  0  0
 58126  1  0  0  0
 59 60  1  0  0  0
 59 61  1  0  0  0
 59 62  1  0  0  0
 60127  1  0  0  0
 60128  1  0  0  0
 60129  1  0  0  0
 61130  1  0  0  0
 61131  1  0  0  0
 61132  1  0  0  0
 62133  1  0  0  0
 62134  1  0  0  0
 62135  1  0  0  0
 63 65  1  0  0  0
 63136  1  0  0  0
 63137  1  0  0  0
 63138  1  0  0  0
 64139  1  0  0  0
 65140  1  0  0  0
 68 78  1  0  0  0
 71 72  1  0  0  0
 71 73  2  0  0  0
 71141  1  0  0  0
 72 74  1  0  0  0
 72 79  2  0  0  0
 73 80  1  0  0  0
 73 81  1  0  0  0
 74 75  2  0  0  0
 74142  1  0  0  0
 75 76  1  0  0  0
 75143  1  0  0  0
 76 77  1  0  0  0
 76144  1  0  0  0
 76145  1  0  0  0
 77 78  1  0  0  0
 77146  1  0  0  0
 77147  1  0  0  0
 78148  1  0  0  0
 78149  1  0  0  0
 79 81  1  0  0  0
 80150  1  0  0  0
M  ISO  4   1 100  68 101  78 101  80 100
M  END
> <chiral flag>
0

> <version>
0

> <s_m_source_file>
/data/baiqing/PycharmProjects/Reinvent-master-3.2/result/LINK_invent/BTK/process_docking_weight1_custom_product_contain_oxygen_bond_distance_aromatic_linkinvent_7_9_3/rearranged_h_0114.sdf

> <i_m_source_file_index>
80

> <r_mmod_Potential_Energy-OPLS-2005>
-120.524833679199

> <r_mmod_Stretch_Energy-OPLS-2005>
40.0443077087402

> <r_mmod_Bend_Energy-OPLS-2005>
102.009147644043

> <r_mmod_Torsional_Energy-OPLS-2005>
221.232147216797

> <r_mmod_Improper_Torsional_Energy-OPLS-2005>
3.83008193969727

> <r_mmod_Van_der_Waal_Energy-OPLS-2005>
126.363914489746

> <r_mmod_Electrostatic_Energy-OPLS-2005>
-402.084381103516

> <r_mmod_Solvation_Energy-OPLS-2005>
-229.885681152344

> <b_mmod_Minimization_Converged-OPLS-2005>
0

> <r_mmod_RMS_Derivative-OPLS-2005>
0.496748298406601

$$$$
80
                    3D
 Structure written by MMmdl.
154162  0  0  1  0            999 V2000
  -30.6103  -14.7170   20.4649 C   0  0  0  0  0  0
  -30.4314  -12.4342   19.4826 C   0  0  0  0  0  0
  -29.5145  -12.5136   18.2411 C   0  0  0  0  0  0
  -28.0375  -12.3441   18.6460 C   0  0  0  0  0  0
  -27.6469  -13.2322   19.8576 C   0  0  2  0  0  0
  -28.6860  -13.1395   20.9973 C   0  0  0  0  0  0
  -25.2522  -13.8205   20.5688 C   0  0  0  0  0  0
  -24.1802  -13.0453   20.9183 C   0  0  0  0  0  0
  -24.6388  -11.6930   20.8729 C   0  0  0  0  0  0
  -23.9065  -10.4304   21.0392 C   0  0  0  0  0  0
  -24.3618   -9.4223   21.9173 C   0  0  0  0  0  0
  -23.6296   -8.2254   22.0750 C   0  0  0  0  0  0
  -22.4275   -8.0284   21.3545 C   0  0  0  0  0  0
  -21.9904   -9.0255   20.4645 C   0  0  0  0  0  0
  -22.7235  -10.2133   20.3051 C   0  0  0  0  0  0
  -21.6854   -6.0737   22.5277 C   0  0  0  0  0  0
  -21.4019   -6.5638   23.8213 C   0  0  0  0  0  0
  -21.3661   -5.6791   24.9173 C   0  0  0  0  0  0
  -21.6042   -4.3054   24.7222 C   0  0  0  0  0  0
  -21.8820   -3.8149   23.4342 C   0  0  0  0  0  0
  -21.9194   -4.6966   22.3399 C   0  0  0  0  0  0
  -22.7824  -13.5231   21.1853 C   0  0  0  0  0  0
  -22.1663   -4.2156   21.0975 F   0  0  0  0  0  0
  -21.5627   -3.4538   25.7735 F   0  0  0  0  0  0
  -29.9975  -13.4852   20.4337 N   0  0  0  0  0  0
  -26.2951  -12.9416   20.3278 N   0  0  0  0  0  0
  -25.9318  -11.6554   20.5723 N   0  0  0  0  0  0
  -22.0471  -12.8222   22.0414 N   0  0  0  0  0  0
  -25.4239  -15.1927   20.4142 N   0  0  0  0  0  0
  -31.7756  -14.8345   20.0723 O   0  0  0  0  0  0
  -21.6642   -6.8878   21.4239 O   0  0  0  0  0  0
  -22.3503  -14.5533   20.6702 O   0  0  0  0  0  0
  -24.6323  -31.8562   23.1997 C   0  0  0  0  0  0
  -25.9151  -32.4761   23.8341 C   0  0  1  0  0  0
  -27.2117  -27.2562   20.1148 C   0  0  0  0  0  0
  -25.5944  -33.8565   24.2260 N   0  0  0  0  0  0
  -23.4283  -30.4812   21.5442 C   0  0  2  0  0  0
  -24.8726  -28.9331   20.1064 C   0  0  0  0  0  0
  -22.7510  -29.4612   22.4919 C   0  0  0  0  0  0
  -18.0293  -28.1388   22.8482 C   0  0  0  0  0  0
  -24.1491  -36.7292   23.2639 C   0  0  0  0  0  0
  -25.9763  -30.7647   21.3829 C   0  0  0  0  0  0
  -26.0455  -29.3881   20.7221 C   0  0  0  0  0  0
  -27.2152  -28.5600   20.7211 C   0  0  0  0  0  0
  -26.0178  -26.8859   19.4503 C   0  0  0  0  0  0
  -24.8645  -27.6900   19.4610 C   0  0  0  0  0  0
  -23.6456  -29.8218   20.1577 C   0  0  0  0  0  0
  -25.4115  -36.3077   24.0325 C   0  0  1  0  0  0
  -20.5897  -28.3701   23.1269 C   0  0  2  0  0  0
  -20.6784  -26.9420   22.5405 C   0  0  0  0  0  0
  -19.5757  -26.6384   21.5212 C   0  0  0  0  0  0
  -18.1937  -26.7929   22.1626 C   0  0  0  0  0  0
  -19.1546  -28.8863   23.2868 C   0  0  0  0  0  0
  -18.9468  -30.1464   23.8887 C   0  0  0  0  0  0
  -17.6467  -30.6588   24.0564 C   0  0  0  0  0  0
  -25.9058  -34.9447   23.5095 C   0  0  0  0  0  0
  -16.5359  -29.9086   23.6330 C   0  0  0  0  0  0
  -16.7278  -28.6503   23.0349 C   0  0  0  0  0  0
  -26.4502  -31.6587   25.0736 C   0  0  0  0  0  0
  -25.3710  -31.3756   26.1448 C   0  0  0  0  0  0
  -27.0346  -30.2997   24.6238 C   0  0  0  0  0  0
  -27.6057  -32.4325   25.7511 C   0  0  0  0  0  0
  -27.5578  -37.1803   24.8464 C   0  0  0  0  0  0
  -21.4215  -29.3050   22.3663 N   0  0  0  0  0  0
  -26.4291  -37.3773   23.9407 N   0  0  0  0  0  0
  -24.6983  -31.0520   22.0982 N   0  0  0  0  0  0
  -23.4212  -28.8150   23.3015 O   0  0  0  0  0  0
  -28.2928  -26.3421   20.1934 O   0  0  0  0  0  0
  -26.5632  -34.8920   22.4665 O   0  0  0  0  0  0
  -23.5470  -32.1402   23.7279 O   0  0  0  0  0  0
  -29.3784  -19.5202   18.5497 C   0  0  0  0  0  0
  -29.7215  -17.0991   18.6916 C   0  0  0  0  0  0
  -29.6132  -18.4484   20.7142 C   0  0  0  0  0  0
  -29.5171  -18.2636   17.9169 C   0  0  0  0  0  0
  -29.4318  -19.6796   19.9537 C   0  0  0  0  0  0
  -29.7763  -17.1362   20.1012 C   0  0  0  0  0  0
  -29.4453  -17.1023   15.6792 C   0  0  0  0  0  0
  -29.4165  -18.2074   16.4459 C   0  0  0  0  0  0
  -29.2939  -21.1133   20.5298 C   0  0  0  0  0  0
  -28.9258  -22.2993   19.9007 C   0  0  0  0  0  0
  -28.8860  -23.7263   20.4943 C   0  0  0  0  0  0
  -28.0696  -24.9058   19.7834 C   0  0  0  0  0  0
  -29.8652  -15.8345   20.8069 N   0  0  0  0  0  0
  -29.4748  -23.9876   21.5476 O   0  0  0  0  0  0
  -31.4755  -12.5489   19.1863 H   0  0  0  0  0  0
  -30.3629  -11.4509   19.9498 H   0  0  0  0  0  0
  -29.7945  -11.7500   17.5147 H   0  0  0  0  0  0
  -29.6515  -13.4737   17.7412 H   0  0  0  0  0  0
  -27.8837  -11.2933   18.8931 H   0  0  0  0  0  0
  -27.3862  -12.5549   17.7970 H   0  0  0  0  0  0
  -27.6516  -14.2593   19.4913 H   0  0  0  0  0  0
  -28.7082  -12.1344   21.4203 H   0  0  0  0  0  0
  -28.4192  -13.8080   21.8169 H   0  0  0  0  0  0
  -25.2769   -9.5705   22.4739 H   0  0  0  0  0  0
  -24.0018   -7.4645   22.7464 H   0  0  0  0  0  0
  -21.0840   -8.8767   19.8945 H   0  0  0  0  0  0
  -22.3694  -10.9664   19.6156 H   0  0  0  0  0  0
  -21.2017   -7.6149   23.9719 H   0  0  0  0  0  0
  -21.1478   -6.0520   25.9076 H   0  0  0  0  0  0
  -22.0598   -2.7615   23.2838 H   0  0  0  0  0  0
  -22.4093  -11.9901   22.4825 H   0  0  0  0  0  0
  -21.1080  -13.1233   22.2606 H   0  0  0  0  0  0
  -24.6600  -15.8499   20.5303 H   0  0  0  0  0  0
  -26.2776  -15.6318   20.0938 H   0  0  0  0  0  0
  -26.7227  -32.5401   23.1089 H   0  0  0  0  0  0
  -25.0073  -33.9706   25.0392 H   0  0  0  0  0  0
  -22.7245  -31.3039   21.4016 H   0  0  0  0  0  0
  -23.3750  -35.9627   23.3303 H   0  0  0  0  0  0
  -24.3579  -36.8915   22.2052 H   0  0  0  0  0  0
  -23.7250  -37.6496   23.6663 H   0  0  0  0  0  0
  -26.1163  -31.5261   20.6145 H   0  0  0  0  0  0
  -26.8543  -30.8125   22.0156 H   0  0  0  0  0  0
  -28.1087  -28.8978   21.2267 H   0  0  0  0  0  0
  -25.9294  -25.9524   18.9168 H   0  0  0  0  0  0
  -23.9698  -27.3421   18.9625 H   0  0  0  0  0  0
  -23.7715  -30.6023   19.4059 H   0  0  0  0  0  0
  -22.7620  -29.2590   19.8512 H   0  0  0  0  0  0
  -25.1294  -36.1924   25.0816 H   0  0  0  0  0  0
  -20.9976  -28.3272   24.1396 H   0  0  0  0  0  0
  -20.5681  -26.2311   23.3607 H   0  0  0  0  0  0
  -21.6652  -26.7446   22.1200 H   0  0  0  0  0  0
  -19.6916  -25.6288   21.1257 H   0  0  0  0  0  0
  -19.6689  -27.3181   20.6729 H   0  0  0  0  0  0
  -17.4201  -26.6666   21.4036 H   0  0  0  0  0  0
  -18.0344  -26.0075   22.9028 H   0  0  0  0  0  0
  -19.7943  -30.7284   24.2246 H   0  0  0  0  0  0
  -17.5022  -31.6265   24.5171 H   0  0  0  0  0  0
  -15.5358  -30.2989   23.7655 H   0  0  0  0  0  0
  -15.8678  -28.0823   22.7066 H   0  0  0  0  0  0
  -24.5873  -30.7120   25.7775 H   0  0  0  0  0  0
  -24.8912  -32.2934   26.4857 H   0  0  0  0  0  0
  -25.8006  -30.8937   27.0237 H   0  0  0  0  0  0
  -26.2936  -29.6747   24.1238 H   0  0  0  0  0  0
  -27.3992  -29.7262   25.4771 H   0  0  0  0  0  0
  -27.8832  -30.4266   23.9513 H   0  0  0  0  0  0
  -27.2668  -33.3633   26.2073 H   0  0  0  0  0  0
  -28.3875  -32.6869   25.0343 H   0  0  0  0  0  0
  -28.0713  -31.8455   26.5438 H   0  0  0  0  0  0
  -28.2597  -38.0098   24.7502 H   0  0  0  0  0  0
  -28.1074  -36.2629   24.6298 H   0  0  0  0  0  0
  -27.2299  -37.1464   25.8869 H   0  0  0  0  0  0
  -20.9397  -29.8787   21.6882 H   0  0  0  0  0  0
  -26.0171  -38.2853   24.1388 H   0  0  0  0  0  0
  -29.2358  -20.3867   17.9212 H   0  0  0  0  0  0
  -29.8050  -16.1431   18.1979 H   0  0  0  0  0  0
  -29.6333  -18.5162   21.7926 H   0  0  0  0  0  0
  -29.3614  -17.1816   14.6046 H   0  0  0  0  0  0
  -29.5490  -16.1063   16.0830 H   0  0  0  0  0  0
  -29.3092  -19.1581   15.9398 H   0  0  0  0  0  0
  -29.5567  -21.1911   21.5753 H   0  0  0  0  0  0
  -28.6402  -22.2551   18.8610 H   0  0  0  0  0  0
  -27.0349  -24.6332   19.9805 H   0  0  0  0  0  0
  -28.2159  -24.8243   18.7060 H   0  0  0  0  0  0
  -29.0675  -15.6260   21.3896 H   0  0  0  0  0  0
  1 25  1  0  0  0
  1 30  2  0  0  0
  1 83  1  0  0  0
  2  3  1  0  0  0
  2 25  1  0  0  0
  2 85  1  0  0  0
  2 86  1  0  0  0
  3  4  1  0  0  0
  3 87  1  0  0  0
  3 88  1  0  0  0
  4  5  1  0  0  0
  4 89  1  0  0  0
  4 90  1  0  0  0
  5  6  1  0  0  0
  5 26  1  0  0  0
  5 91  1  0  0  0
  6 25  1  0  0  0
  6 92  1  0  0  0
  6 93  1  0  0  0
  7  8  2  0  0  0
  7 26  1  0  0  0
  7 29  1  0  0  0
  8  9  1  0  0  0
  8 22  1  0  0  0
  9 10  1  0  0  0
  9 27  2  0  0  0
 10 11  2  0  0  0
 10 15  1  0  0  0
 11 12  1  0  0  0
 11 94  1  0  0  0
 12 13  2  0  0  0
 12 95  1  0  0  0
 13 14  1  0  0  0
 13 31  1  0  0  0
 14 15  2  0  0  0
 14 96  1  0  0  0
 15 97  1  0  0  0
 16 17  2  0  0  0
 16 21  1  0  0  0
 16 31  1  0  0  0
 17 18  1  0  0  0
 17 98  1  0  0  0
 18 19  2  0  0  0
 18 99  1  0  0  0
 19 20  1  0  0  0
 19 24  1  0  0  0
 20 21  2  0  0  0
 20100  1  0  0  0
 21 23  1  0  0  0
 22 28  1  0  0  0
 22 32  2  0  0  0
 26 27  1  0  0  0
 28101  1  0  0  0
 28102  1  0  0  0
 29103  1  0  0  0
 29104  1  0  0  0
 33 34  1  0  0  0
 33 66  1  0  0  0
 33 70  2  0  0  0
 34 36  1  0  0  0
 34 59  1  0  0  0
 34105  1  0  0  0
 35 44  2  0  0  0
 35 45  1  0  0  0
 35 68  1  0  0  0
 36 56  1  0  0  0
 36106  1  0  0  0
 37 39  1  0  0  0
 37 47  1  0  0  0
 37 66  1  0  0  0
 37107  1  0  0  0
 38 43  2  0  0  0
 38 46  1  0  0  0
 38 47  1  0  0  0
 39 64  1  0  0  0
 39 67  2  0  0  0
 40 52  1  0  0  0
 40 53  2  0  0  0
 40 58  1  0  0  0
 41108  1  0  0  0
 41109  1  0  0  0
 41110  1  0  0  0
 41 48  1  0  0  0
 42 43  1  0  0  0
 42 66  1  0  0  0
 42111  1  0  0  0
 42112  1  0  0  0
 43 44  1  0  0  0
 44113  1  0  0  0
 45 46  2  0  0  0
 45114  1  0  0  0
 46115  1  0  0  0
 47116  1  0  0  0
 47117  1  0  0  0
 48 56  1  0  0  0
 48 65  1  0  0  0
 48118  1  0  0  0
 49 50  1  0  0  0
 49 53  1  0  0  0
 49 64  1  0  0  0
 49119  1  0  0  0
 50 51  1  0  0  0
 50120  1  0  0  0
 50121  1  0  0  0
 51 52  1  0  0  0
 51122  1  0  0  0
 51123  1  0  0  0
 52124  1  0  0  0
 52125  1  0  0  0
 53 54  1  0  0  0
 54 55  2  0  0  0
 54126  1  0  0  0
 55 57  1  0  0  0
 55127  1  0  0  0
 56 69  2  0  0  0
 57 58  2  0  0  0
 57128  1  0  0  0
 58129  1  0  0  0
 59 60  1  0  0  0
 59 61  1  0  0  0
 59 62  1  0  0  0
 60130  1  0  0  0
 60131  1  0  0  0
 60132  1  0  0  0
 61133  1  0  0  0
 61134  1  0  0  0
 61135  1  0  0  0
 62136  1  0  0  0
 62137  1  0  0  0
 62138  1  0  0  0
 63 65  1  0  0  0
 63139  1  0  0  0
 63140  1  0  0  0
 63141  1  0  0  0
 64142  1  0  0  0
 65143  1  0  0  0
 68 82  1  0  0  0
 71 74  2  0  0  0
 71 75  1  0  0  0
 71144  1  0  0  0
 72 74  1  0  0  0
 72 76  2  0  0  0
 72145  1  0  0  0
 73 75  2  0  0  0
 73 76  1  0  0  0
 73146  1  0  0  0
 74 78  1  0  0  0
 75 79  1  0  0  0
 76 83  1  0  0  0
 77 78  2  0  0  0
 77147  1  0  0  0
 77148  1  0  0  0
 78149  1  0  0  0
 79 80  2  0  0  0
 79150  1  0  0  0
 80 81  1  0  0  0
 80151  1  0  0  0
 81 82  1  0  0  0
 81 84  2  0  0  0
 82152  1  0  0  0
 82153  1  0  0  0
 83154  1  0  0  0
M  ISO  4   1 100  68 101  82 101  83 100
M  END
> <chiral flag>
0

> <version>
0

> <s_m_source_file>
/data/baiqing/PycharmProjects/Reinvent-master-3.2/result/LINK_invent/BTK/process_docking_weight1_custom_product_contain_oxygen_bond_distance_aromatic_linkinvent_7_9_3/rearranged_h_0114.sdf

> <i_m_source_file_index>
81

> <r_mmod_Potential_Energy-OPLS-2005>
175.315811157227

> <r_mmod_Stretch_Energy-OPLS-2005>
122.163436889648

> <r_mmod_Bend_Energy-OPLS-2005>
150.670486450195

> <r_mmod_Torsional_Energy-OPLS-2005>
243.777709960938

> <r_mmod_Improper_Torsional_Energy-OPLS-2005>
5.11768913269043

> <r_mmod_Van_der_Waal_Energy-OPLS-2005>
143.769973754883

> <r_mmod_Electrostatic_Energy-OPLS-2005>
-333.094146728516

> <r_mmod_Solvation_Energy-OPLS-2005>
-238.917846679688

> <b_mmod_Minimization_Converged-OPLS-2005>
0

> <r_mmod_RMS_Derivative-OPLS-2005>
1.16984140872955

$$$$
81
                    3D
 Structure written by MMmdl.
153162  0  0  1  0            999 V2000
  -30.6694  -14.6351   20.4494 C   0  0  0  0  0  0
  -30.4159  -12.3756   19.4784 C   0  0  0  0  0  0
  -29.5069  -12.4921   18.2357 C   0  0  0  0  0  0
  -28.0275  -12.3426   18.6383 C   0  0  0  0  0  0
  -27.6451  -13.2310   19.8528 C   0  0  2  0  0  0
  -28.6848  -13.1329   20.9891 C   0  0  0  0  0  0
  -25.2522  -13.8208   20.5694 C   0  0  0  0  0  0
  -24.1806  -13.0451   20.9193 C   0  0  0  0  0  0
  -24.6394  -11.6928   20.8736 C   0  0  0  0  0  0
  -23.9071  -10.4301   21.0401 C   0  0  0  0  0  0
  -24.3621   -9.4215   21.9179 C   0  0  0  0  0  0
  -23.6296   -8.2249   22.0752 C   0  0  0  0  0  0
  -22.4277   -8.0285   21.3544 C   0  0  0  0  0  0
  -21.9911   -9.0258   20.4647 C   0  0  0  0  0  0
  -22.7240  -10.2139   20.3054 C   0  0  0  0  0  0
  -21.6856   -6.0736   22.5279 C   0  0  0  0  0  0
  -21.4017   -6.5640   23.8212 C   0  0  0  0  0  0
  -21.3660   -5.6793   24.9174 C   0  0  0  0  0  0
  -21.6043   -4.3055   24.7225 C   0  0  0  0  0  0
  -21.8819   -3.8147   23.4346 C   0  0  0  0  0  0
  -21.9194   -4.6964   22.3402 C   0  0  0  0  0  0
  -22.7828  -13.5230   21.1860 C   0  0  0  0  0  0
  -22.1662   -4.2150   21.0980 F   0  0  0  0  0  0
  -21.5627   -3.4539   25.7737 F   0  0  0  0  0  0
  -30.0053  -13.4349   20.4254 N   0  0  0  0  0  0
  -26.2950  -12.9417   20.3281 N   0  0  0  0  0  0
  -25.9324  -11.6556   20.5741 N   0  0  0  0  0  0
  -22.0479  -12.8220   22.0421 N   0  0  0  0  0  0
  -25.4232  -15.1931   20.4141 N   0  0  0  0  0  0
  -31.8635  -14.6688   20.1399 O   0  0  0  0  0  0
  -21.6644   -6.8880   21.4241 O   0  0  0  0  0  0
  -22.3507  -14.5534   20.6709 O   0  0  0  0  0  0
  -24.6237  -31.8611   23.2037 C   0  0  0  0  0  0
  -25.9092  -32.4787   23.8362 C   0  0  1  0  0  0
  -27.2229  -27.3465   20.1181 C   0  0  0  0  0  0
  -25.5914  -33.8586   24.2291 N   0  0  0  0  0  0
  -23.4174  -30.4837   21.5450 C   0  0  2  0  0  0
  -24.8669  -28.9418   20.1098 C   0  0  0  0  0  0
  -22.7466  -29.4625   22.4939 C   0  0  0  0  0  0
  -18.0285  -28.1380   22.8487 C   0  0  0  0  0  0
  -24.1488  -36.7299   23.2638 C   0  0  0  0  0  0
  -25.9557  -30.8005   21.3716 C   0  0  0  0  0  0
  -26.0335  -29.4293   20.7157 C   0  0  0  0  0  0
  -27.2196  -28.6404   20.7154 C   0  0  0  0  0  0
  -26.0425  -26.9004   19.4937 C   0  0  0  0  0  0
  -24.8711  -27.6810   19.4901 C   0  0  0  0  0  0
  -23.6322  -29.8178   20.1600 C   0  0  0  0  0  0
  -25.4110  -36.3089   24.0332 C   0  0  1  0  0  0
  -20.5884  -28.3682   23.1287 C   0  0  2  0  0  0
  -20.6774  -26.9407   22.5411 C   0  0  0  0  0  0
  -19.5751  -26.6382   21.5211 C   0  0  0  0  0  0
  -18.1931  -26.7924   22.1623 C   0  0  0  0  0  0
  -19.1537  -28.8848   23.2883 C   0  0  0  0  0  0
  -18.9461  -30.1451   23.8898 C   0  0  0  0  0  0
  -17.6461  -30.6583   24.0563 C   0  0  0  0  0  0
  -25.9045  -34.9457   23.5112 C   0  0  0  0  0  0
  -16.5352  -29.9083   23.6328 C   0  0  0  0  0  0
  -16.7273  -28.6500   23.0350 C   0  0  0  0  0  0
  -26.4488  -31.6587   25.0721 C   0  0  0  0  0  0
  -25.3732  -31.3717   26.1455 C   0  0  0  0  0  0
  -27.0329  -30.3016   24.6154 C   0  0  0  0  0  0
  -27.6051  -32.4320   25.7488 C   0  0  0  0  0  0
  -27.5582  -37.1800   24.8461 C   0  0  0  0  0  0
  -21.4181  -29.3037   22.3682 N   0  0  0  0  0  0
  -26.4290  -37.3782   23.9412 N   0  0  0  0  0  0
  -24.6841  -31.0644   22.0975 N   0  0  0  0  0  0
  -23.4197  -28.8168   23.3016 O   0  0  0  0  0  0
  -28.2950  -26.4585   20.1526 O   0  0  0  0  0  0
  -26.5614  -34.8920   22.4679 O   0  0  0  0  0  0
  -23.5405  -32.1396   23.7379 O   0  0  0  0  0  0
  -30.1403  -19.1346   18.5374 C   0  0  0  0  0  0
  -29.7590  -20.4928   18.7361 C   0  0  0  0  0  0
  -29.9376  -18.4360   19.7022 C   0  0  0  0  0  0
  -29.3251  -20.5715   20.0240 C   0  0  0  0  0  0
  -28.4731  -24.1326   21.1458 C   0  0  0  0  0  0
  -30.2849  -17.0210   19.9179 C   0  0  0  0  0  0
  -28.2193  -25.4845   21.1504 C   0  0  0  0  0  0
  -29.8940  -15.9046   20.6192 C   0  0  0  0  0  0
  -28.3244  -23.3076   22.4133 C   0  0  0  0  0  0
  -28.9044  -23.1395   20.0498 C   0  0  0  0  0  0
  -28.4304  -21.8176   22.0301 C   0  0  0  0  0  0
  -28.8913  -21.7776   20.6549 N   0  0  0  0  0  0
  -29.3824  -19.3125   20.6423 O   0  0  0  0  0  0
  -31.4641  -12.4508   19.1845 H   0  0  0  0  0  0
  -30.3103  -11.3935   19.9418 H   0  0  0  0  0  0
  -29.7724  -11.7308   17.5010 H   0  0  0  0  0  0
  -29.6634  -13.4563   17.7496 H   0  0  0  0  0  0
  -27.8599  -11.2927   18.8810 H   0  0  0  0  0  0
  -27.3796  -12.5641   17.7894 H   0  0  0  0  0  0
  -27.6529  -14.2596   19.4920 H   0  0  0  0  0  0
  -28.6854  -12.1331   21.4254 H   0  0  0  0  0  0
  -28.4369  -13.8150   21.8029 H   0  0  0  0  0  0
  -25.2766   -9.5692   22.4754 H   0  0  0  0  0  0
  -24.0007   -7.4641   22.7470 H   0  0  0  0  0  0
  -21.0841   -8.8777   19.8954 H   0  0  0  0  0  0
  -22.3694  -10.9676   19.6164 H   0  0  0  0  0  0
  -21.2012   -7.6149   23.9715 H   0  0  0  0  0  0
  -21.1481   -6.0523   25.9077 H   0  0  0  0  0  0
  -22.0597   -2.7609   23.2847 H   0  0  0  0  0  0
  -22.4102  -11.9887   22.4814 H   0  0  0  0  0  0
  -21.1096  -13.1241   22.2628 H   0  0  0  0  0  0
  -24.6608  -15.8512   20.5326 H   0  0  0  0  0  0
  -26.2826  -15.6334   20.1094 H   0  0  0  0  0  0
  -26.7161  -32.5471   23.1117 H   0  0  0  0  0  0
  -25.0063  -33.9735   25.0436 H   0  0  0  0  0  0
  -22.7102  -31.3033   21.4021 H   0  0  0  0  0  0
  -23.3747  -35.9635   23.3303 H   0  0  0  0  0  0
  -24.3583  -36.8916   22.2052 H   0  0  0  0  0  0
  -23.7244  -37.6505   23.6655 H   0  0  0  0  0  0
  -26.0825  -31.5645   20.6033 H   0  0  0  0  0  0
  -26.8376  -30.8512   21.9985 H   0  0  0  0  0  0
  -28.1154  -29.0022   21.2004 H   0  0  0  0  0  0
  -26.0247  -25.9227   19.0327 H   0  0  0  0  0  0
  -23.9762  -27.2996   19.0178 H   0  0  0  0  0  0
  -23.7473  -30.5938   19.4024 H   0  0  0  0  0  0
  -22.7537  -29.2436   19.8597 H   0  0  0  0  0  0
  -25.1288  -36.1944   25.0824 H   0  0  0  0  0  0
  -20.9978  -28.3256   24.1407 H   0  0  0  0  0  0
  -20.5673  -26.2291   23.3608 H   0  0  0  0  0  0
  -21.6644  -26.7437   22.1206 H   0  0  0  0  0  0
  -19.6914  -25.6294   21.1237 H   0  0  0  0  0  0
  -19.6689  -27.3195   20.6743 H   0  0  0  0  0  0
  -17.4200  -26.6669   21.4026 H   0  0  0  0  0  0
  -18.0335  -26.0065   22.9019 H   0  0  0  0  0  0
  -19.7937  -30.7267   24.2268 H   0  0  0  0  0  0
  -17.5015  -31.6264   24.5165 H   0  0  0  0  0  0
  -15.5352  -30.2985   23.7650 H   0  0  0  0  0  0
  -15.8673  -28.0819   22.7064 H   0  0  0  0  0  0
  -24.5908  -30.7063   25.7790 H   0  0  0  0  0  0
  -24.8922  -32.2880   26.4888 H   0  0  0  0  0  0
  -25.8067  -30.8895   27.0225 H   0  0  0  0  0  0
  -26.2896  -29.6770   24.1184 H   0  0  0  0  0  0
  -27.4046  -29.7265   25.4645 H   0  0  0  0  0  0
  -27.8757  -30.4312   23.9360 H   0  0  0  0  0  0
  -27.2659  -33.3611   26.2083 H   0  0  0  0  0  0
  -28.3850  -32.6897   25.0310 H   0  0  0  0  0  0
  -28.0733  -31.8438   26.5391 H   0  0  0  0  0  0
  -28.2590  -38.0106   24.7524 H   0  0  0  0  0  0
  -28.1088  -36.2639   24.6263 H   0  0  0  0  0  0
  -27.2305  -37.1422   25.8865 H   0  0  0  0  0  0
  -20.9355  -29.8758   21.6893 H   0  0  0  0  0  0
  -26.0174  -38.2855   24.1422 H   0  0  0  0  0  0
  -30.5512  -18.7131   17.6309 H   0  0  0  0  0  0
  -29.8151  -21.3040   18.0243 H   0  0  0  0  0  0
  -31.1500  -16.8248   19.2986 H   0  0  0  0  0  0
  -27.9115  -25.9470   22.0792 H   0  0  0  0  0  0
  -29.0390  -15.9488   21.2763 H   0  0  0  0  0  0
  -27.3836  -23.5264   22.9204 H   0  0  0  0  0  0
  -29.1336  -23.5738   23.0947 H   0  0  0  0  0  0
  -29.9057  -23.3912   19.6972 H   0  0  0  0  0  0
  -28.2201  -23.1960   19.2021 H   0  0  0  0  0  0
  -27.4562  -21.3307   22.0982 H   0  0  0  0  0  0
  -29.1151  -21.2843   22.6920 H   0  0  0  0  0  0
  1 25  1  0  0  0
  1 30  2  0  0  0
  1 78  1  0  0  0
  2  3  1  0  0  0
  2 25  1  0  0  0
  2 84  1  0  0  0
  2 85  1  0  0  0
  3  4  1  0  0  0
  3 86  1  0  0  0
  3 87  1  0  0  0
  4  5  1  0  0  0
  4 88  1  0  0  0
  4 89  1  0  0  0
  5  6  1  0  0  0
  5 26  1  0  0  0
  5 90  1  0  0  0
  6 25  1  0  0  0
  6 91  1  0  0  0
  6 92  1  0  0  0
  7  8  2  0  0  0
  7 26  1  0  0  0
  7 29  1  0  0  0
  8  9  1  0  0  0
  8 22  1  0  0  0
  9 10  1  0  0  0
  9 27  2  0  0  0
 10 11  2  0  0  0
 10 15  1  0  0  0
 11 12  1  0  0  0
 11 93  1  0  0  0
 12 13  2  0  0  0
 12 94  1  0  0  0
 13 14  1  0  0  0
 13 31  1  0  0  0
 14 15  2  0  0  0
 14 95  1  0  0  0
 15 96  1  0  0  0
 16 17  2  0  0  0
 16 21  1  0  0  0
 16 31  1  0  0  0
 17 18  1  0  0  0
 17 97  1  0  0  0
 18 19  2  0  0  0
 18 98  1  0  0  0
 19 20  1  0  0  0
 19 24  1  0  0  0
 20 21  2  0  0  0
 20 99  1  0  0  0
 21 23  1  0  0  0
 22 28  1  0  0  0
 22 32  2  0  0  0
 26 27  1  0  0  0
 28100  1  0  0  0
 28101  1  0  0  0
 29102  1  0  0  0
 29103  1  0  0  0
 33 34  1  0  0  0
 33 66  1  0  0  0
 33 70  2  0  0  0
 34 36  1  0  0  0
 34 59  1  0  0  0
 34104  1  0  0  0
 35 44  2  0  0  0
 35 45  1  0  0  0
 35 68  1  0  0  0
 36 56  1  0  0  0
 36105  1  0  0  0
 37 39  1  0  0  0
 37 47  1  0  0  0
 37 66  1  0  0  0
 37106  1  0  0  0
 38 43  2  0  0  0
 38 46  1  0  0  0
 38 47  1  0  0  0
 39 64  1  0  0  0
 39 67  2  0  0  0
 40 52  1  0  0  0
 40 53  2  0  0  0
 40 58  1  0  0  0
 41107  1  0  0  0
 41108  1  0  0  0
 41109  1  0  0  0
 41 48  1  0  0  0
 42 43  1  0  0  0
 42 66  1  0  0  0
 42110  1  0  0  0
 42111  1  0  0  0
 43 44  1  0  0  0
 44112  1  0  0  0
 45 46  2  0  0  0
 45113  1  0  0  0
 46114  1  0  0  0
 47115  1  0  0  0
 47116  1  0  0  0
 48 56  1  0  0  0
 48 65  1  0  0  0
 48117  1  0  0  0
 49 50  1  0  0  0
 49 53  1  0  0  0
 49 64  1  0  0  0
 49118  1  0  0  0
 50 51  1  0  0  0
 50119  1  0  0  0
 50120  1  0  0  0
 51 52  1  0  0  0
 51121  1  0  0  0
 51122  1  0  0  0
 52123  1  0  0  0
 52124  1  0  0  0
 53 54  1  0  0  0
 54 55  2  0  0  0
 54125  1  0  0  0
 55 57  1  0  0  0
 55126  1  0  0  0
 56 69  2  0  0  0
 57 58  2  0  0  0
 57127  1  0  0  0
 58128  1  0  0  0
 59 60  1  0  0  0
 59 61  1  0  0  0
 59 62  1  0  0  0
 60129  1  0  0  0
 60130  1  0  0  0
 60131  1  0  0  0
 61132  1  0  0  0
 61133  1  0  0  0
 61134  1  0  0  0
 62135  1  0  0  0
 62136  1  0  0  0
 62137  1  0  0  0
 63 65  1  0  0  0
 63138  1  0  0  0
 63139  1  0  0  0
 63140  1  0  0  0
 64141  1  0  0  0
 65142  1  0  0  0
 68 77  1  0  0  0
 71 72  1  0  0  0
 71 73  2  0  0  0
 71143  1  0  0  0
 72 74  2  0  0  0
 72144  1  0  0  0
 73 76  1  0  0  0
 73 83  1  0  0  0
 74 82  1  0  0  0
 74 83  1  0  0  0
 75 77  2  0  0  0
 75 79  1  0  0  0
 75 80  1  0  0  0
 76 78  2  0  0  0
 76145  1  0  0  0
 77146  1  0  0  0
 78147  1  0  0  0
 79 81  1  0  0  0
 79148  1  0  0  0
 79149  1  0  0  0
 80 82  1  0  0  0
 80150  1  0  0  0
 80151  1  0  0  0
 81 82  1  0  0  0
 81152  1  0  0  0
 81153  1  0  0  0
M  ISO  4   1 100  68 101  77 101  78 100
M  END
> <chiral flag>
0

> <version>
0

> <s_m_source_file>
/data/baiqing/PycharmProjects/Reinvent-master-3.2/result/LINK_invent/BTK/process_docking_weight1_custom_product_contain_oxygen_bond_distance_aromatic_linkinvent_7_9_3/rearranged_h_0114.sdf

> <i_m_source_file_index>
82

> <r_mmod_Potential_Energy-OPLS-2005>
102.154174804688

> <r_mmod_Stretch_Energy-OPLS-2005>
64.5134963989258

> <r_mmod_Bend_Energy-OPLS-2005>
198.106323242188

> <r_mmod_Torsional_Energy-OPLS-2005>
235.453430175781

> <r_mmod_Improper_Torsional_Energy-OPLS-2005>
4.94628238677979

> <r_mmod_Van_der_Waal_Energy-OPLS-2005>
120.176239013672

> <r_mmod_Electrostatic_Energy-OPLS-2005>
-355.96435546875

> <r_mmod_Solvation_Energy-OPLS-2005>
-215.216583251953

> <b_mmod_Minimization_Converged-OPLS-2005>
0

> <r_mmod_RMS_Derivative-OPLS-2005>
0.161661311984062

$$$$
82
                    3D
 Structure written by MMmdl.
157165  0  0  1  0            999 V2000
  -30.5804  -14.7200   20.5355 C   0  0  0  0  0  0
  -30.4509  -12.4493   19.4561 C   0  0  0  0  0  0
  -29.5134  -12.5168   18.2273 C   0  0  0  0  0  0
  -28.0364  -12.3443   18.6373 C   0  0  0  0  0  0
  -27.6557  -13.2175   19.8616 C   0  0  2  0  0  0
  -28.7041  -13.0766   20.9879 C   0  0  0  0  0  0
  -25.2617  -13.8160   20.5703 C   0  0  0  0  0  0
  -24.1868  -13.0444   20.9198 C   0  0  0  0  0  0
  -24.6413  -11.6911   20.8729 C   0  0  0  0  0  0
  -23.9072  -10.4307   21.0414 C   0  0  0  0  0  0
  -24.3638   -9.4229   21.9190 C   0  0  0  0  0  0
  -23.6316   -8.2257   22.0758 C   0  0  0  0  0  0
  -22.4286   -8.0299   21.3554 C   0  0  0  0  0  0
  -21.9921   -9.0265   20.4653 C   0  0  0  0  0  0
  -22.7248  -10.2147   20.3067 C   0  0  0  0  0  0
  -21.6848   -6.0758   22.5280 C   0  0  0  0  0  0
  -21.4010   -6.5655   23.8221 C   0  0  0  0  0  0
  -21.3663   -5.6803   24.9171 C   0  0  0  0  0  0
  -21.6043   -4.3064   24.7214 C   0  0  0  0  0  0
  -21.8821   -3.8171   23.4327 C   0  0  0  0  0  0
  -21.9195   -4.6989   22.3395 C   0  0  0  0  0  0
  -22.7895  -13.5271   21.1839 C   0  0  0  0  0  0
  -22.1667   -4.2190   21.0966 F   0  0  0  0  0  0
  -21.5635   -3.4539   25.7719 F   0  0  0  0  0  0
  -30.0031  -13.4719   20.4292 N   0  0  0  0  0  0
  -26.3029  -12.9341   20.3323 N   0  0  0  0  0  0
  -25.9354  -11.6496   20.5759 N   0  0  0  0  0  0
  -22.0506  -12.8274   22.0380 N   0  0  0  0  0  0
  -25.4345  -15.1876   20.4142 N   0  0  0  0  0  0
  -31.7263  -14.8893   20.0993 O   0  0  0  0  0  0
  -21.6640   -6.8898   21.4247 O   0  0  0  0  0  0
  -22.3599  -14.5566   20.6657 O   0  0  0  0  0  0
  -24.6318  -31.8547   23.1965 C   0  0  0  0  0  0
  -25.9146  -32.4736   23.8316 C   0  0  1  0  0  0
  -27.2205  -27.2569   20.1308 C   0  0  0  0  0  0
  -25.5954  -33.8542   24.2231 N   0  0  0  0  0  0
  -23.4306  -30.4751   21.5404 C   0  0  2  0  0  0
  -24.8768  -28.9175   20.1173 C   0  0  0  0  0  0
  -22.7508  -29.4595   22.4916 C   0  0  0  0  0  0
  -18.0308  -28.1365   22.8512 C   0  0  0  0  0  0
  -24.1488  -36.7250   23.2640 C   0  0  0  0  0  0
  -25.9775  -30.7648   21.3818 C   0  0  0  0  0  0
  -26.0500  -29.3880   20.7210 C   0  0  0  0  0  0
  -27.2277  -28.5711   20.7111 C   0  0  0  0  0  0
  -26.0257  -26.8564   19.4981 C   0  0  0  0  0  0
  -24.8679  -27.6576   19.4985 C   0  0  0  0  0  0
  -23.6479  -29.8040   20.1582 C   0  0  0  0  0  0
  -25.4129  -36.3051   24.0319 C   0  0  1  0  0  0
  -20.5915  -28.3691   23.1267 C   0  0  2  0  0  0
  -20.6783  -26.9413   22.5398 C   0  0  0  0  0  0
  -19.5746  -26.6379   21.5208 C   0  0  0  0  0  0
  -18.1937  -26.7919   22.1635 C   0  0  0  0  0  0
  -19.1565  -28.8848   23.2883 C   0  0  0  0  0  0
  -18.9477  -30.1448   23.8894 C   0  0  0  0  0  0
  -17.6473  -30.6575   24.0562 C   0  0  0  0  0  0
  -25.9072  -34.9430   23.5082 C   0  0  0  0  0  0
  -16.5366  -29.9057   23.6341 C   0  0  0  0  0  0
  -16.7295  -28.6466   23.0392 C   0  0  0  0  0  0
  -26.4526  -31.6580   25.0725 C   0  0  0  0  0  0
  -25.3710  -31.3773   26.1417 C   0  0  0  0  0  0
  -27.0395  -30.2979   24.6268 C   0  0  0  0  0  0
  -27.6075  -32.4352   25.7492 C   0  0  0  0  0  0
  -27.5589  -37.1781   24.8480 C   0  0  0  0  0  0
  -21.4222  -29.3025   22.3625 N   0  0  0  0  0  0
  -26.4302  -37.3761   23.9413 N   0  0  0  0  0  0
  -24.6985  -31.0516   22.0938 N   0  0  0  0  0  0
  -23.4207  -28.8147   23.3032 O   0  0  0  0  0  0
  -28.3063  -26.3511   20.1347 O   0  0  0  0  0  0
  -26.5645  -34.8921   22.4646 O   0  0  0  0  0  0
  -23.5465  -32.1387   23.7247 O   0  0  0  0  0  0
  -29.3816  -19.2918   19.3817 C   0  0  0  0  0  0
  -29.7243  -18.5687   21.4532 C   0  0  0  0  0  0
  -29.4600  -19.7310   20.7364 C   0  0  0  0  0  0
  -29.5529  -17.9121   19.3377 C   0  0  0  0  0  0
  -29.2730  -21.1098   21.4060 C   0  0  0  0  0  0
  -29.4252  -17.0124   18.2297 C   0  0  0  0  0  0
  -29.0331  -22.4752   21.2271 C   0  0  0  0  0  0
  -28.8664  -17.2523   17.0346 C   0  0  0  0  0  0
  -28.7867  -16.2345   15.9148 C   0  0  0  0  0  0
  -28.7964  -23.5882   20.1216 C   0  0  0  0  0  0
  -29.7796  -15.9671   21.1632 C   0  0  0  0  0  0
  -28.0695  -24.9540   20.6522 C   0  0  0  0  0  0
  -29.7627  -17.4127   20.6340 N   0  0  0  0  0  0
  -31.4881  -12.5989   19.1504 H   0  0  0  0  0  0
  -30.4216  -11.4589   19.9139 H   0  0  0  0  0  0
  -29.7917  -11.7481   17.5055 H   0  0  0  0  0  0
  -29.6391  -13.4755   17.7201 H   0  0  0  0  0  0
  -27.8772  -11.2901   18.8672 H   0  0  0  0  0  0
  -27.3805  -12.5716   17.7968 H   0  0  0  0  0  0
  -27.6696  -14.2503   19.5144 H   0  0  0  0  0  0
  -28.7478  -12.0450   21.3406 H   0  0  0  0  0  0
  -28.4354  -13.6652   21.8660 H   0  0  0  0  0  0
  -25.2793   -9.5702   22.4755 H   0  0  0  0  0  0
  -24.0030   -7.4657   22.7472 H   0  0  0  0  0  0
  -21.0859   -8.8789   19.8961 H   0  0  0  0  0  0
  -22.3716  -10.9691   19.6179 H   0  0  0  0  0  0
  -21.1985   -7.6161   23.9734 H   0  0  0  0  0  0
  -21.1490   -6.0520   25.9080 H   0  0  0  0  0  0
  -22.0592   -2.7633   23.2801 H   0  0  0  0  0  0
  -22.4108  -11.9940   22.4789 H   0  0  0  0  0  0
  -21.1134  -13.1326   22.2574 H   0  0  0  0  0  0
  -24.6632  -15.8376   20.5181 H   0  0  0  0  0  0
  -26.2833  -15.6319   20.0866 H   0  0  0  0  0  0
  -26.7216  -32.5370   23.1052 H   0  0  0  0  0  0
  -25.0117  -33.9682   25.0391 H   0  0  0  0  0  0
  -22.7292  -31.2980   21.3902 H   0  0  0  0  0  0
  -23.3762  -35.9571   23.3307 H   0  0  0  0  0  0
  -24.3570  -36.8863   22.2056 H   0  0  0  0  0  0
  -23.7228  -37.6444   23.6662 H   0  0  0  0  0  0
  -26.1390  -31.5338   20.6261 H   0  0  0  0  0  0
  -26.8446  -30.7982   22.0289 H   0  0  0  0  0  0
  -28.1292  -28.9299   21.1849 H   0  0  0  0  0  0
  -25.9766  -25.8952   19.0069 H   0  0  0  0  0  0
  -23.9690  -27.2933   19.0193 H   0  0  0  0  0  0
  -23.7674  -30.5771   19.3973 H   0  0  0  0  0  0
  -22.7671  -29.2323   19.8568 H   0  0  0  0  0  0
  -25.1307  -36.1899   25.0813 H   0  0  0  0  0  0
  -21.0044  -28.3255   24.1373 H   0  0  0  0  0  0
  -20.5676  -26.2303   23.3604 H   0  0  0  0  0  0
  -21.6645  -26.7406   22.1188 H   0  0  0  0  0  0
  -19.6896  -25.6289   21.1228 H   0  0  0  0  0  0
  -19.6661  -27.3190   20.6740 H   0  0  0  0  0  0
  -17.4208  -26.6714   21.4026 H   0  0  0  0  0  0
  -18.0313  -26.0035   22.9006 H   0  0  0  0  0  0
  -19.7955  -30.7271   24.2254 H   0  0  0  0  0  0
  -17.5028  -31.6267   24.5140 H   0  0  0  0  0  0
  -15.5362  -30.2954   23.7654 H   0  0  0  0  0  0
  -15.8710  -28.0748   22.7147 H   0  0  0  0  0  0
  -24.5868  -30.7162   25.7712 H   0  0  0  0  0  0
  -24.8930  -32.2972   26.4802 H   0  0  0  0  0  0
  -25.7975  -30.8948   27.0217 H   0  0  0  0  0  0
  -26.3007  -29.6705   24.1268 H   0  0  0  0  0  0
  -27.4027  -29.7288   25.4839 H   0  0  0  0  0  0
  -27.8917  -30.4240   23.9575 H   0  0  0  0  0  0
  -27.2660  -33.3655   26.2054 H   0  0  0  0  0  0
  -28.3875  -32.6915   25.0303 H   0  0  0  0  0  0
  -28.0759  -31.8495   26.5414 H   0  0  0  0  0  0
  -28.2608  -38.0076   24.7517 H   0  0  0  0  0  0
  -28.1076  -36.2606   24.6308 H   0  0  0  0  0  0
  -27.2301  -37.1424   25.8881 H   0  0  0  0  0  0
  -20.9405  -29.8725   21.6811 H   0  0  0  0  0  0
  -26.0170  -38.2834   24.1401 H   0  0  0  0  0  0
  -29.1736  -19.9132   18.5228 H   0  0  0  0  0  0
  -29.8350  -18.4487   22.5231 H   0  0  0  0  0  0
  -29.3626  -20.9353   22.4716 H   0  0  0  0  0  0
  -29.8406  -16.0274   18.3610 H   0  0  0  0  0  0
  -29.0281  -22.9716   22.1887 H   0  0  0  0  0  0
  -28.4170  -18.2159   16.8388 H   0  0  0  0  0  0
  -27.9247  -15.5811   16.0615 H   0  0  0  0  0  0
  -29.6860  -15.6184   15.8799 H   0  0  0  0  0  0
  -28.6816  -16.7351   14.9512 H   0  0  0  0  0  0
  -28.2622  -23.1627   19.2692 H   0  0  0  0  0  0
  -29.7836  -23.8625   19.7501 H   0  0  0  0  0  0
  -30.1078  -16.0163   22.2024 H   0  0  0  0  0  0
  -28.7288  -15.6955   21.2182 H   0  0  0  0  0  0
  -27.0031  -24.7332   20.6721 H   0  0  0  0  0  0
  -28.3253  -25.0500   21.7072 H   0  0  0  0  0  0
  1 25  1  0  0  0
  1 30  2  0  0  0
  1 81  1  0  0  0
  2  3  1  0  0  0
  2 25  1  0  0  0
  2 84  1  0  0  0
  2 85  1  0  0  0
  3  4  1  0  0  0
  3 86  1  0  0  0
  3 87  1  0  0  0
  4  5  1  0  0  0
  4 88  1  0  0  0
  4 89  1  0  0  0
  5  6  1  0  0  0
  5 26  1  0  0  0
  5 90  1  0  0  0
  6 25  1  0  0  0
  6 91  1  0  0  0
  6 92  1  0  0  0
  7  8  2  0  0  0
  7 26  1  0  0  0
  7 29  1  0  0  0
  8  9  1  0  0  0
  8 22  1  0  0  0
  9 10  1  0  0  0
  9 27  2  0  0  0
 10 11  2  0  0  0
 10 15  1  0  0  0
 11 12  1  0  0  0
 11 93  1  0  0  0
 12 13  2  0  0  0
 12 94  1  0  0  0
 13 14  1  0  0  0
 13 31  1  0  0  0
 14 15  2  0  0  0
 14 95  1  0  0  0
 15 96  1  0  0  0
 16 17  2  0  0  0
 16 21  1  0  0  0
 16 31  1  0  0  0
 17 18  1  0  0  0
 17 97  1  0  0  0
 18 19  2  0  0  0
 18 98  1  0  0  0
 19 20  1  0  0  0
 19 24  1  0  0  0
 20 21  2  0  0  0
 20 99  1  0  0  0
 21 23  1  0  0  0
 22 28  1  0  0  0
 22 32  2  0  0  0
 26 27  1  0  0  0
 28100  1  0  0  0
 28101  1  0  0  0
 29102  1  0  0  0
 29103  1  0  0  0
 33 34  1  0  0  0
 33 66  1  0  0  0
 33 70  2  0  0  0
 34 36  1  0  0  0
 34 59  1  0  0  0
 34104  1  0  0  0
 35 44  2  0  0  0
 35 45  1  0  0  0
 35 68  1  0  0  0
 36 56  1  0  0  0
 36105  1  0  0  0
 37 39  1  0  0  0
 37 47  1  0  0  0
 37 66  1  0  0  0
 37106  1  0  0  0
 38 43  2  0  0  0
 38 46  1  0  0  0
 38 47  1  0  0  0
 39 64  1  0  0  0
 39 67  2  0  0  0
 40 52  1  0  0  0
 40 53  2  0  0  0
 40 58  1  0  0  0
 41107  1  0  0  0
 41108  1  0  0  0
 41109  1  0  0  0
 41 48  1  0  0  0
 42 43  1  0  0  0
 42 66  1  0  0  0
 42110  1  0  0  0
 42111  1  0  0  0
 43 44  1  0  0  0
 44112  1  0  0  0
 45 46  2  0  0  0
 45113  1  0  0  0
 46114  1  0  0  0
 47115  1  0  0  0
 47116  1  0  0  0
 48 56  1  0  0  0
 48 65  1  0  0  0
 48117  1  0  0  0
 49 50  1  0  0  0
 49 53  1  0  0  0
 49 64  1  0  0  0
 49118  1  0  0  0
 50 51  1  0  0  0
 50119  1  0  0  0
 50120  1  0  0  0
 51 52  1  0  0  0
 51121  1  0  0  0
 51122  1  0  0  0
 52123  1  0  0  0
 52124  1  0  0  0
 53 54  1  0  0  0
 54 55  2  0  0  0
 54125  1  0  0  0
 55 57  1  0  0  0
 55126  1  0  0  0
 56 69  2  0  0  0
 57 58  2  0  0  0
 57127  1  0  0  0
 58128  1  0  0  0
 59 60  1  0  0  0
 59 61  1  0  0  0
 59 62  1  0  0  0
 60129  1  0  0  0
 60130  1  0  0  0
 60131  1  0  0  0
 61132  1  0  0  0
 61133  1  0  0  0
 61134  1  0  0  0
 62135  1  0  0  0
 62136  1  0  0  0
 62137  1  0  0  0
 63 65  1  0  0  0
 63138  1  0  0  0
 63139  1  0  0  0
 63140  1  0  0  0
 64141  1  0  0  0
 65142  1  0  0  0
 68 82  1  0  0  0
 71 73  1  0  0  0
 71 74  2  0  0  0
 71143  1  0  0  0
 72 73  2  0  0  0
 72 83  1  0  0  0
 72144  1  0  0  0
 73 75  1  0  0  0
 74 76  1  0  0  0
 74 83  1  0  0  0
 75 77  2  0  0  0
 75145  1  0  0  0
 76 78  2  0  0  0
 76146  1  0  0  0
 77 80  1  0  0  0
 77147  1  0  0  0
 78 79  1  0  0  0
 78148  1  0  0  0
 79149  1  0  0  0
 79150  1  0  0  0
 79151  1  0  0  0
 80 82  1  0  0  0
 80152  1  0  0  0
 80153  1  0  0  0
 81 83  1  0  0  0
 81154  1  0  0  0
 81155  1  0  0  0
 82156  1  0  0  0
 82157  1  0  0  0
M  ISO  4   1 100  68 101  81 100  82 101
M  END
> <chiral flag>
0

> <version>
0

> <s_m_source_file>
/data/baiqing/PycharmProjects/Reinvent-master-3.2/result/LINK_invent/BTK/process_docking_weight1_custom_product_contain_oxygen_bond_distance_aromatic_linkinvent_7_9_3/rearranged_h_0114.sdf

> <i_m_source_file_index>
83

> <r_mmod_Potential_Energy-OPLS-2005>
312.409637451172

> <r_mmod_Stretch_Energy-OPLS-2005>
123.00749206543

> <r_mmod_Bend_Energy-OPLS-2005>
267.047821044922

> <r_mmod_Torsional_Energy-OPLS-2005>
215.113143920898

> <r_mmod_Improper_Torsional_Energy-OPLS-2005>
4.08364868164062

> <r_mmod_Van_der_Waal_Energy-OPLS-2005>
112.251976013184

> <r_mmod_Electrostatic_Energy-OPLS-2005>
-287.611694335938

> <r_mmod_Solvation_Energy-OPLS-2005>
-199.002182006836

> <b_mmod_Minimization_Converged-OPLS-2005>
0

> <r_mmod_RMS_Derivative-OPLS-2005>
3.47571659088135

$$$$
83
                    3D
 Structure written by MMmdl.
161169  0  0  1  0            999 V2000
  -30.7257  -14.5416   20.4823 C   0  0  0  0  0  0
  -30.4105  -12.3241   19.4587 C   0  0  0  0  0  0
  -29.5022  -12.4900   18.2241 C   0  0  0  0  0  0
  -28.0240  -12.3500   18.6324 C   0  0  0  0  0  0
  -27.6534  -13.2246   19.8621 C   0  0  2  0  0  0
  -28.7003  -13.1005   20.9960 C   0  0  0  0  0  0
  -25.2568  -13.8187   20.5714 C   0  0  0  0  0  0
  -24.1853  -13.0426   20.9180 C   0  0  0  0  0  0
  -24.6448  -11.6907   20.8758 C   0  0  0  0  0  0
  -23.9114  -10.4292   21.0417 C   0  0  0  0  0  0
  -24.3660   -9.4201   21.9194 C   0  0  0  0  0  0
  -23.6323   -8.2243   22.0755 C   0  0  0  0  0  0
  -22.4293   -8.0304   21.3548 C   0  0  0  0  0  0
  -21.9935   -9.0278   20.4645 C   0  0  0  0  0  0
  -22.7281  -10.2150   20.3058 C   0  0  0  0  0  0
  -21.6847   -6.0773   22.5291 C   0  0  0  0  0  0
  -21.4020   -6.5666   23.8232 C   0  0  0  0  0  0
  -21.3661   -5.6807   24.9187 C   0  0  0  0  0  0
  -21.6038   -4.3068   24.7227 C   0  0  0  0  0  0
  -21.8818   -3.8168   23.4345 C   0  0  0  0  0  0
  -21.9189   -4.7000   22.3408 C   0  0  0  0  0  0
  -22.7870  -13.5205   21.1849 C   0  0  0  0  0  0
  -22.1652   -4.2187   21.0987 F   0  0  0  0  0  0
  -21.5625   -3.4548   25.7735 F   0  0  0  0  0  0
  -30.0244  -13.3725   20.4207 N   0  0  0  0  0  0
  -26.3015  -12.9403   20.3334 N   0  0  0  0  0  0
  -25.9384  -11.6547   20.5788 N   0  0  0  0  0  0
  -22.0529  -12.8193   22.0417 N   0  0  0  0  0  0
  -25.4227  -15.1935   20.4263 N   0  0  0  0  0  0
  -31.9135  -14.5718   20.1547 O   0  0  0  0  0  0
  -21.6637   -6.8919   21.4251 O   0  0  0  0  0  0
  -22.3539  -14.5494   20.6670 O   0  0  0  0  0  0
  -24.6190  -31.8652   23.2071 C   0  0  0  0  0  0
  -25.9069  -32.4810   23.8391 C   0  0  1  0  0  0
  -27.2254  -27.3942   20.0994 C   0  0  0  0  0  0
  -25.5900  -33.8613   24.2322 N   0  0  0  0  0  0
  -23.4071  -30.4885   21.5497 C   0  0  2  0  0  0
  -24.8478  -28.9493   20.1150 C   0  0  0  0  0  0
  -22.7426  -29.4636   22.4972 C   0  0  0  0  0  0
  -18.0288  -28.1372   22.8461 C   0  0  0  0  0  0
  -24.1483  -36.7321   23.2637 C   0  0  0  0  0  0
  -25.9402  -30.8176   21.3639 C   0  0  0  0  0  0
  -26.0112  -29.4493   20.7110 C   0  0  0  0  0  0
  -27.2000  -28.6802   20.6981 C   0  0  0  0  0  0
  -26.0342  -26.9126   19.5067 C   0  0  0  0  0  0
  -24.8563  -27.6815   19.5108 C   0  0  0  0  0  0
  -23.6154  -29.8239   20.1631 C   0  0  0  0  0  0
  -25.4109  -36.3127   24.0343 C   0  0  1  0  0  0
  -20.5870  -28.3695   23.1307 C   0  0  2  0  0  0
  -20.6814  -26.9416   22.5430 C   0  0  0  0  0  0
  -19.5814  -26.6377   21.5211 C   0  0  0  0  0  0
  -18.1971  -26.7924   22.1577 C   0  0  0  0  0  0
  -19.1523  -28.8851   23.2873 C   0  0  0  0  0  0
  -18.9435  -30.1456   23.8866 C   0  0  0  0  0  0
  -17.6420  -30.6568   24.0531 C   0  0  0  0  0  0
  -25.9032  -34.9480   23.5134 C   0  0  0  0  0  0
  -16.5320  -29.9061   23.6281 C   0  0  0  0  0  0
  -16.7273  -28.6469   23.0331 C   0  0  0  0  0  0
  -26.4487  -31.6598   25.0738 C   0  0  0  0  0  0
  -25.3741  -31.3701   26.1484 C   0  0  0  0  0  0
  -27.0316  -30.3036   24.6120 C   0  0  0  0  0  0
  -27.6077  -32.4306   25.7496 C   0  0  0  0  0  0
  -27.5583  -37.1823   24.8469 C   0  0  0  0  0  0
  -21.4154  -29.3049   22.3698 N   0  0  0  0  0  0
  -26.4303  -37.3803   23.9399 N   0  0  0  0  0  0
  -24.6741  -31.0729   22.0981 N   0  0  0  0  0  0
  -23.4177  -28.8175   23.3026 O   0  0  0  0  0  0
  -28.4057  -26.6659   20.1220 O   0  0  0  0  0  0
  -26.5609  -34.8935   22.4703 O   0  0  0  0  0  0
  -23.5378  -32.1424   23.7445 O   0  0  0  0  0  0
  -28.1685  -17.7127   19.7242 C   0  0  0  0  0  0
  -27.3429  -19.9829   19.8984 C   0  0  0  0  0  0
  -29.3653  -18.0632   20.3887 C   0  0  0  0  0  0
  -29.5640  -19.4406   20.8050 C   0  0  0  0  0  0
  -28.5342  -20.4197   20.5322 C   0  0  0  0  0  0
  -27.1621  -18.6555   19.4908 C   0  0  0  0  0  0
  -31.3843  -21.0614   23.6447 C   0  0  0  0  0  0
  -31.0528  -21.0641   22.3435 C   0  0  0  0  0  0
  -28.1737  -22.7553   20.2111 C   0  0  0  0  0  0
  -30.4258  -16.9644   20.4851 C   0  0  0  0  0  0
  -30.9117  -19.8202   21.4791 C   0  0  0  0  0  0
  -28.0628  -24.2177   20.6909 C   0  0  0  0  0  0
  -28.4639  -25.2981   19.6434 C   0  0  0  0  0  0
  -28.6173  -21.7831   20.9305 N   0  0  0  0  0  0
  -25.9905  -18.2774   18.8374 N   0  0  0  0  0  0
  -30.0020  -15.6794   20.6727 N   0  0  0  0  0  0
  -31.6137  -17.2799   20.3475 O   0  0  0  0  0  0
  -31.4611  -12.3758   19.1674 H   0  0  0  0  0  0
  -30.2786  -11.3356   19.9024 H   0  0  0  0  0  0
  -29.7565  -11.7470   17.4664 H   0  0  0  0  0  0
  -29.6676  -13.4668   17.7664 H   0  0  0  0  0  0
  -27.8507  -11.2974   18.8584 H   0  0  0  0  0  0
  -27.3723  -12.5898   17.7912 H   0  0  0  0  0  0
  -27.6609  -14.2566   19.5113 H   0  0  0  0  0  0
  -28.6840  -12.0994   21.4311 H   0  0  0  0  0  0
  -28.4732  -13.7859   21.8142 H   0  0  0  0  0  0
  -25.2828   -9.5665   22.4753 H   0  0  0  0  0  0
  -24.0043   -7.4623   22.7455 H   0  0  0  0  0  0
  -21.0875   -8.8800   19.8944 H   0  0  0  0  0  0
  -22.3758  -10.9694   19.6153 H   0  0  0  0  0  0
  -21.2013   -7.6175   23.9750 H   0  0  0  0  0  0
  -21.1473   -6.0535   25.9095 H   0  0  0  0  0  0
  -22.0589   -2.7635   23.2821 H   0  0  0  0  0  0
  -22.4144  -11.9863   22.4835 H   0  0  0  0  0  0
  -21.1128  -13.1178   22.2579 H   0  0  0  0  0  0
  -24.6581  -15.8411   20.5853 H   0  0  0  0  0  0
  -26.2876  -15.6606   20.1969 H   0  0  0  0  0  0
  -26.7139  -32.5504   23.1153 H   0  0  0  0  0  0
  -25.0055  -33.9779   25.0473 H   0  0  0  0  0  0
  -22.6963  -31.3058   21.4115 H   0  0  0  0  0  0
  -23.3747  -35.9655   23.3332 H   0  0  0  0  0  0
  -24.3577  -36.8897   22.2045 H   0  0  0  0  0  0
  -23.7236  -37.6530   23.6634 H   0  0  0  0  0  0
  -26.0618  -31.5757   20.5903 H   0  0  0  0  0  0
  -26.8284  -30.8705   21.9820 H   0  0  0  0  0  0
  -28.0972  -29.0658   21.1639 H   0  0  0  0  0  0
  -25.9785  -25.9409   19.0413 H   0  0  0  0  0  0
  -23.9599  -27.2888   19.0510 H   0  0  0  0  0  0
  -23.7281  -30.6009   19.4056 H   0  0  0  0  0  0
  -22.7342  -29.2519   19.8653 H   0  0  0  0  0  0
  -25.1281  -36.2008   25.0839 H   0  0  0  0  0  0
  -20.9951  -28.3314   24.1445 H   0  0  0  0  0  0
  -21.6703  -26.7507   22.1232 H   0  0  0  0  0  0
  -20.5740  -26.2277   23.3609 H   0  0  0  0  0  0
  -19.6952  -25.6281   21.1278 H   0  0  0  0  0  0
  -19.6777  -27.3154   20.6726 H   0  0  0  0  0  0
  -17.4308  -26.6645   21.3913 H   0  0  0  0  0  0
  -18.0385  -26.0074   22.8984 H   0  0  0  0  0  0
  -19.7912  -30.7295   24.2183 H   0  0  0  0  0  0
  -17.4967  -31.6243   24.5140 H   0  0  0  0  0  0
  -15.5311  -30.2962   23.7556 H   0  0  0  0  0  0
  -15.8680  -28.0765   22.7086 H   0  0  0  0  0  0
  -24.5926  -30.7034   25.7822 H   0  0  0  0  0  0
  -24.8930  -32.2845   26.4951 H   0  0  0  0  0  0
  -25.8084  -30.8862   27.0239 H   0  0  0  0  0  0
  -26.2858  -29.6789   24.1184 H   0  0  0  0  0  0
  -27.4084  -29.7280   25.4583 H   0  0  0  0  0  0
  -27.8698  -30.4356   23.9278 H   0  0  0  0  0  0
  -27.2719  -33.3596   26.2118 H   0  0  0  0  0  0
  -28.3865  -32.6866   25.0302 H   0  0  0  0  0  0
  -28.0793  -31.8410   26.5370 H   0  0  0  0  0  0
  -28.2633  -38.0090   24.7501 H   0  0  0  0  0  0
  -28.1049  -36.2624   24.6325 H   0  0  0  0  0  0
  -27.2303  -37.1510   25.8873 H   0  0  0  0  0  0
  -20.9376  -29.8774   21.6865 H   0  0  0  0  0  0
  -26.0199  -38.2880   24.1386 H   0  0  0  0  0  0
  -28.0324  -16.7066   19.3558 H   0  0  0  0  0  0
  -26.5392  -20.6810   19.7137 H   0  0  0  0  0  0
  -31.4786  -21.9903   24.1875 H   0  0  0  0  0  0
  -31.5714  -20.1463   24.1896 H   0  0  0  0  0  0
  -30.9031  -22.0176   21.8578 H   0  0  0  0  0  0
  -27.8024  -22.5983   19.1928 H   0  0  0  0  0  0
  -31.6650  -19.9045   20.6948 H   0  0  0  0  0  0
  -31.2298  -18.9986   22.1177 H   0  0  0  0  0  0
  -28.6702  -24.3415   21.5879 H   0  0  0  0  0  0
  -27.0313  -24.3868   20.9969 H   0  0  0  0  0  0
  -29.5044  -25.1212   19.3710 H   0  0  0  0  0  0
  -27.9172  -25.1775   18.7086 H   0  0  0  0  0  0
  -25.7712  -17.3029   18.6575 H   0  0  0  0  0  0
  -25.1832  -18.8927   18.8196 H   0  0  0  0  0  0
  -29.0223  -15.5568   20.8585 H   0  0  0  0  0  0
  1 25  1  0  0  0
  1 30  2  0  0  0
  1 86  1  0  0  0
  2  3  1  0  0  0
  2 25  1  0  0  0
  2 88  1  0  0  0
  2 89  1  0  0  0
  3  4  1  0  0  0
  3 90  1  0  0  0
  3 91  1  0  0  0
  4  5  1  0  0  0
  4 92  1  0  0  0
  4 93  1  0  0  0
  5  6  1  0  0  0
  5 26  1  0  0  0
  5 94  1  0  0  0
  6 25  1  0  0  0
  6 95  1  0  0  0
  6 96  1  0  0  0
  7  8  2  0  0  0
  7 26  1  0  0  0
  7 29  1  0  0  0
  8  9  1  0  0  0
  8 22  1  0  0  0
  9 10  1  0  0  0
  9 27  2  0  0  0
 10 11  2  0  0  0
 10 15  1  0  0  0
 11 12  1  0  0  0
 11 97  1  0  0  0
 12 13  2  0  0  0
 12 98  1  0  0  0
 13 14  1  0  0  0
 13 31  1  0  0  0
 14 15  2  0  0  0
 14 99  1  0  0  0
 15100  1  0  0  0
 16 17  2  0  0  0
 16 21  1  0  0  0
 16 31  1  0  0  0
 17 18  1  0  0  0
 17101  1  0  0  0
 18 19  2  0  0  0
 18102  1  0  0  0
 19 20  1  0  0  0
 19 24  1  0  0  0
 20 21  2  0  0  0
 20103  1  0  0  0
 21 23  1  0  0  0
 22 28  1  0  0  0
 22 32  2  0  0  0
 26 27  1  0  0  0
 28104  1  0  0  0
 28105  1  0  0  0
 29106  1  0  0  0
 29107  1  0  0  0
 33 34  1  0  0  0
 33 66  1  0  0  0
 33 70  2  0  0  0
 34 36  1  0  0  0
 34 59  1  0  0  0
 34108  1  0  0  0
 35 44  2  0  0  0
 35 45  1  0  0  0
 35 68  1  0  0  0
 36 56  1  0  0  0
 36109  1  0  0  0
 37 39  1  0  0  0
 37 47  1  0  0  0
 37 66  1  0  0  0
 37110  1  0  0  0
 38 43  2  0  0  0
 38 46  1  0  0  0
 38 47  1  0  0  0
 39 64  1  0  0  0
 39 67  2  0  0  0
 40 52  1  0  0  0
 40 53  2  0  0  0
 40 58  1  0  0  0
 41111  1  0  0  0
 41112  1  0  0  0
 41113  1  0  0  0
 41 48  1  0  0  0
 42 43  1  0  0  0
 42 66  1  0  0  0
 42114  1  0  0  0
 42115  1  0  0  0
 43 44  1  0  0  0
 44116  1  0  0  0
 45 46  2  0  0  0
 45117  1  0  0  0
 46118  1  0  0  0
 47119  1  0  0  0
 47120  1  0  0  0
 48 56  1  0  0  0
 48 65  1  0  0  0
 48121  1  0  0  0
 49 50  1  0  0  0
 49 53  1  0  0  0
 49 64  1  0  0  0
 49122  1  0  0  0
 50 51  1  0  0  0
 50123  1  0  0  0
 50124  1  0  0  0
 51 52  1  0  0  0
 51125  1  0  0  0
 51126  1  0  0  0
 52127  1  0  0  0
 52128  1  0  0  0
 53 54  1  0  0  0
 54 55  2  0  0  0
 54129  1  0  0  0
 55 57  1  0  0  0
 55130  1  0  0  0
 56 69  2  0  0  0
 57 58  2  0  0  0
 57131  1  0  0  0
 58132  1  0  0  0
 59 60  1  0  0  0
 59 61  1  0  0  0
 59 62  1  0  0  0
 60133  1  0  0  0
 60134  1  0  0  0
 60135  1  0  0  0
 61136  1  0  0  0
 61137  1  0  0  0
 61138  1  0  0  0
 62139  1  0  0  0
 62140  1  0  0  0
 62141  1  0  0  0
 63 65  1  0  0  0
 63142  1  0  0  0
 63143  1  0  0  0
 63144  1  0  0  0
 64145  1  0  0  0
 65146  1  0  0  0
 68 83  1  0  0  0
 71 73  2  0  0  0
 71 76  1  0  0  0
 71147  1  0  0  0
 72 75  1  0  0  0
 72 76  2  0  0  0
 72148  1  0  0  0
 73 74  1  0  0  0
 73 80  1  0  0  0
 74 75  2  0  0  0
 74 81  1  0  0  0
 75 84  1  0  0  0
 76 85  1  0  0  0
 77 78  2  0  0  0
 77149  1  0  0  0
 77150  1  0  0  0
 78 81  1  0  0  0
 78151  1  0  0  0
 79 82  1  0  0  0
 79 84  2  0  0  0
 79152  1  0  0  0
 80 86  1  0  0  0
 80 87  2  0  0  0
 81153  1  0  0  0
 81154  1  0  0  0
 82 83  1  0  0  0
 82155  1  0  0  0
 82156  1  0  0  0
 83157  1  0  0  0
 83158  1  0  0  0
 85159  1  0  0  0
 85160  1  0  0  0
 86161  1  0  0  0
M  ISO  4   1 100  68 101  83 101  86 100
M  END
> <chiral flag>
0

> <version>
0

> <s_m_source_file>
/data/baiqing/PycharmProjects/Reinvent-master-3.2/result/LINK_invent/BTK/process_docking_weight1_custom_product_contain_oxygen_bond_distance_aromatic_linkinvent_7_9_3/rearranged_h_0114.sdf

> <i_m_source_file_index>
84

> <r_mmod_Potential_Energy-OPLS-2005>
-79.6597366333008

> <r_mmod_Stretch_Energy-OPLS-2005>
60.2873229980469

> <r_mmod_Bend_Energy-OPLS-2005>
134.439529418945

> <r_mmod_Torsional_Energy-OPLS-2005>
225.004287719727

> <r_mmod_Improper_Torsional_Energy-OPLS-2005>
7.84507656097412

> <r_mmod_Van_der_Waal_Energy-OPLS-2005>
175.856460571289

> <r_mmod_Electrostatic_Energy-OPLS-2005>
-478.930389404297

> <r_mmod_Solvation_Energy-OPLS-2005>
-232.535446166992

> <b_mmod_Minimization_Converged-OPLS-2005>
0

> <r_mmod_RMS_Derivative-OPLS-2005>
2.78021144866943

$$$$
84
                    3D
 Structure written by MMmdl.
150158  0  0  1  0            999 V2000
  -30.5548  -14.9344   20.4896 C   0  0  0  0  0  0
  -30.4484  -12.5862   19.5150 C   0  0  0  0  0  0
  -29.5289  -12.5522   18.2676 C   0  0  0  0  0  0
  -28.0578  -12.3390   18.6704 C   0  0  0  0  0  0
  -27.6391  -13.2469   19.8552 C   0  0  2  0  0  0
  -28.6768  -13.2197   20.9983 C   0  0  0  0  0  0
  -25.2454  -13.8179   20.5652 C   0  0  0  0  0  0
  -24.1779  -13.0412   20.9198 C   0  0  0  0  0  0
  -24.6399  -11.6900   20.8742 C   0  0  0  0  0  0
  -23.9072  -10.4282   21.0404 C   0  0  0  0  0  0
  -24.3625   -9.4193   21.9174 C   0  0  0  0  0  0
  -23.6296   -8.2230   22.0741 C   0  0  0  0  0  0
  -22.4276   -8.0272   21.3532 C   0  0  0  0  0  0
  -21.9920   -9.0247   20.4631 C   0  0  0  0  0  0
  -22.7251  -10.2118   20.3043 C   0  0  0  0  0  0
  -21.6850   -6.0730   22.5275 C   0  0  0  0  0  0
  -21.4016   -6.5637   23.8205 C   0  0  0  0  0  0
  -21.3663   -5.6786   24.9171 C   0  0  0  0  0  0
  -21.6042   -4.3050   24.7225 C   0  0  0  0  0  0
  -21.8822   -3.8143   23.4351 C   0  0  0  0  0  0
  -21.9194   -4.6961   22.3402 C   0  0  0  0  0  0
  -22.7793  -13.5191   21.1885 C   0  0  0  0  0  0
  -22.1656   -4.2150   21.0977 F   0  0  0  0  0  0
  -21.5636   -3.4527   25.7733 F   0  0  0  0  0  0
  -29.9705  -13.6589   20.4433 N   0  0  0  0  0  0
  -26.2916  -12.9429   20.3272 N   0  0  0  0  0  0
  -25.9344  -11.6558   20.5762 N   0  0  0  0  0  0
  -22.0448  -12.8178   22.0453 N   0  0  0  0  0  0
  -25.4039  -15.1888   20.3940 N   0  0  0  0  0  0
  -31.6764  -15.0577   19.9816 O   0  0  0  0  0  0
  -21.6636   -6.8877   21.4234 O   0  0  0  0  0  0
  -22.3446  -14.5483   20.6720 O   0  0  0  0  0  0
  -24.6434  -31.8440   23.1877 C   0  0  0  0  0  0
  -25.9204  -32.4700   23.8268 C   0  0  1  0  0  0
  -27.2266  -27.1407   20.1381 C   0  0  0  0  0  0
  -25.5945  -33.8505   24.2175 N   0  0  0  0  0  0
  -23.4473  -30.4628   21.5343 C   0  0  2  0  0  0
  -24.8969  -28.8916   20.1081 C   0  0  0  0  0  0
  -22.7570  -29.4541   22.4867 C   0  0  0  0  0  0
  -18.0302  -28.1390   22.8495 C   0  0  0  0  0  0
  -24.1492  -36.7269   23.2642 C   0  0  0  0  0  0
  -26.0030  -30.7188   21.3853 C   0  0  0  0  0  0
  -26.0747  -29.3306   20.7255 C   0  0  0  0  0  0
  -27.2368  -28.4710   20.7255 C   0  0  0  0  0  0
  -26.0139  -26.8026   19.4913 C   0  0  0  0  0  0
  -24.8791  -27.6403   19.4788 C   0  0  0  0  0  0
  -23.6721  -29.7917   20.1537 C   0  0  0  0  0  0
  -25.4120  -36.3035   24.0313 C   0  0  1  0  0  0
  -20.5925  -28.3720   23.1245 C   0  0  2  0  0  0
  -20.6797  -26.9420   22.5409 C   0  0  0  0  0  0
  -19.5763  -26.6380   21.5227 C   0  0  0  0  0  0
  -18.1946  -26.7928   22.1643 C   0  0  0  0  0  0
  -19.1560  -28.8874   23.2869 C   0  0  0  0  0  0
  -18.9460  -30.1474   23.8878 C   0  0  0  0  0  0
  -17.6461  -30.6596   24.0557 C   0  0  0  0  0  0
  -25.9065  -34.9415   23.5059 C   0  0  0  0  0  0
  -16.5350  -29.9081   23.6345 C   0  0  0  0  0  0
  -16.7283  -28.6503   23.0360 C   0  0  0  0  0  0
  -26.4514  -31.6565   25.0710 C   0  0  0  0  0  0
  -25.3679  -31.3764   26.1388 C   0  0  0  0  0  0
  -27.0383  -30.2954   24.6296 C   0  0  0  0  0  0
  -27.6027  -32.4345   25.7509 C   0  0  0  0  0  0
  -27.5577  -37.1790   24.8458 C   0  0  0  0  0  0
  -21.4257  -29.3062   22.3629 N   0  0  0  0  0  0
  -26.4289  -37.3746   23.9398 N   0  0  0  0  0  0
  -24.7180  -31.0294   22.0909 N   0  0  0  0  0  0
  -23.4205  -28.8069   23.3010 O   0  0  0  0  0  0
  -28.2841  -26.1586   20.2340 O   0  0  0  0  0  0
  -26.5668  -34.8918   22.4651 O   0  0  0  0  0  0
  -23.5546  -32.1330   23.7082 O   0  0  0  0  0  0
  -28.5126  -23.4883   20.1568 C   0  0  0  0  0  0
  -30.4334  -18.7400   20.2534 C   0  0  0  0  0  0
  -30.1533  -20.1743   20.0865 C   0  0  0  0  0  0
  -28.0547  -19.8486   21.0514 C   0  0  0  0  0  0
  -29.5452  -17.7594   20.8454 C   0  0  0  0  0  0
  -28.3086  -18.4267   21.2262 C   0  0  0  0  0  0
  -28.9332  -20.8241   20.4959 C   0  0  0  0  0  0
  -26.2485  -18.1474   22.6799 C   0  0  0  0  0  0
  -28.1670  -24.7708   19.7739 C   0  0  0  0  0  0
  -27.2301  -17.6604   21.8980 C   0  0  0  0  0  0
  -29.8748  -16.2133   21.2982 C   0  0  0  0  0  0
  -29.6169  -15.9579   22.5141 N   0  0  0  0  0  0
  -28.4367  -22.2403   20.3765 N   0  0  0  0  0  0
  -31.4822  -12.7426   19.2033 H   0  0  0  0  0  0
  -30.4471  -11.6183   20.0178 H   0  0  0  0  0  0
  -29.8500  -11.7620   17.5865 H   0  0  0  0  0  0
  -29.6248  -13.4904   17.7181 H   0  0  0  0  0  0
  -27.9424  -11.2923   18.9530 H   0  0  0  0  0  0
  -27.3993  -12.4973   17.8156 H   0  0  0  0  0  0
  -27.6197  -14.2653   19.4643 H   0  0  0  0  0  0
  -28.7609  -12.2173   21.4188 H   0  0  0  0  0  0
  -28.3462  -13.8499   21.8210 H   0  0  0  0  0  0
  -25.2770   -9.5664   22.4753 H   0  0  0  0  0  0
  -24.0005   -7.4621   22.7467 H   0  0  0  0  0  0
  -21.0850   -8.8758   19.8940 H   0  0  0  0  0  0
  -22.3709  -10.9653   19.6152 H   0  0  0  0  0  0
  -21.1993   -7.6146   23.9711 H   0  0  0  0  0  0
  -21.1484   -6.0514   25.9072 H   0  0  0  0  0  0
  -22.0601   -2.7611   23.2836 H   0  0  0  0  0  0
  -22.4077  -11.9857   22.4866 H   0  0  0  0  0  0
  -21.1039  -13.1136   22.2631 H   0  0  0  0  0  0
  -24.6345  -15.8371   20.5205 H   0  0  0  0  0  0
  -26.2417  -15.6314   20.0411 H   0  0  0  0  0  0
  -26.7277  -32.5302   23.1000 H   0  0  0  0  0  0
  -25.0021  -33.9618   25.0271 H   0  0  0  0  0  0
  -22.7500  -31.2890   21.3810 H   0  0  0  0  0  0
  -23.3761  -35.9600   23.3286 H   0  0  0  0  0  0
  -24.3562  -36.8916   22.2057 H   0  0  0  0  0  0
  -23.7258  -37.6461   23.6698 H   0  0  0  0  0  0
  -26.1561  -31.4752   20.6140 H   0  0  0  0  0  0
  -26.8738  -30.7682   22.0273 H   0  0  0  0  0  0
  -28.1337  -28.8042   21.2278 H   0  0  0  0  0  0
  -25.8852  -25.8415   19.0190 H   0  0  0  0  0  0
  -23.9797  -27.2944   18.9892 H   0  0  0  0  0  0
  -23.8002  -30.5659   19.3960 H   0  0  0  0  0  0
  -22.7868  -29.2315   19.8492 H   0  0  0  0  0  0
  -25.1317  -36.1856   25.0811 H   0  0  0  0  0  0
  -21.0027  -28.3294   24.1360 H   0  0  0  0  0  0
  -20.5697  -26.2320   23.3618 H   0  0  0  0  0  0
  -21.6656  -26.7422   22.1191 H   0  0  0  0  0  0
  -19.6925  -25.6280   21.1272 H   0  0  0  0  0  0
  -19.6700  -27.3180   20.6743 H   0  0  0  0  0  0
  -17.4215  -26.6676   21.4041 H   0  0  0  0  0  0
  -18.0338  -26.0056   22.9024 H   0  0  0  0  0  0
  -19.7924  -30.7319   24.2216 H   0  0  0  0  0  0
  -17.4995  -31.6261   24.5168 H   0  0  0  0  0  0
  -15.5344  -30.2975   23.7678 H   0  0  0  0  0  0
  -15.8681  -28.0816   22.7082 H   0  0  0  0  0  0
  -24.5860  -30.7118   25.7691 H   0  0  0  0  0  0
  -24.8872  -32.2958   26.4745 H   0  0  0  0  0  0
  -25.7938  -30.8965   27.0205 H   0  0  0  0  0  0
  -26.3008  -29.6677   24.1280 H   0  0  0  0  0  0
  -27.3954  -29.7253   25.4880 H   0  0  0  0  0  0
  -27.8930  -30.4176   23.9642 H   0  0  0  0  0  0
  -27.2594  -33.3651   26.2044 H   0  0  0  0  0  0
  -28.3869  -32.6900   25.0372 H   0  0  0  0  0  0
  -28.0669  -31.8504   26.5461 H   0  0  0  0  0  0
  -28.2585  -38.0090   24.7499 H   0  0  0  0  0  0
  -28.1086  -36.2625   24.6305 H   0  0  0  0  0  0
  -27.2289  -37.1449   25.8855 H   0  0  0  0  0  0
  -20.9447  -29.8752   21.6801 H   0  0  0  0  0  0
  -26.0157  -38.2818   24.1392 H   0  0  0  0  0  0
  -31.4083  -18.3891   19.9459 H   0  0  0  0  0  0
  -30.9197  -20.7842   19.6261 H   0  0  0  0  0  0
  -27.0975  -20.2402   21.3583 H   0  0  0  0  0  0
  -26.1470  -19.1939   22.9266 H   0  0  0  0  0  0
  -25.5121  -17.4767   23.0996 H   0  0  0  0  0  0
  -27.6916  -24.8178   18.8060 H   0  0  0  0  0  0
  -27.2136  -16.5943   21.7301 H   0  0  0  0  0  0
  -29.2246  -16.7694   22.9766 H   0  0  0  0  0  0
  1 25  1  0  0  0
  1 30  2  0  0  0
  1 81  1  0  0  0
  2  3  1  0  0  0
  2 25  1  0  0  0
  2 84  1  0  0  0
  2 85  1  0  0  0
  3  4  1  0  0  0
  3 86  1  0  0  0
  3 87  1  0  0  0
  4  5  1  0  0  0
  4 88  1  0  0  0
  4 89  1  0  0  0
  5  6  1  0  0  0
  5 26  1  0  0  0
  5 90  1  0  0  0
  6 25  1  0  0  0
  6 91  1  0  0  0
  6 92  1  0  0  0
  7  8  2  0  0  0
  7 26  1  0  0  0
  7 29  1  0  0  0
  8  9  1  0  0  0
  8 22  1  0  0  0
  9 10  1  0  0  0
  9 27  2  0  0  0
 10 11  2  0  0  0
 10 15  1  0  0  0
 11 12  1  0  0  0
 11 93  1  0  0  0
 12 13  2  0  0  0
 12 94  1  0  0  0
 13 14  1  0  0  0
 13 31  1  0  0  0
 14 15  2  0  0  0
 14 95  1  0  0  0
 15 96  1  0  0  0
 16 17  2  0  0  0
 16 21  1  0  0  0
 16 31  1  0  0  0
 17 18  1  0  0  0
 17 97  1  0  0  0
 18 19  2  0  0  0
 18 98  1  0  0  0
 19 20  1  0  0  0
 19 24  1  0  0  0
 20 21  2  0  0  0
 20 99  1  0  0  0
 21 23  1  0  0  0
 22 28  1  0  0  0
 22 32  2  0  0  0
 26 27  1  0  0  0
 28100  1  0  0  0
 28101  1  0  0  0
 29102  1  0  0  0
 29103  1  0  0  0
 33 34  1  0  0  0
 33 66  1  0  0  0
 33 70  2  0  0  0
 34 36  1  0  0  0
 34 59  1  0  0  0
 34104  1  0  0  0
 35 44  2  0  0  0
 35 45  1  0  0  0
 35 68  1  0  0  0
 36 56  1  0  0  0
 36105  1  0  0  0
 37 39  1  0  0  0
 37 47  1  0  0  0
 37 66  1  0  0  0
 37106  1  0  0  0
 38 43  2  0  0  0
 38 46  1  0  0  0
 38 47  1  0  0  0
 39 64  1  0  0  0
 39 67  2  0  0  0
 40 52  1  0  0  0
 40 53  2  0  0  0
 40 58  1  0  0  0
 41107  1  0  0  0
 41108  1  0  0  0
 41109  1  0  0  0
 41 48  1  0  0  0
 42 43  1  0  0  0
 42 66  1  0  0  0
 42110  1  0  0  0
 42111  1  0  0  0
 43 44  1  0  0  0
 44112  1  0  0  0
 45 46  2  0  0  0
 45113  1  0  0  0
 46114  1  0  0  0
 47115  1  0  0  0
 47116  1  0  0  0
 48 56  1  0  0  0
 48 65  1  0  0  0
 48117  1  0  0  0
 49 50  1  0  0  0
 49 53  1  0  0  0
 49 64  1  0  0  0
 49118  1  0  0  0
 50 51  1  0  0  0
 50119  1  0  0  0
 50120  1  0  0  0
 51 52  1  0  0  0
 51121  1  0  0  0
 51122  1  0  0  0
 52123  1  0  0  0
 52124  1  0  0  0
 53 54  1  0  0  0
 54 55  2  0  0  0
 54125  1  0  0  0
 55 57  1  0  0  0
 55126  1  0  0  0
 56 69  2  0  0  0
 57 58  2  0  0  0
 57127  1  0  0  0
 58128  1  0  0  0
 59 60  1  0  0  0
 59 61  1  0  0  0
 59 62  1  0  0  0
 60129  1  0  0  0
 60130  1  0  0  0
 60131  1  0  0  0
 61132  1  0  0  0
 61133  1  0  0  0
 61134  1  0  0  0
 62135  1  0  0  0
 62136  1  0  0  0
 62137  1  0  0  0
 63 65  1  0  0  0
 63138  1  0  0  0
 63139  1  0  0  0
 63140  1  0  0  0
 64141  1  0  0  0
 65142  1  0  0  0
 68 79  1  0  0  0
 71 79  2  0  0  0
 71 83  2  0  0  0
 72 73  2  0  0  0
 72 75  1  0  0  0
 72143  1  0  0  0
 73 77  1  0  0  0
 73144  1  0  0  0
 74 76  1  0  0  0
 74 77  2  0  0  0
 74145  1  0  0  0
 75 76  2  0  0  0
 75 81  1  0  0  0
 76 80  1  0  0  0
 77 83  1  0  0  0
 78 80  2  0  0  0
 78146  1  0  0  0
 78147  1  0  0  0
 79148  1  0  0  0
 80149  1  0  0  0
 81 82  2  0  0  0
 82150  1  0  0  0
M  ISO  4   1 100  68 101  79 101  81 100
M  END
> <chiral flag>
0

> <version>
0

> <s_m_source_file>
/data/baiqing/PycharmProjects/Reinvent-master-3.2/result/LINK_invent/BTK/process_docking_weight1_custom_product_contain_oxygen_bond_distance_aromatic_linkinvent_7_9_3/rearranged_h_0114.sdf

> <i_m_source_file_index>
85

> <r_mmod_Potential_Energy-OPLS-2005>
654.748840332031

> <r_mmod_Stretch_Energy-OPLS-2005>
242.594436645508

> <r_mmod_Bend_Energy-OPLS-2005>
304.682891845703

> <r_mmod_Torsional_Energy-OPLS-2005>
176.149139404297

> <r_mmod_Improper_Torsional_Energy-OPLS-2005>
5.10598993301392

> <r_mmod_Van_der_Waal_Energy-OPLS-2005>
148.106704711914

> <r_mmod_Electrostatic_Energy-OPLS-2005>
-215.558868408203

> <r_mmod_Solvation_Energy-OPLS-2005>
-189.29182434082

> <b_mmod_Minimization_Converged-OPLS-2005>
0

> <r_mmod_RMS_Derivative-OPLS-2005>
2.30558967590332

$$$$
85
                    3D
 Structure written by MMmdl.
153161  0  0  1  0            999 V2000
  -30.5266  -14.9031   20.4399 C   0  0  0  0  0  0
  -30.4470  -12.5548   19.5000 C   0  0  0  0  0  0
  -29.5229  -12.5138   18.2585 C   0  0  0  0  0  0
  -28.0543  -12.3102   18.6755 C   0  0  0  0  0  0
  -27.6344  -13.2363   19.8451 C   0  0  2  0  0  0
  -28.6741  -13.2284   20.9851 C   0  0  0  0  0  0
  -25.2515  -13.8202   20.5743 C   0  0  0  0  0  0
  -24.1804  -13.0433   20.9251 C   0  0  0  0  0  0
  -24.6390  -11.6911   20.8773 C   0  0  0  0  0  0
  -23.9065  -10.4281   21.0434 C   0  0  0  0  0  0
  -24.3611   -9.4201   21.9205 C   0  0  0  0  0  0
  -23.6288   -8.2244   22.0757 C   0  0  0  0  0  0
  -22.4260   -8.0301   21.3560 C   0  0  0  0  0  0
  -21.9906   -9.0278   20.4672 C   0  0  0  0  0  0
  -22.7232  -10.2156   20.3091 C   0  0  0  0  0  0
  -21.6855   -6.0754   22.5288 C   0  0  0  0  0  0
  -21.4019   -6.5658   23.8225 C   0  0  0  0  0  0
  -21.3643   -5.6804   24.9177 C   0  0  0  0  0  0
  -21.6035   -4.3070   24.7216 C   0  0  0  0  0  0
  -21.8809   -3.8163   23.4330 C   0  0  0  0  0  0
  -21.9189   -4.6988   22.3396 C   0  0  0  0  0  0
  -22.7839  -13.5245   21.1868 C   0  0  0  0  0  0
  -22.1671   -4.2180   21.0968 F   0  0  0  0  0  0
  -21.5595   -3.4532   25.7712 F   0  0  0  0  0  0
  -29.9598  -13.6351   20.4005 N   0  0  0  0  0  0
  -26.2903  -12.9394   20.3270 N   0  0  0  0  0  0
  -25.9311  -11.6531   20.5741 N   0  0  0  0  0  0
  -22.0462  -12.8284   22.0437 N   0  0  0  0  0  0
  -25.4186  -15.1931   20.4141 N   0  0  0  0  0  0
  -31.7248  -14.9997   20.1615 O   0  0  0  0  0  0
  -21.6635   -6.8903   21.4259 O   0  0  0  0  0  0
  -22.3548  -14.5544   20.6686 O   0  0  0  0  0  0
  -24.6377  -31.8478   23.1890 C   0  0  0  0  0  0
  -25.9171  -32.4716   23.8276 C   0  0  1  0  0  0
  -27.2332  -27.1779   20.1553 C   0  0  0  0  0  0
  -25.5928  -33.8515   24.2197 N   0  0  0  0  0  0
  -23.4404  -30.4618   21.5355 C   0  0  2  0  0  0
  -24.8934  -28.8882   20.1181 C   0  0  0  0  0  0
  -22.7561  -29.4540   22.4905 C   0  0  0  0  0  0
  -18.0305  -28.1401   22.8487 C   0  0  0  0  0  0
  -24.1494  -36.7264   23.2632 C   0  0  0  0  0  0
  -25.9906  -30.7373   21.3780 C   0  0  0  0  0  0
  -26.0688  -29.3478   20.7263 C   0  0  0  0  0  0
  -27.2416  -28.5105   20.7220 C   0  0  0  0  0  0
  -26.0289  -26.7980   19.5256 C   0  0  0  0  0  0
  -24.8834  -27.6252   19.5028 C   0  0  0  0  0  0
  -23.6662  -29.7849   20.1570 C   0  0  0  0  0  0
  -25.4126  -36.3035   24.0306 C   0  0  1  0  0  0
  -20.5915  -28.3715   23.1273 C   0  0  2  0  0  0
  -20.6798  -26.9427   22.5418 C   0  0  0  0  0  0
  -19.5779  -26.6383   21.5220 C   0  0  0  0  0  0
  -18.1955  -26.7941   22.1624 C   0  0  0  0  0  0
  -19.1562  -28.8883   23.2865 C   0  0  0  0  0  0
  -18.9469  -30.1475   23.8893 C   0  0  0  0  0  0
  -17.6464  -30.6596   24.0562 C   0  0  0  0  0  0
  -25.9071  -34.9410   23.5064 C   0  0  0  0  0  0
  -16.5358  -29.9086   23.6324 C   0  0  0  0  0  0
  -16.7288  -28.6501   23.0359 C   0  0  0  0  0  0
  -26.4519  -31.6571   25.0701 C   0  0  0  0  0  0
  -25.3704  -31.3752   26.1405 C   0  0  0  0  0  0
  -27.0351  -30.2969   24.6209 C   0  0  0  0  0  0
  -27.6064  -32.4331   25.7475 C   0  0  0  0  0  0
  -27.5581  -37.1781   24.8462 C   0  0  0  0  0  0
  -21.4261  -29.3032   22.3646 N   0  0  0  0  0  0
  -26.4290  -37.3747   23.9409 N   0  0  0  0  0  0
  -24.7085  -31.0370   22.0897 N   0  0  0  0  0  0
  -23.4230  -28.8104   23.3050 O   0  0  0  0  0  0
  -28.3279  -26.2524   20.1374 O   0  0  0  0  0  0
  -26.5654  -34.8904   22.4646 O   0  0  0  0  0  0
  -23.5510  -32.1321   23.7150 O   0  0  0  0  0  0
  -28.4301  -18.1555   20.5653 C   0  0  0  0  0  0
  -30.5329  -19.8496   20.4353 C   0  0  0  0  0  0
  -30.7695  -18.4795   20.4062 C   0  0  0  0  0  0
  -29.6422  -17.5107   20.5114 C   0  0  0  0  0  0
  -28.1788  -19.6466   20.5545 C   0  0  0  0  0  0
  -32.1983  -17.9943   20.2866 C   0  0  0  0  0  0
  -28.7463  -23.3697   19.9998 C   0  0  0  0  0  0
  -29.1235  -22.0320   20.9301 C   0  0  0  0  0  0
  -28.2125  -24.8108   20.6733 C   0  0  0  0  0  0
  -29.2573  -20.5065   20.5224 N   0  0  0  0  0  0
  -29.6526  -16.0076   20.5949 N   0  0  0  0  0  0
  -27.0301  -20.0976   20.6189 O   0  0  0  0  0  0
  -31.4779  -12.7257   19.1872 H   0  0  0  0  0  0
  -30.4478  -11.5958   20.0207 H   0  0  0  0  0  0
  -29.8254  -11.7140   17.5805 H   0  0  0  0  0  0
  -29.6267  -13.4408   17.6944 H   0  0  0  0  0  0
  -27.9428  -11.2669   18.9793 H   0  0  0  0  0  0
  -27.3912  -12.4497   17.8211 H   0  0  0  0  0  0
  -27.6046  -14.2434   19.4290 H   0  0  0  0  0  0
  -28.7497  -12.2372   21.4323 H   0  0  0  0  0  0
  -28.3752  -13.9090   21.7852 H   0  0  0  0  0  0
  -25.2748   -9.5653   22.4795 H   0  0  0  0  0  0
  -23.9981   -7.4616   22.7454 H   0  0  0  0  0  0
  -21.0829   -8.8810   19.8985 H   0  0  0  0  0  0
  -22.3688  -10.9711   19.6222 H   0  0  0  0  0  0
  -21.2050   -7.6170   23.9742 H   0  0  0  0  0  0
  -21.1466   -6.0529   25.9082 H   0  0  0  0  0  0
  -22.0598   -2.7627   23.2819 H   0  0  0  0  0  0
  -22.4048  -11.9962   22.4880 H   0  0  0  0  0  0
  -21.1099  -13.1378   22.2620 H   0  0  0  0  0  0
  -24.6353  -15.8305   20.5055 H   0  0  0  0  0  0
  -26.2238  -15.6170   19.9723 H   0  0  0  0  0  0
  -26.7252  -32.5351   23.1021 H   0  0  0  0  0  0
  -25.0060  -33.9668   25.0327 H   0  0  0  0  0  0
  -22.7374  -31.2816   21.3796 H   0  0  0  0  0  0
  -23.3752  -35.9602   23.3283 H   0  0  0  0  0  0
  -24.3560  -36.8909   22.2048 H   0  0  0  0  0  0
  -23.7257  -37.6456   23.6681 H   0  0  0  0  0  0
  -26.1314  -31.4945   20.6058 H   0  0  0  0  0  0
  -26.8652  -30.7962   22.0129 H   0  0  0  0  0  0
  -28.1449  -28.8648   21.1984 H   0  0  0  0  0  0
  -25.9654  -25.8285   19.0509 H   0  0  0  0  0  0
  -23.9848  -27.2717   19.0155 H   0  0  0  0  0  0
  -23.7966  -30.5549   19.3957 H   0  0  0  0  0  0
  -22.7839  -29.2209   19.8497 H   0  0  0  0  0  0
  -25.1310  -36.1856   25.0795 H   0  0  0  0  0  0
  -20.9981  -28.3288   24.1407 H   0  0  0  0  0  0
  -20.5714  -26.2320   23.3626 H   0  0  0  0  0  0
  -21.6665  -26.7457   22.1200 H   0  0  0  0  0  0
  -19.6939  -25.6281   21.1283 H   0  0  0  0  0  0
  -19.6716  -27.3172   20.6736 H   0  0  0  0  0  0
  -17.4221  -26.6680   21.4028 H   0  0  0  0  0  0
  -18.0347  -26.0089   22.9029 H   0  0  0  0  0  0
  -19.7941  -30.7289   24.2271 H   0  0  0  0  0  0
  -17.5010  -31.6278   24.5160 H   0  0  0  0  0  0
  -15.5358  -30.2984   23.7638 H   0  0  0  0  0  0
  -15.8694  -28.0794   22.7104 H   0  0  0  0  0  0
  -24.5867  -30.7132   25.7694 H   0  0  0  0  0  0
  -24.8929  -32.2954   26.4804 H   0  0  0  0  0  0
  -25.7995  -30.8912   27.0193 H   0  0  0  0  0  0
  -26.2928  -29.6727   24.1221 H   0  0  0  0  0  0
  -27.3996  -29.7236   25.4745 H   0  0  0  0  0  0
  -27.8838  -30.4226   23.9473 H   0  0  0  0  0  0
  -27.2661  -33.3645   26.2028 H   0  0  0  0  0  0
  -28.3888  -32.6881   25.0301 H   0  0  0  0  0  0
  -28.0725  -31.8467   26.5415 H   0  0  0  0  0  0
  -28.2587  -38.0086   24.7500 H   0  0  0  0  0  0
  -28.1090  -36.2615   24.6295 H   0  0  0  0  0  0
  -27.2302  -37.1431   25.8865 H   0  0  0  0  0  0
  -20.9486  -29.8701   21.6774 H   0  0  0  0  0  0
  -26.0152  -38.2811   24.1417 H   0  0  0  0  0  0
  -27.5433  -17.5486   20.6478 H   0  0  0  0  0  0
  -31.3498  -20.5574   20.3913 H   0  0  0  0  0  0
  -32.4999  -17.4746   21.1971 H   0  0  0  0  0  0
  -32.8973  -18.8128   20.1133 H   0  0  0  0  0  0
  -32.2966  -17.3136   19.4408 H   0  0  0  0  0  0
  -27.9977  -23.0647   19.2697 H   0  0  0  0  0  0
  -29.6336  -23.5978   19.4082 H   0  0  0  0  0  0
  -28.4120  -22.0418   21.7542 H   0  0  0  0  0  0
  -30.0635  -22.2798   21.4272 H   0  0  0  0  0  0
  -28.7218  -24.8797   21.6345 H   0  0  0  0  0  0
  -27.1723  -24.6566   20.9559 H   0  0  0  0  0  0
  -28.7280  -15.6498   20.7791 H   0  0  0  0  0  0
  1 25  1  0  0  0
  1 30  2  0  0  0
  1 81  1  0  0  0
  2  3  1  0  0  0
  2 25  1  0  0  0
  2 83  1  0  0  0
  2 84  1  0  0  0
  3  4  1  0  0  0
  3 85  1  0  0  0
  3 86  1  0  0  0
  4  5  1  0  0  0
  4 87  1  0  0  0
  4 88  1  0  0  0
  5  6  1  0  0  0
  5 26  1  0  0  0
  5 89  1  0  0  0
  6 25  1  0  0  0
  6 90  1  0  0  0
  6 91  1  0  0  0
  7  8  2  0  0  0
  7 26  1  0  0  0
  7 29  1  0  0  0
  8  9  1  0  0  0
  8 22  1  0  0  0
  9 10  1  0  0  0
  9 27  2  0  0  0
 10 11  2  0  0  0
 10 15  1  0  0  0
 11 12  1  0  0  0
 11 92  1  0  0  0
 12 13  2  0  0  0
 12 93  1  0  0  0
 13 14  1  0  0  0
 13 31  1  0  0  0
 14 15  2  0  0  0
 14 94  1  0  0  0
 15 95  1  0  0  0
 16 17  2  0  0  0
 16 21  1  0  0  0
 16 31  1  0  0  0
 17 18  1  0  0  0
 17 96  1  0  0  0
 18 19  2  0  0  0
 18 97  1  0  0  0
 19 20  1  0  0  0
 19 24  1  0  0  0
 20 21  2  0  0  0
 20 98  1  0  0  0
 21 23  1  0  0  0
 22 28  1  0  0  0
 22 32  2  0  0  0
 26 27  1  0  0  0
 28 99  1  0  0  0
 28100  1  0  0  0
 29101  1  0  0  0
 29102  1  0  0  0
 33 34  1  0  0  0
 33 66  1  0  0  0
 33 70  2  0  0  0
 34 36  1  0  0  0
 34 59  1  0  0  0
 34103  1  0  0  0
 35 44  2  0  0  0
 35 45  1  0  0  0
 35 68  1  0  0  0
 36 56  1  0  0  0
 36104  1  0  0  0
 37 39  1  0  0  0
 37 47  1  0  0  0
 37 66  1  0  0  0
 37105  1  0  0  0
 38 43  2  0  0  0
 38 46  1  0  0  0
 38 47  1  0  0  0
 39 64  1  0  0  0
 39 67  2  0  0  0
 40 52  1  0  0  0
 40 53  2  0  0  0
 40 58  1  0  0  0
 41106  1  0  0  0
 41107  1  0  0  0
 41108  1  0  0  0
 41 48  1  0  0  0
 42 43  1  0  0  0
 42 66  1  0  0  0
 42109  1  0  0  0
 42110  1  0  0  0
 43 44  1  0  0  0
 44111  1  0  0  0
 45 46  2  0  0  0
 45112  1  0  0  0
 46113  1  0  0  0
 47114  1  0  0  0
 47115  1  0  0  0
 48 56  1  0  0  0
 48 65  1  0  0  0
 48116  1  0  0  0
 49 50  1  0  0  0
 49 53  1  0  0  0
 49 64  1  0  0  0
 49117  1  0  0  0
 50 51  1  0  0  0
 50118  1  0  0  0
 50119  1  0  0  0
 51 52  1  0  0  0
 51120  1  0  0  0
 51121  1  0  0  0
 52122  1  0  0  0
 52123  1  0  0  0
 53 54  1  0  0  0
 54 55  2  0  0  0
 54124  1  0  0  0
 55 57  1  0  0  0
 55125  1  0  0  0
 56 69  2  0  0  0
 57 58  2  0  0  0
 57126  1  0  0  0
 58127  1  0  0  0
 59 60  1  0  0  0
 59 61  1  0  0  0
 59 62  1  0  0  0
 60128  1  0  0  0
 60129  1  0  0  0
 60130  1  0  0  0
 61131  1  0  0  0
 61132  1  0  0  0
 61133  1  0  0  0
 62134  1  0  0  0
 62135  1  0  0  0
 62136  1  0  0  0
 63 65  1  0  0  0
 63137  1  0  0  0
 63138  1  0  0  0
 63139  1  0  0  0
 64140  1  0  0  0
 65141  1  0  0  0
 68 79  1  0  0  0
 71 74  2  0  0  0
 71 75  1  0  0  0
 71142  1  0  0  0
 72 73  2  0  0  0
 72 80  1  0  0  0
 72143  1  0  0  0
 73 74  1  0  0  0
 73 76  1  0  0  0
 74 81  1  0  0  0
 75 80  1  0  0  0
 75 82  2  0  0  0
 76144  1  0  0  0
 76145  1  0  0  0
 76146  1  0  0  0
 77 78  1  0  0  0
 77 79  1  0  0  0
 77147  1  0  0  0
 77148  1  0  0  0
 78 80  1  0  0  0
 78149  1  0  0  0
 78150  1  0  0  0
 79151  1  0  0  0
 79152  1  0  0  0
 81153  1  0  0  0
M  ISO  4   1 100  68 101  79 101  81 100
M  END
> <chiral flag>
0

> <version>
0

> <s_m_source_file>
/data/baiqing/PycharmProjects/Reinvent-master-3.2/result/LINK_invent/BTK/process_docking_weight1_custom_product_contain_oxygen_bond_distance_aromatic_linkinvent_7_9_3/rearranged_h_0114.sdf

> <i_m_source_file_index>
86

> <r_mmod_Potential_Energy-OPLS-2005>
454.206970214844

> <r_mmod_Stretch_Energy-OPLS-2005>
219.811798095703

> <r_mmod_Bend_Energy-OPLS-2005>
281.859466552734

> <r_mmod_Torsional_Energy-OPLS-2005>
240.218185424805

> <r_mmod_Improper_Torsional_Energy-OPLS-2005>
5.85184574127197

> <r_mmod_Van_der_Waal_Energy-OPLS-2005>
136.193923950195

> <r_mmod_Electrostatic_Energy-OPLS-2005>
-368.045684814453

> <r_mmod_Solvation_Energy-OPLS-2005>
-215.665267944336

> <b_mmod_Minimization_Converged-OPLS-2005>
0

> <r_mmod_RMS_Derivative-OPLS-2005>
3.67532730102539

$$$$
86
                    3D
 Structure written by MMmdl.
161169  0  0  1  0            999 V2000
  -30.6926  -14.6732   20.4528 C   0  0  0  0  0  0
  -30.4101  -12.4090   19.4742 C   0  0  0  0  0  0
  -29.5000  -12.4906   18.2331 C   0  0  0  0  0  0
  -28.0254  -12.3355   18.6480 C   0  0  0  0  0  0
  -27.6399  -13.2384   19.8515 C   0  0  2  0  0  0
  -28.6865  -13.1833   20.9863 C   0  0  0  0  0  0
  -25.2494  -13.8224   20.5724 C   0  0  0  0  0  0
  -24.1794  -13.0454   20.9231 C   0  0  0  0  0  0
  -24.6397  -11.6938   20.8766 C   0  0  0  0  0  0
  -23.9080  -10.4304   21.0413 C   0  0  0  0  0  0
  -24.3623   -9.4213   21.9189 C   0  0  0  0  0  0
  -23.6296   -8.2243   22.0749 C   0  0  0  0  0  0
  -22.4278   -8.0283   21.3543 C   0  0  0  0  0  0
  -21.9921   -9.0263   20.4644 C   0  0  0  0  0  0
  -22.7254  -10.2143   20.3060 C   0  0  0  0  0  0
  -21.6857   -6.0737   22.5276 C   0  0  0  0  0  0
  -21.4015   -6.5638   23.8212 C   0  0  0  0  0  0
  -21.3659   -5.6790   24.9173 C   0  0  0  0  0  0
  -21.6046   -4.3051   24.7224 C   0  0  0  0  0  0
  -21.8820   -3.8147   23.4344 C   0  0  0  0  0  0
  -21.9196   -4.6966   22.3400 C   0  0  0  0  0  0
  -22.7812  -13.5219   21.1883 C   0  0  0  0  0  0
  -22.1663   -4.2152   21.0977 F   0  0  0  0  0  0
  -21.5632   -3.4536   25.7737 F   0  0  0  0  0  0
  -29.9923  -13.4922   20.3942 N   0  0  0  0  0  0
  -26.2932  -12.9449   20.3322 N   0  0  0  0  0  0
  -25.9331  -11.6584   20.5786 N   0  0  0  0  0  0
  -22.0455  -12.8205   22.0434 N   0  0  0  0  0  0
  -25.4185  -15.1947   20.4121 N   0  0  0  0  0  0
  -31.8921  -14.6414   20.1698 O   0  0  0  0  0  0
  -21.6642   -6.8881   21.4238 O   0  0  0  0  0  0
  -22.3495  -14.5523   20.6726 O   0  0  0  0  0  0
  -24.6270  -31.8584   23.2022 C   0  0  0  0  0  0
  -25.9120  -32.4764   23.8346 C   0  0  1  0  0  0
  -27.2136  -27.3089   20.1280 C   0  0  0  0  0  0
  -25.5943  -33.8565   24.2283 N   0  0  0  0  0  0
  -23.4208  -30.4830   21.5434 C   0  0  2  0  0  0
  -24.8688  -28.9383   20.1079 C   0  0  0  0  0  0
  -22.7471  -29.4620   22.4913 C   0  0  0  0  0  0
  -18.0284  -28.1381   22.8481 C   0  0  0  0  0  0
  -24.1489  -36.7275   23.2637 C   0  0  0  0  0  0
  -25.9624  -30.7882   21.3744 C   0  0  0  0  0  0
  -26.0379  -29.4149   20.7166 C   0  0  0  0  0  0
  -27.2184  -28.6117   20.7167 C   0  0  0  0  0  0
  -26.0308  -26.8905   19.4853 C   0  0  0  0  0  0
  -24.8674  -27.6821   19.4810 C   0  0  0  0  0  0
  -23.6375  -29.8191   20.1579 C   0  0  0  0  0  0
  -25.4107  -36.3064   24.0334 C   0  0  1  0  0  0
  -20.5885  -28.3689   23.1270 C   0  0  2  0  0  0
  -20.6769  -26.9409   22.5404 C   0  0  0  0  0  0
  -19.5750  -26.6385   21.5199 C   0  0  0  0  0  0
  -18.1929  -26.7925   22.1612 C   0  0  0  0  0  0
  -19.1538  -28.8850   23.2873 C   0  0  0  0  0  0
  -18.9464  -30.1451   23.8892 C   0  0  0  0  0  0
  -17.6466  -30.6585   24.0559 C   0  0  0  0  0  0
  -25.9048  -34.9441   23.5102 C   0  0  0  0  0  0
  -16.5353  -29.9082   23.6334 C   0  0  0  0  0  0
  -16.7271  -28.6498   23.0352 C   0  0  0  0  0  0
  -26.4512  -31.6567   25.0714 C   0  0  0  0  0  0
  -25.3757  -31.3714   26.1450 C   0  0  0  0  0  0
  -27.0351  -30.2984   24.6176 C   0  0  0  0  0  0
  -27.6070  -32.4298   25.7487 C   0  0  0  0  0  0
  -27.5573  -37.1783   24.8463 C   0  0  0  0  0  0
  -21.4184  -29.3045   22.3659 N   0  0  0  0  0  0
  -26.4278  -37.3763   23.9420 N   0  0  0  0  0  0
  -24.6884  -31.0598   22.0969 N   0  0  0  0  0  0
  -23.4185  -28.8154   23.2994 O   0  0  0  0  0  0
  -28.2880  -26.4098   20.1698 O   0  0  0  0  0  0
  -26.5608  -34.8912   22.4663 O   0  0  0  0  0  0
  -23.5434  -32.1382   23.7355 O   0  0  0  0  0  0
  -29.4552  -20.8086   19.5687 C   0  0  0  0  0  0
  -28.6274  -20.2843   21.7485 C   0  0  0  0  0  0
  -29.8895  -19.4463   19.4031 C   0  0  0  0  0  0
  -29.7468  -18.4733   20.4582 C   0  0  0  0  0  0
  -28.8382  -21.2803   20.7550 C   0  0  0  0  0  0
  -29.0637  -18.9272   21.6199 C   0  0  0  0  0  0
  -31.1176  -19.9071   17.2430 C   0  0  0  0  0  0
  -31.7486  -17.0170   24.1529 C   0  0  0  0  0  0
  -30.5474  -19.0715   18.1286 C   0  0  0  0  0  0
  -30.4082  -17.0787   24.1817 C   0  0  0  0  0  0
  -28.5909  -23.7418   20.3653 C   0  0  0  0  0  0
  -30.5564  -17.1443   20.4516 C   0  0  0  0  0  0
  -29.5933  -18.3057   23.8335 C   0  0  0  0  0  0
  -28.0067  -25.1276   20.8717 C   0  0  0  0  0  0
  -28.3961  -22.6295   21.0250 N   0  0  0  0  0  0
  -30.0127  -15.8754   20.5918 N   0  0  0  0  0  0
  -31.7723  -17.3169   20.3013 O   0  0  0  0  0  0
  -28.8456  -18.0486   22.6520 O   0  0  0  0  0  0
  -31.4563  -12.4819   19.1705 H   0  0  0  0  0  0
  -30.3141  -11.4380   19.9628 H   0  0  0  0  0  0
  -29.7688  -11.7152   17.5138 H   0  0  0  0  0  0
  -29.6486  -13.4452   17.7252 H   0  0  0  0  0  0
  -27.8713  -11.2876   18.9084 H   0  0  0  0  0  0
  -27.3692  -12.5368   17.8008 H   0  0  0  0  0  0
  -27.6339  -14.2590   19.4681 H   0  0  0  0  0  0
  -28.7048  -12.1974   21.4533 H   0  0  0  0  0  0
  -28.4383  -13.8941   21.7765 H   0  0  0  0  0  0
  -25.2761   -9.5695   22.4770 H   0  0  0  0  0  0
  -24.0013   -7.4633   22.7458 H   0  0  0  0  0  0
  -21.0860   -8.8789   19.8940 H   0  0  0  0  0  0
  -22.3715  -10.9684   19.6171 H   0  0  0  0  0  0
  -21.2001   -7.6145   23.9716 H   0  0  0  0  0  0
  -21.1480   -6.0517   25.9077 H   0  0  0  0  0  0
  -22.0599   -2.7610   23.2845 H   0  0  0  0  0  0
  -22.4062  -11.9867   22.4826 H   0  0  0  0  0  0
  -21.1068  -13.1232   22.2619 H   0  0  0  0  0  0
  -24.6516  -15.8499   20.5194 H   0  0  0  0  0  0
  -26.2659  -15.6339   20.0768 H   0  0  0  0  0  0
  -26.7185  -32.5444   23.1089 H   0  0  0  0  0  0
  -25.0130  -33.9707   25.0455 H   0  0  0  0  0  0
  -22.7149  -31.3035   21.4001 H   0  0  0  0  0  0
  -23.3755  -35.9603   23.3289 H   0  0  0  0  0  0
  -24.3588  -36.8904   22.2055 H   0  0  0  0  0  0
  -23.7236  -37.6474   23.6660 H   0  0  0  0  0  0
  -26.0960  -31.5529   20.6077 H   0  0  0  0  0  0
  -26.8413  -30.8370   22.0052 H   0  0  0  0  0  0
  -28.1139  -28.9664   21.2074 H   0  0  0  0  0  0
  -25.9972  -25.9227   19.0046 H   0  0  0  0  0  0
  -23.9728  -27.3123   18.9989 H   0  0  0  0  0  0
  -23.7581  -30.5955   19.4018 H   0  0  0  0  0  0
  -22.7576  -29.2492   19.8548 H   0  0  0  0  0  0
  -25.1285  -36.1903   25.0826 H   0  0  0  0  0  0
  -20.9984  -28.3270   24.1387 H   0  0  0  0  0  0
  -20.5649  -26.2297   23.3603 H   0  0  0  0  0  0
  -21.6642  -26.7426   22.1212 H   0  0  0  0  0  0
  -19.6908  -25.6294   21.1235 H   0  0  0  0  0  0
  -19.6691  -27.3190   20.6724 H   0  0  0  0  0  0
  -17.4194  -26.6667   21.4018 H   0  0  0  0  0  0
  -18.0338  -26.0066   22.9013 H   0  0  0  0  0  0
  -19.7943  -30.7264   24.2254 H   0  0  0  0  0  0
  -17.5027  -31.6266   24.5162 H   0  0  0  0  0  0
  -15.5353  -30.2982   23.7666 H   0  0  0  0  0  0
  -15.8668  -28.0815   22.7070 H   0  0  0  0  0  0
  -24.5944  -30.7035   25.7801 H   0  0  0  0  0  0
  -24.8941  -32.2888   26.4846 H   0  0  0  0  0  0
  -25.8109  -30.8930   27.0235 H   0  0  0  0  0  0
  -26.2924  -29.6727   24.1216 H   0  0  0  0  0  0
  -27.4056  -29.7245   25.4679 H   0  0  0  0  0  0
  -27.8793  -30.4250   23.9394 H   0  0  0  0  0  0
  -27.2681  -33.3605   26.2046 H   0  0  0  0  0  0
  -28.3897  -32.6837   25.0327 H   0  0  0  0  0  0
  -28.0718  -31.8433   26.5423 H   0  0  0  0  0  0
  -28.2571  -38.0096   24.7525 H   0  0  0  0  0  0
  -28.1085  -36.2627   24.6259 H   0  0  0  0  0  0
  -27.2303  -37.1409   25.8869 H   0  0  0  0  0  0
  -20.9340  -29.8773   21.6893 H   0  0  0  0  0  0
  -26.0155  -38.2832   24.1441 H   0  0  0  0  0  0
  -29.5965  -21.5109   18.7617 H   0  0  0  0  0  0
  -28.1318  -20.5742   22.6647 H   0  0  0  0  0  0
  -31.5542  -19.5204   16.3330 H   0  0  0  0  0  0
  -31.1719  -20.9746   17.3938 H   0  0  0  0  0  0
  -32.2707  -16.1054   24.4079 H   0  0  0  0  0  0
  -32.3468  -17.8728   23.8725 H   0  0  0  0  0  0
  -30.5481  -18.0207   17.8733 H   0  0  0  0  0  0
  -29.8426  -16.2009   24.4622 H   0  0  0  0  0  0
  -29.1618  -23.7878   19.4342 H   0  0  0  0  0  0
  -30.2561  -19.1684   23.7321 H   0  0  0  0  0  0
  -28.9070  -18.5242   24.6518 H   0  0  0  0  0  0
  -28.3737  -25.2658   21.8889 H   0  0  0  0  0  0
  -26.9327  -24.9810   20.9931 H   0  0  0  0  0  0
  -29.0204  -15.8298   20.7504 H   0  0  0  0  0  0
  1 25  1  0  0  0
  1 30  2  0  0  0
  1 86  1  0  0  0
  2  3  1  0  0  0
  2 25  1  0  0  0
  2 89  1  0  0  0
  2 90  1  0  0  0
  3  4  1  0  0  0
  3 91  1  0  0  0
  3 92  1  0  0  0
  4  5  1  0  0  0
  4 93  1  0  0  0
  4 94  1  0  0  0
  5  6  1  0  0  0
  5 26  1  0  0  0
  5 95  1  0  0  0
  6 25  1  0  0  0
  6 96  1  0  0  0
  6 97  1  0  0  0
  7  8  2  0  0  0
  7 26  1  0  0  0
  7 29  1  0  0  0
  8  9  1  0  0  0
  8 22  1  0  0  0
  9 10  1  0  0  0
  9 27  2  0  0  0
 10 11  2  0  0  0
 10 15  1  0  0  0
 11 12  1  0  0  0
 11 98  1  0  0  0
 12 13  2  0  0  0
 12 99  1  0  0  0
 13 14  1  0  0  0
 13 31  1  0  0  0
 14 15  2  0  0  0
 14100  1  0  0  0
 15101  1  0  0  0
 16 17  2  0  0  0
 16 21  1  0  0  0
 16 31  1  0  0  0
 17 18  1  0  0  0
 17102  1  0  0  0
 18 19  2  0  0  0
 18103  1  0  0  0
 19 20  1  0  0  0
 19 24  1  0  0  0
 20 21  2  0  0  0
 20104  1  0  0  0
 21 23  1  0  0  0
 22 28  1  0  0  0
 22 32  2  0  0  0
 26 27  1  0  0  0
 28105  1  0  0  0
 28106  1  0  0  0
 29107  1  0  0  0
 29108  1  0  0  0
 33 34  1  0  0  0
 33 66  1  0  0  0
 33 70  2  0  0  0
 34 36  1  0  0  0
 34 59  1  0  0  0
 34109  1  0  0  0
 35 44  2  0  0  0
 35 45  1  0  0  0
 35 68  1  0  0  0
 36 56  1  0  0  0
 36110  1  0  0  0
 37 39  1  0  0  0
 37 47  1  0  0  0
 37 66  1  0  0  0
 37111  1  0  0  0
 38 43  2  0  0  0
 38 46  1  0  0  0
 38 47  1  0  0  0
 39 64  1  0  0  0
 39 67  2  0  0  0
 40 52  1  0  0  0
 40 53  2  0  0  0
 40 58  1  0  0  0
 41112  1  0  0  0
 41113  1  0  0  0
 41114  1  0  0  0
 41 48  1  0  0  0
 42 43  1  0  0  0
 42 66  1  0  0  0
 42115  1  0  0  0
 42116  1  0  0  0
 43 44  1  0  0  0
 44117  1  0  0  0
 45 46  2  0  0  0
 45118  1  0  0  0
 46119  1  0  0  0
 47120  1  0  0  0
 47121  1  0  0  0
 48 56  1  0  0  0
 48 65  1  0  0  0
 48122  1  0  0  0
 49 50  1  0  0  0
 49 53  1  0  0  0
 49 64  1  0  0  0
 49123  1  0  0  0
 50 51  1  0  0  0
 50124  1  0  0  0
 50125  1  0  0  0
 51 52  1  0  0  0
 51126  1  0  0  0
 51127  1  0  0  0
 52128  1  0  0  0
 52129  1  0  0  0
 53 54  1  0  0  0
 54 55  2  0  0  0
 54130  1  0  0  0
 55 57  1  0  0  0
 55131  1  0  0  0
 56 69  2  0  0  0
 57 58  2  0  0  0
 57132  1  0  0  0
 58133  1  0  0  0
 59 60  1  0  0  0
 59 61  1  0  0  0
 59 62  1  0  0  0
 60134  1  0  0  0
 60135  1  0  0  0
 60136  1  0  0  0
 61137  1  0  0  0
 61138  1  0  0  0
 61139  1  0  0  0
 62140  1  0  0  0
 62141  1  0  0  0
 62142  1  0  0  0
 63 65  1  0  0  0
 63143  1  0  0  0
 63144  1  0  0  0
 63145  1  0  0  0
 64146  1  0  0  0
 65147  1  0  0  0
 68 84  1  0  0  0
 71 73  2  0  0  0
 71 75  1  0  0  0
 71148  1  0  0  0
 72 75  2  0  0  0
 72 76  1  0  0  0
 72149  1  0  0  0
 73 74  1  0  0  0
 73 79  1  0  0  0
 74 76  2  0  0  0
 74 82  1  0  0  0
 75 85  1  0  0  0
 76 88  1  0  0  0
 77 79  2  0  0  0
 77150  1  0  0  0
 77151  1  0  0  0
 78 80  2  0  0  0
 78152  1  0  0  0
 78153  1  0  0  0
 79154  1  0  0  0
 80 83  1  0  0  0
 80155  1  0  0  0
 81 84  1  0  0  0
 81 85  2  0  0  0
 81156  1  0  0  0
 82 86  1  0  0  0
 82 87  2  0  0  0
 83 88  1  0  0  0
 83157  1  0  0  0
 83158  1  0  0  0
 84159  1  0  0  0
 84160  1  0  0  0
 86161  1  0  0  0
M  ISO  4   1 100  68 101  84 101  86 100
M  END
> <chiral flag>
0

> <version>
0

> <s_m_source_file>
/data/baiqing/PycharmProjects/Reinvent-master-3.2/result/LINK_invent/BTK/process_docking_weight1_custom_product_contain_oxygen_bond_distance_aromatic_linkinvent_7_9_3/rearranged_h_0114.sdf

> <i_m_source_file_index>
87

> <r_mmod_Potential_Energy-OPLS-2005>
206.193954467773

> <r_mmod_Stretch_Energy-OPLS-2005>
94.683967590332

> <r_mmod_Bend_Energy-OPLS-2005>
171.991683959961

> <r_mmod_Torsional_Energy-OPLS-2005>
285.523834228516

> <r_mmod_Improper_Torsional_Energy-OPLS-2005>
7.35070943832397

> <r_mmod_Van_der_Waal_Energy-OPLS-2005>
153.809722900391

> <r_mmod_Electrostatic_Energy-OPLS-2005>
-351.177490234375

> <r_mmod_Solvation_Energy-OPLS-2005>
-222.683609008789

> <b_mmod_Minimization_Converged-OPLS-2005>
0

> <r_mmod_RMS_Derivative-OPLS-2005>
1.06332623958588

$$$$
87
                    3D
 Structure written by MMmdl.
157165  0  0  1  0            999 V2000
  -30.6803  -14.4629   20.6021 C   0  0  0  0  0  0
  -30.4353  -12.3120   19.4121 C   0  0  0  0  0  0
  -29.4977  -12.5206   18.2037 C   0  0  0  0  0  0
  -28.0180  -12.3765   18.6142 C   0  0  0  0  0  0
  -27.6673  -13.1994   19.8823 C   0  0  2  0  0  0
  -28.7079  -12.9422   20.9959 C   0  0  0  0  0  0
  -25.2616  -13.8144   20.5683 C   0  0  0  0  0  0
  -24.1855  -13.0439   20.9169 C   0  0  0  0  0  0
  -24.6394  -11.6902   20.8718 C   0  0  0  0  0  0
  -23.9045  -10.4302   21.0400 C   0  0  0  0  0  0
  -24.3603   -9.4216   21.9174 C   0  0  0  0  0  0
  -23.6288   -8.2242   22.0745 C   0  0  0  0  0  0
  -22.4265   -8.0279   21.3541 C   0  0  0  0  0  0
  -21.9899   -9.0249   20.4638 C   0  0  0  0  0  0
  -22.7220  -10.2133   20.3049 C   0  0  0  0  0  0
  -21.6855   -6.0732   22.5278 C   0  0  0  0  0  0
  -21.4016   -6.5640   23.8209 C   0  0  0  0  0  0
  -21.3662   -5.6791   24.9171 C   0  0  0  0  0  0
  -21.6042   -4.3052   24.7225 C   0  0  0  0  0  0
  -21.8819   -3.8144   23.4346 C   0  0  0  0  0  0
  -21.9197   -4.6960   22.3403 C   0  0  0  0  0  0
  -22.7877  -13.5239   21.1850 C   0  0  0  0  0  0
  -22.1663   -4.2147   21.0977 F   0  0  0  0  0  0
  -21.5633   -3.4538   25.7736 F   0  0  0  0  0  0
  -30.0426  -13.2689   20.4567 N   0  0  0  0  0  0
  -26.3050  -12.9298   20.3380 N   0  0  0  0  0  0
  -25.9317  -11.6466   20.5739 N   0  0  0  0  0  0
  -22.0521  -12.8225   22.0405 N   0  0  0  0  0  0
  -25.4377  -15.1860   20.4131 N   0  0  0  0  0  0
  -31.7858  -14.7050   20.1083 O   0  0  0  0  0  0
  -21.6635   -6.8872   21.4236 O   0  0  0  0  0  0
  -22.3559  -14.5556   20.6715 O   0  0  0  0  0  0
  -24.6161  -31.8676   23.2099 C   0  0  0  0  0  0
  -25.9055  -32.4816   23.8391 C   0  0  1  0  0  0
  -27.2273  -27.4175   20.0939 C   0  0  0  0  0  0
  -25.5908  -33.8607   24.2321 N   0  0  0  0  0  0
  -23.4040  -30.4935   21.5522 C   0  0  2  0  0  0
  -24.8483  -28.9639   20.1132 C   0  0  0  0  0  0
  -22.7419  -29.4656   22.4986 C   0  0  0  0  0  0
  -18.0271  -28.1376   22.8493 C   0  0  0  0  0  0
  -24.1495  -36.7304   23.2639 C   0  0  0  0  0  0
  -25.9378  -30.8277   21.3687 C   0  0  0  0  0  0
  -26.0121  -29.4641   20.7101 C   0  0  0  0  0  0
  -27.2044  -28.7001   20.6957 C   0  0  0  0  0  0
  -26.0402  -26.9447   19.4830 C   0  0  0  0  0  0
  -24.8579  -27.7034   19.4968 C   0  0  0  0  0  0
  -23.6121  -29.8320   20.1652 C   0  0  0  0  0  0
  -25.4115  -36.3100   24.0339 C   0  0  1  0  0  0
  -20.5867  -28.3657   23.1316 C   0  0  2  0  0  0
  -20.6766  -26.9392   22.5418 C   0  0  0  0  0  0
  -19.5745  -26.6384   21.5214 C   0  0  0  0  0  0
  -18.1923  -26.7921   22.1626 C   0  0  0  0  0  0
  -19.1521  -28.8829   23.2904 C   0  0  0  0  0  0
  -18.9450  -30.1440   23.8909 C   0  0  0  0  0  0
  -17.6453  -30.6581   24.0560 C   0  0  0  0  0  0
  -25.9040  -34.9466   23.5127 C   0  0  0  0  0  0
  -16.5343  -29.9080   23.6331 C   0  0  0  0  0  0
  -16.7259  -28.6502   23.0347 C   0  0  0  0  0  0
  -26.4480  -31.6581   25.0717 C   0  0  0  0  0  0
  -25.3748  -31.3669   26.1460 C   0  0  0  0  0  0
  -27.0319  -30.3022   24.6102 C   0  0  0  0  0  0
  -27.6067  -32.4290   25.7472 C   0  0  0  0  0  0
  -27.5582  -37.1806   24.8466 C   0  0  0  0  0  0
  -21.4143  -29.3027   22.3721 N   0  0  0  0  0  0
  -26.4298  -37.3784   23.9405 N   0  0  0  0  0  0
  -24.6709  -31.0774   22.1008 N   0  0  0  0  0  0
  -23.4191  -28.8196   23.3029 O   0  0  0  0  0  0
  -28.3826  -26.6526   20.1226 O   0  0  0  0  0  0
  -26.5609  -34.8923   22.4691 O   0  0  0  0  0  0
  -23.5352  -32.1424   23.7493 O   0  0  0  0  0  0
  -30.1236  -19.1031   20.4234 C   0  0  0  0  0  0
  -30.0834  -17.3637   22.6176 C   0  0  0  0  0  0
  -30.1141  -17.6966   20.1938 C   0  0  0  0  0  0
  -30.1064  -16.8145   21.3193 C   0  0  0  0  0  0
  -30.0949  -19.6498   21.7310 C   0  0  0  0  0  0
  -30.0762  -18.7559   22.8205 C   0  0  0  0  0  0
  -29.9431  -17.9088   17.6740 C   0  0  0  0  0  0
  -30.0371  -17.1850   18.8036 C   0  0  0  0  0  0
  -29.3976  -24.3947   20.4330 C   0  0  0  0  0  0
  -29.1163  -22.9144   20.7892 C   0  0  0  0  0  0
  -28.1949  -25.2291   19.9545 C   0  0  0  0  0  0
  -30.3555  -22.0294   21.0909 C   0  0  0  0  0  0
  -29.9463  -15.3946   21.2404 N   0  0  0  0  0  0
  -30.5249  -24.8923   20.5290 O   0  0  0  0  0  0
  -30.0383  -21.0014   22.0412 O   0  0  0  0  0  0
  -30.0322  -19.2411   24.0848 F   0  0  0  0  0  0
  -31.4776  -12.4311   19.1102 H   0  0  0  0  0  0
  -30.3518  -11.2925   19.7916 H   0  0  0  0  0  0
  -29.7385  -11.8053   17.4164 H   0  0  0  0  0  0
  -29.6618  -13.5117   17.7771 H   0  0  0  0  0  0
  -27.8237  -11.3183   18.7919 H   0  0  0  0  0  0
  -27.3682  -12.6666   17.7879 H   0  0  0  0  0  0
  -27.7231  -14.2535   19.6082 H   0  0  0  0  0  0
  -28.6855  -11.8925   21.2943 H   0  0  0  0  0  0
  -28.4596  -13.4983   21.9012 H   0  0  0  0  0  0
  -25.2759   -9.5693   22.4738 H   0  0  0  0  0  0
  -24.0010   -7.4631   22.7466 H   0  0  0  0  0  0
  -21.0830   -8.8763   19.8940 H   0  0  0  0  0  0
  -22.3682  -10.9667   19.6152 H   0  0  0  0  0  0
  -21.2003   -7.6147   23.9714 H   0  0  0  0  0  0
  -21.1486   -6.0519   25.9073 H   0  0  0  0  0  0
  -22.0597   -2.7609   23.2845 H   0  0  0  0  0  0
  -22.4142  -11.9874   22.4767 H   0  0  0  0  0  0
  -21.1136  -13.1235   22.2634 H   0  0  0  0  0  0
  -24.6772  -15.8464   20.5338 H   0  0  0  0  0  0
  -26.2978  -15.6238   20.1064 H   0  0  0  0  0  0
  -26.7126  -32.5525   23.1160 H   0  0  0  0  0  0
  -25.0054  -33.9764   25.0462 H   0  0  0  0  0  0
  -22.6932  -31.3106   21.4150 H   0  0  0  0  0  0
  -23.3753  -35.9640   23.3312 H   0  0  0  0  0  0
  -24.3587  -36.8901   22.2049 H   0  0  0  0  0  0
  -23.7254  -37.6515   23.6645 H   0  0  0  0  0  0
  -26.0619  -31.5988   20.6068 H   0  0  0  0  0  0
  -26.8217  -30.8725   21.9934 H   0  0  0  0  0  0
  -28.1008  -29.0809   21.1651 H   0  0  0  0  0  0
  -26.0000  -25.9875   18.9850 H   0  0  0  0  0  0
  -23.9643  -27.3114   19.0297 H   0  0  0  0  0  0
  -23.7226  -30.6088   19.4080 H   0  0  0  0  0  0
  -22.7356  -29.2542   19.8675 H   0  0  0  0  0  0
  -25.1296  -36.1964   25.0832 H   0  0  0  0  0  0
  -20.9965  -28.3229   24.1434 H   0  0  0  0  0  0
  -20.5672  -26.2266   23.3605 H   0  0  0  0  0  0
  -21.6637  -26.7438   22.1208 H   0  0  0  0  0  0
  -19.6907  -25.6303   21.1224 H   0  0  0  0  0  0
  -19.6684  -27.3212   20.6759 H   0  0  0  0  0  0
  -17.4193  -26.6662   21.4030 H   0  0  0  0  0  0
  -18.0321  -26.0060   22.9020 H   0  0  0  0  0  0
  -19.7926  -30.7251   24.2283 H   0  0  0  0  0  0
  -17.5006  -31.6262   24.5158 H   0  0  0  0  0  0
  -15.5344  -30.2986   23.7640 H   0  0  0  0  0  0
  -15.8663  -28.0822   22.7053 H   0  0  0  0  0  0
  -24.5934  -30.7015   25.7778 H   0  0  0  0  0  0
  -24.8938  -32.2815   26.4931 H   0  0  0  0  0  0
  -25.8107  -30.8814   27.0202 H   0  0  0  0  0  0
  -26.2866  -29.6766   24.1182 H   0  0  0  0  0  0
  -27.4110  -29.7266   25.4558 H   0  0  0  0  0  0
  -27.8696  -30.4326   23.9245 H   0  0  0  0  0  0
  -27.2699  -33.3572   26.2093 H   0  0  0  0  0  0
  -28.3853  -32.6864   25.0282 H   0  0  0  0  0  0
  -28.0764  -31.8385   26.5346 H   0  0  0  0  0  0
  -28.2611  -38.0094   24.7507 H   0  0  0  0  0  0
  -28.1070  -36.2626   24.6309 H   0  0  0  0  0  0
  -27.2295  -37.1470   25.8868 H   0  0  0  0  0  0
  -20.9293  -29.8749   21.6950 H   0  0  0  0  0  0
  -26.0190  -38.2863   24.1399 H   0  0  0  0  0  0
  -30.1034  -19.7730   19.5819 H   0  0  0  0  0  0
  -30.0437  -16.7147   23.4803 H   0  0  0  0  0  0
  -29.9011  -17.4085   16.7170 H   0  0  0  0  0  0
  -29.9062  -18.9869   17.6537 H   0  0  0  0  0  0
  -30.0586  -16.1166   18.6660 H   0  0  0  0  0  0
  -28.5215  -22.4613   19.9970 H   0  0  0  0  0  0
  -28.4770  -22.9323   21.6723 H   0  0  0  0  0  0
  -28.0123  -25.0058   18.9029 H   0  0  0  0  0  0
  -27.3255  -24.8931   20.5207 H   0  0  0  0  0  0
  -31.1267  -22.6276   21.5763 H   0  0  0  0  0  0
  -30.8141  -21.6670   20.1730 H   0  0  0  0  0  0
  -29.1411  -15.0197   21.7193 H   0  0  0  0  0  0
  1 25  1  0  0  0
  1 30  2  0  0  0
  1 83  1  0  0  0
  2  3  1  0  0  0
  2 25  1  0  0  0
  2 87  1  0  0  0
  2 88  1  0  0  0
  3  4  1  0  0  0
  3 89  1  0  0  0
  3 90  1  0  0  0
  4  5  1  0  0  0
  4 91  1  0  0  0
  4 92  1  0  0  0
  5  6  1  0  0  0
  5 26  1  0  0  0
  5 93  1  0  0  0
  6 25  1  0  0  0
  6 94  1  0  0  0
  6 95  1  0  0  0
  7  8  2  0  0  0
  7 26  1  0  0  0
  7 29  1  0  0  0
  8  9  1  0  0  0
  8 22  1  0  0  0
  9 10  1  0  0  0
  9 27  2  0  0  0
 10 11  2  0  0  0
 10 15  1  0  0  0
 11 12  1  0  0  0
 11 96  1  0  0  0
 12 13  2  0  0  0
 12 97  1  0  0  0
 13 14  1  0  0  0
 13 31  1  0  0  0
 14 15  2  0  0  0
 14 98  1  0  0  0
 15 99  1  0  0  0
 16 17  2  0  0  0
 16 21  1  0  0  0
 16 31  1  0  0  0
 17 18  1  0  0  0
 17100  1  0  0  0
 18 19  2  0  0  0
 18101  1  0  0  0
 19 20  1  0  0  0
 19 24  1  0  0  0
 20 21  2  0  0  0
 20102  1  0  0  0
 21 23  1  0  0  0
 22 28  1  0  0  0
 22 32  2  0  0  0
 26 27  1  0  0  0
 28103  1  0  0  0
 28104  1  0  0  0
 29105  1  0  0  0
 29106  1  0  0  0
 33 34  1  0  0  0
 33 66  1  0  0  0
 33 70  2  0  0  0
 34 36  1  0  0  0
 34 59  1  0  0  0
 34107  1  0  0  0
 35 44  2  0  0  0
 35 45  1  0  0  0
 35 68  1  0  0  0
 36 56  1  0  0  0
 36108  1  0  0  0
 37 39  1  0  0  0
 37 47  1  0  0  0
 37 66  1  0  0  0
 37109  1  0  0  0
 38 43  2  0  0  0
 38 46  1  0  0  0
 38 47  1  0  0  0
 39 64  1  0  0  0
 39 67  2  0  0  0
 40 52  1  0  0  0
 40 53  2  0  0  0
 40 58  1  0  0  0
 41110  1  0  0  0
 41111  1  0  0  0
 41112  1  0  0  0
 41 48  1  0  0  0
 42 43  1  0  0  0
 42 66  1  0  0  0
 42113  1  0  0  0
 42114  1  0  0  0
 43 44  1  0  0  0
 44115  1  0  0  0
 45 46  2  0  0  0
 45116  1  0  0  0
 46117  1  0  0  0
 47118  1  0  0  0
 47119  1  0  0  0
 48 56  1  0  0  0
 48 65  1  0  0  0
 48120  1  0  0  0
 49 50  1  0  0  0
 49 53  1  0  0  0
 49 64  1  0  0  0
 49121  1  0  0  0
 50 51  1  0  0  0
 50122  1  0  0  0
 50123  1  0  0  0
 51 52  1  0  0  0
 51124  1  0  0  0
 51125  1  0  0  0
 52126  1  0  0  0
 52127  1  0  0  0
 53 54  1  0  0  0
 54 55  2  0  0  0
 54128  1  0  0  0
 55 57  1  0  0  0
 55129  1  0  0  0
 56 69  2  0  0  0
 57 58  2  0  0  0
 57130  1  0  0  0
 58131  1  0  0  0
 59 60  1  0  0  0
 59 61  1  0  0  0
 59 62  1  0  0  0
 60132  1  0  0  0
 60133  1  0  0  0
 60134  1  0  0  0
 61135  1  0  0  0
 61136  1  0  0  0
 61137  1  0  0  0
 62138  1  0  0  0
 62139  1  0  0  0
 62140  1  0  0  0
 63 65  1  0  0  0
 63141  1  0  0  0
 63142  1  0  0  0
 63143  1  0  0  0
 64144  1  0  0  0
 65145  1  0  0  0
 68 81  1  0  0  0
 71 73  2  0  0  0
 71 75  1  0  0  0
 71146  1  0  0  0
 72 74  2  0  0  0
 72 76  1  0  0  0
 72147  1  0  0  0
 73 74  1  0  0  0
 73 78  1  0  0  0
 74 83  1  0  0  0
 75 76  2  0  0  0
 75 85  1  0  0  0
 76 86  1  0  0  0
 77 78  2  0  0  0
 77148  1  0  0  0
 77149  1  0  0  0
 78150  1  0  0  0
 79 80  1  0  0  0
 79 81  1  0  0  0
 79 84  2  0  0  0
 80 82  1  0  0  0
 80151  1  0  0  0
 80152  1  0  0  0
 81153  1  0  0  0
 81154  1  0  0  0
 82 85  1  0  0  0
 82155  1  0  0  0
 82156  1  0  0  0
 83157  1  0  0  0
M  ISO  4   1 100  68 101  81 101  83 100
M  END
> <chiral flag>
0

> <version>
0

> <s_m_source_file>
/data/baiqing/PycharmProjects/Reinvent-master-3.2/result/LINK_invent/BTK/process_docking_weight1_custom_product_contain_oxygen_bond_distance_aromatic_linkinvent_7_9_3/rearranged_h_0114.sdf

> <i_m_source_file_index>
88

> <r_mmod_Potential_Energy-OPLS-2005>
-17.2579612731934

> <r_mmod_Stretch_Energy-OPLS-2005>
42.8735198974609

> <r_mmod_Bend_Energy-OPLS-2005>
119.953826904297

> <r_mmod_Torsional_Energy-OPLS-2005>
232.18098449707

> <r_mmod_Improper_Torsional_Energy-OPLS-2005>
3.61399364471436

> <r_mmod_Van_der_Waal_Energy-OPLS-2005>
164.255935668945

> <r_mmod_Electrostatic_Energy-OPLS-2005>
-358.888854980469

> <r_mmod_Solvation_Energy-OPLS-2005>
-234.746276855469

> <b_mmod_Minimization_Converged-OPLS-2005>
0

> <r_mmod_RMS_Derivative-OPLS-2005>
1.64346432685852

$$$$
88
                    3D
 Structure written by MMmdl.
166176  0  0  1  0            999 V2000
  -30.7303  -14.4248   20.5180 C   0  0  0  0  0  0
  -30.4125  -12.2690   19.4074 C   0  0  0  0  0  0
  -29.4851  -12.4948   18.1968 C   0  0  0  0  0  0
  -28.0083  -12.3571   18.6141 C   0  0  0  0  0  0
  -27.6620  -13.1980   19.8725 C   0  0  2  0  0  0
  -28.7105  -12.9900   20.9915 C   0  0  0  0  0  0
  -25.2604  -13.8141   20.5681 C   0  0  0  0  0  0
  -24.1848  -13.0421   20.9187 C   0  0  0  0  0  0
  -24.6400  -11.6896   20.8744 C   0  0  0  0  0  0
  -23.9059  -10.4289   21.0402 C   0  0  0  0  0  0
  -24.3601   -9.4207   21.9161 C   0  0  0  0  0  0
  -23.6284   -8.2248   22.0752 C   0  0  0  0  0  0
  -22.4261   -8.0291   21.3562 C   0  0  0  0  0  0
  -21.9903   -9.0259   20.4652 C   0  0  0  0  0  0
  -22.7238  -10.2136   20.3056 C   0  0  0  0  0  0
  -21.6857   -6.0735   22.5289 C   0  0  0  0  0  0
  -21.4026   -6.5642   23.8224 C   0  0  0  0  0  0
  -21.3647   -5.6798   24.9181 C   0  0  0  0  0  0
  -21.6042   -4.3067   24.7231 C   0  0  0  0  0  0
  -21.8817   -3.8155   23.4349 C   0  0  0  0  0  0
  -21.9201   -4.6969   22.3404 C   0  0  0  0  0  0
  -22.7873  -13.5239   21.1818 C   0  0  0  0  0  0
  -22.1655   -4.2165   21.0974 F   0  0  0  0  0  0
  -21.5620   -3.4541   25.7732 F   0  0  0  0  0  0
  -30.0448  -13.2581   20.4296 N   0  0  0  0  0  0
  -26.3043  -12.9294   20.3396 N   0  0  0  0  0  0
  -25.9329  -11.6470   20.5813 N   0  0  0  0  0  0
  -22.0493  -12.8246   22.0361 N   0  0  0  0  0  0
  -25.4299  -15.1851   20.4061 N   0  0  0  0  0  0
  -31.8964  -14.5623   20.1400 O   0  0  0  0  0  0
  -21.6634   -6.8882   21.4261 O   0  0  0  0  0  0
  -22.3564  -14.5531   20.6646 O   0  0  0  0  0  0
  -24.6064  -31.8720   23.2127 C   0  0  0  0  0  0
  -25.8972  -32.4862   23.8422 C   0  0  1  0  0  0
  -27.2672  -27.4932   20.0906 C   0  0  0  0  0  0
  -25.5859  -33.8658   24.2354 N   0  0  0  0  0  0
  -23.3945  -30.4903   21.5511 C   0  0  2  0  0  0
  -24.8499  -28.9602   20.1218 C   0  0  0  0  0  0
  -22.7378  -29.4630   22.5003 C   0  0  0  0  0  0
  -18.0270  -28.1381   22.8488 C   0  0  0  0  0  0
  -24.1481  -36.7316   23.2615 C   0  0  0  0  0  0
  -25.9157  -30.8568   21.3557 C   0  0  0  0  0  0
  -26.0022  -29.4931   20.7100 C   0  0  0  0  0  0
  -27.2110  -28.7705   20.6948 C   0  0  0  0  0  0
  -26.0928  -26.9595   19.5188 C   0  0  0  0  0  0
  -24.8856  -27.6868   19.5265 C   0  0  0  0  0  0
  -23.6050  -29.8166   20.1676 C   0  0  0  0  0  0
  -25.4093  -36.3135   24.0337 C   0  0  1  0  0  0
  -20.5850  -28.3640   23.1346 C   0  0  2  0  0  0
  -20.6747  -26.9383   22.5422 C   0  0  0  0  0  0
  -19.5735  -26.6379   21.5210 C   0  0  0  0  0  0
  -18.1912  -26.7929   22.1619 C   0  0  0  0  0  0
  -19.1515  -28.8831   23.2911 C   0  0  0  0  0  0
  -18.9442  -30.1444   23.8921 C   0  0  0  0  0  0
  -17.6443  -30.6581   24.0571 C   0  0  0  0  0  0
  -25.9031  -34.9503   23.5154 C   0  0  0  0  0  0
  -16.5339  -29.9087   23.6321 C   0  0  0  0  0  0
  -16.7261  -28.6504   23.0341 C   0  0  0  0  0  0
  -26.4444  -31.6619   25.0716 C   0  0  0  0  0  0
  -25.3732  -31.3716   26.1477 C   0  0  0  0  0  0
  -27.0235  -30.3062   24.6033 C   0  0  0  0  0  0
  -27.6048  -32.4310   25.7460 C   0  0  0  0  0  0
  -27.5641  -37.1733   24.8398 C   0  0  0  0  0  0
  -21.4109  -29.3006   22.3745 N   0  0  0  0  0  0
  -26.4258  -37.3851   23.9493 N   0  0  0  0  0  0
  -24.6566  -31.0867   22.0994 N   0  0  0  0  0  0
  -23.4173  -28.8159   23.3008 O   0  0  0  0  0  0
  -28.4064  -26.7215   20.0215 O   0  0  0  0  0  0
  -26.5598  -34.8948   22.4715 O   0  0  0  0  0  0
  -23.5268  -32.1425   23.7555 O   0  0  0  0  0  0
  -30.6410  -21.2998   20.6905 C   0  0  0  0  0  0
  -30.1733  -22.6037   20.9141 C   0  0  0  0  0  0
  -32.2394  -23.5009   20.0028 C   0  0  0  0  0  0
  -31.1274  -17.6257   20.2722 C   0  0  0  0  0  0
  -30.3484  -18.9421   18.3711 C   0  0  0  0  0  0
  -29.1851  -16.8923   18.9780 C   0  0  0  0  0  0
  -32.7137  -22.1877   19.7709 C   0  0  0  0  0  0
  -31.8842  -21.0689   20.0589 C   0  0  0  0  0  0
  -31.2477  -18.7665   19.4466 C   0  0  0  0  0  0
  -30.9433  -23.7145   20.5276 C   0  0  0  0  0  0
  -30.1007  -16.6783   20.0307 C   0  0  0  0  0  0
  -29.3189  -18.0133   18.1414 C   0  0  0  0  0  0
  -34.0676  -21.9978   19.1915 C   0  0  0  0  0  0
  -30.7438  -26.2174   20.3610 C   0  0  0  0  0  0
  -34.5096  -20.5515   19.0084 C   0  0  0  0  0  0
  -33.3105  -19.6404   18.7104 C   0  0  0  0  0  0
  -29.6583  -27.2990   20.4109 C   0  0  0  0  0  0
  -32.2299  -19.7440   19.6999 N   0  0  0  0  0  0
  -30.3131  -24.9797   20.6471 N   0  0  0  0  0  0
  -29.9803  -15.4954   20.8079 N   0  0  0  0  0  0
  -34.8320  -22.9197   18.8824 O   0  0  0  0  0  0
  -31.9146  -26.5170   20.1090 O   0  0  0  0  0  0
  -28.4572  -18.1992   17.1123 F   0  0  0  0  0  0
  -31.4562  -12.3471   19.0963 H   0  0  0  0  0  0
  -30.2902  -11.2591   19.8009 H   0  0  0  0  0  0
  -29.7198  -11.7803   17.4068 H   0  0  0  0  0  0
  -29.6567  -13.4870   17.7773 H   0  0  0  0  0  0
  -27.8139  -11.3016   18.8056 H   0  0  0  0  0  0
  -27.3550  -12.6333   17.7852 H   0  0  0  0  0  0
  -27.6943  -14.2416   19.5685 H   0  0  0  0  0  0
  -28.6733  -11.9627   21.3545 H   0  0  0  0  0  0
  -28.4912  -13.6169   21.8583 H   0  0  0  0  0  0
  -25.2737   -9.5693   22.4721 H   0  0  0  0  0  0
  -24.0011   -7.4640   22.7460 H   0  0  0  0  0  0
  -21.0856   -8.8771   19.8932 H   0  0  0  0  0  0
  -22.3692  -10.9667   19.6168 H   0  0  0  0  0  0
  -21.1999   -7.6151   23.9731 H   0  0  0  0  0  0
  -21.1473   -6.0522   25.9088 H   0  0  0  0  0  0
  -22.0596   -2.7624   23.2840 H   0  0  0  0  0  0
  -22.4139  -11.9940   22.4784 H   0  0  0  0  0  0
  -21.1084  -13.1251   22.2497 H   0  0  0  0  0  0
  -24.6515  -15.8284   20.5016 H   0  0  0  0  0  0
  -26.2724  -15.6330   20.0696 H   0  0  0  0  0  0
  -26.7048  -32.5612   23.1203 H   0  0  0  0  0  0
  -25.0033  -33.9836   25.0516 H   0  0  0  0  0  0
  -22.6798  -31.3027   21.4099 H   0  0  0  0  0  0
  -23.3829  -35.9548   23.3091 H   0  0  0  0  0  0
  -24.3639  -36.9124   22.2074 H   0  0  0  0  0  0
  -23.7093  -37.6404   23.6743 H   0  0  0  0  0  0
  -26.0136  -31.6234   20.5862 H   0  0  0  0  0  0
  -26.8065  -30.9202   21.9688 H   0  0  0  0  0  0
  -28.0822  -29.2160   21.1496 H   0  0  0  0  0  0
  -26.1162  -25.9804   19.0601 H   0  0  0  0  0  0
  -23.9975  -27.2629   19.0781 H   0  0  0  0  0  0
  -23.7077  -30.5880   19.4036 H   0  0  0  0  0  0
  -22.7334  -29.2273   19.8738 H   0  0  0  0  0  0
  -25.1232  -36.1986   25.0815 H   0  0  0  0  0  0
  -20.9955  -28.3206   24.1468 H   0  0  0  0  0  0
  -20.5660  -26.2245   23.3600 H   0  0  0  0  0  0
  -21.6624  -26.7410   22.1244 H   0  0  0  0  0  0
  -19.6891  -25.6295   21.1230 H   0  0  0  0  0  0
  -19.6694  -27.3200   20.6753 H   0  0  0  0  0  0
  -17.4186  -26.6698   21.4012 H   0  0  0  0  0  0
  -18.0284  -26.0074   22.9016 H   0  0  0  0  0  0
  -19.7914  -30.7259   24.2313 H   0  0  0  0  0  0
  -17.4989  -31.6266   24.5163 H   0  0  0  0  0  0
  -15.5339  -30.2999   23.7620 H   0  0  0  0  0  0
  -15.8664  -28.0832   22.7040 H   0  0  0  0  0  0
  -24.5874  -30.7104   25.7806 H   0  0  0  0  0  0
  -24.8964  -32.2877   26.4972 H   0  0  0  0  0  0
  -25.8095  -30.8841   27.0202 H   0  0  0  0  0  0
  -26.2742  -29.6866   24.1092 H   0  0  0  0  0  0
  -27.4011  -29.7260   25.4462 H   0  0  0  0  0  0
  -27.8581  -30.4380   23.9140 H   0  0  0  0  0  0
  -27.2704  -33.3612   26.2061 H   0  0  0  0  0  0
  -28.3847  -32.6862   25.0274 H   0  0  0  0  0  0
  -28.0715  -31.8408   26.5354 H   0  0  0  0  0  0
  -28.2408  -38.0274   24.7882 H   0  0  0  0  0  0
  -28.1394  -36.2866   24.5678 H   0  0  0  0  0  0
  -27.2443  -37.0710   25.8784 H   0  0  0  0  0  0
  -20.9258  -29.8775   21.7022 H   0  0  0  0  0  0
  -26.0138  -38.2859   24.1775 H   0  0  0  0  0  0
  -29.9977  -20.4772   20.9687 H   0  0  0  0  0  0
  -29.1922  -22.7388   21.3480 H   0  0  0  0  0  0
  -32.8730  -24.3318   19.7327 H   0  0  0  0  0  0
  -31.8215  -17.4786   21.0869 H   0  0  0  0  0  0
  -30.4258  -19.8052   17.7260 H   0  0  0  0  0  0
  -28.3937  -16.1883   18.7732 H   0  0  0  0  0  0
  -35.0219  -20.2307   19.9148 H   0  0  0  0  0  0
  -35.2345  -20.4970   18.1945 H   0  0  0  0  0  0
  -33.6566  -18.6066   18.6438 H   0  0  0  0  0  0
  -32.9167  -19.8932   17.7244 H   0  0  0  0  0  0
  -29.9202  -28.1164   19.7374 H   0  0  0  0  0  0
  -29.6249  -27.6838   21.4300 H   0  0  0  0  0  0
  -29.3277  -24.9594   20.8732 H   0  0  0  0  0  0
  -29.0462  -15.2537   21.1030 H   0  0  0  0  0  0
  1 25  1  0  0  0
  1 30  2  0  0  0
  1 90  1  0  0  0
  2  3  1  0  0  0
  2 25  1  0  0  0
  2 94  1  0  0  0
  2 95  1  0  0  0
  3  4  1  0  0  0
  3 96  1  0  0  0
  3 97  1  0  0  0
  4  5  1  0  0  0
  4 98  1  0  0  0
  4 99  1  0  0  0
  5  6  1  0  0  0
  5 26  1  0  0  0
  5100  1  0  0  0
  6 25  1  0  0  0
  6101  1  0  0  0
  6102  1  0  0  0
  7  8  2  0  0  0
  7 26  1  0  0  0
  7 29  1  0  0  0
  8  9  1  0  0  0
  8 22  1  0  0  0
  9 10  1  0  0  0
  9 27  2  0  0  0
 10 11  2  0  0  0
 10 15  1  0  0  0
 11 12  1  0  0  0
 11103  1  0  0  0
 12 13  2  0  0  0
 12104  1  0  0  0
 13 14  1  0  0  0
 13 31  1  0  0  0
 14 15  2  0  0  0
 14105  1  0  0  0
 15106  1  0  0  0
 16 17  2  0  0  0
 16 21  1  0  0  0
 16 31  1  0  0  0
 17 18  1  0  0  0
 17107  1  0  0  0
 18 19  2  0  0  0
 18108  1  0  0  0
 19 20  1  0  0  0
 19 24  1  0  0  0
 20 21  2  0  0  0
 20109  1  0  0  0
 21 23  1  0  0  0
 22 28  1  0  0  0
 22 32  2  0  0  0
 26 27  1  0  0  0
 28110  1  0  0  0
 28111  1  0  0  0
 29112  1  0  0  0
 29113  1  0  0  0
 33 34  1  0  0  0
 33 66  1  0  0  0
 33 70  2  0  0  0
 34 36  1  0  0  0
 34 59  1  0  0  0
 34114  1  0  0  0
 35 44  2  0  0  0
 35 45  1  0  0  0
 35 68  1  0  0  0
 36 56  1  0  0  0
 36115  1  0  0  0
 37 39  1  0  0  0
 37 47  1  0  0  0
 37 66  1  0  0  0
 37116  1  0  0  0
 38 43  2  0  0  0
 38 46  1  0  0  0
 38 47  1  0  0  0
 39 64  1  0  0  0
 39 67  2  0  0  0
 40 52  1  0  0  0
 40 53  2  0  0  0
 40 58  1  0  0  0
 41117  1  0  0  0
 41118  1  0  0  0
 41119  1  0  0  0
 41 48  1  0  0  0
 42 43  1  0  0  0
 42 66  1  0  0  0
 42120  1  0  0  0
 42121  1  0  0  0
 43 44  1  0  0  0
 44122  1  0  0  0
 45 46  2  0  0  0
 45123  1  0  0  0
 46124  1  0  0  0
 47125  1  0  0  0
 47126  1  0  0  0
 48 56  1  0  0  0
 48 65  1  0  0  0
 48127  1  0  0  0
 49 50  1  0  0  0
 49 53  1  0  0  0
 49 64  1  0  0  0
 49128  1  0  0  0
 50 51  1  0  0  0
 50129  1  0  0  0
 50130  1  0  0  0
 51 52  1  0  0  0
 51131  1  0  0  0
 51132  1  0  0  0
 52133  1  0  0  0
 52134  1  0  0  0
 53 54  1  0  0  0
 54 55  2  0  0  0
 54135  1  0  0  0
 55 57  1  0  0  0
 55136  1  0  0  0
 56 69  2  0  0  0
 57 58  2  0  0  0
 57137  1  0  0  0
 58138  1  0  0  0
 59 60  1  0  0  0
 59 61  1  0  0  0
 59 62  1  0  0  0
 60139  1  0  0  0
 60140  1  0  0  0
 60141  1  0  0  0
 61142  1  0  0  0
 61143  1  0  0  0
 61144  1  0  0  0
 62145  1  0  0  0
 62146  1  0  0  0
 62147  1  0  0  0
 63 65  1  0  0  0
 63148  1  0  0  0
 63149  1  0  0  0
 63150  1  0  0  0
 64151  1  0  0  0
 65152  1  0  0  0
 68 87  1  0  0  0
 71 72  2  0  0  0
 71 78  1  0  0  0
 71153  1  0  0  0
 72 80  1  0  0  0
 72154  1  0  0  0
 73 77  1  0  0  0
 73 80  2  0  0  0
 73155  1  0  0  0
 74 79  2  0  0  0
 74 81  1  0  0  0
 74156  1  0  0  0
 75 79  1  0  0  0
 75 82  2  0  0  0
 75157  1  0  0  0
 76 81  2  0  0  0
 76 82  1  0  0  0
 76158  1  0  0  0
 77 78  2  0  0  0
 77 83  1  0  0  0
 78 88  1  0  0  0
 79 88  1  0  0  0
 80 89  1  0  0  0
 81 90  1  0  0  0
 82 93  1  0  0  0
 83 85  1  0  0  0
 83 91  2  0  0  0
 84 87  1  0  0  0
 84 89  1  0  0  0
 84 92  2  0  0  0
 85 86  1  0  0  0
 85159  1  0  0  0
 85160  1  0  0  0
 86 88  1  0  0  0
 86161  1  0  0  0
 86162  1  0  0  0
 87163  1  0  0  0
 87164  1  0  0  0
 89165  1  0  0  0
 90166  1  0  0  0
M  ISO  4   1 100  68 101  87 101  90 100
M  END
> <chiral flag>
0

> <version>
0

> <s_m_source_file>
/data/baiqing/PycharmProjects/Reinvent-master-3.2/result/LINK_invent/BTK/process_docking_weight1_custom_product_contain_oxygen_bond_distance_aromatic_linkinvent_7_9_3/rearranged_h_0114.sdf

> <i_m_source_file_index>
89

> <r_mmod_Potential_Energy-OPLS-2005>
-33.2658729553223

> <r_mmod_Stretch_Energy-OPLS-2005>
36.6127281188965

> <r_mmod_Bend_Energy-OPLS-2005>
108.153106689453

> <r_mmod_Torsional_Energy-OPLS-2005>
274.872680664062

> <r_mmod_Improper_Torsional_Energy-OPLS-2005>
13.5315036773682

> <r_mmod_Van_der_Waal_Energy-OPLS-2005>
191.793899536133

> <r_mmod_Electrostatic_Energy-OPLS-2005>
-424.444610595703

> <r_mmod_Solvation_Energy-OPLS-2005>
-245.94596862793

> <b_mmod_Minimization_Converged-OPLS-2005>
0

> <r_mmod_RMS_Derivative-OPLS-2005>
2.68406891822815

$$$$
89
                    3D
 Structure written by MMmdl.
154162  0  0  1  0            999 V2000
  -30.6868  -14.5179   20.5856 C   0  0  0  0  0  0
  -30.4225  -12.3295   19.4422 C   0  0  0  0  0  0
  -29.5003  -12.5069   18.2188 C   0  0  0  0  0  0
  -28.0225  -12.3551   18.6277 C   0  0  0  0  0  0
  -27.6582  -13.2113   19.8705 C   0  0  2  0  0  0
  -28.6953  -13.0199   20.9979 C   0  0  0  0  0  0
  -25.2575  -13.8181   20.5674 C   0  0  0  0  0  0
  -24.1830  -13.0445   20.9170 C   0  0  0  0  0  0
  -24.6392  -11.6911   20.8724 C   0  0  0  0  0  0
  -23.9062  -10.4290   21.0398 C   0  0  0  0  0  0
  -24.3612   -9.4203   21.9180 C   0  0  0  0  0  0
  -23.6285   -8.2240   22.0755 C   0  0  0  0  0  0
  -22.4270   -8.0277   21.3544 C   0  0  0  0  0  0
  -21.9900   -9.0252   20.4649 C   0  0  0  0  0  0
  -22.7230  -10.2132   20.3050 C   0  0  0  0  0  0
  -21.6845   -6.0728   22.5278 C   0  0  0  0  0  0
  -21.4018   -6.5640   23.8211 C   0  0  0  0  0  0
  -21.3659   -5.6796   24.9175 C   0  0  0  0  0  0
  -21.6045   -4.3058   24.7228 C   0  0  0  0  0  0
  -21.8819   -3.8145   23.4351 C   0  0  0  0  0  0
  -21.9193   -4.6956   22.3403 C   0  0  0  0  0  0
  -22.7852  -13.5232   21.1847 C   0  0  0  0  0  0
  -22.1658   -4.2142   21.0979 F   0  0  0  0  0  0
  -21.5622   -3.4542   25.7741 F   0  0  0  0  0  0
  -30.0241  -13.3314   20.4483 N   0  0  0  0  0  0
  -26.3001  -12.9350   20.3339 N   0  0  0  0  0  0
  -25.9316  -11.6501   20.5754 N   0  0  0  0  0  0
  -22.0509  -12.8219   22.0421 N   0  0  0  0  0  0
  -25.4314  -15.1894   20.4109 N   0  0  0  0  0  0
  -31.8077  -14.6635   20.0892 O   0  0  0  0  0  0
  -21.6637   -6.8869   21.4238 O   0  0  0  0  0  0
  -22.3516  -14.5521   20.6687 O   0  0  0  0  0  0
  -24.6350  -31.8720   23.2130 C   0  0  0  0  0  0
  -25.9195  -32.4854   23.8436 C   0  0  1  0  0  0
  -27.2342  -27.4068   20.1122 C   0  0  0  0  0  0
  -25.6000  -33.8636   24.2369 N   0  0  0  0  0  0
  -23.4399  -30.4976   21.5646 C   0  0  2  0  0  0
  -24.8653  -28.9545   20.1180 C   0  0  0  0  0  0
  -22.7762  -29.4842   22.5208 C   0  0  0  0  0  0
  -17.9927  -28.1206   22.8703 C   0  0  0  0  0  0
  -24.1494  -36.7312   23.2629 C   0  0  0  0  0  0
  -25.9587  -30.8311   21.3640 C   0  0  0  0  0  0
  -26.0301  -29.4620   20.7098 C   0  0  0  0  0  0
  -27.2217  -28.6970   20.6975 C   0  0  0  0  0  0
  -26.0571  -26.9222   19.5068 C   0  0  0  0  0  0
  -24.8747  -27.6876   19.5090 C   0  0  0  0  0  0
  -23.6307  -29.8244   20.1769 C   0  0  0  0  0  0
  -25.4113  -36.3114   24.0331 C   0  0  1  0  0  0
  -20.4783  -28.4592   22.7792 C   0  0  2  0  0  0
  -20.6908  -26.9621   22.5296 C   0  0  0  0  0  0
  -19.5530  -26.4559   21.6179 C   0  0  0  0  0  0
  -18.1555  -26.7513   22.2054 C   0  0  0  0  0  0
  -19.1141  -28.8971   23.2512 C   0  0  0  0  0  0
  -18.9346  -30.1474   23.8780 C   0  0  0  0  0  0
  -17.6367  -30.6493   24.0833 C   0  0  0  0  0  0
  -25.9056  -34.9484   23.5126 C   0  0  0  0  0  0
  -16.5196  -29.8977   23.6760 C   0  0  0  0  0  0
  -16.6973  -28.6320   23.0860 C   0  0  0  0  0  0
  -26.4545  -31.6599   25.0758 C   0  0  0  0  0  0
  -25.3772  -31.3706   26.1475 C   0  0  0  0  0  0
  -27.0358  -30.3029   24.6132 C   0  0  0  0  0  0
  -27.6105  -32.4301   25.7555 C   0  0  0  0  0  0
  -27.5580  -37.1817   24.8466 C   0  0  0  0  0  0
  -21.4548  -29.4466   22.3963 N   0  0  0  0  0  0
  -26.4300  -37.3804   23.9406 N   0  0  0  0  0  0
  -24.6993  -31.0805   22.1061 N   0  0  0  0  0  0
  -23.4242  -28.7628   23.2805 O   0  0  0  0  0  0
  -28.3671  -26.6150   20.1254 O   0  0  0  0  0  0
  -26.5591  -34.8931   22.4673 O   0  0  0  0  0  0
  -23.5514  -32.1466   23.7484 O   0  0  0  0  0  0
  -29.4821  -18.0340   21.1754 C   0  0  0  0  0  0
  -28.7777  -18.1717   22.3633 C   0  0  0  0  0  0
  -28.9609  -20.2939   21.0648 C   0  0  0  0  0  0
  -30.0965  -16.7401   20.6973 C   0  0  0  0  0  0
  -28.4497  -22.7615   20.9698 C   0  0  0  0  0  0
  -27.8696  -17.6474   24.7201 C   0  0  0  0  0  0
  -28.4970  -17.1283   23.4152 C   0  0  0  0  0  0
  -28.6106  -24.0645   20.1327 C   0  0  0  0  0  0
  -28.2484  -25.3856   20.8894 C   0  0  0  0  0  0
  -29.5781  -19.2600   20.4668 N   0  0  0  0  0  0
  -29.9514  -15.5518   21.1842 N   0  0  0  0  0  0
  -28.9810  -21.6096   20.4864 N   0  0  0  0  0  0
  -27.8434  -22.8164   22.0432 O   0  0  0  0  0  0
  -28.1818  -19.8146   22.5665 S   0  0  0  0  0  0
  -31.4691  -12.4192   19.1458 H   0  0  0  0  0  0
  -30.3206  -11.3236   19.8532 H   0  0  0  0  0  0
  -29.7491  -11.7757   17.4489 H   0  0  0  0  0  0
  -29.6613  -13.4908   17.7755 H   0  0  0  0  0  0
  -27.8496  -11.3006   18.8454 H   0  0  0  0  0  0
  -27.3695  -12.6028   17.7897 H   0  0  0  0  0  0
  -27.6970  -14.2549   19.5570 H   0  0  0  0  0  0
  -28.6801  -11.9917   21.3620 H   0  0  0  0  0  0
  -28.4432  -13.6375   21.8615 H   0  0  0  0  0  0
  -25.2761   -9.5672   22.4746 H   0  0  0  0  0  0
  -23.9991   -7.4630   22.7470 H   0  0  0  0  0  0
  -21.0829   -8.8764   19.8959 H   0  0  0  0  0  0
  -22.3683  -10.9663   19.6149 H   0  0  0  0  0  0
  -21.2012   -7.6148   23.9712 H   0  0  0  0  0  0
  -21.1482   -6.0530   25.9081 H   0  0  0  0  0  0
  -22.0597   -2.7605   23.2855 H   0  0  0  0  0  0
  -22.4145  -11.9879   22.4782 H   0  0  0  0  0  0
  -21.1131  -13.1235   22.2657 H   0  0  0  0  0  0
  -24.6747  -15.8535   20.5317 H   0  0  0  0  0  0
  -26.3026  -15.6243   20.1342 H   0  0  0  0  0  0
  -26.7289  -32.5566   23.1216 H   0  0  0  0  0  0
  -25.0170  -33.9789   25.0531 H   0  0  0  0  0  0
  -22.7406  -31.3243   21.4167 H   0  0  0  0  0  0
  -23.3748  -35.9652   23.3312 H   0  0  0  0  0  0
  -24.3578  -36.8911   22.2038 H   0  0  0  0  0  0
  -23.7257  -37.6525   23.6629 H   0  0  0  0  0  0
  -26.0691  -31.5970   20.5945 H   0  0  0  0  0  0
  -26.8485  -30.8880   21.9803 H   0  0  0  0  0  0
  -28.1224  -29.0813   21.1545 H   0  0  0  0  0  0
  -26.0538  -25.9466   19.0410 H   0  0  0  0  0  0
  -23.9805  -27.2950   19.0454 H   0  0  0  0  0  0
  -23.7326  -30.5953   19.4120 H   0  0  0  0  0  0
  -22.7506  -29.2439   19.8935 H   0  0  0  0  0  0
  -25.1288  -36.1974   25.0824 H   0  0  0  0  0  0
  -20.1591  -28.6793   21.7590 H   0  0  0  0  0  0
  -20.6810  -26.4255   23.4792 H   0  0  0  0  0  0
  -21.6596  -26.7678   22.0663 H   0  0  0  0  0  0
  -19.6582  -25.3848   21.4443 H   0  0  0  0  0  0
  -19.6370  -26.9149   20.6316 H   0  0  0  0  0  0
  -17.3993  -26.6293   21.4281 H   0  0  0  0  0  0
  -17.9287  -26.0021   22.9652 H   0  0  0  0  0  0
  -19.7902  -30.7500   24.1519 H   0  0  0  0  0  0
  -17.4972  -31.6182   24.5433 H   0  0  0  0  0  0
  -15.5230  -30.2871   23.8293 H   0  0  0  0  0  0
  -15.8295  -28.0589   22.7878 H   0  0  0  0  0  0
  -24.5944  -30.7069   25.7788 H   0  0  0  0  0  0
  -24.8966  -32.2867   26.4915 H   0  0  0  0  0  0
  -25.8096  -30.8861   27.0236 H   0  0  0  0  0  0
  -26.2905  -29.6796   24.1173 H   0  0  0  0  0  0
  -27.4112  -29.7257   25.4591 H   0  0  0  0  0  0
  -27.8751  -30.4333   23.9295 H   0  0  0  0  0  0
  -27.2710  -33.3584   26.2157 H   0  0  0  0  0  0
  -28.3916  -32.6887   25.0393 H   0  0  0  0  0  0
  -28.0764  -31.8396   26.5452 H   0  0  0  0  0  0
  -28.2609  -38.0104   24.7495 H   0  0  0  0  0  0
  -28.1065  -36.2629   24.6315 H   0  0  0  0  0  0
  -27.2286  -37.1501   25.8868 H   0  0  0  0  0  0
  -21.0761  -30.1614   21.7911 H   0  0  0  0  0  0
  -26.0182  -38.2879   24.1404 H   0  0  0  0  0  0
  -30.7329  -16.8942   19.8196 H   0  0  0  0  0  0
  -28.5048  -18.3942   25.1973 H   0  0  0  0  0  0
  -27.7343  -16.8336   25.4334 H   0  0  0  0  0  0
  -26.8882  -18.0931   24.5486 H   0  0  0  0  0  0
  -27.8489  -16.3563   22.9976 H   0  0  0  0  0  0
  -29.4299  -16.6263   23.6755 H   0  0  0  0  0  0
  -27.9808  -23.9746   19.2481 H   0  0  0  0  0  0
  -29.6402  -24.1241   19.7804 H   0  0  0  0  0  0
  -28.9202  -25.4882   21.7423 H   0  0  0  0  0  0
  -27.2524  -25.2898   21.3284 H   0  0  0  0  0  0
  -29.4638  -21.6857   19.6037 H   0  0  0  0  0  0
  1 25  1  0  0  0
  1 30  2  0  0  0
  1 81  1  0  0  0
  2  3  1  0  0  0
  2 25  1  0  0  0
  2 85  1  0  0  0
  2 86  1  0  0  0
  3  4  1  0  0  0
  3 87  1  0  0  0
  3 88  1  0  0  0
  4  5  1  0  0  0
  4 89  1  0  0  0
  4 90  1  0  0  0
  5  6  1  0  0  0
  5 26  1  0  0  0
  5 91  1  0  0  0
  6 25  1  0  0  0
  6 92  1  0  0  0
  6 93  1  0  0  0
  7  8  2  0  0  0
  7 26  1  0  0  0
  7 29  1  0  0  0
  8  9  1  0  0  0
  8 22  1  0  0  0
  9 10  1  0  0  0
  9 27  2  0  0  0
 10 11  2  0  0  0
 10 15  1  0  0  0
 11 12  1  0  0  0
 11 94  1  0  0  0
 12 13  2  0  0  0
 12 95  1  0  0  0
 13 14  1  0  0  0
 13 31  1  0  0  0
 14 15  2  0  0  0
 14 96  1  0  0  0
 15 97  1  0  0  0
 16 17  2  0  0  0
 16 21  1  0  0  0
 16 31  1  0  0  0
 17 18  1  0  0  0
 17 98  1  0  0  0
 18 19  2  0  0  0
 18 99  1  0  0  0
 19 20  1  0  0  0
 19 24  1  0  0  0
 20 21  2  0  0  0
 20100  1  0  0  0
 21 23  1  0  0  0
 22 28  1  0  0  0
 22 32  2  0  0  0
 26 27  1  0  0  0
 28101  1  0  0  0
 28102  1  0  0  0
 29103  1  0  0  0
 29104  1  0  0  0
 33 34  1  0  0  0
 33 66  1  0  0  0
 33 70  2  0  0  0
 34 36  1  0  0  0
 34 59  1  0  0  0
 34105  1  0  0  0
 35 44  2  0  0  0
 35 45  1  0  0  0
 35 68  1  0  0  0
 36 56  1  0  0  0
 36106  1  0  0  0
 37 39  1  0  0  0
 37 47  1  0  0  0
 37 66  1  0  0  0
 37107  1  0  0  0
 38 43  2  0  0  0
 38 46  1  0  0  0
 38 47  1  0  0  0
 39 64  1  0  0  0
 39 67  2  0  0  0
 40 52  1  0  0  0
 40 53  2  0  0  0
 40 58  1  0  0  0
 41108  1  0  0  0
 41109  1  0  0  0
 41110  1  0  0  0
 41 48  1  0  0  0
 42 43  1  0  0  0
 42 66  1  0  0  0
 42111  1  0  0  0
 42112  1  0  0  0
 43 44  1  0  0  0
 44113  1  0  0  0
 45 46  2  0  0  0
 45114  1  0  0  0
 46115  1  0  0  0
 47116  1  0  0  0
 47117  1  0  0  0
 48 56  1  0  0  0
 48 65  1  0  0  0
 48118  1  0  0  0
 49 50  1  0  0  0
 49 53  1  0  0  0
 49 64  1  0  0  0
 49119  1  0  0  0
 50 51  1  0  0  0
 50120  1  0  0  0
 50121  1  0  0  0
 51 52  1  0  0  0
 51122  1  0  0  0
 51123  1  0  0  0
 52124  1  0  0  0
 52125  1  0  0  0
 53 54  1  0  0  0
 54 55  2  0  0  0
 54126  1  0  0  0
 55 57  1  0  0  0
 55127  1  0  0  0
 56 69  2  0  0  0
 57 58  2  0  0  0
 57128  1  0  0  0
 58129  1  0  0  0
 59 60  1  0  0  0
 59 61  1  0  0  0
 59 62  1  0  0  0
 60130  1  0  0  0
 60131  1  0  0  0
 60132  1  0  0  0
 61133  1  0  0  0
 61134  1  0  0  0
 61135  1  0  0  0
 62136  1  0  0  0
 62137  1  0  0  0
 62138  1  0  0  0
 63 65  1  0  0  0
 63139  1  0  0  0
 63140  1  0  0  0
 63141  1  0  0  0
 64142  1  0  0  0
 65143  1  0  0  0
 68 79  1  0  0  0
 71 72  2  0  0  0
 71 74  1  0  0  0
 71 80  1  0  0  0
 72 77  1  0  0  0
 72 84  1  0  0  0
 73 80  2  0  0  0
 73 82  1  0  0  0
 73 84  1  0  0  0
 74 81  2  0  0  0
 74144  1  0  0  0
 75 78  1  0  0  0
 75 82  1  0  0  0
 75 83  2  0  0  0
 76 77  1  0  0  0
 76145  1  0  0  0
 76146  1  0  0  0
 76147  1  0  0  0
 77148  1  0  0  0
 77149  1  0  0  0
 78 79  1  0  0  0
 78150  1  0  0  0
 78151  1  0  0  0
 79152  1  0  0  0
 79153  1  0  0  0
 82154  1  0  0  0
M  ISO  4   1 100  68 101  79 101  81 100
M  END
> <chiral flag>
0

> <version>
0

> <s_m_source_file>
/data/baiqing/PycharmProjects/Reinvent-master-3.2/result/LINK_invent/BTK/process_docking_weight1_custom_product_contain_oxygen_bond_distance_aromatic_linkinvent_7_9_3/rearranged_h_0114.sdf

> <i_m_source_file_index>
90

> <r_mmod_Potential_Energy-OPLS-2005>
21.182430267334

> <r_mmod_Stretch_Energy-OPLS-2005>
45.9636878967285

> <r_mmod_Bend_Energy-OPLS-2005>
208.123977661133

> <r_mmod_Torsional_Energy-OPLS-2005>
181.20051574707

> <r_mmod_Improper_Torsional_Energy-OPLS-2005>
4.33971214294434

> <r_mmod_Van_der_Waal_Energy-OPLS-2005>
147.999649047852

> <r_mmod_Electrostatic_Energy-OPLS-2005>
-398.450347900391

> <r_mmod_Solvation_Energy-OPLS-2005>
-206.526565551758

> <b_mmod_Minimization_Converged-OPLS-2005>
0

> <r_mmod_RMS_Derivative-OPLS-2005>
1.60389637947083

$$$$
90
                    3D
 Structure written by MMmdl.
158166  0  0  1  0            999 V2000
  -30.6501  -14.7770   20.4898 C   0  0  0  0  0  0
  -30.4228  -12.4940   19.4652 C   0  0  0  0  0  0
  -29.5001  -12.5054   18.2296 C   0  0  0  0  0  0
  -28.0318  -12.3213   18.6548 C   0  0  0  0  0  0
  -27.6331  -13.2396   19.8412 C   0  0  2  0  0  0
  -28.6822  -13.2221   20.9735 C   0  0  0  0  0  0
  -25.2478  -13.8208   20.5722 C   0  0  0  0  0  0
  -24.1780  -13.0436   20.9226 C   0  0  0  0  0  0
  -24.6385  -11.6923   20.8752 C   0  0  0  0  0  0
  -23.9066  -10.4296   21.0402 C   0  0  0  0  0  0
  -24.3616   -9.4214   21.9181 C   0  0  0  0  0  0
  -23.6297   -8.2245   22.0748 C   0  0  0  0  0  0
  -22.4281   -8.0279   21.3538 C   0  0  0  0  0  0
  -21.9914   -9.0252   20.4640 C   0  0  0  0  0  0
  -22.7237  -10.2136   20.3056 C   0  0  0  0  0  0
  -21.6853   -6.0734   22.5278 C   0  0  0  0  0  0
  -21.4012   -6.5640   23.8209 C   0  0  0  0  0  0
  -21.3659   -5.6792   24.9171 C   0  0  0  0  0  0
  -21.6046   -4.3056   24.7221 C   0  0  0  0  0  0
  -21.8821   -3.8148   23.4344 C   0  0  0  0  0  0
  -21.9195   -4.6964   22.3400 C   0  0  0  0  0  0
  -22.7806  -13.5212   21.1882 C   0  0  0  0  0  0
  -22.1665   -4.2150   21.0977 F   0  0  0  0  0  0
  -21.5629   -3.4540   25.7734 F   0  0  0  0  0  0
  -29.9703  -13.5811   20.3692 N   0  0  0  0  0  0
  -26.2902  -12.9433   20.3279 N   0  0  0  0  0  0
  -25.9316  -11.6569   20.5752 N   0  0  0  0  0  0
  -22.0459  -12.8191   22.0437 N   0  0  0  0  0  0
  -25.4159  -15.1932   20.4149 N   0  0  0  0  0  0
  -31.8407  -14.8121   20.1661 O   0  0  0  0  0  0
  -21.6645   -6.8877   21.4239 O   0  0  0  0  0  0
  -22.3494  -14.5518   20.6732 O   0  0  0  0  0  0
  -24.6355  -31.8516   23.1953 C   0  0  0  0  0  0
  -25.9160  -32.4730   23.8315 C   0  0  1  0  0  0
  -27.2194  -27.2272   20.1293 C   0  0  0  0  0  0
  -25.5928  -33.8533   24.2228 N   0  0  0  0  0  0
  -23.4342  -30.4733   21.5408 C   0  0  2  0  0  0
  -24.8814  -28.9174   20.1075 C   0  0  0  0  0  0
  -22.7537  -29.4570   22.4901 C   0  0  0  0  0  0
  -18.0288  -28.1403   22.8485 C   0  0  0  0  0  0
  -24.1481  -36.7282   23.2635 C   0  0  0  0  0  0
  -25.9829  -30.7521   21.3819 C   0  0  0  0  0  0
  -26.0542  -29.3717   20.7233 C   0  0  0  0  0  0
  -27.2247  -28.5400   20.7238 C   0  0  0  0  0  0
  -26.0253  -26.8580   19.4670 C   0  0  0  0  0  0
  -24.8754  -27.6715   19.4643 C   0  0  0  0  0  0
  -23.6539  -29.8083   20.1572 C   0  0  0  0  0  0
  -25.4102  -36.3049   24.0317 C   0  0  1  0  0  0
  -20.5898  -28.3710   23.1266 C   0  0  2  0  0  0
  -20.6774  -26.9420   22.5415 C   0  0  0  0  0  0
  -19.5740  -26.6386   21.5224 C   0  0  0  0  0  0
  -18.1925  -26.7941   22.1636 C   0  0  0  0  0  0
  -19.1547  -28.8873   23.2869 C   0  0  0  0  0  0
  -18.9467  -30.1476   23.8881 C   0  0  0  0  0  0
  -17.6463  -30.6594   24.0570 C   0  0  0  0  0  0
  -25.9055  -34.9426   23.5080 C   0  0  0  0  0  0
  -16.5352  -29.9097   23.6332 C   0  0  0  0  0  0
  -16.7274  -28.6524   23.0339 C   0  0  0  0  0  0
  -26.4511  -31.6570   25.0723 C   0  0  0  0  0  0
  -25.3722  -31.3725   26.1440 C   0  0  0  0  0  0
  -27.0372  -30.2980   24.6234 C   0  0  0  0  0  0
  -27.6045  -32.4345   25.7494 C   0  0  0  0  0  0
  -27.5589  -37.1761   24.8435 C   0  0  0  0  0  0
  -21.4236  -29.3043   22.3654 N   0  0  0  0  0  0
  -26.4257  -37.3774   23.9438 N   0  0  0  0  0  0
  -24.7038  -31.0444   22.0952 N   0  0  0  0  0  0
  -23.4229  -28.8102   23.3000 O   0  0  0  0  0  0
  -28.2971  -26.2989   20.2089 O   0  0  0  0  0  0
  -26.5656  -34.8922   22.4670 O   0  0  0  0  0  0
  -23.5491  -32.1348   23.7216 O   0  0  0  0  0  0
  -31.2444  -18.6592   23.9018 C   0  0  0  0  0  0
  -31.3813  -16.6592   22.5930 C   0  0  0  0  0  0
  -30.3230  -19.2083   22.9898 C   0  0  0  0  0  0
  -30.0153  -18.5601   21.7312 C   0  0  0  0  0  0
  -30.4475  -17.1218   21.6189 C   0  0  0  0  0  0
  -31.8078  -17.4125   23.6835 C   0  0  0  0  0  0
  -30.3058  -21.4465   24.1557 C   0  0  0  0  0  0
  -29.6982  -20.4698   23.4599 C   0  0  0  0  0  0
  -29.2520  -19.4609   20.6849 C   0  0  0  0  0  0
  -29.0070  -23.5885   20.4651 C   0  0  0  0  0  0
  -28.6567  -22.0275   20.0822 C   0  0  0  0  0  0
  -28.0457  -24.8188   19.9662 C   0  0  0  0  0  0
  -29.9815  -15.9817   20.7625 N   0  0  0  0  0  0
  -29.4329  -20.8527   20.7034 N   0  0  0  0  0  0
  -28.4941  -18.9347   19.8692 O   0  0  0  0  0  0
  -32.6900  -16.8952   24.5721 F   0  0  0  0  0  0
  -31.4602  -12.6150   19.1511 H   0  0  0  0  0  0
  -30.3775  -11.5307   19.9750 H   0  0  0  0  0  0
  -29.7882  -11.7164   17.5335 H   0  0  0  0  0  0
  -29.6149  -13.4474   17.6910 H   0  0  0  0  0  0
  -27.9033  -11.2761   18.9379 H   0  0  0  0  0  0
  -27.3677  -12.4876   17.8057 H   0  0  0  0  0  0
  -27.6114  -14.2517   19.4358 H   0  0  0  0  0  0
  -28.7364  -12.2412   21.4474 H   0  0  0  0  0  0
  -28.4107  -13.9305   21.7577 H   0  0  0  0  0  0
  -25.2759   -9.5698   22.4760 H   0  0  0  0  0  0
  -24.0010   -7.4640   22.7466 H   0  0  0  0  0  0
  -21.0848   -8.8768   19.8943 H   0  0  0  0  0  0
  -22.3687  -10.9677   19.6171 H   0  0  0  0  0  0
  -21.2003   -7.6148   23.9710 H   0  0  0  0  0  0
  -21.1477   -6.0522   25.9072 H   0  0  0  0  0  0
  -22.0599   -2.7613   23.2841 H   0  0  0  0  0  0
  -22.4093  -11.9860   22.4825 H   0  0  0  0  0  0
  -21.1069  -13.1200   22.2635 H   0  0  0  0  0  0
  -24.6491  -15.8461   20.5336 H   0  0  0  0  0  0
  -26.2622  -15.6378   20.0835 H   0  0  0  0  0  0
  -26.7235  -32.5381   23.1062 H   0  0  0  0  0  0
  -25.0010  -33.9660   25.0330 H   0  0  0  0  0  0
  -22.7311  -31.2963   21.3949 H   0  0  0  0  0  0
  -23.3748  -35.9606   23.3229 H   0  0  0  0  0  0
  -24.3587  -36.8989   22.2066 H   0  0  0  0  0  0
  -23.7220  -37.6451   23.6720 H   0  0  0  0  0  0
  -26.1252  -31.5089   20.6096 H   0  0  0  0  0  0
  -26.8602  -30.8050   22.0150 H   0  0  0  0  0  0
  -28.1190  -28.8803   21.2274 H   0  0  0  0  0  0
  -25.9466  -25.9099   18.9559 H   0  0  0  0  0  0
  -23.9820  -27.3245   18.9646 H   0  0  0  0  0  0
  -23.7836  -30.5869   19.4051 H   0  0  0  0  0  0
  -22.7706  -29.2468   19.8477 H   0  0  0  0  0  0
  -25.1271  -36.1869   25.0800 H   0  0  0  0  0  0
  -20.9989  -28.3304   24.1386 H   0  0  0  0  0  0
  -20.5681  -26.2318   23.3632 H   0  0  0  0  0  0
  -21.6642  -26.7448   22.1203 H   0  0  0  0  0  0
  -19.6894  -25.6296   21.1256 H   0  0  0  0  0  0
  -19.6666  -27.3196   20.6758 H   0  0  0  0  0  0
  -17.4190  -26.6682   21.4041 H   0  0  0  0  0  0
  -18.0317  -26.0096   22.9044 H   0  0  0  0  0  0
  -19.7943  -30.7305   24.2230 H   0  0  0  0  0  0
  -17.5014  -31.6264   24.5198 H   0  0  0  0  0  0
  -15.5353  -30.2991   23.7665 H   0  0  0  0  0  0
  -15.8679  -28.0854   22.7028 H   0  0  0  0  0  0
  -24.5898  -30.7073   25.7760 H   0  0  0  0  0  0
  -24.8912  -32.2893   26.4859 H   0  0  0  0  0  0
  -25.8044  -30.8905   27.0218 H   0  0  0  0  0  0
  -26.2973  -29.6703   24.1253 H   0  0  0  0  0  0
  -27.4026  -29.7264   25.4771 H   0  0  0  0  0  0
  -27.8859  -30.4223   23.9508 H   0  0  0  0  0  0
  -27.2627  -33.3644   26.2050 H   0  0  0  0  0  0
  -28.3862  -32.6918   25.0335 H   0  0  0  0  0  0
  -28.0710  -31.8497   26.5428 H   0  0  0  0  0  0
  -28.2498  -38.0167   24.7647 H   0  0  0  0  0  0
  -28.1203  -36.2711   24.6048 H   0  0  0  0  0  0
  -27.2343  -37.1145   25.8839 H   0  0  0  0  0  0
  -20.9430  -29.8784   21.6871 H   0  0  0  0  0  0
  -26.0117  -38.2815   24.1556 H   0  0  0  0  0  0
  -31.5000  -19.1703   24.8183 H   0  0  0  0  0  0
  -31.7838  -15.6588   22.5851 H   0  0  0  0  0  0
  -29.7533  -22.3194   24.4742 H   0  0  0  0  0  0
  -31.3532  -21.4030   24.4189 H   0  0  0  0  0  0
  -28.6435  -20.5884   23.2493 H   0  0  0  0  0  0
  -30.0153  -23.7967   20.1040 H   0  0  0  0  0  0
  -29.0745  -23.6539   21.5509 H   0  0  0  0  0  0
  -28.7298  -21.9220   18.9994 H   0  0  0  0  0  0
  -27.6052  -21.8594   20.3171 H   0  0  0  0  0  0
  -27.0673  -24.5868   20.3874 H   0  0  0  0  0  0
  -27.9349  -24.7096   18.8867 H   0  0  0  0  0  0
  -28.9865  -15.9617   20.5941 H   0  0  0  0  0  0
  -30.1173  -21.1371   21.3923 H   0  0  0  0  0  0
  1 25  1  0  0  0
  1 30  2  0  0  0
  1 83  1  0  0  0
  2  3  1  0  0  0
  2 25  1  0  0  0
  2 87  1  0  0  0
  2 88  1  0  0  0
  3  4  1  0  0  0
  3 89  1  0  0  0
  3 90  1  0  0  0
  4  5  1  0  0  0
  4 91  1  0  0  0
  4 92  1  0  0  0
  5  6  1  0  0  0
  5 26  1  0  0  0
  5 93  1  0  0  0
  6 25  1  0  0  0
  6 94  1  0  0  0
  6 95  1  0  0  0
  7  8  2  0  0  0
  7 26  1  0  0  0
  7 29  1  0  0  0
  8  9  1  0  0  0
  8 22  1  0  0  0
  9 10  1  0  0  0
  9 27  2  0  0  0
 10 11  2  0  0  0
 10 15  1  0  0  0
 11 12  1  0  0  0
 11 96  1  0  0  0
 12 13  2  0  0  0
 12 97  1  0  0  0
 13 14  1  0  0  0
 13 31  1  0  0  0
 14 15  2  0  0  0
 14 98  1  0  0  0
 15 99  1  0  0  0
 16 17  2  0  0  0
 16 21  1  0  0  0
 16 31  1  0  0  0
 17 18  1  0  0  0
 17100  1  0  0  0
 18 19  2  0  0  0
 18101  1  0  0  0
 19 20  1  0  0  0
 19 24  1  0  0  0
 20 21  2  0  0  0
 20102  1  0  0  0
 21 23  1  0  0  0
 22 28  1  0  0  0
 22 32  2  0  0  0
 26 27  1  0  0  0
 28103  1  0  0  0
 28104  1  0  0  0
 29105  1  0  0  0
 29106  1  0  0  0
 33 34  1  0  0  0
 33 66  1  0  0  0
 33 70  2  0  0  0
 34 36  1  0  0  0
 34 59  1  0  0  0
 34107  1  0  0  0
 35 44  2  0  0  0
 35 45  1  0  0  0
 35 68  1  0  0  0
 36 56  1  0  0  0
 36108  1  0  0  0
 37 39  1  0  0  0
 37 47  1  0  0  0
 37 66  1  0  0  0
 37109  1  0  0  0
 38 43  2  0  0  0
 38 46  1  0  0  0
 38 47  1  0  0  0
 39 64  1  0  0  0
 39 67  2  0  0  0
 40 52  1  0  0  0
 40 53  2  0  0  0
 40 58  1  0  0  0
 41110  1  0  0  0
 41111  1  0  0  0
 41112  1  0  0  0
 41 48  1  0  0  0
 42 43  1  0  0  0
 42 66  1  0  0  0
 42113  1  0  0  0
 42114  1  0  0  0
 43 44  1  0  0  0
 44115  1  0  0  0
 45 46  2  0  0  0
 45116  1  0  0  0
 46117  1  0  0  0
 47118  1  0  0  0
 47119  1  0  0  0
 48 56  1  0  0  0
 48 65  1  0  0  0
 48120  1  0  0  0
 49 50  1  0  0  0
 49 53  1  0  0  0
 49 64  1  0  0  0
 49121  1  0  0  0
 50 51  1  0  0  0
 50122  1  0  0  0
 50123  1  0  0  0
 51 52  1  0  0  0
 51124  1  0  0  0
 51125  1  0  0  0
 52126  1  0  0  0
 52127  1  0  0  0
 53 54  1  0  0  0
 54 55  2  0  0  0
 54128  1  0  0  0
 55 57  1  0  0  0
 55129  1  0  0  0
 56 69  2  0  0  0
 57 58  2  0  0  0
 57130  1  0  0  0
 58131  1  0  0  0
 59 60  1  0  0  0
 59 61  1  0  0  0
 59 62  1  0  0  0
 60132  1  0  0  0
 60133  1  0  0  0
 60134  1  0  0  0
 61135  1  0  0  0
 61136  1  0  0  0
 61137  1  0  0  0
 62138  1  0  0  0
 62139  1  0  0  0
 62140  1  0  0  0
 63 65  1  0  0  0
 63141  1  0  0  0
 63142  1  0  0  0
 63143  1  0  0  0
 64144  1  0  0  0
 65145  1  0  0  0
 68 82  1  0  0  0
 71 73  2  0  0  0
 71 76  1  0  0  0
 71146  1  0  0  0
 72 75  1  0  0  0
 72 76  2  0  0  0
 72147  1  0  0  0
 73 74  1  0  0  0
 73 78  1  0  0  0
 74 75  2  0  0  0
 74 79  1  0  0  0
 75 83  1  0  0  0
 76 86  1  0  0  0
 77 78  2  0  0  0
 77148  1  0  0  0
 77149  1  0  0  0
 78150  1  0  0  0
 79 84  1  0  0  0
 79 85  2  0  0  0
 80 81  1  0  0  0
 80 82  1  0  0  0
 80151  1  0  0  0
 80152  1  0  0  0
 81 84  1  0  0  0
 81153  1  0  0  0
 81154  1  0  0  0
 82155  1  0  0  0
 82156  1  0  0  0
 83157  1  0  0  0
 84158  1  0  0  0
M  ISO  4   1 100  68 101  82 101  83 100
M  END
> <chiral flag>
0

> <version>
0

> <s_m_source_file>
/data/baiqing/PycharmProjects/Reinvent-master-3.2/result/LINK_invent/BTK/process_docking_weight1_custom_product_contain_oxygen_bond_distance_aromatic_linkinvent_7_9_3/rearranged_h_0114.sdf

> <i_m_source_file_index>
91

> <r_mmod_Potential_Energy-OPLS-2005>
406.087646484375

> <r_mmod_Stretch_Energy-OPLS-2005>
179.624328613281

> <r_mmod_Bend_Energy-OPLS-2005>
215.973876953125

> <r_mmod_Torsional_Energy-OPLS-2005>
278.232025146484

> <r_mmod_Improper_Torsional_Energy-OPLS-2005>
6.61223268508911

> <r_mmod_Van_der_Waal_Energy-OPLS-2005>
166.582458496094

> <r_mmod_Electrostatic_Energy-OPLS-2005>
-325.427978515625

> <r_mmod_Solvation_Energy-OPLS-2005>
-222.908538818359

> <b_mmod_Minimization_Converged-OPLS-2005>
0

> <r_mmod_RMS_Derivative-OPLS-2005>
1.56696939468384

$$$$
91
                    3D
 Structure written by MMmdl.
162171  0  0  1  0            999 V2000
  -30.6181  -14.7256   20.4600 C   0  0  0  0  0  0
  -30.4328  -12.4384   19.4936 C   0  0  0  0  0  0
  -29.5244  -12.5103   18.2487 C   0  0  0  0  0  0
  -28.0440  -12.3487   18.6456 C   0  0  0  0  0  0
  -27.6462  -13.2355   19.8572 C   0  0  2  0  0  0
  -28.6857  -13.1607   20.9979 C   0  0  0  0  0  0
  -25.2528  -13.8200   20.5663 C   0  0  0  0  0  0
  -24.1820  -13.0445   20.9169 C   0  0  0  0  0  0
  -24.6407  -11.6925   20.8726 C   0  0  0  0  0  0
  -23.9080  -10.4296   21.0371 C   0  0  0  0  0  0
  -24.3647   -9.4221   21.9151 C   0  0  0  0  0  0
  -23.6314   -8.2260   22.0742 C   0  0  0  0  0  0
  -22.4287   -8.0287   21.3544 C   0  0  0  0  0  0
  -21.9912   -9.0256   20.4642 C   0  0  0  0  0  0
  -22.7243  -10.2131   20.3031 C   0  0  0  0  0  0
  -21.6870   -6.0733   22.5261 C   0  0  0  0  0  0
  -21.4030   -6.5634   23.8195 C   0  0  0  0  0  0
  -21.3669   -5.6782   24.9157 C   0  0  0  0  0  0
  -21.6043   -4.3038   24.7200 C   0  0  0  0  0  0
  -21.8831   -3.8140   23.4318 C   0  0  0  0  0  0
  -21.9203   -4.6964   22.3383 C   0  0  0  0  0  0
  -22.7840  -13.5231   21.1815 C   0  0  0  0  0  0
  -22.1656   -4.2151   21.0957 F   0  0  0  0  0  0
  -21.5635   -3.4523   25.7711 F   0  0  0  0  0  0
  -29.9931  -13.5016   20.4273 N   0  0  0  0  0  0
  -26.2959  -12.9419   20.3285 N   0  0  0  0  0  0
  -25.9343  -11.6557   20.5757 N   0  0  0  0  0  0
  -22.0485  -12.8236   22.0384 N   0  0  0  0  0  0
  -25.4205  -15.1929   20.4056 N   0  0  0  0  0  0
  -31.8035  -14.8072   20.1220 O   0  0  0  0  0  0
  -21.6667   -6.8877   21.4222 O   0  0  0  0  0  0
  -22.3500  -14.5507   20.6627 O   0  0  0  0  0  0
  -24.6326  -31.8575   23.2010 C   0  0  0  0  0  0
  -25.9162  -32.4753   23.8339 C   0  0  1  0  0  0
  -27.2086  -27.2708   20.1312 C   0  0  0  0  0  0
  -25.5975  -33.8557   24.2277 N   0  0  0  0  0  0
  -23.4256  -30.4846   21.5439 C   0  0  2  0  0  0
  -24.8715  -28.9421   20.1073 C   0  0  0  0  0  0
  -22.7511  -29.4610   22.4897 C   0  0  0  0  0  0
  -18.0299  -28.1348   22.8489 C   0  0  0  0  0  0
  -24.1495  -36.7290   23.2632 C   0  0  0  0  0  0
  -25.9723  -30.7775   21.3761 C   0  0  0  0  0  0
  -26.0444  -29.4019   20.7182 C   0  0  0  0  0  0
  -27.2176  -28.5790   20.7200 C   0  0  0  0  0  0
  -26.0102  -26.8871   19.4802 C   0  0  0  0  0  0
  -24.8605  -27.6923   19.4762 C   0  0  0  0  0  0
  -23.6428  -29.8268   20.1571 C   0  0  0  0  0  0
  -25.4114  -36.3058   24.0321 C   0  0  1  0  0  0
  -20.5909  -28.3671   23.1257 C   0  0  2  0  0  0
  -20.6782  -26.9381   22.5401 C   0  0  0  0  0  0
  -19.5750  -26.6346   21.5211 C   0  0  0  0  0  0
  -18.1932  -26.7888   22.1616 C   0  0  0  0  0  0
  -19.1555  -28.8828   23.2867 C   0  0  0  0  0  0
  -18.9466  -30.1433   23.8870 C   0  0  0  0  0  0
  -17.6464  -30.6555   24.0545 C   0  0  0  0  0  0
  -25.9066  -34.9435   23.5093 C   0  0  0  0  0  0
  -16.5359  -29.9050   23.6313 C   0  0  0  0  0  0
  -16.7282  -28.6464   23.0343 C   0  0  0  0  0  0
  -26.4524  -31.6557   25.0720 C   0  0  0  0  0  0
  -25.3771  -31.3684   26.1456 C   0  0  0  0  0  0
  -27.0389  -30.2987   24.6171 C   0  0  0  0  0  0
  -27.6046  -32.4308   25.7532 C   0  0  0  0  0  0
  -27.5570  -37.1809   24.8454 C   0  0  0  0  0  0
  -21.4213  -29.3042   22.3659 N   0  0  0  0  0  0
  -26.4274  -37.3771   23.9414 N   0  0  0  0  0  0
  -24.6965  -31.0569   22.0969 N   0  0  0  0  0  0
  -23.4223  -28.8138   23.2968 O   0  0  0  0  0  0
  -28.2844  -26.3541   20.2140 O   0  0  0  0  0  0
  -26.5606  -34.8909   22.4643 O   0  0  0  0  0  0
  -23.5479  -32.1372   23.7323 O   0  0  0  0  0  0
  -30.9628  -18.7092   18.4257 C   0  0  0  0  0  0
  -30.4146  -19.8646   19.0151 C   0  0  0  0  0  0
  -30.7772  -17.4365   18.9953 C   0  0  0  0  0  0
  -29.4633  -18.4630   20.7591 C   0  0  0  0  0  0
  -29.6312  -19.7962   20.1846 C   0  0  0  0  0  0
  -30.0429  -17.2513   20.1902 C   0  0  0  0  0  0
  -30.1640  -24.0735   20.9210 C   0  0  0  0  0  0
  -28.9692  -23.7376   20.3840 C   0  0  0  0  0  0
  -31.2539  -23.1544   21.3047 C   0  0  0  0  0  0
  -31.0163  -21.8902   22.1479 C   0  0  0  0  0  0
  -29.6056  -21.2857   22.1225 C   0  0  0  0  0  0
  -28.4959  -22.2386   20.0870 C   0  0  1  0  0  0
  -28.1885  -22.0224   18.5931 C   0  0  0  0  0  0
  -27.9588  -24.9022   20.0142 C   0  0  0  0  0  0
  -29.1505  -21.0423   20.7623 N   0  0  0  0  0  0
  -29.8664  -15.8680   20.7132 N   0  0  0  0  0  0
  -32.4200  -23.4166   20.9990 O   0  0  0  0  0  0
  -31.4799  -12.5459   19.2060 H   0  0  0  0  0  0
  -30.3534  -11.4593   19.9679 H   0  0  0  0  0  0
  -29.8092  -11.7379   17.5336 H   0  0  0  0  0  0
  -29.6727  -13.4670   17.7442 H   0  0  0  0  0  0
  -27.8786  -11.2973   18.8855 H   0  0  0  0  0  0
  -27.4032  -12.5697   17.7917 H   0  0  0  0  0  0
  -27.6438  -14.2617   19.4911 H   0  0  0  0  0  0
  -28.7100  -12.1633   21.4382 H   0  0  0  0  0  0
  -28.4220  -13.8407   21.8090 H   0  0  0  0  0  0
  -25.2805   -9.5704   22.4706 H   0  0  0  0  0  0
  -24.0034   -7.4659   22.7456 H   0  0  0  0  0  0
  -21.0849   -8.8770   19.8952 H   0  0  0  0  0  0
  -22.3692  -10.9671   19.6143 H   0  0  0  0  0  0
  -21.2025   -7.6140   23.9698 H   0  0  0  0  0  0
  -21.1479   -6.0506   25.9062 H   0  0  0  0  0  0
  -22.0605   -2.7600   23.2815 H   0  0  0  0  0  0
  -22.4130  -11.9968   22.4881 H   0  0  0  0  0  0
  -21.1070  -13.1217   22.2504 H   0  0  0  0  0  0
  -24.6541  -15.8469   20.5216 H   0  0  0  0  0  0
  -26.2664  -15.6337   20.0660 H   0  0  0  0  0  0
  -26.7237  -32.5416   23.1085 H   0  0  0  0  0  0
  -25.0201  -33.9686   25.0473 H   0  0  0  0  0  0
  -22.7215  -31.3066   21.4016 H   0  0  0  0  0  0
  -23.3746  -35.9629   23.3259 H   0  0  0  0  0  0
  -24.3580  -36.8947   22.2048 H   0  0  0  0  0  0
  -23.7250  -37.6487   23.6675 H   0  0  0  0  0  0
  -26.1043  -31.5382   20.6047 H   0  0  0  0  0  0
  -26.8537  -30.8304   22.0030 H   0  0  0  0  0  0
  -28.1142  -28.9239   21.2144 H   0  0  0  0  0  0
  -25.9132  -25.9357   18.9814 H   0  0  0  0  0  0
  -23.9640  -27.3369   18.9861 H   0  0  0  0  0  0
  -23.7661  -30.6062   19.4037 H   0  0  0  0  0  0
  -22.7610  -29.2604   19.8497 H   0  0  0  0  0  0
  -25.1294  -36.1888   25.0808 H   0  0  0  0  0  0
  -21.0008  -28.3236   24.1371 H   0  0  0  0  0  0
  -20.5665  -26.2290   23.3610 H   0  0  0  0  0  0
  -21.6653  -26.7383   22.1202 H   0  0  0  0  0  0
  -19.6915  -25.6255   21.1238 H   0  0  0  0  0  0
  -19.6680  -27.3160   20.6739 H   0  0  0  0  0  0
  -17.4215  -26.6653   21.4004 H   0  0  0  0  0  0
  -18.0315  -26.0009   22.8983 H   0  0  0  0  0  0
  -19.7953  -30.7264   24.2211 H   0  0  0  0  0  0
  -17.5015  -31.6232   24.5148 H   0  0  0  0  0  0
  -15.5355  -30.2941   23.7630 H   0  0  0  0  0  0
  -15.8682  -28.0769   22.7057 H   0  0  0  0  0  0
  -24.5926  -30.7051   25.7793 H   0  0  0  0  0  0
  -24.8999  -32.2861   26.4922 H   0  0  0  0  0  0
  -25.8132  -30.8834   27.0205 H   0  0  0  0  0  0
  -26.2990  -29.6724   24.1185 H   0  0  0  0  0  0
  -27.4091  -29.7228   25.4663 H   0  0  0  0  0  0
  -27.8844  -30.4266   23.9404 H   0  0  0  0  0  0
  -27.2600  -33.3569   26.2139 H   0  0  0  0  0  0
  -28.3880  -32.6944   25.0415 H   0  0  0  0  0  0
  -28.0703  -31.8433   26.5453 H   0  0  0  0  0  0
  -28.2572  -38.0123   24.7512 H   0  0  0  0  0  0
  -28.1086  -36.2658   24.6264 H   0  0  0  0  0  0
  -27.2289  -37.1425   25.8854 H   0  0  0  0  0  0
  -20.9384  -29.8819   21.6933 H   0  0  0  0  0  0
  -26.0137  -38.2841   24.1423 H   0  0  0  0  0  0
  -31.5514  -18.8051   17.5254 H   0  0  0  0  0  0
  -30.6396  -20.8189   18.5636 H   0  0  0  0  0  0
  -31.2182  -16.5968   18.4805 H   0  0  0  0  0  0
  -28.8780  -18.3701   21.6636 H   0  0  0  0  0  0
  -30.3810  -25.1224   21.0577 H   0  0  0  0  0  0
  -31.3012  -22.1074   23.1770 H   0  0  0  0  0  0
  -31.7192  -21.1338   21.7969 H   0  0  0  0  0  0
  -28.9112  -21.9607   22.6267 H   0  0  0  0  0  0
  -29.5951  -20.3647   22.7065 H   0  0  0  0  0  0
  -27.5069  -22.2217   20.5498 H   0  0  0  0  0  0
  -29.0668  -22.1616   17.9650 H   0  0  0  0  0  0
  -27.4396  -22.7301   18.2391 H   0  0  0  0  0  0
  -27.7755  -21.0316   18.4003 H   0  0  0  0  0  0
  -27.0394  -24.6703   20.5560 H   0  0  0  0  0  0
  -27.7430  -24.7838   18.9551 H   0  0  0  0  0  0
  -28.9934  -15.6967   21.1895 H   0  0  0  0  0  0
  1 25  1  0  0  0
  1 30  2  0  0  0
  1 86  1  0  0  0
  2  3  1  0  0  0
  2 25  1  0  0  0
  2 88  1  0  0  0
  2 89  1  0  0  0
  3  4  1  0  0  0
  3 90  1  0  0  0
  3 91  1  0  0  0
  4  5  1  0  0  0
  4 92  1  0  0  0
  4 93  1  0  0  0
  5  6  1  0  0  0
  5 26  1  0  0  0
  5 94  1  0  0  0
  6 25  1  0  0  0
  6 95  1  0  0  0
  6 96  1  0  0  0
  7  8  2  0  0  0
  7 26  1  0  0  0
  7 29  1  0  0  0
  8  9  1  0  0  0
  8 22  1  0  0  0
  9 10  1  0  0  0
  9 27  2  0  0  0
 10 11  2  0  0  0
 10 15  1  0  0  0
 11 12  1  0  0  0
 11 97  1  0  0  0
 12 13  2  0  0  0
 12 98  1  0  0  0
 13 14  1  0  0  0
 13 31  1  0  0  0
 14 15  2  0  0  0
 14 99  1  0  0  0
 15100  1  0  0  0
 16 17  2  0  0  0
 16 21  1  0  0  0
 16 31  1  0  0  0
 17 18  1  0  0  0
 17101  1  0  0  0
 18 19  2  0  0  0
 18102  1  0  0  0
 19 20  1  0  0  0
 19 24  1  0  0  0
 20 21  2  0  0  0
 20103  1  0  0  0
 21 23  1  0  0  0
 22 28  1  0  0  0
 22 32  2  0  0  0
 26 27  1  0  0  0
 28104  1  0  0  0
 28105  1  0  0  0
 29106  1  0  0  0
 29107  1  0  0  0
 33 34  1  0  0  0
 33 66  1  0  0  0
 33 70  2  0  0  0
 34 36  1  0  0  0
 34 59  1  0  0  0
 34108  1  0  0  0
 35 44  2  0  0  0
 35 45  1  0  0  0
 35 68  1  0  0  0
 36 56  1  0  0  0
 36109  1  0  0  0
 37 39  1  0  0  0
 37 47  1  0  0  0
 37 66  1  0  0  0
 37110  1  0  0  0
 38 43  2  0  0  0
 38 46  1  0  0  0
 38 47  1  0  0  0
 39 64  1  0  0  0
 39 67  2  0  0  0
 40 52  1  0  0  0
 40 53  2  0  0  0
 40 58  1  0  0  0
 41111  1  0  0  0
 41112  1  0  0  0
 41113  1  0  0  0
 41 48  1  0  0  0
 42 43  1  0  0  0
 42 66  1  0  0  0
 42114  1  0  0  0
 42115  1  0  0  0
 43 44  1  0  0  0
 44116  1  0  0  0
 45 46  2  0  0  0
 45117  1  0  0  0
 46118  1  0  0  0
 47119  1  0  0  0
 47120  1  0  0  0
 48 56  1  0  0  0
 48 65  1  0  0  0
 48121  1  0  0  0
 49 50  1  0  0  0
 49 53  1  0  0  0
 49 64  1  0  0  0
 49122  1  0  0  0
 50 51  1  0  0  0
 50123  1  0  0  0
 50124  1  0  0  0
 51 52  1  0  0  0
 51125  1  0  0  0
 51126  1  0  0  0
 52127  1  0  0  0
 52128  1  0  0  0
 53 54  1  0  0  0
 54 55  2  0  0  0
 54129  1  0  0  0
 55 57  1  0  0  0
 55130  1  0  0  0
 56 69  2  0  0  0
 57 58  2  0  0  0
 57131  1  0  0  0
 58132  1  0  0  0
 59 60  1  0  0  0
 59 61  1  0  0  0
 59 62  1  0  0  0
 60133  1  0  0  0
 60134  1  0  0  0
 60135  1  0  0  0
 61136  1  0  0  0
 61137  1  0  0  0
 61138  1  0  0  0
 62139  1  0  0  0
 62140  1  0  0  0
 62141  1  0  0  0
 63 65  1  0  0  0
 63142  1  0  0  0
 63143  1  0  0  0
 63144  1  0  0  0
 64145  1  0  0  0
 65146  1  0  0  0
 68 84  1  0  0  0
 71 72  2  0  0  0
 71 73  1  0  0  0
 71147  1  0  0  0
 72 75  1  0  0  0
 72148  1  0  0  0
 73 76  2  0  0  0
 73149  1  0  0  0
 74 75  2  0  0  0
 74 76  1  0  0  0
 74150  1  0  0  0
 75 85  1  0  0  0
 76 86  1  0  0  0
 77 78  2  0  0  0
 77 79  1  0  0  0
 77151  1  0  0  0
 78 82  1  0  0  0
 78 84  1  0  0  0
 79 80  1  0  0  0
 79 87  2  0  0  0
 80 81  1  0  0  0
 80152  1  0  0  0
 80153  1  0  0  0
 81 85  1  0  0  0
 81154  1  0  0  0
 81155  1  0  0  0
 82 83  1  0  0  0
 82 85  1  0  0  0
 82156  1  0  0  0
 83157  1  0  0  0
 83158  1  0  0  0
 83159  1  0  0  0
 84160  1  0  0  0
 84161  1  0  0  0
 86162  1  0  0  0
M  ISO  4   1 100  68 101  84 101  86 100
M  END
> <chiral flag>
0

> <version>
0

> <s_m_source_file>
/data/baiqing/PycharmProjects/Reinvent-master-3.2/result/LINK_invent/BTK/process_docking_weight1_custom_product_contain_oxygen_bond_distance_aromatic_linkinvent_7_9_3/rearranged_h_0114.sdf

> <i_m_source_file_index>
92

> <r_mmod_Potential_Energy-OPLS-2005>
181.18815612793

> <r_mmod_Stretch_Energy-OPLS-2005>
121.916854858398

> <r_mmod_Bend_Energy-OPLS-2005>
191.648422241211

> <r_mmod_Torsional_Energy-OPLS-2005>
238.84130859375

> <r_mmod_Improper_Torsional_Energy-OPLS-2005>
5.07342195510864

> <r_mmod_Van_der_Waal_Energy-OPLS-2005>
156.472259521484

> <r_mmod_Electrostatic_Energy-OPLS-2005>
-381.366516113281

> <r_mmod_Solvation_Energy-OPLS-2005>
-233.148239135742

> <b_mmod_Minimization_Converged-OPLS-2005>
0

> <r_mmod_RMS_Derivative-OPLS-2005>
2.76649284362793

$$$$
92
                    3D
 Structure written by MMmdl.
162170  0  0  1  0            999 V2000
  -30.7144  -14.5423   20.6108 C   0  0  0  0  0  0
  -30.4215  -12.3583   19.4687 C   0  0  0  0  0  0
  -29.5101  -12.5229   18.2335 C   0  0  0  0  0  0
  -28.0295  -12.3627   18.6313 C   0  0  0  0  0  0
  -27.6570  -13.2133   19.8728 C   0  0  2  0  0  0
  -28.6863  -13.0188   21.0061 C   0  0  0  0  0  0
  -25.2526  -13.8113   20.5607 C   0  0  0  0  0  0
  -24.1799  -13.0405   20.9150 C   0  0  0  0  0  0
  -24.6366  -11.6884   20.8733 C   0  0  0  0  0  0
  -23.9026  -10.4270   21.0402 C   0  0  0  0  0  0
  -24.3586   -9.4187   21.9180 C   0  0  0  0  0  0
  -23.6275   -8.2218   22.0736 C   0  0  0  0  0  0
  -22.4248   -8.0253   21.3532 C   0  0  0  0  0  0
  -21.9886   -9.0222   20.4625 C   0  0  0  0  0  0
  -22.7202  -10.2108   20.3047 C   0  0  0  0  0  0
  -21.6841   -6.0700   22.5272 C   0  0  0  0  0  0
  -21.4007   -6.5614   23.8199 C   0  0  0  0  0  0
  -21.3673   -5.6783   24.9176 C   0  0  0  0  0  0
  -21.6053   -4.3043   24.7236 C   0  0  0  0  0  0
  -21.8823   -3.8118   23.4362 C   0  0  0  0  0  0
  -21.9186   -4.6929   22.3407 C   0  0  0  0  0  0
  -22.7828  -13.5196   21.1861 C   0  0  0  0  0  0
  -22.1661   -4.2116   21.0991 F   0  0  0  0  0  0
  -21.5640   -3.4525   25.7753 F   0  0  0  0  0  0
  -30.0215  -13.3601   20.4834 N   0  0  0  0  0  0
  -26.2973  -12.9317   20.3299 N   0  0  0  0  0  0
  -25.9300  -11.6470   20.5755 N   0  0  0  0  0  0
  -22.0487  -12.8162   22.0418 N   0  0  0  0  0  0
  -25.4222  -15.1801   20.3948 N   0  0  0  0  0  0
  -31.7841  -14.7045   20.0160 O   0  0  0  0  0  0
  -21.6630   -6.8844   21.4222 O   0  0  0  0  0  0
  -22.3512  -14.5522   20.6743 O   0  0  0  0  0  0
  -24.6193  -31.8650   23.2050 C   0  0  0  0  0  0
  -25.9061  -32.4800   23.8371 C   0  0  1  0  0  0
  -27.2335  -27.3839   20.1233 C   0  0  0  0  0  0
  -25.5898  -33.8596   24.2299 N   0  0  0  0  0  0
  -23.4088  -30.4882   21.5464 C   0  0  2  0  0  0
  -24.8560  -28.9391   20.1225 C   0  0  0  0  0  0
  -22.7422  -29.4675   22.4970 C   0  0  0  0  0  0
  -18.0297  -28.1340   22.8526 C   0  0  0  0  0  0
  -24.1489  -36.7311   23.2643 C   0  0  0  0  0  0
  -25.9425  -30.8160   21.3636 C   0  0  0  0  0  0
  -26.0180  -29.4432   20.7186 C   0  0  0  0  0  0
  -27.2106  -28.6771   20.7073 C   0  0  0  0  0  0
  -26.0532  -26.9018   19.5197 C   0  0  0  0  0  0
  -24.8709  -27.6689   19.5182 C   0  0  0  0  0  0
  -23.6206  -29.8138   20.1651 C   0  0  0  0  0  0
  -25.4110  -36.3092   24.0335 C   0  0  1  0  0  0
  -20.5897  -28.3656   23.1321 C   0  0  2  0  0  0
  -20.6815  -26.9389   22.5421 C   0  0  0  0  0  0
  -19.5769  -26.6356   21.5247 C   0  0  0  0  0  0
  -18.1947  -26.7886   22.1656 C   0  0  0  0  0  0
  -19.1550  -28.8806   23.2921 C   0  0  0  0  0  0
  -18.9486  -30.1437   23.8882 C   0  0  0  0  0  0
  -17.6491  -30.6550   24.0574 C   0  0  0  0  0  0
  -25.9037  -34.9462   23.5118 C   0  0  0  0  0  0
  -16.5373  -29.9051   23.6339 C   0  0  0  0  0  0
  -16.7288  -28.6475   23.0346 C   0  0  0  0  0  0
  -26.4463  -31.6590   25.0718 C   0  0  0  0  0  0
  -25.3719  -31.3706   26.1464 C   0  0  0  0  0  0
  -27.0307  -30.3035   24.6108 C   0  0  0  0  0  0
  -27.6026  -32.4330   25.7479 C   0  0  0  0  0  0
  -27.5574  -37.1806   24.8463 C   0  0  0  0  0  0
  -21.4139  -29.3068   22.3721 N   0  0  0  0  0  0
  -26.4282  -37.3785   23.9412 N   0  0  0  0  0  0
  -24.6753  -31.0721   22.0960 N   0  0  0  0  0  0
  -23.4185  -28.8212   23.3016 O   0  0  0  0  0  0
  -28.4056  -26.6459   20.0710 O   0  0  0  0  0  0
  -26.5608  -34.8923   22.4687 O   0  0  0  0  0  0
  -23.5382  -32.1417   23.7426 O   0  0  0  0  0  0
  -31.5118  -17.6252   20.5968 C   0  0  0  0  0  0
  -30.6809  -19.9024   20.3651 C   0  0  0  0  0  0
  -30.2584  -17.1455   21.0495 C   0  0  0  0  0  0
  -29.1890  -18.1204   21.1494 C   0  0  0  0  0  0
  -29.4111  -19.5098   20.8321 C   0  0  0  0  0  0
  -31.7163  -18.9675   20.2445 C   0  0  0  0  0  0
  -25.4185  -18.4965   21.5875 C   0  0  0  0  0  0
  -26.5970  -18.2867   20.9797 C   0  0  0  0  0  0
  -30.1681  -15.6909   21.5278 C   0  0  0  0  0  0
  -27.8080  -17.6977   21.6761 C   0  0  0  0  0  0
  -27.9066  -24.1244   19.8376 C   0  0  0  0  0  0
  -28.6558  -22.7373   19.8668 C   0  0  0  0  0  0
  -28.4628  -25.3221   20.6720 C   0  0  0  0  0  0
  -28.6330  -21.8659   21.1631 C   0  0  0  0  0  0
  -29.7241  -15.4602   22.6933 N   0  0  0  0  0  0
  -28.3841  -20.4467   20.9670 O   0  0  0  0  0  0
  -32.9332  -19.3710   19.8109 F   0  0  0  0  0  0
  -31.4710  -12.4414   19.1814 H   0  0  0  0  0  0
  -30.3188  -11.3527   19.8800 H   0  0  0  0  0  0
  -29.7719  -11.7874   17.4721 H   0  0  0  0  0  0
  -29.6760  -13.5037   17.7856 H   0  0  0  0  0  0
  -27.8599  -11.3069   18.8483 H   0  0  0  0  0  0
  -27.3771  -12.6079   17.7923 H   0  0  0  0  0  0
  -27.6949  -14.2586   19.5668 H   0  0  0  0  0  0
  -28.6815  -11.9837   21.3503 H   0  0  0  0  0  0
  -28.3829  -13.5960   21.8737 H   0  0  0  0  0  0
  -25.2719   -9.5670   22.4764 H   0  0  0  0  0  0
  -23.9987   -7.4604   22.7452 H   0  0  0  0  0  0
  -21.0818   -8.8708   19.8941 H   0  0  0  0  0  0
  -22.3632  -10.9640   19.6168 H   0  0  0  0  0  0
  -21.1993   -7.6120   23.9689 H   0  0  0  0  0  0
  -21.1506   -6.0522   25.9080 H   0  0  0  0  0  0
  -22.0597   -2.7570   23.2882 H   0  0  0  0  0  0
  -22.4118  -11.9818   22.4808 H   0  0  0  0  0  0
  -21.1117  -13.1192   22.2697 H   0  0  0  0  0  0
  -24.6662  -15.8427   20.5218 H   0  0  0  0  0  0
  -26.2774  -15.6161   20.0805 H   0  0  0  0  0  0
  -26.7142  -32.5495   23.1142 H   0  0  0  0  0  0
  -25.0026  -33.9760   25.0425 H   0  0  0  0  0  0
  -22.7010  -31.3076   21.4019 H   0  0  0  0  0  0
  -23.3738  -35.9652   23.3313 H   0  0  0  0  0  0
  -24.3578  -36.8922   22.2051 H   0  0  0  0  0  0
  -23.7246  -37.6523   23.6659 H   0  0  0  0  0  0
  -26.0591  -31.5745   20.5882 H   0  0  0  0  0  0
  -26.8301  -30.8742   21.9824 H   0  0  0  0  0  0
  -28.1114  -29.0725   21.1560 H   0  0  0  0  0  0
  -26.0428  -25.9390   19.0314 H   0  0  0  0  0  0
  -23.9795  -27.2752   19.0501 H   0  0  0  0  0  0
  -23.7318  -30.5840   19.4009 H   0  0  0  0  0  0
  -22.7437  -29.2349   19.8721 H   0  0  0  0  0  0
  -25.1286  -36.1956   25.0824 H   0  0  0  0  0  0
  -21.0027  -28.3250   24.1432 H   0  0  0  0  0  0
  -21.6668  -26.7496   22.1141 H   0  0  0  0  0  0
  -20.5796  -26.2245   23.3604 H   0  0  0  0  0  0
  -19.6920  -25.6281   21.1242 H   0  0  0  0  0  0
  -19.6705  -27.3196   20.6813 H   0  0  0  0  0  0
  -17.4216  -26.6678   21.4050 H   0  0  0  0  0  0
  -18.0354  -25.9996   22.9019 H   0  0  0  0  0  0
  -19.7963  -30.7272   24.2208 H   0  0  0  0  0  0
  -17.5044  -31.6228   24.5178 H   0  0  0  0  0  0
  -15.5372  -30.2948   23.7677 H   0  0  0  0  0  0
  -15.8699  -28.0797   22.7035 H   0  0  0  0  0  0
  -24.5881  -30.7060   25.7808 H   0  0  0  0  0  0
  -24.8912  -32.2863   26.4919 H   0  0  0  0  0  0
  -25.8059  -30.8872   27.0227 H   0  0  0  0  0  0
  -26.2863  -29.6792   24.1143 H   0  0  0  0  0  0
  -27.4071  -29.7270   25.4568 H   0  0  0  0  0  0
  -27.8699  -30.4372   23.9278 H   0  0  0  0  0  0
  -27.2622  -33.3625   26.2072 H   0  0  0  0  0  0
  -28.3811  -32.6907   25.0279 H   0  0  0  0  0  0
  -28.0723  -31.8448   26.5379 H   0  0  0  0  0  0
  -28.2600  -38.0099   24.7502 H   0  0  0  0  0  0
  -28.1068  -36.2623   24.6300 H   0  0  0  0  0  0
  -27.2298  -37.1476   25.8872 H   0  0  0  0  0  0
  -20.9274  -29.8814   21.6985 H   0  0  0  0  0  0
  -26.0174  -38.2870   24.1399 H   0  0  0  0  0  0
  -32.3678  -16.9716   20.5461 H   0  0  0  0  0  0
  -30.8863  -20.9261   20.0925 H   0  0  0  0  0  0
  -24.5782  -18.9099   21.0509 H   0  0  0  0  0  0
  -25.2754  -18.2582   22.6325 H   0  0  0  0  0  0
  -26.7062  -18.5264   19.9311 H   0  0  0  0  0  0
  -27.7572  -17.9147   22.7440 H   0  0  0  0  0  0
  -27.6703  -16.6227   21.5742 H   0  0  0  0  0  0
  -26.8575  -23.9699   20.0929 H   0  0  0  0  0  0
  -27.9062  -24.4464   18.7963 H   0  0  0  0  0  0
  -29.6891  -22.8772   19.5469 H   0  0  0  0  0  0
  -28.2029  -22.1321   19.0806 H   0  0  0  0  0  0
  -29.5202  -25.1360   20.8594 H   0  0  0  0  0  0
  -27.9953  -25.3421   21.6573 H   0  0  0  0  0  0
  -27.8131  -22.2186   21.7895 H   0  0  0  0  0  0
  -29.5341  -22.0315   21.7570 H   0  0  0  0  0  0
  -29.4458  -16.3169   23.1568 H   0  0  0  0  0  0
  1 25  1  0  0  0
  1 30  2  0  0  0
  1 79  1  0  0  0
  2  3  1  0  0  0
  2 25  1  0  0  0
  2 88  1  0  0  0
  2 89  1  0  0  0
  3  4  1  0  0  0
  3 90  1  0  0  0
  3 91  1  0  0  0
  4  5  1  0  0  0
  4 92  1  0  0  0
  4 93  1  0  0  0
  5  6  1  0  0  0
  5 26  1  0  0  0
  5 94  1  0  0  0
  6 25  1  0  0  0
  6 95  1  0  0  0
  6 96  1  0  0  0
  7  8  2  0  0  0
  7 26  1  0  0  0
  7 29  1  0  0  0
  8  9  1  0  0  0
  8 22  1  0  0  0
  9 10  1  0  0  0
  9 27  2  0  0  0
 10 11  2  0  0  0
 10 15  1  0  0  0
 11 12  1  0  0  0
 11 97  1  0  0  0
 12 13  2  0  0  0
 12 98  1  0  0  0
 13 14  1  0  0  0
 13 31  1  0  0  0
 14 15  2  0  0  0
 14 99  1  0  0  0
 15100  1  0  0  0
 16 17  2  0  0  0
 16 21  1  0  0  0
 16 31  1  0  0  0
 17 18  1  0  0  0
 17101  1  0  0  0
 18 19  2  0  0  0
 18102  1  0  0  0
 19 20  1  0  0  0
 19 24  1  0  0  0
 20 21  2  0  0  0
 20103  1  0  0  0
 21 23  1  0  0  0
 22 28  1  0  0  0
 22 32  2  0  0  0
 26 27  1  0  0  0
 28104  1  0  0  0
 28105  1  0  0  0
 29106  1  0  0  0
 29107  1  0  0  0
 33 34  1  0  0  0
 33 66  1  0  0  0
 33 70  2  0  0  0
 34 36  1  0  0  0
 34 59  1  0  0  0
 34108  1  0  0  0
 35 44  2  0  0  0
 35 45  1  0  0  0
 35 68  1  0  0  0
 36 56  1  0  0  0
 36109  1  0  0  0
 37 39  1  0  0  0
 37 47  1  0  0  0
 37 66  1  0  0  0
 37110  1  0  0  0
 38 43  2  0  0  0
 38 46  1  0  0  0
 38 47  1  0  0  0
 39 64  1  0  0  0
 39 67  2  0  0  0
 40 52  1  0  0  0
 40 53  2  0  0  0
 40 58  1  0  0  0
 41111  1  0  0  0
 41112  1  0  0  0
 41113  1  0  0  0
 41 48  1  0  0  0
 42 43  1  0  0  0
 42 66  1  0  0  0
 42114  1  0  0  0
 42115  1  0  0  0
 43 44  1  0  0  0
 44116  1  0  0  0
 45 46  2  0  0  0
 45117  1  0  0  0
 46118  1  0  0  0
 47119  1  0  0  0
 47120  1  0  0  0
 48 56  1  0  0  0
 48 65  1  0  0  0
 48121  1  0  0  0
 49 50  1  0  0  0
 49 53  1  0  0  0
 49 64  1  0  0  0
 49122  1  0  0  0
 50 51  1  0  0  0
 50123  1  0  0  0
 50124  1  0  0  0
 51 52  1  0  0  0
 51125  1  0  0  0
 51126  1  0  0  0
 52127  1  0  0  0
 52128  1  0  0  0
 53 54  1  0  0  0
 54 55  2  0  0  0
 54129  1  0  0  0
 55 57  1  0  0  0
 55130  1  0  0  0
 56 69  2  0  0  0
 57 58  2  0  0  0
 57131  1  0  0  0
 58132  1  0  0  0
 59 60  1  0  0  0
 59 61  1  0  0  0
 59 62  1  0  0  0
 60133  1  0  0  0
 60134  1  0  0  0
 60135  1  0  0  0
 61136  1  0  0  0
 61137  1  0  0  0
 61138  1  0  0  0
 62139  1  0  0  0
 62140  1  0  0  0
 62141  1  0  0  0
 63 65  1  0  0  0
 63142  1  0  0  0
 63143  1  0  0  0
 63144  1  0  0  0
 64145  1  0  0  0
 65146  1  0  0  0
 68 83  1  0  0  0
 71 73  2  0  0  0
 71 76  1  0  0  0
 71147  1  0  0  0
 72 75  1  0  0  0
 72 76  2  0  0  0
 72148  1  0  0  0
 73 74  1  0  0  0
 73 79  1  0  0  0
 74 75  2  0  0  0
 74 80  1  0  0  0
 75 86  1  0  0  0
 76 87  1  0  0  0
 77 78  2  0  0  0
 77149  1  0  0  0
 77150  1  0  0  0
 78 80  1  0  0  0
 78151  1  0  0  0
 79 85  2  0  0  0
 80152  1  0  0  0
 80153  1  0  0  0
 81 82  1  0  0  0
 81 83  1  0  0  0
 81154  1  0  0  0
 81155  1  0  0  0
 82 84  1  0  0  0
 82156  1  0  0  0
 82157  1  0  0  0
 83158  1  0  0  0
 83159  1  0  0  0
 84 86  1  0  0  0
 84160  1  0  0  0
 84161  1  0  0  0
 85162  1  0  0  0
M  ISO  4   1 100  68 101  79 100  83 101
M  END
> <chiral flag>
0

> <version>
0

> <s_m_source_file>
/data/baiqing/PycharmProjects/Reinvent-master-3.2/result/LINK_invent/BTK/process_docking_weight1_custom_product_contain_oxygen_bond_distance_aromatic_linkinvent_7_9_3/rearranged_h_0114.sdf

> <i_m_source_file_index>
93

> <r_mmod_Potential_Energy-OPLS-2005>
199.755249023438

> <r_mmod_Stretch_Energy-OPLS-2005>
70.1507186889648

> <r_mmod_Bend_Energy-OPLS-2005>
147.440856933594

> <r_mmod_Torsional_Energy-OPLS-2005>
243.014358520508

> <r_mmod_Improper_Torsional_Energy-OPLS-2005>
3.08035826683044

> <r_mmod_Van_der_Waal_Energy-OPLS-2005>
154.529876708984

> <r_mmod_Electrostatic_Energy-OPLS-2005>
-255.662521362305

> <r_mmod_Solvation_Energy-OPLS-2005>
-183.143951416016

> <b_mmod_Minimization_Converged-OPLS-2005>
0

> <r_mmod_RMS_Derivative-OPLS-2005>
2.53789615631104

$$$$
93
                    3D
 Structure written by MMmdl.
157165  0  0  1  0            999 V2000
  -30.7419  -14.5162   20.5202 C   0  0  0  0  0  0
  -30.3984  -12.3152   19.4692 C   0  0  0  0  0  0
  -29.5009  -12.5044   18.2303 C   0  0  0  0  0  0
  -28.0235  -12.3532   18.6351 C   0  0  0  0  0  0
  -27.6498  -13.2280   19.8629 C   0  0  2  0  0  0
  -28.6885  -13.1004   20.9998 C   0  0  0  0  0  0
  -25.2516  -13.8209   20.5718 C   0  0  0  0  0  0
  -24.1798  -13.0446   20.9202 C   0  0  0  0  0  0
  -24.6386  -11.6926   20.8741 C   0  0  0  0  0  0
  -23.9069  -10.4296   21.0396 C   0  0  0  0  0  0
  -24.3636   -9.4219   21.9172 C   0  0  0  0  0  0
  -23.6317   -8.2249   22.0743 C   0  0  0  0  0  0
  -22.4291   -8.0276   21.3544 C   0  0  0  0  0  0
  -21.9931   -9.0237   20.4632 C   0  0  0  0  0  0
  -22.7252  -10.2124   20.3036 C   0  0  0  0  0  0
  -21.6856   -6.0741   22.5290 C   0  0  0  0  0  0
  -21.4007   -6.5648   23.8225 C   0  0  0  0  0  0
  -21.3660   -5.6794   24.9184 C   0  0  0  0  0  0
  -21.6052   -4.3055   24.7227 C   0  0  0  0  0  0
  -21.8815   -3.8149   23.4346 C   0  0  0  0  0  0
  -21.9193   -4.6967   22.3411 C   0  0  0  0  0  0
  -22.7813  -13.5210   21.1881 C   0  0  0  0  0  0
  -22.1664   -4.2160   21.0985 F   0  0  0  0  0  0
  -21.5636   -3.4542   25.7739 F   0  0  0  0  0  0
  -30.0201  -13.3604   20.4394 N   0  0  0  0  0  0
  -26.2965  -12.9425   20.3330 N   0  0  0  0  0  0
  -25.9325  -11.6567   20.5762 N   0  0  0  0  0  0
  -22.0465  -12.8189   22.0433 N   0  0  0  0  0  0
  -25.4176  -15.1940   20.4184 N   0  0  0  0  0  0
  -31.9151  -14.5381   20.1389 O   0  0  0  0  0  0
  -21.6656   -6.8876   21.4241 O   0  0  0  0  0  0
  -22.3497  -14.5521   20.6727 O   0  0  0  0  0  0
  -24.6208  -31.8669   23.2098 C   0  0  0  0  0  0
  -25.9081  -32.4817   23.8401 C   0  0  1  0  0  0
  -27.2194  -27.3831   20.1043 C   0  0  0  0  0  0
  -25.5917  -33.8619   24.2325 N   0  0  0  0  0  0
  -23.4105  -30.4928   21.5520 C   0  0  2  0  0  0
  -24.8557  -28.9668   20.1094 C   0  0  0  0  0  0
  -22.7450  -29.4654   22.4980 C   0  0  0  0  0  0
  -18.0277  -28.1399   22.8482 C   0  0  0  0  0  0
  -24.1480  -36.7278   23.2646 C   0  0  0  0  0  0
  -25.9500  -30.8185   21.3754 C   0  0  0  0  0  0
  -26.0237  -29.4556   20.7088 C   0  0  0  0  0  0
  -27.2120  -28.6766   20.6944 C   0  0  0  0  0  0
  -26.0262  -26.9354   19.4870 C   0  0  0  0  0  0
  -24.8563  -27.7105   19.4902 C   0  0  0  0  0  0
  -23.6206  -29.8366   20.1642 C   0  0  0  0  0  0
  -25.4111  -36.3097   24.0339 C   0  0  1  0  0  0
  -20.5876  -28.3669   23.1328 C   0  0  2  0  0  0
  -20.6776  -26.9398   22.5440 C   0  0  0  0  0  0
  -19.5761  -26.6385   21.5233 C   0  0  0  0  0  0
  -18.1924  -26.7957   22.1602 C   0  0  0  0  0  0
  -19.1528  -28.8855   23.2901 C   0  0  0  0  0  0
  -18.9446  -30.1464   23.8909 C   0  0  0  0  0  0
  -17.6444  -30.6592   24.0580 C   0  0  0  0  0  0
  -25.9045  -34.9468   23.5124 C   0  0  0  0  0  0
  -16.5335  -29.9085   23.6357 C   0  0  0  0  0  0
  -16.7260  -28.6517   23.0346 C   0  0  0  0  0  0
  -26.4474  -31.6611   25.0753 C   0  0  0  0  0  0
  -25.3708  -31.3714   26.1470 C   0  0  0  0  0  0
  -27.0318  -30.3041   24.6196 C   0  0  0  0  0  0
  -27.6050  -32.4337   25.7505 C   0  0  0  0  0  0
  -27.5583  -37.1791   24.8471 C   0  0  0  0  0  0
  -21.4173  -29.3015   22.3716 N   0  0  0  0  0  0
  -26.4295  -37.3785   23.9414 N   0  0  0  0  0  0
  -24.6782  -31.0739   22.1022 N   0  0  0  0  0  0
  -23.4199  -28.8208   23.3049 O   0  0  0  0  0  0
  -28.3449  -26.5639   20.1471 O   0  0  0  0  0  0
  -26.5604  -34.8925   22.4687 O   0  0  0  0  0  0
  -23.5382  -32.1449   23.7453 O   0  0  0  0  0  0
  -29.6906  -19.2039   20.5543 C   0  0  0  0  0  0
  -30.0478  -20.6030   20.7070 C   0  0  0  0  0  0
  -30.5825  -18.3309   21.1531 C   0  0  0  0  0  0
  -31.1693  -20.7462   21.4962 C   0  0  0  0  0  0
  -30.7928  -16.8997   21.0462 C   0  0  0  0  0  0
  -31.9703  -21.9031   21.7534 C   0  0  0  0  0  0
  -30.0426  -15.7862   20.8139 C   0  0  0  0  0  0
  -32.2809  -22.9060   20.9155 C   0  0  0  0  0  0
  -33.1271  -24.1026   21.2931 C   0  0  0  0  0  0
  -29.2677  -24.1679   20.5006 C   0  0  0  0  0  0
  -28.0668  -25.1390   20.3032 C   0  0  0  0  0  0
  -28.8584  -22.7001   20.8875 C   0  0  0  0  0  0
  -29.4357  -21.6526   20.0749 O   0  0  0  0  0  0
  -31.7535  -19.2168   22.0920 S   0  0  0  0  0  0
  -31.4531  -12.3460   19.1901 H   0  0  0  0  0  0
  -30.2391  -11.3254   19.9011 H   0  0  0  0  0  0
  -29.7609  -11.7800   17.4579 H   0  0  0  0  0  0
  -29.6655  -13.4926   17.7945 H   0  0  0  0  0  0
  -27.8553  -11.3003   18.8643 H   0  0  0  0  0  0
  -27.3705  -12.5869   17.7938 H   0  0  0  0  0  0
  -27.6652  -14.2619   19.5193 H   0  0  0  0  0  0
  -28.6583  -12.1028   21.4390 H   0  0  0  0  0  0
  -28.4623  -13.7925   21.8124 H   0  0  0  0  0  0
  -25.2774   -9.5717   22.4754 H   0  0  0  0  0  0
  -24.0035   -7.4650   22.7468 H   0  0  0  0  0  0
  -21.0868   -8.8737   19.8939 H   0  0  0  0  0  0
  -22.3694  -10.9653   19.6149 H   0  0  0  0  0  0
  -21.1984   -7.6156   23.9735 H   0  0  0  0  0  0
  -21.1495   -6.0522   25.9093 H   0  0  0  0  0  0
  -22.0590   -2.7608   23.2845 H   0  0  0  0  0  0
  -22.4111  -11.9865   22.4826 H   0  0  0  0  0  0
  -21.1073  -13.1179   22.2640 H   0  0  0  0  0  0
  -24.6450  -15.8405   20.5371 H   0  0  0  0  0  0
  -26.2703  -15.6454   20.1107 H   0  0  0  0  0  0
  -26.7164  -32.5507   23.1167 H   0  0  0  0  0  0
  -25.0081  -33.9792   25.0478 H   0  0  0  0  0  0
  -22.6993  -31.3107   21.4159 H   0  0  0  0  0  0
  -23.3761  -35.9595   23.3335 H   0  0  0  0  0  0
  -24.3564  -36.8868   22.2055 H   0  0  0  0  0  0
  -23.7210  -37.6474   23.6657 H   0  0  0  0  0  0
  -26.0872  -31.5932   20.6192 H   0  0  0  0  0  0
  -26.8289  -30.8529   22.0084 H   0  0  0  0  0  0
  -28.1101  -29.0509   21.1665 H   0  0  0  0  0  0
  -25.9588  -25.9805   18.9922 H   0  0  0  0  0  0
  -23.9615  -27.3331   19.0135 H   0  0  0  0  0  0
  -23.7308  -30.6193   19.4129 H   0  0  0  0  0  0
  -22.7451  -29.2588   19.8617 H   0  0  0  0  0  0
  -25.1296  -36.1949   25.0833 H   0  0  0  0  0  0
  -20.9951  -28.3226   24.1457 H   0  0  0  0  0  0
  -20.5697  -26.2255   23.3618 H   0  0  0  0  0  0
  -21.6644  -26.7462   22.1215 H   0  0  0  0  0  0
  -19.6919  -25.6295   21.1264 H   0  0  0  0  0  0
  -19.6750  -27.3207   20.6780 H   0  0  0  0  0  0
  -17.4219  -26.6751   21.3971 H   0  0  0  0  0  0
  -18.0267  -26.0094   22.8978 H   0  0  0  0  0  0
  -19.7914  -30.7297   24.2266 H   0  0  0  0  0  0
  -17.4986  -31.6279   24.5168 H   0  0  0  0  0  0
  -15.5334  -30.2976   23.7708 H   0  0  0  0  0  0
  -15.8653  -28.0858   22.7040 H   0  0  0  0  0  0
  -24.5948  -30.6986   25.7796 H   0  0  0  0  0  0
  -24.8812  -32.2849   26.4852 H   0  0  0  0  0  0
  -25.8032  -30.8943   27.0273 H   0  0  0  0  0  0
  -26.2886  -29.6777   24.1250 H   0  0  0  0  0  0
  -27.4045  -29.7307   25.4694 H   0  0  0  0  0  0
  -27.8744  -30.4333   23.9403 H   0  0  0  0  0  0
  -27.2687  -33.3638   26.2100 H   0  0  0  0  0  0
  -28.3836  -32.6897   25.0307 H   0  0  0  0  0  0
  -28.0754  -31.8458   26.5394 H   0  0  0  0  0  0
  -28.2615  -38.0077   24.7510 H   0  0  0  0  0  0
  -28.1061  -36.2607   24.6299 H   0  0  0  0  0  0
  -27.2307  -37.1429   25.8878 H   0  0  0  0  0  0
  -20.9337  -29.8667   21.6883 H   0  0  0  0  0  0
  -26.0180  -38.2860   24.1423 H   0  0  0  0  0  0
  -28.8683  -18.8950   19.9256 H   0  0  0  0  0  0
  -31.8566  -16.7079   21.1087 H   0  0  0  0  0  0
  -32.3559  -21.9601   22.7617 H   0  0  0  0  0  0
  -28.9656  -15.8469   20.7767 H   0  0  0  0  0  0
  -31.9319  -22.8731   19.8906 H   0  0  0  0  0  0
  -33.2886  -24.1441   22.3708 H   0  0  0  0  0  0
  -32.6425  -25.0305   20.9883 H   0  0  0  0  0  0
  -34.0999  -24.0489   20.8038 H   0  0  0  0  0  0
  -29.9179  -24.5626   21.2818 H   0  0  0  0  0  0
  -29.8651  -24.1569   19.5896 H   0  0  0  0  0  0
  -27.3918  -25.0248   21.1536 H   0  0  0  0  0  0
  -27.5440  -24.7561   19.4285 H   0  0  0  0  0  0
  -27.7784  -22.5929   20.7853 H   0  0  0  0  0  0
  -29.0597  -22.5359   21.9479 H   0  0  0  0  0  0
  1 25  1  0  0  0
  1 30  2  0  0  0
  1 77  1  0  0  0
  2  3  1  0  0  0
  2 25  1  0  0  0
  2 85  1  0  0  0
  2 86  1  0  0  0
  3  4  1  0  0  0
  3 87  1  0  0  0
  3 88  1  0  0  0
  4  5  1  0  0  0
  4 89  1  0  0  0
  4 90  1  0  0  0
  5  6  1  0  0  0
  5 26  1  0  0  0
  5 91  1  0  0  0
  6 25  1  0  0  0
  6 92  1  0  0  0
  6 93  1  0  0  0
  7  8  2  0  0  0
  7 26  1  0  0  0
  7 29  1  0  0  0
  8  9  1  0  0  0
  8 22  1  0  0  0
  9 10  1  0  0  0
  9 27  2  0  0  0
 10 11  2  0  0  0
 10 15  1  0  0  0
 11 12  1  0  0  0
 11 94  1  0  0  0
 12 13  2  0  0  0
 12 95  1  0  0  0
 13 14  1  0  0  0
 13 31  1  0  0  0
 14 15  2  0  0  0
 14 96  1  0  0  0
 15 97  1  0  0  0
 16 17  2  0  0  0
 16 21  1  0  0  0
 16 31  1  0  0  0
 17 18  1  0  0  0
 17 98  1  0  0  0
 18 19  2  0  0  0
 18 99  1  0  0  0
 19 20  1  0  0  0
 19 24  1  0  0  0
 20 21  2  0  0  0
 20100  1  0  0  0
 21 23  1  0  0  0
 22 28  1  0  0  0
 22 32  2  0  0  0
 26 27  1  0  0  0
 28101  1  0  0  0
 28102  1  0  0  0
 29103  1  0  0  0
 29104  1  0  0  0
 33 34  1  0  0  0
 33 66  1  0  0  0
 33 70  2  0  0  0
 34 36  1  0  0  0
 34 59  1  0  0  0
 34105  1  0  0  0
 35 44  2  0  0  0
 35 45  1  0  0  0
 35 68  1  0  0  0
 36 56  1  0  0  0
 36106  1  0  0  0
 37 39  1  0  0  0
 37 47  1  0  0  0
 37 66  1  0  0  0
 37107  1  0  0  0
 38 43  2  0  0  0
 38 46  1  0  0  0
 38 47  1  0  0  0
 39 64  1  0  0  0
 39 67  2  0  0  0
 40 52  1  0  0  0
 40 53  2  0  0  0
 40 58  1  0  0  0
 41108  1  0  0  0
 41109  1  0  0  0
 41110  1  0  0  0
 41 48  1  0  0  0
 42 43  1  0  0  0
 42 66  1  0  0  0
 42111  1  0  0  0
 42112  1  0  0  0
 43 44  1  0  0  0
 44113  1  0  0  0
 45 46  2  0  0  0
 45114  1  0  0  0
 46115  1  0  0  0
 47116  1  0  0  0
 47117  1  0  0  0
 48 56  1  0  0  0
 48 65  1  0  0  0
 48118  1  0  0  0
 49 50  1  0  0  0
 49 53  1  0  0  0
 49 64  1  0  0  0
 49119  1  0  0  0
 50 51  1  0  0  0
 50120  1  0  0  0
 50121  1  0  0  0
 51 52  1  0  0  0
 51122  1  0  0  0
 51123  1  0  0  0
 52124  1  0  0  0
 52125  1  0  0  0
 53 54  1  0  0  0
 54 55  2  0  0  0
 54126  1  0  0  0
 55 57  1  0  0  0
 55127  1  0  0  0
 56 69  2  0  0  0
 57 58  2  0  0  0
 57128  1  0  0  0
 58129  1  0  0  0
 59 60  1  0  0  0
 59 61  1  0  0  0
 59 62  1  0  0  0
 60130  1  0  0  0
 60131  1  0  0  0
 60132  1  0  0  0
 61133  1  0  0  0
 61134  1  0  0  0
 61135  1  0  0  0
 62136  1  0  0  0
 62137  1  0  0  0
 62138  1  0  0  0
 63 65  1  0  0  0
 63139  1  0  0  0
 63140  1  0  0  0
 63141  1  0  0  0
 64142  1  0  0  0
 65143  1  0  0  0
 68 81  1  0  0  0
 71 72  1  0  0  0
 71 73  2  0  0  0
 71144  1  0  0  0
 72 74  2  0  0  0
 72 83  1  0  0  0
 73 75  1  0  0  0
 73 84  1  0  0  0
 74 76  1  0  0  0
 74 84  1  0  0  0
 75 77  2  0  0  0
 75145  1  0  0  0
 76 78  2  0  0  0
 76146  1  0  0  0
 77147  1  0  0  0
 78 79  1  0  0  0
 78148  1  0  0  0
 79149  1  0  0  0
 79150  1  0  0  0
 79151  1  0  0  0
 80 81  1  0  0  0
 80 82  1  0  0  0
 80152  1  0  0  0
 80153  1  0  0  0
 81154  1  0  0  0
 81155  1  0  0  0
 82 83  1  0  0  0
 82156  1  0  0  0
 82157  1  0  0  0
M  ISO  4   1 100  68 101  77 100  81 101
M  END
> <chiral flag>
0

> <version>
0

> <s_m_source_file>
/data/baiqing/PycharmProjects/Reinvent-master-3.2/result/LINK_invent/BTK/process_docking_weight1_custom_product_contain_oxygen_bond_distance_aromatic_linkinvent_7_9_3/rearranged_h_0114.sdf

> <i_m_source_file_index>
94

> <r_mmod_Potential_Energy-OPLS-2005>
80.6514739990234

> <r_mmod_Stretch_Energy-OPLS-2005>
48.5706672668457

> <r_mmod_Bend_Energy-OPLS-2005>
126.011138916016

> <r_mmod_Torsional_Energy-OPLS-2005>
244.770065307617

> <r_mmod_Improper_Torsional_Energy-OPLS-2005>
7.95535182952881

> <r_mmod_Van_der_Waal_Energy-OPLS-2005>
137.066101074219

> <r_mmod_Electrostatic_Energy-OPLS-2005>
-319.780853271484

> <r_mmod_Solvation_Energy-OPLS-2005>
-194.478790283203

> <b_mmod_Minimization_Converged-OPLS-2005>
0

> <r_mmod_RMS_Derivative-OPLS-2005>
2.39978528022766

$$$$
94
                    3D
 Structure written by MMmdl.
156164  0  0  1  0            999 V2000
  -30.6067  -14.8325   20.3970 C   0  0  0  0  0  0
  -30.4362  -12.5000   19.4765 C   0  0  0  0  0  0
  -29.5103  -12.4467   18.2407 C   0  0  0  0  0  0
  -28.0368  -12.2965   18.6645 C   0  0  0  0  0  0
  -27.6316  -13.2302   19.8369 C   0  0  2  0  0  0
  -28.6836  -13.2468   20.9637 C   0  0  0  0  0  0
  -25.2498  -13.8181   20.5743 C   0  0  0  0  0  0
  -24.1787  -13.0425   20.9225 C   0  0  0  0  0  0
  -24.6381  -11.6907   20.8763 C   0  0  0  0  0  0
  -23.9053  -10.4290   21.0410 C   0  0  0  0  0  0
  -24.3614   -9.4210   21.9184 C   0  0  0  0  0  0
  -23.6298   -8.2243   22.0758 C   0  0  0  0  0  0
  -22.4278   -8.0287   21.3552 C   0  0  0  0  0  0
  -21.9910   -9.0253   20.4648 C   0  0  0  0  0  0
  -22.7230  -10.2134   20.3052 C   0  0  0  0  0  0
  -21.6855   -6.0737   22.5276 C   0  0  0  0  0  0
  -21.4017   -6.5639   23.8210 C   0  0  0  0  0  0
  -21.3662   -5.6785   24.9171 C   0  0  0  0  0  0
  -21.6043   -4.3051   24.7209 C   0  0  0  0  0  0
  -21.8828   -3.8149   23.4334 C   0  0  0  0  0  0
  -21.9198   -4.6967   22.3394 C   0  0  0  0  0  0
  -22.7819  -13.5218   21.1866 C   0  0  0  0  0  0
  -22.1664   -4.2163   21.0968 F   0  0  0  0  0  0
  -21.5628   -3.4530   25.7720 F   0  0  0  0  0  0
  -29.9629  -13.6075   20.3430 N   0  0  0  0  0  0
  -26.2914  -12.9380   20.3311 N   0  0  0  0  0  0
  -25.9318  -11.6527   20.5792 N   0  0  0  0  0  0
  -22.0461  -12.8220   22.0422 N   0  0  0  0  0  0
  -25.4177  -15.1907   20.4207 N   0  0  0  0  0  0
  -31.8361  -14.8452   20.2749 O   0  0  0  0  0  0
  -21.6643   -6.8891   21.4244 O   0  0  0  0  0  0
  -22.3511  -14.5518   20.6704 O   0  0  0  0  0  0
  -24.6358  -31.8519   23.1974 C   0  0  0  0  0  0
  -25.9164  -32.4743   23.8338 C   0  0  1  0  0  0
  -27.2159  -27.2180   20.1293 C   0  0  0  0  0  0
  -25.5938  -33.8548   24.2249 N   0  0  0  0  0  0
  -23.4350  -30.4773   21.5406 C   0  0  2  0  0  0
  -24.8824  -28.9211   20.1087 C   0  0  0  0  0  0
  -22.7528  -29.4587   22.4882 C   0  0  0  0  0  0
  -18.0299  -28.1381   22.8478 C   0  0  0  0  0  0
  -24.1482  -36.7273   23.2644 C   0  0  0  0  0  0
  -25.9868  -30.7514   21.3848 C   0  0  0  0  0  0
  -26.0582  -29.3711   20.7233 C   0  0  0  0  0  0
  -27.2266  -28.5320   20.7252 C   0  0  0  0  0  0
  -26.0067  -26.8465   19.4945 C   0  0  0  0  0  0
  -24.8643  -27.6680   19.4828 C   0  0  0  0  0  0
  -23.6568  -29.8152   20.1564 C   0  0  0  0  0  0
  -25.4116  -36.3064   24.0323 C   0  0  1  0  0  0
  -20.5908  -28.3700   23.1244 C   0  0  2  0  0  0
  -20.6784  -26.9411   22.5395 C   0  0  0  0  0  0
  -19.5759  -26.6370   21.5204 C   0  0  0  0  0  0
  -18.1942  -26.7918   22.1619 C   0  0  0  0  0  0
  -19.1555  -28.8859   23.2858 C   0  0  0  0  0  0
  -18.9476  -30.1454   23.8890 C   0  0  0  0  0  0
  -17.6475  -30.6583   24.0558 C   0  0  0  0  0  0
  -25.9054  -34.9435   23.5089 C   0  0  0  0  0  0
  -16.5365  -29.9077   23.6332 C   0  0  0  0  0  0
  -16.7283  -28.6490   23.0360 C   0  0  0  0  0  0
  -26.4516  -31.6582   25.0745 C   0  0  0  0  0  0
  -25.3724  -31.3739   26.1455 C   0  0  0  0  0  0
  -27.0378  -30.2993   24.6268 C   0  0  0  0  0  0
  -27.6049  -32.4346   25.7529 C   0  0  0  0  0  0
  -27.5572  -37.1800   24.8470 C   0  0  0  0  0  0
  -21.4227  -29.3050   22.3632 N   0  0  0  0  0  0
  -26.4286  -37.3767   23.9404 N   0  0  0  0  0  0
  -24.7052  -31.0459   22.0965 N   0  0  0  0  0  0
  -23.4206  -28.8109   23.2986 O   0  0  0  0  0  0
  -28.2661  -26.2547   20.2339 O   0  0  0  0  0  0
  -26.5631  -34.8912   22.4661 O   0  0  0  0  0  0
  -23.5495  -32.1361   23.7239 O   0  0  0  0  0  0
  -30.9068  -17.6566   21.6400 C   0  0  0  0  0  0
  -30.4518  -20.0836   21.6505 C   0  0  0  0  0  0
  -29.1732  -18.5926   20.2052 C   0  0  0  0  0  0
  -29.9561  -17.4027   20.6251 C   0  0  0  0  0  0
  -29.4539  -19.9705   20.6594 C   0  0  0  0  0  0
  -31.1400  -18.9553   22.1402 C   0  0  0  0  0  0
  -27.5138  -19.2190   18.3856 C   0  0  0  0  0  0
  -28.0194  -18.3774   19.3038 C   0  0  0  0  0  0
  -28.5358  -23.6975   19.5570 C   0  0  0  0  0  0
  -28.2545  -25.0700   19.4303 C   0  0  0  0  0  0
  -29.7023  -16.0210   18.5650 C   0  0  0  0  0  0
  -29.0162  -22.5908   20.6031 C   0  0  0  0  0  0
  -29.8928  -16.0009   20.0308 N   0  0  0  0  0  0
  -28.7737  -21.1528   20.1849 O   0  0  0  0  0  0
  -32.0755  -19.1280   23.1049 F   0  0  0  0  0  0
  -31.4708  -12.6400   19.1586 H   0  0  0  0  0  0
  -30.4111  -11.5536   20.0190 H   0  0  0  0  0  0
  -29.7982  -11.6101   17.6015 H   0  0  0  0  0  0
  -29.6303  -13.3365   17.6267 H   0  0  0  0  0  0
  -27.9003  -11.2567   18.9637 H   0  0  0  0  0  0
  -27.3800  -12.4540   17.8089 H   0  0  0  0  0  0
  -27.5925  -14.2331   19.4191 H   0  0  0  0  0  0
  -28.7462  -12.2758   21.4572 H   0  0  0  0  0  0
  -28.4125  -13.9748   21.7307 H   0  0  0  0  0  0
  -25.2776   -9.5708   22.4728 H   0  0  0  0  0  0
  -24.0031   -7.4638   22.7471 H   0  0  0  0  0  0
  -21.0843   -8.8765   19.8957 H   0  0  0  0  0  0
  -22.3688  -10.9669   19.6151 H   0  0  0  0  0  0
  -21.2008   -7.6147   23.9717 H   0  0  0  0  0  0
  -21.1472   -6.0513   25.9072 H   0  0  0  0  0  0
  -22.0604   -2.7614   23.2819 H   0  0  0  0  0  0
  -22.4080  -11.9915   22.4871 H   0  0  0  0  0  0
  -21.1058  -13.1244   22.2535 H   0  0  0  0  0  0
  -24.6513  -15.8441   20.5430 H   0  0  0  0  0  0
  -26.2833  -15.6402   20.1551 H   0  0  0  0  0  0
  -26.7225  -32.5375   23.1066 H   0  0  0  0  0  0
  -25.0102  -33.9681   25.0410 H   0  0  0  0  0  0
  -22.7329  -31.3013   21.3942 H   0  0  0  0  0  0
  -23.3741  -35.9608   23.3324 H   0  0  0  0  0  0
  -24.3571  -36.8889   22.2056 H   0  0  0  0  0  0
  -23.7236  -37.6478   23.6664 H   0  0  0  0  0  0
  -26.1363  -31.5109   20.6159 H   0  0  0  0  0  0
  -26.8592  -30.7980   22.0249 H   0  0  0  0  0  0
  -28.1197  -28.8663   21.2343 H   0  0  0  0  0  0
  -25.8957  -25.8746   19.0375 H   0  0  0  0  0  0
  -23.9616  -27.3099   19.0065 H   0  0  0  0  0  0
  -23.7878  -30.5941   19.4045 H   0  0  0  0  0  0
  -22.7721  -29.2564   19.8460 H   0  0  0  0  0  0
  -25.1300  -36.1919   25.0816 H   0  0  0  0  0  0
  -21.0014  -28.3288   24.1360 H   0  0  0  0  0  0
  -20.5678  -26.2317   23.3613 H   0  0  0  0  0  0
  -21.6651  -26.7421   22.1203 H   0  0  0  0  0  0
  -19.6925  -25.6275   21.1252 H   0  0  0  0  0  0
  -19.6696  -27.3162   20.6720 H   0  0  0  0  0  0
  -17.4209  -26.6661   21.4025 H   0  0  0  0  0  0
  -18.0347  -26.0064   22.9018 H   0  0  0  0  0  0
  -19.7955  -30.7264   24.2263 H   0  0  0  0  0  0
  -17.5031  -31.6268   24.5142 H   0  0  0  0  0  0
  -15.5363  -30.2976   23.7660 H   0  0  0  0  0  0
  -15.8683  -28.0799   22.7090 H   0  0  0  0  0  0
  -24.5891  -30.7097   25.7785 H   0  0  0  0  0  0
  -24.8916  -32.2907   26.4879 H   0  0  0  0  0  0
  -25.8029  -30.8921   27.0243 H   0  0  0  0  0  0
  -26.2987  -29.6735   24.1249 H   0  0  0  0  0  0
  -27.3999  -29.7272   25.4822 H   0  0  0  0  0  0
  -27.8893  -30.4268   23.9578 H   0  0  0  0  0  0
  -27.2638  -33.3651   26.2088 H   0  0  0  0  0  0
  -28.3872  -32.6913   25.0370 H   0  0  0  0  0  0
  -28.0705  -31.8491   26.5469 H   0  0  0  0  0  0
  -28.2603  -38.0084   24.7496 H   0  0  0  0  0  0
  -28.1053  -36.2612   24.6322 H   0  0  0  0  0  0
  -27.2288  -37.1491   25.8874 H   0  0  0  0  0  0
  -20.9413  -29.8793   21.6856 H   0  0  0  0  0  0
  -26.0165  -38.2844   24.1391 H   0  0  0  0  0  0
  -31.5143  -16.8584   22.0373 H   0  0  0  0  0  0
  -30.7011  -21.0453   22.0716 H   0  0  0  0  0  0
  -26.6454  -18.9344   17.8078 H   0  0  0  0  0  0
  -27.9397  -20.1905   18.1827 H   0  0  0  0  0  0
  -27.5093  -17.4337   19.4307 H   0  0  0  0  0  0
  -28.3983  -23.1936   18.6102 H   0  0  0  0  0  0
  -27.9585  -25.3667   18.4325 H   0  0  0  0  0  0
  -29.9365  -16.9968   18.1394 H   0  0  0  0  0  0
  -28.6795  -15.7730   18.2873 H   0  0  0  0  0  0
  -30.3655  -15.3465   18.0205 H   0  0  0  0  0  0
  -28.5331  -22.7731   21.5629 H   0  0  0  0  0  0
  -30.0848  -22.7440   20.7487 H   0  0  0  0  0  0
  1 25  1  0  0  0
  1 30  2  0  0  0
  1 83  1  0  0  0
  2  3  1  0  0  0
  2 25  1  0  0  0
  2 86  1  0  0  0
  2 87  1  0  0  0
  3  4  1  0  0  0
  3 88  1  0  0  0
  3 89  1  0  0  0
  4  5  1  0  0  0
  4 90  1  0  0  0
  4 91  1  0  0  0
  5  6  1  0  0  0
  5 26  1  0  0  0
  5 92  1  0  0  0
  6 25  1  0  0  0
  6 93  1  0  0  0
  6 94  1  0  0  0
  7  8  2  0  0  0
  7 26  1  0  0  0
  7 29  1  0  0  0
  8  9  1  0  0  0
  8 22  1  0  0  0
  9 10  1  0  0  0
  9 27  2  0  0  0
 10 11  2  0  0  0
 10 15  1  0  0  0
 11 12  1  0  0  0
 11 95  1  0  0  0
 12 13  2  0  0  0
 12 96  1  0  0  0
 13 14  1  0  0  0
 13 31  1  0  0  0
 14 15  2  0  0  0
 14 97  1  0  0  0
 15 98  1  0  0  0
 16 17  2  0  0  0
 16 21  1  0  0  0
 16 31  1  0  0  0
 17 18  1  0  0  0
 17 99  1  0  0  0
 18 19  2  0  0  0
 18100  1  0  0  0
 19 20  1  0  0  0
 19 24  1  0  0  0
 20 21  2  0  0  0
 20101  1  0  0  0
 21 23  1  0  0  0
 22 28  1  0  0  0
 22 32  2  0  0  0
 26 27  1  0  0  0
 28102  1  0  0  0
 28103  1  0  0  0
 29104  1  0  0  0
 29105  1  0  0  0
 33 34  1  0  0  0
 33 66  1  0  0  0
 33 70  2  0  0  0
 34 36  1  0  0  0
 34 59  1  0  0  0
 34106  1  0  0  0
 35 44  2  0  0  0
 35 45  1  0  0  0
 35 68  1  0  0  0
 36 56  1  0  0  0
 36107  1  0  0  0
 37 39  1  0  0  0
 37 47  1  0  0  0
 37 66  1  0  0  0
 37108  1  0  0  0
 38 43  2  0  0  0
 38 46  1  0  0  0
 38 47  1  0  0  0
 39 64  1  0  0  0
 39 67  2  0  0  0
 40 52  1  0  0  0
 40 53  2  0  0  0
 40 58  1  0  0  0
 41109  1  0  0  0
 41110  1  0  0  0
 41111  1  0  0  0
 41 48  1  0  0  0
 42 43  1  0  0  0
 42 66  1  0  0  0
 42112  1  0  0  0
 42113  1  0  0  0
 43 44  1  0  0  0
 44114  1  0  0  0
 45 46  2  0  0  0
 45115  1  0  0  0
 46116  1  0  0  0
 47117  1  0  0  0
 47118  1  0  0  0
 48 56  1  0  0  0
 48 65  1  0  0  0
 48119  1  0  0  0
 49 50  1  0  0  0
 49 53  1  0  0  0
 49 64  1  0  0  0
 49120  1  0  0  0
 50 51  1  0  0  0
 50121  1  0  0  0
 50122  1  0  0  0
 51 52  1  0  0  0
 51123  1  0  0  0
 51124  1  0  0  0
 52125  1  0  0  0
 52126  1  0  0  0
 53 54  1  0  0  0
 54 55  2  0  0  0
 54127  1  0  0  0
 55 57  1  0  0  0
 55128  1  0  0  0
 56 69  2  0  0  0
 57 58  2  0  0  0
 57129  1  0  0  0
 58130  1  0  0  0
 59 60  1  0  0  0
 59 61  1  0  0  0
 59 62  1  0  0  0
 60131  1  0  0  0
 60132  1  0  0  0
 60133  1  0  0  0
 61134  1  0  0  0
 61135  1  0  0  0
 61136  1  0  0  0
 62137  1  0  0  0
 62138  1  0  0  0
 62139  1  0  0  0
 63 65  1  0  0  0
 63140  1  0  0  0
 63141  1  0  0  0
 63142  1  0  0  0
 64143  1  0  0  0
 65144  1  0  0  0
 68 80  1  0  0  0
 71 74  2  0  0  0
 71 76  1  0  0  0
 71145  1  0  0  0
 72 75  1  0  0  0
 72 76  2  0  0  0
 72146  1  0  0  0
 73 74  1  0  0  0
 73 75  2  0  0  0
 73 78  1  0  0  0
 74 83  1  0  0  0
 75 84  1  0  0  0
 76 85  1  0  0  0
 77 78  2  0  0  0
 77147  1  0  0  0
 77148  1  0  0  0
 78149  1  0  0  0
 79 80  2  0  0  0
 79 82  1  0  0  0
 79150  1  0  0  0
 80151  1  0  0  0
 81 83  1  0  0  0
 81152  1  0  0  0
 81153  1  0  0  0
 81154  1  0  0  0
 82 84  1  0  0  0
 82155  1  0  0  0
 82156  1  0  0  0
M  ISO  4   1 100  68 101  80 101  83 100
M  END
> <chiral flag>
0

> <version>
0

> <s_m_source_file>
/data/baiqing/PycharmProjects/Reinvent-master-3.2/result/LINK_invent/BTK/process_docking_weight1_custom_product_contain_oxygen_bond_distance_aromatic_linkinvent_7_9_3/rearranged_h_0114.sdf

> <i_m_source_file_index>
95

> <r_mmod_Potential_Energy-OPLS-2005>
581.188659667969

> <r_mmod_Stretch_Energy-OPLS-2005>
171.518157958984

> <r_mmod_Bend_Energy-OPLS-2005>
251.794097900391

> <r_mmod_Torsional_Energy-OPLS-2005>
313.160797119141

> <r_mmod_Improper_Torsional_Energy-OPLS-2005>
21.9682121276855

> <r_mmod_Van_der_Waal_Energy-OPLS-2005>
156.233322143555

> <r_mmod_Electrostatic_Energy-OPLS-2005>
-280.945709228516

> <r_mmod_Solvation_Energy-OPLS-2005>
-187.903762817383

> <b_mmod_Minimization_Converged-OPLS-2005>
0

> <r_mmod_RMS_Derivative-OPLS-2005>
1.80510413646698

$$$$
95
                    3D
 Structure written by MMmdl.
155163  0  0  1  0            999 V2000
  -30.5532  -14.9421   20.4971 C   0  0  0  0  0  0
  -30.4448  -12.5980   19.5012 C   0  0  0  0  0  0
  -29.5247  -12.5585   18.2568 C   0  0  0  0  0  0
  -28.0557  -12.3359   18.6625 C   0  0  0  0  0  0
  -27.6353  -13.2433   19.8453 C   0  0  2  0  0  0
  -28.6728  -13.2121   20.9828 C   0  0  0  0  0  0
  -25.2489  -13.8209   20.5697 C   0  0  0  0  0  0
  -24.1792  -13.0439   20.9198 C   0  0  0  0  0  0
  -24.6397  -11.6921   20.8726 C   0  0  0  0  0  0
  -23.9076  -10.4296   21.0396 C   0  0  0  0  0  0
  -24.3624   -9.4212   21.9178 C   0  0  0  0  0  0
  -23.6297   -8.2248   22.0752 C   0  0  0  0  0  0
  -22.4278   -8.0284   21.3544 C   0  0  0  0  0  0
  -21.9913   -9.0257   20.4646 C   0  0  0  0  0  0
  -22.7244  -10.2135   20.3050 C   0  0  0  0  0  0
  -21.6857   -6.0736   22.5279 C   0  0  0  0  0  0
  -21.4018   -6.5639   23.8212 C   0  0  0  0  0  0
  -21.3660   -5.6792   24.9174 C   0  0  0  0  0  0
  -21.6043   -4.3054   24.7224 C   0  0  0  0  0  0
  -21.8819   -3.8147   23.4346 C   0  0  0  0  0  0
  -21.9195   -4.6964   22.3402 C   0  0  0  0  0  0
  -22.7815  -13.5216   21.1870 C   0  0  0  0  0  0
  -22.1664   -4.2150   21.0980 F   0  0  0  0  0  0
  -21.5625   -3.4537   25.7737 F   0  0  0  0  0  0
  -29.9580  -13.6719   20.4221 N   0  0  0  0  0  0
  -26.2905  -12.9425   20.3229 N   0  0  0  0  0  0
  -25.9326  -11.6556   20.5699 N   0  0  0  0  0  0
  -22.0472  -12.8202   22.0430 N   0  0  0  0  0  0
  -25.4177  -15.1937   20.4166 N   0  0  0  0  0  0
  -31.6959  -15.0429   20.0348 O   0  0  0  0  0  0
  -21.6642   -6.8881   21.4242 O   0  0  0  0  0  0
  -22.3489  -14.5518   20.6720 O   0  0  0  0  0  0
  -24.6449  -31.8432   23.1886 C   0  0  0  0  0  0
  -25.9217  -32.4690   23.8275 C   0  0  1  0  0  0
  -27.2154  -27.1240   20.1456 C   0  0  0  0  0  0
  -25.5959  -33.8497   24.2189 N   0  0  0  0  0  0
  -23.4491  -30.4637   21.5346 C   0  0  2  0  0  0
  -24.8991  -28.8930   20.1078 C   0  0  0  0  0  0
  -22.7577  -29.4541   22.4854 C   0  0  0  0  0  0
  -18.0307  -28.1395   22.8476 C   0  0  0  0  0  0
  -24.1492  -36.7253   23.2641 C   0  0  0  0  0  0
  -26.0072  -30.7114   21.3920 C   0  0  0  0  0  0
  -26.0773  -29.3227   20.7315 C   0  0  0  0  0  0
  -27.2350  -28.4535   20.7370 C   0  0  0  0  0  0
  -26.0132  -26.8094   19.4704 C   0  0  0  0  0  0
  -24.8811  -27.6500   19.4617 C   0  0  0  0  0  0
  -23.6763  -29.7958   20.1530 C   0  0  0  0  0  0
  -25.4124  -36.3029   24.0315 C   0  0  1  0  0  0
  -20.5921  -28.3722   23.1230 C   0  0  2  0  0  0
  -20.6790  -26.9423   22.5402 C   0  0  0  0  0  0
  -19.5763  -26.6379   21.5211 C   0  0  0  0  0  0
  -18.1945  -26.7933   22.1624 C   0  0  0  0  0  0
  -19.1564  -28.8878   23.2845 C   0  0  0  0  0  0
  -18.9479  -30.1473   23.8870 C   0  0  0  0  0  0
  -17.6474  -30.6590   24.0558 C   0  0  0  0  0  0
  -25.9076  -34.9404   23.5061 C   0  0  0  0  0  0
  -16.5366  -29.9082   23.6337 C   0  0  0  0  0  0
  -16.7291  -28.6501   23.0356 C   0  0  0  0  0  0
  -26.4531  -31.6563   25.0723 C   0  0  0  0  0  0
  -25.3708  -31.3759   26.1413 C   0  0  0  0  0  0
  -27.0402  -30.2956   24.6323 C   0  0  0  0  0  0
  -27.6056  -32.4335   25.7510 C   0  0  0  0  0  0
  -27.5577  -37.1781   24.8462 C   0  0  0  0  0  0
  -21.4268  -29.3047   22.3602 N   0  0  0  0  0  0
  -26.4285  -37.3745   23.9409 N   0  0  0  0  0  0
  -24.7203  -31.0275   22.0931 N   0  0  0  0  0  0
  -23.4215  -28.8083   23.3005 O   0  0  0  0  0  0
  -28.2476  -26.1110   20.2318 O   0  0  0  0  0  0
  -26.5662  -34.8903   22.4640 O   0  0  0  0  0  0
  -23.5565  -32.1315   23.7097 O   0  0  0  0  0  0
  -28.6210  -19.4773   19.3582 C   0  0  0  0  0  0
  -30.2338  -18.6802   21.4088 C   0  0  0  0  0  0
  -28.9415  -18.0591   19.5308 C   0  0  0  0  0  0
  -29.0526  -20.5811   20.1812 C   0  0  0  0  0  0
  -29.7546  -17.5674   20.6127 C   0  0  0  0  0  0
  -29.9141  -20.0917   21.2197 C   0  0  0  0  0  0
  -27.2366  -17.2346   17.8687 C   0  0  0  0  0  0
  -28.6638  -16.6180   23.1230 C   0  0  0  0  0  0
  -28.3318  -17.0629   18.6284 C   0  0  0  0  0  0
  -29.5555  -15.8965   22.4171 C   0  0  0  0  0  0
  -28.7811  -23.2323   20.3515 C   0  0  0  0  0  0
  -27.9189  -24.6108   19.9346 C   0  0  0  0  0  0
  -28.5364  -21.9749   19.9158 N   0  0  0  0  0  0
  -29.8859  -16.0823   21.0576 N   0  0  0  0  0  0
  -30.4262  -20.9855   22.1000 F   0  0  0  0  0  0
  -31.4773  -12.7607   19.1891 H   0  0  0  0  0  0
  -30.4474  -11.6313   20.0072 H   0  0  0  0  0  0
  -29.8470  -11.7742   17.5706 H   0  0  0  0  0  0
  -29.6129  -13.4988   17.7101 H   0  0  0  0  0  0
  -27.9455  -11.2884   18.9458 H   0  0  0  0  0  0
  -27.3962  -12.4925   17.8081 H   0  0  0  0  0  0
  -27.6132  -14.2595   19.4533 H   0  0  0  0  0  0
  -28.7650  -12.2056   21.3934 H   0  0  0  0  0  0
  -28.3202  -13.8252   21.8068 H   0  0  0  0  0  0
  -25.2771   -9.5689   22.4749 H   0  0  0  0  0  0
  -24.0007   -7.4641   22.7472 H   0  0  0  0  0  0
  -21.0842   -8.8776   19.8954 H   0  0  0  0  0  0
  -22.3702  -10.9671   19.6156 H   0  0  0  0  0  0
  -21.2013   -7.6148   23.9716 H   0  0  0  0  0  0
  -21.1480   -6.0522   25.9076 H   0  0  0  0  0  0
  -22.0598   -2.7610   23.2845 H   0  0  0  0  0  0
  -22.4103  -11.9870   22.4819 H   0  0  0  0  0  0
  -21.1089  -13.1218   22.2641 H   0  0  0  0  0  0
  -24.6524  -15.8478   20.5351 H   0  0  0  0  0  0
  -26.2738  -15.6384   20.1091 H   0  0  0  0  0  0
  -26.7282  -32.5291   23.1001 H   0  0  0  0  0  0
  -25.0081  -33.9609   25.0319 H   0  0  0  0  0  0
  -22.7523  -31.2904   21.3811 H   0  0  0  0  0  0
  -23.3760  -35.9578   23.3287 H   0  0  0  0  0  0
  -24.3577  -36.8902   22.2058 H   0  0  0  0  0  0
  -23.7241  -37.6442   23.6689 H   0  0  0  0  0  0
  -26.1672  -31.4659   20.6207 H   0  0  0  0  0  0
  -26.8761  -30.7596   22.0366 H   0  0  0  0  0  0
  -28.1279  -28.7743   21.2549 H   0  0  0  0  0  0
  -25.9036  -25.8663   18.9574 H   0  0  0  0  0  0
  -23.9844  -27.3186   18.9561 H   0  0  0  0  0  0
  -23.8134  -30.5718   19.3990 H   0  0  0  0  0  0
  -22.7907  -29.2392   19.8413 H   0  0  0  0  0  0
  -25.1311  -36.1855   25.0807 H   0  0  0  0  0  0
  -21.0013  -28.3314   24.1351 H   0  0  0  0  0  0
  -20.5682  -26.2335   23.3623 H   0  0  0  0  0  0
  -21.6656  -26.7425   22.1201 H   0  0  0  0  0  0
  -19.6922  -25.6284   21.1256 H   0  0  0  0  0  0
  -19.6698  -27.3176   20.6731 H   0  0  0  0  0  0
  -17.4212  -26.6674   21.4030 H   0  0  0  0  0  0
  -18.0346  -26.0082   22.9028 H   0  0  0  0  0  0
  -19.7954  -30.7298   24.2225 H   0  0  0  0  0  0
  -17.5026  -31.6267   24.5165 H   0  0  0  0  0  0
  -15.5365  -30.2973   23.7675 H   0  0  0  0  0  0
  -15.8693  -28.0810   22.7085 H   0  0  0  0  0  0
  -24.5897  -30.7096   25.7733 H   0  0  0  0  0  0
  -24.8884  -32.2942   26.4771 H   0  0  0  0  0  0
  -25.7985  -30.8977   27.0234 H   0  0  0  0  0  0
  -26.3028  -29.6672   24.1315 H   0  0  0  0  0  0
  -27.3988  -29.7265   25.4910 H   0  0  0  0  0  0
  -27.8947  -30.4186   23.9666 H   0  0  0  0  0  0
  -27.2646  -33.3655   26.2028 H   0  0  0  0  0  0
  -28.3898  -32.6863   25.0361 H   0  0  0  0  0  0
  -28.0691  -31.8499   26.5475 H   0  0  0  0  0  0
  -28.2578  -38.0094   24.7524 H   0  0  0  0  0  0
  -28.1091  -36.2624   24.6272 H   0  0  0  0  0  0
  -27.2296  -37.1406   25.8865 H   0  0  0  0  0  0
  -20.9480  -29.8763   21.6781 H   0  0  0  0  0  0
  -26.0151  -38.2810   24.1420 H   0  0  0  0  0  0
  -27.9744  -19.7454   18.5370 H   0  0  0  0  0  0
  -30.8449  -18.4453   22.2672 H   0  0  0  0  0  0
  -26.8857  -16.4382   17.2275 H   0  0  0  0  0  0
  -26.6652  -18.1509   17.8648 H   0  0  0  0  0  0
  -28.4905  -16.4014   24.1676 H   0  0  0  0  0  0
  -28.0890  -17.4235   22.6888 H   0  0  0  0  0  0
  -28.8349  -16.1104   18.5574 H   0  0  0  0  0  0
  -30.0990  -15.0938   22.9031 H   0  0  0  0  0  0
  -29.5860  -23.4266   21.0649 H   0  0  0  0  0  0
  -26.9317  -24.4362   20.3627 H   0  0  0  0  0  0
  -27.7769  -24.5505   18.8554 H   0  0  0  0  0  0
  1 25  1  0  0  0
  1 30  2  0  0  0
  1 84  1  0  0  0
  2  3  1  0  0  0
  2 25  1  0  0  0
  2 86  1  0  0  0
  2 87  1  0  0  0
  3  4  1  0  0  0
  3 88  1  0  0  0
  3 89  1  0  0  0
  4  5  1  0  0  0
  4 90  1  0  0  0
  4 91  1  0  0  0
  5  6  1  0  0  0
  5 26  1  0  0  0
  5 92  1  0  0  0
  6 25  1  0  0  0
  6 93  1  0  0  0
  6 94  1  0  0  0
  7  8  2  0  0  0
  7 26  1  0  0  0
  7 29  1  0  0  0
  8  9  1  0  0  0
  8 22  1  0  0  0
  9 10  1  0  0  0
  9 27  2  0  0  0
 10 11  2  0  0  0
 10 15  1  0  0  0
 11 12  1  0  0  0
 11 95  1  0  0  0
 12 13  2  0  0  0
 12 96  1  0  0  0
 13 14  1  0  0  0
 13 31  1  0  0  0
 14 15  2  0  0  0
 14 97  1  0  0  0
 15 98  1  0  0  0
 16 17  2  0  0  0
 16 21  1  0  0  0
 16 31  1  0  0  0
 17 18  1  0  0  0
 17 99  1  0  0  0
 18 19  2  0  0  0
 18100  1  0  0  0
 19 20  1  0  0  0
 19 24  1  0  0  0
 20 21  2  0  0  0
 20101  1  0  0  0
 21 23  1  0  0  0
 22 28  1  0  0  0
 22 32  2  0  0  0
 26 27  1  0  0  0
 28102  1  0  0  0
 28103  1  0  0  0
 29104  1  0  0  0
 29105  1  0  0  0
 33 34  1  0  0  0
 33 66  1  0  0  0
 33 70  2  0  0  0
 34 36  1  0  0  0
 34 59  1  0  0  0
 34106  1  0  0  0
 35 44  2  0  0  0
 35 45  1  0  0  0
 35 68  1  0  0  0
 36 56  1  0  0  0
 36107  1  0  0  0
 37 39  1  0  0  0
 37 47  1  0  0  0
 37 66  1  0  0  0
 37108  1  0  0  0
 38 43  2  0  0  0
 38 46  1  0  0  0
 38 47  1  0  0  0
 39 64  1  0  0  0
 39 67  2  0  0  0
 40 52  1  0  0  0
 40 53  2  0  0  0
 40 58  1  0  0  0
 41109  1  0  0  0
 41110  1  0  0  0
 41111  1  0  0  0
 41 48  1  0  0  0
 42 43  1  0  0  0
 42 66  1  0  0  0
 42112  1  0  0  0
 42113  1  0  0  0
 43 44  1  0  0  0
 44114  1  0  0  0
 45 46  2  0  0  0
 45115  1  0  0  0
 46116  1  0  0  0
 47117  1  0  0  0
 47118  1  0  0  0
 48 56  1  0  0  0
 48 65  1  0  0  0
 48119  1  0  0  0
 49 50  1  0  0  0
 49 53  1  0  0  0
 49 64  1  0  0  0
 49120  1  0  0  0
 50 51  1  0  0  0
 50121  1  0  0  0
 50122  1  0  0  0
 51 52  1  0  0  0
 51123  1  0  0  0
 51124  1  0  0  0
 52125  1  0  0  0
 52126  1  0  0  0
 53 54  1  0  0  0
 54 55  2  0  0  0
 54127  1  0  0  0
 55 57  1  0  0  0
 55128  1  0  0  0
 56 69  2  0  0  0
 57 58  2  0  0  0
 57129  1  0  0  0
 58130  1  0  0  0
 59 60  1  0  0  0
 59 61  1  0  0  0
 59 62  1  0  0  0
 60131  1  0  0  0
 60132  1  0  0  0
 60133  1  0  0  0
 61134  1  0  0  0
 61135  1  0  0  0
 61136  1  0  0  0
 62137  1  0  0  0
 62138  1  0  0  0
 62139  1  0  0  0
 63 65  1  0  0  0
 63140  1  0  0  0
 63141  1  0  0  0
 63142  1  0  0  0
 64143  1  0  0  0
 65144  1  0  0  0
 68 82  1  0  0  0
 71 73  2  0  0  0
 71 74  1  0  0  0
 71145  1  0  0  0
 72 75  2  0  0  0
 72 76  1  0  0  0
 72146  1  0  0  0
 73 75  1  0  0  0
 73 79  1  0  0  0
 74 76  2  0  0  0
 74 83  1  0  0  0
 75 84  1  0  0  0
 76 85  1  0  0  0
 77 79  2  0  0  0
 77147  1  0  0  0
 77148  1  0  0  0
 78 80  2  0  0  0
 78149  1  0  0  0
 78150  1  0  0  0
 79151  1  0  0  0
 80 84  1  0  0  0
 80152  1  0  0  0
 81 82  1  0  0  0
 81 83  2  0  0  0
 81153  1  0  0  0
 82154  1  0  0  0
 82155  1  0  0  0
M  ISO  4   1 100  68 101  82 101  84 100
M  END
> <chiral flag>
0

> <version>
0

> <s_m_source_file>
/data/baiqing/PycharmProjects/Reinvent-master-3.2/result/LINK_invent/BTK/process_docking_weight1_custom_product_contain_oxygen_bond_distance_aromatic_linkinvent_7_9_3/rearranged_h_0114.sdf

> <i_m_source_file_index>
96

> <r_mmod_Potential_Energy-OPLS-2005>
722.810180664062

> <r_mmod_Stretch_Energy-OPLS-2005>
262.713989257812

> <r_mmod_Bend_Energy-OPLS-2005>
287.787933349609

> <r_mmod_Torsional_Energy-OPLS-2005>
314.771148681641

> <r_mmod_Improper_Torsional_Energy-OPLS-2005>
4.65541839599609

> <r_mmod_Van_der_Waal_Energy-OPLS-2005>
145.454727172852

> <r_mmod_Electrostatic_Energy-OPLS-2005>
-291.408325195312

> <r_mmod_Solvation_Energy-OPLS-2005>
-194.100799560547

> <b_mmod_Minimization_Converged-OPLS-2005>
0

> <r_mmod_RMS_Derivative-OPLS-2005>
0.247804194688797

$$$$
