0
                    3D
 Structure written by MMmdl.
157166  0  0  1  0            999 V2000
  -29.7582  -14.7431   19.8599 C   0  0  0  0  0  0
  -30.4324  -12.4246   19.3705 C   0  0  0  0  0  0
  -29.3827  -12.0609   18.2930 C   0  0  0  0  0  0
  -27.9873  -11.7308   18.9878 C   0  0  0  0  0  0
  -27.6755  -12.7740   20.1179 C   0  0  2  0  0  0
  -28.8273  -12.9482   21.0900 C   0  0  0  0  0  0
  -24.8649  -14.7214   20.5100 C   0  0  0  0  0  0
  -24.2488  -14.2627   20.7685 C   0  0  0  0  0  0
  -25.4691  -12.3436   20.8544 C   0  0  0  0  0  0
  -24.6485  -10.6422   20.9612 C   0  0  0  0  0  0
  -24.6834   -9.6724   22.0510 C   0  0  0  0  0  0
  -23.8298   -8.4937   22.2564 C   0  0  0  0  0  0
  -22.7094   -8.1657   21.4374 C   0  0  0  0  0  0
  -22.5661   -9.0394   20.3668 C   0  0  0  0  0  0
  -23.5520  -10.0484   20.1228 C   0  0  0  0  0  0
  -21.7859   -6.1659   22.5510 C   0  0  0  0  0  0
  -21.4660   -6.6120   23.8507 C   0  0  0  0  0  0
  -21.3793   -5.6994   24.9224 C   0  0  0  0  0  0
  -21.5983   -4.3267   24.7050 C   0  0  0  0  0  0
  -21.8713   -3.8626   23.4066 C   0  0  0  0  0  0
  -21.9507   -4.7721   22.3323 C   0  0  0  0  0  0
  -22.5846  -14.5546   20.8657 C   0  0  0  0  0  0
  -22.1828   -4.2914   21.0864 F   0  0  0  0  0  0
  -21.5435   -3.4569   25.7425 F   0  0  0  0  0  0
  -29.8245  -13.4499   20.2369 N   0  0  0  0  0  0
  -26.2255  -13.2414   20.7809 N   0  0  0  0  0  0
  -26.3818  -12.2144   21.5458 N   0  0  0  0  0  0
  -21.6570  -13.7307   21.4476 N   0  0  0  0  0  0
  -24.6491  -16.0292   19.9417 N   0  0  0  0  0  0
  -30.9065  -15.2503   19.7995 O   0  0  0  0  0  0
  -21.8478   -7.0583   21.4959 O   0  0  0  0  0  0
  -22.0717  -15.4620   20.2847 O   0  0  0  0  0  0
  -24.7162  -31.7530   23.1283 C   0  0  0  0  0  0
  -25.9608  -32.4188   23.7902 C   0  0  1  0  0  0
  -26.8207  -26.0991   20.4663 C   0  0  0  0  0  0
  -25.6053  -33.8059   24.1723 N   0  0  0  0  0  0
  -23.5428  -30.3609   21.4899 C   0  0  2  0  0  0
  -24.9417  -28.6021   20.1247 C   0  0  0  0  0  0
  -22.7830  -29.4107   22.4575 C   0  0  0  0  0  0
  -18.0345  -28.1431   22.8441 C   0  0  0  0  0  0
  -24.1507  -36.7028   23.2664 C   0  0  0  0  0  0
  -26.1258  -30.2832   21.4859 C   0  0  0  0  0  0
  -26.1069  -28.7899   20.8699 C   0  0  0  0  0  0
  -27.0373  -27.5734   20.9947 C   0  0  0  0  0  0
  -25.7524  -26.2836   19.5443 C   0  0  0  0  0  0
  -24.8534  -27.3966   19.4095 C   0  0  0  0  0  0
  -23.8092  -29.6552   20.1234 C   0  0  0  0  0  0
  -25.4177  -36.2734   24.0246 C   0  0  1  0  0  0
  -20.5985  -28.3798   23.1079 C   0  0  2  0  0  0
  -20.6788  -26.9427   22.5410 C   0  0  0  0  0  0
  -19.5773  -26.6353   21.5217 C   0  0  0  0  0  0
  -18.1956  -26.7954   22.1611 C   0  0  0  0  0  0
  -19.1617  -28.8945   23.2738 C   0  0  0  0  0  0
  -18.9524  -30.1522   23.8797 C   0  0  0  0  0  0
  -17.6513  -30.6607   24.0546 C   0  0  0  0  0  0
  -25.9185  -34.9134   23.4847 C   0  0  0  0  0  0
  -16.5400  -29.9087   23.6357 C   0  0  0  0  0  0
  -16.7325  -28.6511   23.0371 C   0  0  0  0  0  0
  -26.4662  -31.6436   25.0716 C   0  0  0  0  0  0
  -25.3621  -31.3890   26.1257 C   0  0  0  0  0  0
  -27.0669  -30.2719   24.6998 C   0  0  0  0  0  0
  -27.6028  -32.4420   25.7530 C   0  0  0  0  0  0
  -27.5547  -37.1685   24.8475 C   0  0  0  0  0  0
  -21.4459  -29.2983   22.3339 N   0  0  0  0  0  0
  -26.4265  -37.3542   23.9392 N   0  0  0  0  0  0
  -24.8274  -30.8515   22.0814 N   0  0  0  0  0  0
  -23.4136  -28.7743   23.3051 O   0  0  0  0  0  0
  -27.4093  -24.5430   20.7018 O   0  0  0  0  0  0
  -26.5873  -34.8786   22.4500 O   0  0  0  0  0  0
  -23.6126  -32.0894   23.5976 O   0  0  0  0  0  0
  -25.3769  -13.6006   18.6424 C   0  0  0  0  0  0
  -23.6868  -12.5482   19.6303 C   0  0  0  0  0  0
  -26.6501  -15.5933   21.5266 C   0  0  0  0  0  0
  -25.3678  -14.2955   22.7676 C   0  0  0  0  0  0
  -26.8751  -15.0513   19.5652 C   0  0  0  0  0  0
  -23.8297  -12.7573   22.2185 C   0  0  0  0  0  0
  -26.5276  -21.1308   21.8260 C   0  0  0  0  0  0
  -27.6457  -20.8835   20.4120 C   0  0  0  0  0  0
  -26.9350  -22.5650   20.7327 C   0  0  2  0  0  0
  -25.3386  -14.6681   24.2303 C   0  0  0  0  0  0
  -26.9796  -17.6996   21.6873 C   0  0  0  0  0  0
  -28.4644  -15.2852   19.3339 N   0  0  0  0  0  0
  -26.7321  -19.5897   21.0836 N   0  3  1  0  0  0
  -22.8541  -11.9402   23.4047 Cl  0  0  0  0  0  0
  -31.3500  -12.7912   18.9069 H   0  0  0  0  0  0
  -30.7090  -11.5457   19.9553 H   0  0  0  0  0  0
  -29.7226  -11.2036   17.7104 H   0  0  0  0  0  0
  -29.2742  -12.8796   17.5784 H   0  0  0  0  0  0
  -28.0701  -10.7556   19.4690 H   0  0  0  0  0  0
  -27.1933  -11.5915   18.2431 H   0  0  0  0  0  0
  -27.7519  -13.1800   19.1432 H   0  0  0  0  0  0
  -29.1169  -12.0065   21.5581 H   0  0  0  0  0  0
  -28.6064  -13.6567   21.8913 H   0  0  0  0  0  0
  -25.4134   -9.8691   22.8234 H   0  0  0  0  0  0
  -24.0347   -7.8707   23.1150 H   0  0  0  0  0  0
  -21.8288   -8.8185   19.6075 H   0  0  0  0  0  0
  -23.4954  -10.3118   19.0808 H   0  0  0  0  0  0
  -21.2985   -7.6640   24.0312 H   0  0  0  0  0  0
  -21.1532   -6.0549   25.9173 H   0  0  0  0  0  0
  -22.0181   -2.8078   23.2314 H   0  0  0  0  0  0
  -21.9235  -12.8988   21.9578 H   0  0  0  0  0  0
  -20.6797  -13.9774   21.3971 H   0  0  0  0  0  0
  -23.6790  -16.3000   19.7937 H   0  0  0  0  0  0
  -25.2759  -16.3878   19.2337 H   0  0  0  0  0  0
  -26.7696  -32.4484   23.0586 H   0  0  0  0  0  0
  -25.0049  -33.9043   24.9777 H   0  0  0  0  0  0
  -22.8937  -31.2165   21.2908 H   0  0  0  0  0  0
  -23.3787  -35.9340   23.3275 H   0  0  0  0  0  0
  -24.3547  -36.8768   22.2087 H   0  0  0  0  0  0
  -23.7268  -37.6177   23.6814 H   0  0  0  0  0  0
  -26.4040  -30.9529   20.6710 H   0  0  0  0  0  0
  -26.9637  -30.3443   22.1649 H   0  0  0  0  0  0
  -27.8819  -27.7087   21.6553 H   0  0  0  0  0  0
  -25.4774  -25.4069   18.9750 H   0  0  0  0  0  0
  -24.0031  -27.2599   18.7551 H   0  0  0  0  0  0
  -24.0640  -30.4096   19.3781 H   0  0  0  0  0  0
  -22.8894  -29.1918   19.7628 H   0  0  0  0  0  0
  -25.1415  -36.1435   25.0737 H   0  0  0  0  0  0
  -21.0069  -28.3457   24.1206 H   0  0  0  0  0  0
  -20.5614  -26.2432   23.3701 H   0  0  0  0  0  0
  -21.6648  -26.7317   22.1254 H   0  0  0  0  0  0
  -19.6918  -25.6238   21.1309 H   0  0  0  0  0  0
  -19.6727  -27.3110   20.6707 H   0  0  0  0  0  0
  -17.4228  -26.6708   21.4010 H   0  0  0  0  0  0
  -18.0327  -26.0119   22.9026 H   0  0  0  0  0  0
  -19.8003  -30.7360   24.2119 H   0  0  0  0  0  0
  -17.5066  -31.6276   24.5170 H   0  0  0  0  0  0
  -15.5396  -30.2960   23.7738 H   0  0  0  0  0  0
  -15.8725  -28.0798   22.7140 H   0  0  0  0  0  0
  -24.5873  -30.7158   25.7567 H   0  0  0  0  0  0
  -24.8739  -32.3148   26.4310 H   0  0  0  0  0  0
  -25.7709  -30.9311   27.0274 H   0  0  0  0  0  0
  -26.3432  -29.6138   24.2183 H   0  0  0  0  0  0
  -27.4056  -29.7418   25.5910 H   0  0  0  0  0  0
  -27.9449  -30.3722   24.0616 H   0  0  0  0  0  0
  -27.2514  -33.3853   26.1724 H   0  0  0  0  0  0
  -28.4013  -32.6773   25.0482 H   0  0  0  0  0  0
  -28.0505  -31.8828   26.5756 H   0  0  0  0  0  0
  -28.2536  -37.9998   24.7467 H   0  0  0  0  0  0
  -28.1068  -36.2510   24.6384 H   0  0  0  0  0  0
  -27.2242  -37.1401   25.8872 H   0  0  0  0  0  0
  -20.9815  -29.8611   21.6348 H   0  0  0  0  0  0
  -26.0050  -38.2576   24.1375 H   0  0  0  0  0  0
  -25.5070  -13.3902   17.5901 H   0  0  0  0  0  0
  -22.8726  -12.1135   19.0691 H   0  0  0  0  0  0
  -25.5013  -21.2143   22.1848 H   0  0  0  0  0  0
  -27.1446  -21.1668   22.7287 H   0  0  0  0  0  0
  -28.6674  -20.8300   20.7998 H   0  0  0  0  0  0
  -27.7410  -20.7199   19.3380 H   0  0  0  0  0  0
  -26.0840  -22.6168   20.0532 H   0  0  0  0  0  0
  -25.8206  -15.6320   24.3901 H   0  0  0  0  0  0
  -25.8564  -13.9145   24.8235 H   0  0  0  0  0  0
  -24.3076  -14.7341   24.5778 H   0  0  0  0  0  0
  -28.0540  -17.7087   21.8621 H   0  0  0  0  0  0
  -26.5628  -17.8243   22.6855 H   0  0  0  0  0  0
  -28.6461  -16.1507   18.8460 H   0  0  0  0  0  0
  -25.9257  -19.4953   20.4875 H   0  0  0  0  0  0
  1 25  1  0  0  0
  1 30  2  0  0  0
  1 82  1  0  0  0
  2  3  1  0  0  0
  2 25  1  0  0  0
  2 85  1  0  0  0
  2 86  1  0  0  0
  3  4  1  0  0  0
  3 87  1  0  0  0
  3 88  1  0  0  0
  4  5  1  0  0  0
  4 89  1  0  0  0
  4 90  1  0  0  0
  5  6  1  0  0  0
  5 26  1  0  0  0
  5 91  1  0  0  0
  6 25  1  0  0  0
  6 92  1  0  0  0
  6 93  1  0  0  0
  7  8  2  0  0  0
  7 26  1  0  0  0
  7 29  1  0  0  0
  8  9  1  0  0  0
  8 22  1  0  0  0
  9 10  1  0  0  0
  9 27  2  0  0  0
 10 11  2  0  0  0
 10 15  1  0  0  0
 11 12  1  0  0  0
 11 94  1  0  0  0
 12 13  2  0  0  0
 12 95  1  0  0  0
 13 14  1  0  0  0
 13 31  1  0  0  0
 14 15  2  0  0  0
 14 96  1  0  0  0
 15 97  1  0  0  0
 16 17  2  0  0  0
 16 21  1  0  0  0
 16 31  1  0  0  0
 17 18  1  0  0  0
 17 98  1  0  0  0
 18 19  2  0  0  0
 18 99  1  0  0  0
 19 20  1  0  0  0
 19 24  1  0  0  0
 20 21  2  0  0  0
 20100  1  0  0  0
 21 23  1  0  0  0
 22 28  1  0  0  0
 22 32  2  0  0  0
 26 27  1  0  0  0
 28101  1  0  0  0
 28102  1  0  0  0
 29103  1  0  0  0
 29104  1  0  0  0
 33 34  1  0  0  0
 33 66  1  0  0  0
 33 70  2  0  0  0
 34 36  1  0  0  0
 34 59  1  0  0  0
 34105  1  0  0  0
 35 44  2  0  0  0
 35 45  1  0  0  0
 35 68  1  0  0  0
 36 56  1  0  0  0
 36106  1  0  0  0
 37 39  1  0  0  0
 37 47  1  0  0  0
 37 66  1  0  0  0
 37107  1  0  0  0
 38 43  2  0  0  0
 38 46  1  0  0  0
 38 47  1  0  0  0
 39 64  1  0  0  0
 39 67  2  0  0  0
 40 52  1  0  0  0
 40 53  2  0  0  0
 40 58  1  0  0  0
 41108  1  0  0  0
 41109  1  0  0  0
 41110  1  0  0  0
 41 48  1  0  0  0
 42 43  1  0  0  0
 42 66  1  0  0  0
 42111  1  0  0  0
 42112  1  0  0  0
 43 44  1  0  0  0
 44113  1  0  0  0
 45 46  2  0  0  0
 45114  1  0  0  0
 46115  1  0  0  0
 47116  1  0  0  0
 47117  1  0  0  0
 48 56  1  0  0  0
 48 65  1  0  0  0
 48118  1  0  0  0
 49 50  1  0  0  0
 49 53  1  0  0  0
 49 64  1  0  0  0
 49119  1  0  0  0
 50 51  1  0  0  0
 50120  1  0  0  0
 50121  1  0  0  0
 51 52  1  0  0  0
 51122  1  0  0  0
 51123  1  0  0  0
 52124  1  0  0  0
 52125  1  0  0  0
 53 54  1  0  0  0
 54 55  2  0  0  0
 54126  1  0  0  0
 55 57  1  0  0  0
 55127  1  0  0  0
 56 69  2  0  0  0
 57 58  2  0  0  0
 57128  1  0  0  0
 58129  1  0  0  0
 59 60  1  0  0  0
 59 61  1  0  0  0
 59 62  1  0  0  0
 60130  1  0  0  0
 60131  1  0  0  0
 60132  1  0  0  0
 61133  1  0  0  0
 61134  1  0  0  0
 61135  1  0  0  0
 62136  1  0  0  0
 62137  1  0  0  0
 62138  1  0  0  0
 63 65  1  0  0  0
 63139  1  0  0  0
 63140  1  0  0  0
 63141  1  0  0  0
 64142  1  0  0  0
 65143  1  0  0  0
 68 79  1  0  0  0
 71 72  2  0  0  0
 71 75  1  0  0  0
 71144  1  0  0  0
 72 76  1  0  0  0
 72145  1  0  0  0
 73 74  1  0  0  0
 73 75  2  0  0  0
 73 81  1  0  0  0
 74 76  2  0  0  0
 74 80  1  0  0  0
 75 82  1  0  0  0
 76 84  1  0  0  0
 77 79  1  0  0  0
 77 83  1  0  0  0
 77146  1  0  0  0
 77147  1  0  0  0
 78 79  1  0  0  0
 78 83  1  0  0  0
 78148  1  0  0  0
 78149  1  0  0  0
 79150  1  0  0  0
 80151  1  0  0  0
 80152  1  0  0  0
 80153  1  0  0  0
 81154  1  0  0  0
 81155  1  0  0  0
 81 83  1  0  0  0
 82156  1  0  0  0
 83157  1  0  0  0
M  CHG  1  83   1
M  ISO  4   1 100  68 101  79 101  82 100
M  END
> <chiral flag>
0

> <version>
0

> <s_m_source_file>
/data/baiqing/PycharmProjects/Reinvent-master-3.2/result/LINK_invent/BTK/process_docking_weight1_custom_product_contain_oxygen_bond_distance_aromatic_linkinvent_7_9_3/rearranged_h_0028.sdf

> <i_m_source_file_index>
1

> <r_mmod_Potential_Energy-OPLS-2005>
24451.990234375

> <r_mmod_Stretch_Energy-OPLS-2005>
14962.78125

> <r_mmod_Bend_Energy-OPLS-2005>
1987.08984375

> <r_mmod_Torsional_Energy-OPLS-2005>
612.597900390625

> <r_mmod_Improper_Torsional_Energy-OPLS-2005>
51.0144348144531

> <r_mmod_Van_der_Waal_Energy-OPLS-2005>
4756.75048828125

> <r_mmod_Electrostatic_Energy-OPLS-2005>
-351.706268310547

> <r_mmod_Solvation_Energy-OPLS-2005>
-483.307098388672

> <b_mmod_Minimization_Converged-OPLS-2005>
0

> <r_mmod_RMS_Derivative-OPLS-2005>
1.65307366847992

$$$$
1
                    3D
 Structure written by MMmdl.
163172  0  0  1  0            999 V2000
  -30.6059  -14.7333   20.4727 C   0  0  0  0  0  0
  -30.4319  -12.4455   19.4818 C   0  0  0  0  0  0
  -29.5154  -12.5071   18.2397 C   0  0  0  0  0  0
  -28.0378  -12.3350   18.6453 C   0  0  0  0  0  0
  -27.6429  -13.2280   19.8515 C   0  0  2  0  0  0
  -28.6823  -13.1457   20.9892 C   0  0  0  0  0  0
  -25.2535  -13.8191   20.5691 C   0  0  0  0  0  0
  -24.1819  -13.0440   20.9188 C   0  0  0  0  0  0
  -24.6390  -11.6911   20.8705 C   0  0  0  0  0  0
  -23.9056  -10.4289   21.0370 C   0  0  0  0  0  0
  -24.3600   -9.4214   21.9163 C   0  0  0  0  0  0
  -23.6281   -8.2251   22.0755 C   0  0  0  0  0  0
  -22.4269   -8.0270   21.3539 C   0  0  0  0  0  0
  -21.9900   -9.0237   20.4635 C   0  0  0  0  0  0
  -22.7225  -10.2122   20.3035 C   0  0  0  0  0  0
  -21.6857   -6.0716   22.5271 C   0  0  0  0  0  0
  -21.4014   -6.5627   23.8201 C   0  0  0  0  0  0
  -21.3661   -5.6783   24.9157 C   0  0  0  0  0  0
  -21.6049   -4.3047   24.7223 C   0  0  0  0  0  0
  -21.8824   -3.8138   23.4347 C   0  0  0  0  0  0
  -21.9194   -4.6941   22.3386 C   0  0  0  0  0  0
  -22.7842  -13.5218   21.1839 C   0  0  0  0  0  0
  -22.1670   -4.2126   21.0964 F   0  0  0  0  0  0
  -21.5620   -3.4534   25.7739 F   0  0  0  0  0  0
  -29.9859  -13.5046   20.4171 N   0  0  0  0  0  0
  -26.2939  -12.9380   20.3251 N   0  0  0  0  0  0
  -25.9322  -11.6528   20.5716 N   0  0  0  0  0  0
  -22.0485  -12.8207   22.0376 N   0  0  0  0  0  0
  -25.4272  -15.1910   20.4154 N   0  0  0  0  0  0
  -31.8078  -14.8081   20.2015 O   0  0  0  0  0  0
  -21.6643   -6.8865   21.4244 O   0  0  0  0  0  0
  -22.3527  -14.5522   20.6667 O   0  0  0  0  0  0
  -24.6312  -31.8552   23.1991 C   0  0  0  0  0  0
  -25.9148  -32.4741   23.8311 C   0  0  1  0  0  0
  -27.2066  -27.2360   20.1685 C   0  0  0  0  0  0
  -25.5992  -33.8540   24.2254 N   0  0  0  0  0  0
  -23.4271  -30.4736   21.5439 C   0  0  2  0  0  0
  -24.8758  -28.9121   20.1224 C   0  0  0  0  0  0
  -22.7502  -29.4577   22.4936 C   0  0  0  0  0  0
  -18.0290  -28.1369   22.8464 C   0  0  0  0  0  0
  -24.1501  -36.7256   23.2636 C   0  0  0  0  0  0
  -25.9728  -30.7598   21.3853 C   0  0  0  0  0  0
  -26.0458  -29.3732   20.7412 C   0  0  0  0  0  0
  -27.2177  -28.5473   20.7554 C   0  0  0  0  0  0
  -26.0251  -26.8487   19.5071 C   0  0  0  0  0  0
  -24.8697  -27.6560   19.4951 C   0  0  0  0  0  0
  -23.6486  -29.8038   20.1609 C   0  0  0  0  0  0
  -25.4126  -36.3051   24.0326 C   0  0  1  0  0  0
  -20.5887  -28.3685   23.1270 C   0  0  2  0  0  0
  -20.6784  -26.9401   22.5405 C   0  0  0  0  0  0
  -19.5776  -26.6373   21.5196 C   0  0  0  0  0  0
  -18.1933  -26.7914   22.1580 C   0  0  0  0  0  0
  -19.1539  -28.8847   23.2850 C   0  0  0  0  0  0
  -18.9468  -30.1443   23.8878 C   0  0  0  0  0  0
  -17.6471  -30.6585   24.0530 C   0  0  0  0  0  0
  -25.9081  -34.9425   23.5078 C   0  0  0  0  0  0
  -16.5363  -29.9075   23.6309 C   0  0  0  0  0  0
  -16.7279  -28.6479   23.0353 C   0  0  0  0  0  0
  -26.4522  -31.6577   25.0706 C   0  0  0  0  0  0
  -25.3716  -31.3727   26.1413 C   0  0  0  0  0  0
  -27.0399  -30.3006   24.6187 C   0  0  0  0  0  0
  -27.6086  -32.4315   25.7467 C   0  0  0  0  0  0
  -27.5580  -37.1773   24.8453 C   0  0  0  0  0  0
  -21.4221  -29.3026   22.3680 N   0  0  0  0  0  0
  -26.4295  -37.3768   23.9413 N   0  0  0  0  0  0
  -24.6948  -31.0493   22.0967 N   0  0  0  0  0  0
  -23.4190  -28.8112   23.3048 O   0  0  0  0  0  0
  -28.3020  -26.3523   20.0817 O   0  0  0  0  0  0
  -26.5612  -34.8917   22.4632 O   0  0  0  0  0  0
  -23.5466  -32.1398   23.7292 O   0  0  0  0  0  0
  -30.4407  -20.0151   19.3998 C   0  0  0  0  0  0
  -31.0453  -18.9240   18.7519 C   0  0  0  0  0  0
  -29.5498  -19.8309   20.4758 C   0  0  0  0  0  0
  -29.3757  -18.4439   20.9342 C   0  0  0  0  0  0
  -30.0229  -17.2937   20.2943 C   0  0  0  0  0  0
  -30.8197  -17.5956   19.1570 C   0  0  0  0  0  0
  -26.6354  -22.6647   19.3540 C   0  0  0  0  0  0
  -26.5863  -23.4475   20.6751 C   0  0  0  0  0  0
  -28.1274  -22.4141   19.0742 C   0  0  0  0  0  0
  -28.0531  -23.6648   21.0673 C   0  0  2  0  0  0
  -28.4972  -18.1833   22.1492 C   0  0  0  0  0  0
  -28.8719  -21.1427   21.1150 C   0  0  0  0  0  0
  -28.5517  -25.2341   21.0542 C   0  0  0  0  0  0
  -29.8258  -15.8664   20.6961 N   0  0  0  0  0  0
  -28.8178  -22.5150   20.3777 N   0  3  1  0  0  0
  -31.3569  -16.6173   18.3901 F   0  0  0  0  0  0
  -31.4761  -12.5663   19.1879 H   0  0  0  0  0  0
  -30.3691  -11.4654   19.9570 H   0  0  0  0  0  0
  -29.7958  -11.7350   17.5225 H   0  0  0  0  0  0
  -29.6485  -13.4635   17.7326 H   0  0  0  0  0  0
  -27.8844  -11.2869   18.8975 H   0  0  0  0  0  0
  -27.3855  -12.5398   17.7947 H   0  0  0  0  0  0
  -27.6436  -14.2527   19.4783 H   0  0  0  0  0  0
  -28.7140  -12.1384   21.4062 H   0  0  0  0  0  0
  -28.4173  -13.8088   21.8144 H   0  0  0  0  0  0
  -25.2742   -9.5691   22.4745 H   0  0  0  0  0  0
  -23.9969   -7.4655   22.7500 H   0  0  0  0  0  0
  -21.0822   -8.8752   19.8945 H   0  0  0  0  0  0
  -22.3675  -10.9645   19.6142 H   0  0  0  0  0  0
  -21.2024   -7.6143   23.9692 H   0  0  0  0  0  0
  -21.1478   -6.0515   25.9053 H   0  0  0  0  0  0
  -22.0607   -2.7605   23.2851 H   0  0  0  0  0  0
  -22.4088  -11.9862   22.4754 H   0  0  0  0  0  0
  -21.1106  -13.1237   22.2569 H   0  0  0  0  0  0
  -24.6643  -15.8477   20.5333 H   0  0  0  0  0  0
  -26.2687  -15.6257   20.0607 H   0  0  0  0  0  0
  -26.7218  -32.5401   23.1044 H   0  0  0  0  0  0
  -25.0198  -33.9663   25.0450 H   0  0  0  0  0  0
  -22.7235  -31.2945   21.3958 H   0  0  0  0  0  0
  -23.3784  -35.9561   23.3288 H   0  0  0  0  0  0
  -24.3595  -36.8900   22.2051 H   0  0  0  0  0  0
  -23.7229  -37.6437   23.6684 H   0  0  0  0  0  0
  -26.1061  -31.5128   20.6081 H   0  0  0  0  0  0
  -26.8505  -30.8146   22.0158 H   0  0  0  0  0  0
  -28.1220  -28.8998   21.2295 H   0  0  0  0  0  0
  -25.9902  -25.8969   18.9979 H   0  0  0  0  0  0
  -23.9793  -27.2968   18.9975 H   0  0  0  0  0  0
  -23.7759  -30.5768   19.4021 H   0  0  0  0  0  0
  -22.7682  -29.2333   19.8575 H   0  0  0  0  0  0
  -25.1306  -36.1885   25.0812 H   0  0  0  0  0  0
  -20.9918  -28.3282   24.1418 H   0  0  0  0  0  0
  -20.5696  -26.2300   23.3614 H   0  0  0  0  0  0
  -21.6661  -26.7454   22.1198 H   0  0  0  0  0  0
  -19.6954  -25.6279   21.1253 H   0  0  0  0  0  0
  -19.6741  -27.3160   20.6700 H   0  0  0  0  0  0
  -17.4209  -26.6667   21.3962 H   0  0  0  0  0  0
  -18.0307  -26.0046   22.8967 H   0  0  0  0  0  0
  -19.7959  -30.7211   24.2289 H   0  0  0  0  0  0
  -17.5044  -31.6277   24.5111 H   0  0  0  0  0  0
  -15.5360  -30.2951   23.7703 H   0  0  0  0  0  0
  -15.8666  -28.0801   22.7101 H   0  0  0  0  0  0
  -24.5975  -30.6985   25.7735 H   0  0  0  0  0  0
  -24.8791  -32.2873   26.4717 H   0  0  0  0  0  0
  -25.7996  -30.9013   27.0265 H   0  0  0  0  0  0
  -26.2989  -29.6721   24.1229 H   0  0  0  0  0  0
  -27.4140  -29.7315   25.4706 H   0  0  0  0  0  0
  -27.8840  -30.4328   23.9405 H   0  0  0  0  0  0
  -27.2740  -33.3679   26.1946 H   0  0  0  0  0  0
  -28.3916  -32.6757   25.0273 H   0  0  0  0  0  0
  -28.0713  -31.8475   26.5437 H   0  0  0  0  0  0
  -28.2557  -38.0113   24.7562 H   0  0  0  0  0  0
  -28.1125  -36.2641   24.6214 H   0  0  0  0  0  0
  -27.2298  -37.1324   25.8855 H   0  0  0  0  0  0
  -20.9450  -29.8733   21.6853 H   0  0  0  0  0  0
  -26.0170  -38.2831   24.1470 H   0  0  0  0  0  0
  -30.6603  -21.0082   19.0366 H   0  0  0  0  0  0
  -31.6894  -19.1045   17.9033 H   0  0  0  0  0  0
  -26.1619  -23.2101   18.5353 H   0  0  0  0  0  0
  -26.1090  -21.7139   19.4688 H   0  0  0  0  0  0
  -26.0969  -22.8316   21.4311 H   0  0  0  0  0  0
  -26.0143  -24.3688   20.6219 H   0  0  0  0  0  0
  -28.5117  -23.2122   18.4353 H   0  0  0  0  0  0
  -28.3007  -21.4753   18.5484 H   0  0  0  0  0  0
  -28.1328  -23.4180   22.1288 H   0  0  0  0  0  0
  -28.5929  -18.9821   22.8854 H   0  0  0  0  0  0
  -28.7750  -17.2592   22.6577 H   0  0  0  0  0  0
  -27.4483  -18.1043   21.8600 H   0  0  0  0  0  0
  -29.3742  -21.3178   22.0673 H   0  0  0  0  0  0
  -27.8491  -20.8688   21.3787 H   0  0  0  0  0  0
  -29.6383  -25.2005   21.1522 H   0  0  0  0  0  0
  -28.2223  -25.6531   22.0077 H   0  0  0  0  0  0
  -28.9160  -15.6616   21.0756 H   0  0  0  0  0  0
  -29.7766  -22.7940   20.2278 H   0  0  0  0  0  0
  1 25  1  0  0  0
  1 30  2  0  0  0
  1 84  1  0  0  0
  2  3  1  0  0  0
  2 25  1  0  0  0
  2 87  1  0  0  0
  2 88  1  0  0  0
  3  4  1  0  0  0
  3 89  1  0  0  0
  3 90  1  0  0  0
  4  5  1  0  0  0
  4 91  1  0  0  0
  4 92  1  0  0  0
  5  6  1  0  0  0
  5 26  1  0  0  0
  5 93  1  0  0  0
  6 25  1  0  0  0
  6 94  1  0  0  0
  6 95  1  0  0  0
  7  8  2  0  0  0
  7 26  1  0  0  0
  7 29  1  0  0  0
  8  9  1  0  0  0
  8 22  1  0  0  0
  9 10  1  0  0  0
  9 27  2  0  0  0
 10 11  2  0  0  0
 10 15  1  0  0  0
 11 12  1  0  0  0
 11 96  1  0  0  0
 12 13  2  0  0  0
 12 97  1  0  0  0
 13 14  1  0  0  0
 13 31  1  0  0  0
 14 15  2  0  0  0
 14 98  1  0  0  0
 15 99  1  0  0  0
 16 17  2  0  0  0
 16 21  1  0  0  0
 16 31  1  0  0  0
 17 18  1  0  0  0
 17100  1  0  0  0
 18 19  2  0  0  0
 18101  1  0  0  0
 19 20  1  0  0  0
 19 24  1  0  0  0
 20 21  2  0  0  0
 20102  1  0  0  0
 21 23  1  0  0  0
 22 28  1  0  0  0
 22 32  2  0  0  0
 26 27  1  0  0  0
 28103  1  0  0  0
 28104  1  0  0  0
 29105  1  0  0  0
 29106  1  0  0  0
 33 34  1  0  0  0
 33 66  1  0  0  0
 33 70  2  0  0  0
 34 36  1  0  0  0
 34 59  1  0  0  0
 34107  1  0  0  0
 35 44  2  0  0  0
 35 45  1  0  0  0
 35 68  1  0  0  0
 36 56  1  0  0  0
 36108  1  0  0  0
 37 39  1  0  0  0
 37 47  1  0  0  0
 37 66  1  0  0  0
 37109  1  0  0  0
 38 43  2  0  0  0
 38 46  1  0  0  0
 38 47  1  0  0  0
 39 64  1  0  0  0
 39 67  2  0  0  0
 40 52  1  0  0  0
 40 53  2  0  0  0
 40 58  1  0  0  0
 41110  1  0  0  0
 41111  1  0  0  0
 41112  1  0  0  0
 41 48  1  0  0  0
 42 43  1  0  0  0
 42 66  1  0  0  0
 42113  1  0  0  0
 42114  1  0  0  0
 43 44  1  0  0  0
 44115  1  0  0  0
 45 46  2  0  0  0
 45116  1  0  0  0
 46117  1  0  0  0
 47118  1  0  0  0
 47119  1  0  0  0
 48 56  1  0  0  0
 48 65  1  0  0  0
 48120  1  0  0  0
 49 50  1  0  0  0
 49 53  1  0  0  0
 49 64  1  0  0  0
 49121  1  0  0  0
 50 51  1  0  0  0
 50122  1  0  0  0
 50123  1  0  0  0
 51 52  1  0  0  0
 51124  1  0  0  0
 51125  1  0  0  0
 52126  1  0  0  0
 52127  1  0  0  0
 53 54  1  0  0  0
 54 55  2  0  0  0
 54128  1  0  0  0
 55 57  1  0  0  0
 55129  1  0  0  0
 56 69  2  0  0  0
 57 58  2  0  0  0
 57130  1  0  0  0
 58131  1  0  0  0
 59 60  1  0  0  0
 59 61  1  0  0  0
 59 62  1  0  0  0
 60132  1  0  0  0
 60133  1  0  0  0
 60134  1  0  0  0
 61135  1  0  0  0
 61136  1  0  0  0
 61137  1  0  0  0
 62138  1  0  0  0
 62139  1  0  0  0
 62140  1  0  0  0
 63 65  1  0  0  0
 63141  1  0  0  0
 63142  1  0  0  0
 63143  1  0  0  0
 64144  1  0  0  0
 65145  1  0  0  0
 68 83  1  0  0  0
 71 72  2  0  0  0
 71 73  1  0  0  0
 71146  1  0  0  0
 72 76  1  0  0  0
 72147  1  0  0  0
 73 74  2  0  0  0
 73 82  1  0  0  0
 74 75  1  0  0  0
 74 81  1  0  0  0
 75 76  2  0  0  0
 75 84  1  0  0  0
 76 86  1  0  0  0
 77 78  1  0  0  0
 77 79  1  0  0  0
 77148  1  0  0  0
 77149  1  0  0  0
 78 80  1  0  0  0
 78150  1  0  0  0
 78151  1  0  0  0
 79 85  1  0  0  0
 79152  1  0  0  0
 79153  1  0  0  0
 80 83  1  0  0  0
 80 85  1  0  0  0
 80154  1  0  0  0
 81155  1  0  0  0
 81156  1  0  0  0
 81157  1  0  0  0
 82158  1  0  0  0
 82159  1  0  0  0
 82 85  1  0  0  0
 83160  1  0  0  0
 83161  1  0  0  0
 84162  1  0  0  0
 85163  1  0  0  0
M  CHG  1  85   1
M  ISO  4   1 100  68 101  83 101  84 100
M  END
> <chiral flag>
0

> <version>
0

> <s_m_source_file>
/data/baiqing/PycharmProjects/Reinvent-master-3.2/result/LINK_invent/BTK/process_docking_weight1_custom_product_contain_oxygen_bond_distance_aromatic_linkinvent_7_9_3/rearranged_h_0028.sdf

> <i_m_source_file_index>
2

> <r_mmod_Potential_Energy-OPLS-2005>
238.120071411133

> <r_mmod_Stretch_Energy-OPLS-2005>
142.033950805664

> <r_mmod_Bend_Energy-OPLS-2005>
236.249847412109

> <r_mmod_Torsional_Energy-OPLS-2005>
333.375732421875

> <r_mmod_Improper_Torsional_Energy-OPLS-2005>
4.02059268951416

> <r_mmod_Van_der_Waal_Energy-OPLS-2005>
132.62939453125

> <r_mmod_Electrostatic_Energy-OPLS-2005>
-249.975051879883

> <r_mmod_Solvation_Energy-OPLS-2005>
-445.342346191406

> <b_mmod_Minimization_Converged-OPLS-2005>
0

> <r_mmod_RMS_Derivative-OPLS-2005>
3.71805429458618

$$$$
2
                    3D
 Structure written by MMmdl.
157166  0  0  1  0            999 V2000
  -30.6035  -14.8370   20.4447 C   0  0  0  0  0  0
  -30.4282  -12.5103   19.4967 C   0  0  0  0  0  0
  -29.5161  -12.5184   18.2505 C   0  0  0  0  0  0
  -28.0450  -12.3289   18.6618 C   0  0  0  0  0  0
  -27.6354  -13.2441   19.8457 C   0  0  2  0  0  0
  -28.6776  -13.2333   20.9862 C   0  0  0  0  0  0
  -25.2462  -13.8203   20.5668 C   0  0  0  0  0  0
  -24.1785  -13.0434   20.9225 C   0  0  0  0  0  0
  -24.6398  -11.6919   20.8760 C   0  0  0  0  0  0
  -23.9082  -10.4291   21.0409 C   0  0  0  0  0  0
  -24.3627   -9.4206   21.9184 C   0  0  0  0  0  0
  -23.6294   -8.2245   22.0753 C   0  0  0  0  0  0
  -22.4278   -8.0288   21.3545 C   0  0  0  0  0  0
  -21.9916   -9.0267   20.4650 C   0  0  0  0  0  0
  -22.7250  -10.2139   20.3061 C   0  0  0  0  0  0
  -21.6858   -6.0738   22.5277 C   0  0  0  0  0  0
  -21.4024   -6.5638   23.8212 C   0  0  0  0  0  0
  -21.3653   -5.6788   24.9169 C   0  0  0  0  0  0
  -21.6043   -4.3053   24.7221 C   0  0  0  0  0  0
  -21.8818   -3.8147   23.4343 C   0  0  0  0  0  0
  -21.9193   -4.6965   22.3400 C   0  0  0  0  0  0
  -22.7802  -13.5209   21.1870 C   0  0  0  0  0  0
  -22.1658   -4.2146   21.0975 F   0  0  0  0  0  0
  -21.5622   -3.4537   25.7736 F   0  0  0  0  0  0
  -29.9709  -13.6033   20.3985 N   0  0  0  0  0  0
  -26.2905  -12.9441   20.3253 N   0  0  0  0  0  0
  -25.9337  -11.6575   20.5755 N   0  0  0  0  0  0
  -22.0439  -12.8218   22.0431 N   0  0  0  0  0  0
  -25.4088  -15.1920   20.3996 N   0  0  0  0  0  0
  -31.7869  -14.8622   20.1030 O   0  0  0  0  0  0
  -21.6641   -6.8888   21.4242 O   0  0  0  0  0  0
  -22.3488  -14.5504   20.6693 O   0  0  0  0  0  0
  -24.6360  -31.8490   23.1919 C   0  0  0  0  0  0
  -25.9163  -32.4718   23.8287 C   0  0  1  0  0  0
  -27.2230  -27.2075   20.1415 C   0  0  0  0  0  0
  -25.5940  -33.8522   24.2213 N   0  0  0  0  0  0
  -23.4356  -30.4681   21.5349 C   0  0  2  0  0  0
  -24.8854  -28.9024   20.1049 C   0  0  0  0  0  0
  -22.7525  -29.4567   22.4871 C   0  0  0  0  0  0
  -18.0298  -28.1398   22.8470 C   0  0  0  0  0  0
  -24.1485  -36.7262   23.2632 C   0  0  0  0  0  0
  -25.9838  -30.7448   21.3782 C   0  0  0  0  0  0
  -26.0552  -29.3614   20.7222 C   0  0  0  0  0  0
  -27.2224  -28.5249   20.7301 C   0  0  0  0  0  0
  -26.0335  -26.8272   19.4849 C   0  0  0  0  0  0
  -24.8830  -27.6467   19.4735 C   0  0  0  0  0  0
  -23.6577  -29.7961   20.1521 C   0  0  0  0  0  0
  -25.4112  -36.3043   24.0317 C   0  0  1  0  0  0
  -20.5903  -28.3710   23.1254 C   0  0  2  0  0  0
  -20.6783  -26.9418   22.5411 C   0  0  0  0  0  0
  -19.5761  -26.6382   21.5211 C   0  0  0  0  0  0
  -18.1940  -26.7937   22.1617 C   0  0  0  0  0  0
  -19.1552  -28.8871   23.2857 C   0  0  0  0  0  0
  -18.9473  -30.1467   23.8888 C   0  0  0  0  0  0
  -17.6470  -30.6591   24.0565 C   0  0  0  0  0  0
  -25.9068  -34.9418   23.5073 C   0  0  0  0  0  0
  -16.5362  -29.9089   23.6331 C   0  0  0  0  0  0
  -16.7282  -28.6509   23.0345 C   0  0  0  0  0  0
  -26.4515  -31.6562   25.0695 C   0  0  0  0  0  0
  -25.3727  -31.3735   26.1409 C   0  0  0  0  0  0
  -27.0369  -30.2973   24.6211 C   0  0  0  0  0  0
  -27.6068  -32.4309   25.7473 C   0  0  0  0  0  0
  -27.5587  -37.1762   24.8446 C   0  0  0  0  0  0
  -21.4223  -29.3042   22.3625 N   0  0  0  0  0  0
  -26.4273  -37.3761   23.9430 N   0  0  0  0  0  0
  -24.7044  -31.0407   22.0913 N   0  0  0  0  0  0
  -23.4200  -28.8113   23.2997 O   0  0  0  0  0  0
  -28.3099  -26.2959   20.2565 O   0  0  0  0  0  0
  -26.5652  -34.8910   22.4651 O   0  0  0  0  0  0
  -23.5497  -32.1340   23.7184 O   0  0  0  0  0  0
  -30.8819  -20.3464   20.6014 C   0  0  0  0  0  0
  -31.8504  -19.3284   20.6684 C   0  0  0  0  0  0
  -29.5079  -20.0494   20.5806 C   0  0  0  0  0  0
  -29.1748  -18.6032   20.5740 C   0  0  0  0  0  0
  -30.1717  -17.5053   20.6204 C   0  0  0  0  0  0
  -31.5191  -17.9591   20.7080 C   0  0  0  0  0  0
  -27.4197  -23.6712   20.2737 C   0  0  0  0  0  0
  -29.4095  -23.8276   20.2745 C   0  0  0  0  0  0
  -28.3150  -24.8516   19.7557 C   0  0  2  0  0  0
  -27.7035  -18.2218   20.5665 C   0  0  0  0  0  0
  -28.5030  -21.3177   20.7817 C   0  0  0  0  0  0
  -29.8528  -16.0139   20.6557 N   0  0  0  0  0  0
  -28.5077  -22.6643   19.9845 N   0  3  1  0  0  0
  -32.5494  -17.1065   20.8956 F   0  0  0  0  0  0
  -31.4704  -12.6235   19.1937 H   0  0  0  0  0  0
  -30.3754  -11.5474   20.0070 H   0  0  0  0  0  0
  -29.8153  -11.7343   17.5536 H   0  0  0  0  0  0
  -29.6329  -13.4640   17.7173 H   0  0  0  0  0  0
  -27.9158  -11.2826   18.9420 H   0  0  0  0  0  0
  -27.3902  -12.4980   17.8067 H   0  0  0  0  0  0
  -27.6129  -14.2554   19.4386 H   0  0  0  0  0  0
  -28.7312  -12.2504   21.4569 H   0  0  0  0  0  0
  -28.3943  -13.9361   21.7720 H   0  0  0  0  0  0
  -25.2772   -9.5670   22.4762 H   0  0  0  0  0  0
  -23.9991   -7.4638   22.7480 H   0  0  0  0  0  0
  -21.0839   -8.8806   19.8961 H   0  0  0  0  0  0
  -22.3718  -10.9687   19.6176 H   0  0  0  0  0  0
  -21.2027   -7.6149   23.9718 H   0  0  0  0  0  0
  -21.1467   -6.0516   25.9070 H   0  0  0  0  0  0
  -22.0601   -2.7609   23.2851 H   0  0  0  0  0  0
  -22.4053  -11.9896   22.4855 H   0  0  0  0  0  0
  -21.1058  -13.1260   22.2604 H   0  0  0  0  0  0
  -24.6200  -15.8265   20.4690 H   0  0  0  0  0  0
  -26.2166  -15.6129   19.9626 H   0  0  0  0  0  0
  -26.7217  -32.5354   23.1013 H   0  0  0  0  0  0
  -25.0075  -33.9640   25.0351 H   0  0  0  0  0  0
  -22.7348  -31.2919   21.3839 H   0  0  0  0  0  0
  -23.3764  -35.9575   23.3242 H   0  0  0  0  0  0
  -24.3590  -36.8946   22.2059 H   0  0  0  0  0  0
  -23.7207  -37.6428   23.6702 H   0  0  0  0  0  0
  -26.1268  -31.5002   20.6041 H   0  0  0  0  0  0
  -26.8598  -30.7985   22.0129 H   0  0  0  0  0  0
  -28.1133  -28.8665   21.2384 H   0  0  0  0  0  0
  -25.9644  -25.8633   19.0037 H   0  0  0  0  0  0
  -23.9871  -27.2908   18.9833 H   0  0  0  0  0  0
  -23.7884  -30.5719   19.3972 H   0  0  0  0  0  0
  -22.7737  -29.2349   19.8432 H   0  0  0  0  0  0
  -25.1283  -36.1870   25.0804 H   0  0  0  0  0  0
  -21.0001  -28.3307   24.1373 H   0  0  0  0  0  0
  -20.5677  -26.2318   23.3621 H   0  0  0  0  0  0
  -21.6651  -26.7428   22.1215 H   0  0  0  0  0  0
  -19.6925  -25.6290   21.1245 H   0  0  0  0  0  0
  -19.6709  -27.3186   20.6737 H   0  0  0  0  0  0
  -17.4207  -26.6673   21.4024 H   0  0  0  0  0  0
  -18.0345  -26.0090   22.9025 H   0  0  0  0  0  0
  -19.7947  -30.7282   24.2261 H   0  0  0  0  0  0
  -17.5022  -31.6269   24.5166 H   0  0  0  0  0  0
  -15.5363  -30.2988   23.7660 H   0  0  0  0  0  0
  -15.8682  -28.0830   22.7063 H   0  0  0  0  0  0
  -24.5914  -30.7063   25.7739 H   0  0  0  0  0  0
  -24.8904  -32.2911   26.4788 H   0  0  0  0  0  0
  -25.8036  -30.8948   27.0209 H   0  0  0  0  0  0
  -26.2957  -29.6700   24.1240 H   0  0  0  0  0  0
  -27.4039  -29.7259   25.4744 H   0  0  0  0  0  0
  -27.8838  -30.4230   23.9465 H   0  0  0  0  0  0
  -27.2677  -33.3618   26.2029 H   0  0  0  0  0  0
  -28.3893  -32.6848   25.0310 H   0  0  0  0  0  0
  -28.0714  -31.8443   26.5405 H   0  0  0  0  0  0
  -28.2531  -38.0132   24.7598 H   0  0  0  0  0  0
  -28.1155  -36.2670   24.6131 H   0  0  0  0  0  0
  -27.2328  -37.1234   25.8849 H   0  0  0  0  0  0
  -20.9420  -29.8753   21.6813 H   0  0  0  0  0  0
  -26.0136  -38.2809   24.1516 H   0  0  0  0  0  0
  -31.2142  -21.3745   20.6356 H   0  0  0  0  0  0
  -32.8916  -19.6074   20.7418 H   0  0  0  0  0  0
  -26.5132  -23.5050   19.6908 H   0  0  0  0  0  0
  -27.1822  -23.7472   21.3375 H   0  0  0  0  0  0
  -29.6330  -23.9331   21.3386 H   0  0  0  0  0  0
  -30.3280  -23.8178   19.6874 H   0  0  0  0  0  0
  -28.3126  -24.8709   18.6640 H   0  0  0  0  0  0
  -27.1624  -18.7825   19.8045 H   0  0  0  0  0  0
  -27.2518  -18.4311   21.5367 H   0  0  0  0  0  0
  -27.5508  -17.1677   20.3457 H   0  0  0  0  0  0
  -28.5600  -21.5831   21.8371 H   0  0  0  0  0  0
  -27.4938  -20.9292   20.6564 H   0  0  0  0  0  0
  -28.8818  -15.8118   20.8274 H   0  0  0  0  0  0
  -28.5159  -22.4640   18.9965 H   0  0  0  0  0  0
  1 25  1  0  0  0
  1 30  2  0  0  0
  1 82  1  0  0  0
  2  3  1  0  0  0
  2 25  1  0  0  0
  2 85  1  0  0  0
  2 86  1  0  0  0
  3  4  1  0  0  0
  3 87  1  0  0  0
  3 88  1  0  0  0
  4  5  1  0  0  0
  4 89  1  0  0  0
  4 90  1  0  0  0
  5  6  1  0  0  0
  5 26  1  0  0  0
  5 91  1  0  0  0
  6 25  1  0  0  0
  6 92  1  0  0  0
  6 93  1  0  0  0
  7  8  2  0  0  0
  7 26  1  0  0  0
  7 29  1  0  0  0
  8  9  1  0  0  0
  8 22  1  0  0  0
  9 10  1  0  0  0
  9 27  2  0  0  0
 10 11  2  0  0  0
 10 15  1  0  0  0
 11 12  1  0  0  0
 11 94  1  0  0  0
 12 13  2  0  0  0
 12 95  1  0  0  0
 13 14  1  0  0  0
 13 31  1  0  0  0
 14 15  2  0  0  0
 14 96  1  0  0  0
 15 97  1  0  0  0
 16 17  2  0  0  0
 16 21  1  0  0  0
 16 31  1  0  0  0
 17 18  1  0  0  0
 17 98  1  0  0  0
 18 19  2  0  0  0
 18 99  1  0  0  0
 19 20  1  0  0  0
 19 24  1  0  0  0
 20 21  2  0  0  0
 20100  1  0  0  0
 21 23  1  0  0  0
 22 28  1  0  0  0
 22 32  2  0  0  0
 26 27  1  0  0  0
 28101  1  0  0  0
 28102  1  0  0  0
 29103  1  0  0  0
 29104  1  0  0  0
 33 34  1  0  0  0
 33 66  1  0  0  0
 33 70  2  0  0  0
 34 36  1  0  0  0
 34 59  1  0  0  0
 34105  1  0  0  0
 35 44  2  0  0  0
 35 45  1  0  0  0
 35 68  1  0  0  0
 36 56  1  0  0  0
 36106  1  0  0  0
 37 39  1  0  0  0
 37 47  1  0  0  0
 37 66  1  0  0  0
 37107  1  0  0  0
 38 43  2  0  0  0
 38 46  1  0  0  0
 38 47  1  0  0  0
 39 64  1  0  0  0
 39 67  2  0  0  0
 40 52  1  0  0  0
 40 53  2  0  0  0
 40 58  1  0  0  0
 41108  1  0  0  0
 41109  1  0  0  0
 41110  1  0  0  0
 41 48  1  0  0  0
 42 43  1  0  0  0
 42 66  1  0  0  0
 42111  1  0  0  0
 42112  1  0  0  0
 43 44  1  0  0  0
 44113  1  0  0  0
 45 46  2  0  0  0
 45114  1  0  0  0
 46115  1  0  0  0
 47116  1  0  0  0
 47117  1  0  0  0
 48 56  1  0  0  0
 48 65  1  0  0  0
 48118  1  0  0  0
 49 50  1  0  0  0
 49 53  1  0  0  0
 49 64  1  0  0  0
 49119  1  0  0  0
 50 51  1  0  0  0
 50120  1  0  0  0
 50121  1  0  0  0
 51 52  1  0  0  0
 51122  1  0  0  0
 51123  1  0  0  0
 52124  1  0  0  0
 52125  1  0  0  0
 53 54  1  0  0  0
 54 55  2  0  0  0
 54126  1  0  0  0
 55 57  1  0  0  0
 55127  1  0  0  0
 56 69  2  0  0  0
 57 58  2  0  0  0
 57128  1  0  0  0
 58129  1  0  0  0
 59 60  1  0  0  0
 59 61  1  0  0  0
 59 62  1  0  0  0
 60130  1  0  0  0
 60131  1  0  0  0
 60132  1  0  0  0
 61133  1  0  0  0
 61134  1  0  0  0
 61135  1  0  0  0
 62136  1  0  0  0
 62137  1  0  0  0
 62138  1  0  0  0
 63 65  1  0  0  0
 63139  1  0  0  0
 63140  1  0  0  0
 63141  1  0  0  0
 64142  1  0  0  0
 65143  1  0  0  0
 68 79  1  0  0  0
 71 72  2  0  0  0
 71 73  1  0  0  0
 71144  1  0  0  0
 72 76  1  0  0  0
 72145  1  0  0  0
 73 74  2  0  0  0
 73 81  1  0  0  0
 74 75  1  0  0  0
 74 80  1  0  0  0
 75 76  2  0  0  0
 75 82  1  0  0  0
 76 84  1  0  0  0
 77 79  1  0  0  0
 77 83  1  0  0  0
 77146  1  0  0  0
 77147  1  0  0  0
 78 79  1  0  0  0
 78 83  1  0  0  0
 78148  1  0  0  0
 78149  1  0  0  0
 79150  1  0  0  0
 80151  1  0  0  0
 80152  1  0  0  0
 80153  1  0  0  0
 81154  1  0  0  0
 81155  1  0  0  0
 81 83  1  0  0  0
 82156  1  0  0  0
 83157  1  0  0  0
M  CHG  1  83   1
M  ISO  4   1 100  68 101  79 101  82 100
M  END
> <chiral flag>
0

> <version>
0

> <s_m_source_file>
/data/baiqing/PycharmProjects/Reinvent-master-3.2/result/LINK_invent/BTK/process_docking_weight1_custom_product_contain_oxygen_bond_distance_aromatic_linkinvent_7_9_3/rearranged_h_0028.sdf

> <i_m_source_file_index>
3

> <r_mmod_Potential_Energy-OPLS-2005>
95.3417739868164

> <r_mmod_Stretch_Energy-OPLS-2005>
179.195907592773

> <r_mmod_Bend_Energy-OPLS-2005>
250.273010253906

> <r_mmod_Torsional_Energy-OPLS-2005>
214.388626098633

> <r_mmod_Improper_Torsional_Energy-OPLS-2005>
6.83693218231201

> <r_mmod_Van_der_Waal_Energy-OPLS-2005>
138.569320678711

> <r_mmod_Electrostatic_Energy-OPLS-2005>
-313.888946533203

> <r_mmod_Solvation_Energy-OPLS-2005>
-505.3173828125

> <b_mmod_Minimization_Converged-OPLS-2005>
0

> <r_mmod_RMS_Derivative-OPLS-2005>
1.25914406776428

$$$$
3
                    3D
 Structure written by MMmdl.
159168  0  0  1  0            999 V2000
  -30.6548  -14.7369   20.5003 C   0  0  0  0  0  0
  -30.4291  -12.4665   19.4677 C   0  0  0  0  0  0
  -29.5081  -12.5229   18.2316 C   0  0  0  0  0  0
  -28.0360  -12.3405   18.6435 C   0  0  0  0  0  0
  -27.6421  -13.2345   19.8477 C   0  0  2  0  0  0
  -28.6838  -13.1587   20.9803 C   0  0  0  0  0  0
  -25.2532  -13.8216   20.5705 C   0  0  0  0  0  0
  -24.1820  -13.0464   20.9206 C   0  0  0  0  0  0
  -24.6407  -11.6935   20.8732 C   0  0  0  0  0  0
  -23.9074  -10.4312   21.0391 C   0  0  0  0  0  0
  -24.3614   -9.4235   21.9186 C   0  0  0  0  0  0
  -23.6289   -8.2273   22.0757 C   0  0  0  0  0  0
  -22.4276   -8.0310   21.3541 C   0  0  0  0  0  0
  -21.9919   -9.0277   20.4629 C   0  0  0  0  0  0
  -22.7251  -10.2157   20.3038 C   0  0  0  0  0  0
  -21.6849   -6.0748   22.5273 C   0  0  0  0  0  0
  -21.4012   -6.5646   23.8211 C   0  0  0  0  0  0
  -21.3664   -5.6797   24.9170 C   0  0  0  0  0  0
  -21.6052   -4.3061   24.7218 C   0  0  0  0  0  0
  -21.8820   -3.8155   23.4340 C   0  0  0  0  0  0
  -21.9202   -4.6975   22.3400 C   0  0  0  0  0  0
  -22.7850  -13.5246   21.1878 C   0  0  0  0  0  0
  -22.1665   -4.2167   21.0974 F   0  0  0  0  0  0
  -21.5628   -3.4541   25.7724 F   0  0  0  0  0  0
  -29.9884  -13.5275   20.4082 N   0  0  0  0  0  0
  -26.2947  -12.9418   20.3249 N   0  0  0  0  0  0
  -25.9338  -11.6559   20.5730 N   0  0  0  0  0  0
  -22.0487  -12.8207   22.0392 N   0  0  0  0  0  0
  -25.4257  -15.1949   20.4152 N   0  0  0  0  0  0
  -31.8211  -14.8058   20.0979 O   0  0  0  0  0  0
  -21.6647   -6.8902   21.4243 O   0  0  0  0  0  0
  -22.3530  -14.5563   20.6748 O   0  0  0  0  0  0
  -24.6332  -31.8553   23.1956 C   0  0  0  0  0  0
  -25.9148  -32.4747   23.8324 C   0  0  1  0  0  0
  -27.2203  -27.2499   20.1178 C   0  0  0  0  0  0
  -25.5923  -33.8552   24.2238 N   0  0  0  0  0  0
  -23.4305  -30.4786   21.5402 C   0  0  2  0  0  0
  -24.8752  -28.9239   20.1117 C   0  0  0  0  0  0
  -22.7494  -29.4635   22.4898 C   0  0  0  0  0  0
  -18.0278  -28.1420   22.8493 C   0  0  0  0  0  0
  -24.1468  -36.7288   23.2642 C   0  0  0  0  0  0
  -25.9774  -30.7633   21.3777 C   0  0  0  0  0  0
  -26.0478  -29.3843   20.7227 C   0  0  0  0  0  0
  -27.2161  -28.5557   20.7228 C   0  0  0  0  0  0
  -26.0187  -26.8651   19.4764 C   0  0  0  0  0  0
  -24.8664  -27.6716   19.4835 C   0  0  0  0  0  0
  -23.6464  -29.8100   20.1587 C   0  0  0  0  0  0
  -25.4093  -36.3069   24.0316 C   0  0  1  0  0  0
  -20.5881  -28.3758   23.1246 C   0  0  2  0  0  0
  -20.6780  -26.9483   22.5391 C   0  0  0  0  0  0
  -19.5740  -26.6427   21.5220 C   0  0  0  0  0  0
  -18.1922  -26.7959   22.1638 C   0  0  0  0  0  0
  -19.1530  -28.8899   23.2854 C   0  0  0  0  0  0
  -18.9463  -30.1490   23.8892 C   0  0  0  0  0  0
  -17.6468  -30.6626   24.0580 C   0  0  0  0  0  0
  -25.9044  -34.9437   23.5078 C   0  0  0  0  0  0
  -16.5351  -29.9129   23.6347 C   0  0  0  0  0  0
  -16.7266  -28.6535   23.0378 C   0  0  0  0  0  0
  -26.4501  -31.6594   25.0741 C   0  0  0  0  0  0
  -25.3683  -31.3724   26.1425 C   0  0  0  0  0  0
  -27.0415  -30.3012   24.6281 C   0  0  0  0  0  0
  -27.5996  -32.4391   25.7550 C   0  0  0  0  0  0
  -27.5559  -37.1795   24.8452 C   0  0  0  0  0  0
  -21.4200  -29.3099   22.3634 N   0  0  0  0  0  0
  -26.4261  -37.3775   23.9408 N   0  0  0  0  0  0
  -24.6999  -31.0506   22.0943 N   0  0  0  0  0  0
  -23.4170  -28.8181   23.3021 O   0  0  0  0  0  0
  -28.3338  -26.3733   20.2053 O   0  0  0  0  0  0
  -26.5635  -34.8925   22.4668 O   0  0  0  0  0  0
  -23.5483  -32.1396   23.7234 O   0  0  0  0  0  0
  -30.2363  -17.1421   18.7280 C   0  0  0  0  0  0
  -30.2562  -18.2976   17.9300 C   0  0  0  0  0  0
  -29.6149  -19.7697   19.8121 C   0  0  0  0  0  0
  -29.9481  -17.2006   20.1114 C   0  0  0  0  0  0
  -29.9626  -19.5728   18.4471 C   0  0  0  0  0  0
  -29.6182  -18.5447   20.6230 C   0  0  0  0  0  0
  -28.0285  -22.9041   21.3387 C   0  0  0  0  0  0
  -28.6620  -21.4876   21.5298 C   0  0  0  0  0  0
  -29.3500  -22.4068   19.4640 C   0  0  0  0  0  0
  -28.9489  -23.6610   20.3590 C   0  0  1  0  0  0
  -29.7421  -16.0010   22.3303 C   0  0  0  0  0  0
  -28.3673  -24.9850   19.6123 C   0  0  0  0  0  0
  -29.3025  -21.1355   20.2642 N   0  0  0  0  0  0
  -29.9900  -15.9082   20.8876 N   0  0  0  0  0  0
  -30.0177  -20.6122   17.5772 F   0  0  0  0  0  0
  -29.3064  -18.6803   21.9352 F   0  0  0  0  0  0
  -31.4675  -12.5843   19.1571 H   0  0  0  0  0  0
  -30.3740  -11.4868   19.9436 H   0  0  0  0  0  0
  -29.7938  -11.7558   17.5098 H   0  0  0  0  0  0
  -29.6305  -13.4832   17.7267 H   0  0  0  0  0  0
  -27.8957  -11.2907   18.9036 H   0  0  0  0  0  0
  -27.3803  -12.5343   17.7942 H   0  0  0  0  0  0
  -27.6412  -14.2617   19.4816 H   0  0  0  0  0  0
  -28.7237  -12.1561   21.4074 H   0  0  0  0  0  0
  -28.3843  -13.8186   21.7907 H   0  0  0  0  0  0
  -25.2739   -9.5746   22.4784 H   0  0  0  0  0  0
  -24.0010   -7.4673   22.7477 H   0  0  0  0  0  0
  -21.0868   -8.8797   19.8908 H   0  0  0  0  0  0
  -22.3701  -10.9709   19.6155 H   0  0  0  0  0  0
  -21.1985   -7.6156   23.9716 H   0  0  0  0  0  0
  -21.1483   -6.0517   25.9069 H   0  0  0  0  0  0
  -22.0586   -2.7618   23.2822 H   0  0  0  0  0  0
  -22.4099  -11.9842   22.4733 H   0  0  0  0  0  0
  -21.1098  -13.1211   22.2579 H   0  0  0  0  0  0
  -24.6671  -15.8568   20.5376 H   0  0  0  0  0  0
  -26.2913  -15.6342   20.1299 H   0  0  0  0  0  0
  -26.7227  -32.5392   23.1082 H   0  0  0  0  0  0
  -25.0033  -33.9679   25.0355 H   0  0  0  0  0  0
  -22.7291  -31.3016   21.3896 H   0  0  0  0  0  0
  -23.3747  -35.9607   23.3269 H   0  0  0  0  0  0
  -24.3551  -36.8984   22.2071 H   0  0  0  0  0  0
  -23.7222  -37.6462   23.6713 H   0  0  0  0  0  0
  -26.1100  -31.5188   20.6011 H   0  0  0  0  0  0
  -26.8569  -30.8182   22.0080 H   0  0  0  0  0  0
  -28.1096  -28.8994   21.2257 H   0  0  0  0  0  0
  -25.9039  -25.9207   18.9735 H   0  0  0  0  0  0
  -23.9670  -27.3131   19.0013 H   0  0  0  0  0  0
  -23.7653  -30.5804   19.3954 H   0  0  0  0  0  0
  -22.7663  -29.2371   19.8621 H   0  0  0  0  0  0
  -25.1280  -36.1906   25.0810 H   0  0  0  0  0  0
  -20.9962  -28.3383   24.1364 H   0  0  0  0  0  0
  -20.5756  -26.2386   23.3597 H   0  0  0  0  0  0
  -21.6641  -26.7556   22.1161 H   0  0  0  0  0  0
  -19.6921  -25.6350   21.1241 H   0  0  0  0  0  0
  -19.6651  -27.3231   20.6746 H   0  0  0  0  0  0
  -17.4191  -26.6715   21.4036 H   0  0  0  0  0  0
  -18.0309  -26.0104   22.9034 H   0  0  0  0  0  0
  -19.7937  -30.7297   24.2270 H   0  0  0  0  0  0
  -17.5029  -31.6298   24.5226 H   0  0  0  0  0  0
  -15.5353  -30.3048   23.7672 H   0  0  0  0  0  0
  -15.8656  -28.0859   22.7118 H   0  0  0  0  0  0
  -24.5837  -30.7126   25.7704 H   0  0  0  0  0  0
  -24.8895  -32.2899   26.4861 H   0  0  0  0  0  0
  -25.7955  -30.8857   27.0203 H   0  0  0  0  0  0
  -26.3080  -29.6712   24.1237 H   0  0  0  0  0  0
  -27.4026  -29.7312   25.4861 H   0  0  0  0  0  0
  -27.8959  -30.4304   23.9624 H   0  0  0  0  0  0
  -27.2541  -33.3695   26.2072 H   0  0  0  0  0  0
  -28.3830  -32.6974   25.0410 H   0  0  0  0  0  0
  -28.0639  -31.8575   26.5527 H   0  0  0  0  0  0
  -28.2523  -38.0143   24.7567 H   0  0  0  0  0  0
  -28.1108  -36.2671   24.6204 H   0  0  0  0  0  0
  -27.2262  -37.1368   25.8848 H   0  0  0  0  0  0
  -20.9391  -29.8804   21.6810 H   0  0  0  0  0  0
  -26.0132  -38.2829   24.1468 H   0  0  0  0  0  0
  -30.4683  -16.2062   18.2418 H   0  0  0  0  0  0
  -30.5031  -18.2092   16.8833 H   0  0  0  0  0  0
  -27.9009  -23.4348   22.2834 H   0  0  0  0  0  0
  -27.0356  -22.7921   20.8985 H   0  0  0  0  0  0
  -27.9157  -20.7520   21.8348 H   0  0  0  0  0  0
  -29.4295  -21.5233   22.3051 H   0  0  0  0  0  0
  -30.3408  -22.5623   19.0340 H   0  0  0  0  0  0
  -28.6480  -22.3160   18.6335 H   0  0  0  0  0  0
  -29.8404  -23.9624   20.9104 H   0  0  0  0  0  0
  -30.4419  -16.7040   22.7856 H   0  0  0  0  0  0
  -29.8730  -15.0575   22.8655 H   0  0  0  0  0  0
  -28.7250  -16.3437   22.5205 H   0  0  0  0  0  0
  -27.4257  -24.6738   19.1776 H   0  0  0  0  0  0
  -29.0147  -25.1213   18.7455 H   0  0  0  0  0  0
  1 25  1  0  0  0
  1 30  2  0  0  0
  1 84  1  0  0  0
  2  3  1  0  0  0
  2 25  1  0  0  0
  2 87  1  0  0  0
  2 88  1  0  0  0
  3  4  1  0  0  0
  3 89  1  0  0  0
  3 90  1  0  0  0
  4  5  1  0  0  0
  4 91  1  0  0  0
  4 92  1  0  0  0
  5  6  1  0  0  0
  5 26  1  0  0  0
  5 93  1  0  0  0
  6 25  1  0  0  0
  6 94  1  0  0  0
  6 95  1  0  0  0
  7  8  2  0  0  0
  7 26  1  0  0  0
  7 29  1  0  0  0
  8  9  1  0  0  0
  8 22  1  0  0  0
  9 10  1  0  0  0
  9 27  2  0  0  0
 10 11  2  0  0  0
 10 15  1  0  0  0
 11 12  1  0  0  0
 11 96  1  0  0  0
 12 13  2  0  0  0
 12 97  1  0  0  0
 13 14  1  0  0  0
 13 31  1  0  0  0
 14 15  2  0  0  0
 14 98  1  0  0  0
 15 99  1  0  0  0
 16 17  2  0  0  0
 16 21  1  0  0  0
 16 31  1  0  0  0
 17 18  1  0  0  0
 17100  1  0  0  0
 18 19  2  0  0  0
 18101  1  0  0  0
 19 20  1  0  0  0
 19 24  1  0  0  0
 20 21  2  0  0  0
 20102  1  0  0  0
 21 23  1  0  0  0
 22 28  1  0  0  0
 22 32  2  0  0  0
 26 27  1  0  0  0
 28103  1  0  0  0
 28104  1  0  0  0
 29105  1  0  0  0
 29106  1  0  0  0
 33 34  1  0  0  0
 33 66  1  0  0  0
 33 70  2  0  0  0
 34 36  1  0  0  0
 34 59  1  0  0  0
 34107  1  0  0  0
 35 44  2  0  0  0
 35 45  1  0  0  0
 35 68  1  0  0  0
 36 56  1  0  0  0
 36108  1  0  0  0
 37 39  1  0  0  0
 37 47  1  0  0  0
 37 66  1  0  0  0
 37109  1  0  0  0
 38 43  2  0  0  0
 38 46  1  0  0  0
 38 47  1  0  0  0
 39 64  1  0  0  0
 39 67  2  0  0  0
 40 52  1  0  0  0
 40 53  2  0  0  0
 40 58  1  0  0  0
 41110  1  0  0  0
 41111  1  0  0  0
 41112  1  0  0  0
 41 48  1  0  0  0
 42 43  1  0  0  0
 42 66  1  0  0  0
 42113  1  0  0  0
 42114  1  0  0  0
 43 44  1  0  0  0
 44115  1  0  0  0
 45 46  2  0  0  0
 45116  1  0  0  0
 46117  1  0  0  0
 47118  1  0  0  0
 47119  1  0  0  0
 48 56  1  0  0  0
 48 65  1  0  0  0
 48120  1  0  0  0
 49 50  1  0  0  0
 49 53  1  0  0  0
 49 64  1  0  0  0
 49121  1  0  0  0
 50 51  1  0  0  0
 50122  1  0  0  0
 50123  1  0  0  0
 51 52  1  0  0  0
 51124  1  0  0  0
 51125  1  0  0  0
 52126  1  0  0  0
 52127  1  0  0  0
 53 54  1  0  0  0
 54 55  2  0  0  0
 54128  1  0  0  0
 55 57  1  0  0  0
 55129  1  0  0  0
 56 69  2  0  0  0
 57 58  2  0  0  0
 57130  1  0  0  0
 58131  1  0  0  0
 59 60  1  0  0  0
 59 61  1  0  0  0
 59 62  1  0  0  0
 60132  1  0  0  0
 60133  1  0  0  0
 60134  1  0  0  0
 61135  1  0  0  0
 61136  1  0  0  0
 61137  1  0  0  0
 62138  1  0  0  0
 62139  1  0  0  0
 62140  1  0  0  0
 63 65  1  0  0  0
 63141  1  0  0  0
 63142  1  0  0  0
 63143  1  0  0  0
 64144  1  0  0  0
 65145  1  0  0  0
 68 82  1  0  0  0
 71 72  2  0  0  0
 71 74  1  0  0  0
 71146  1  0  0  0
 72 75  1  0  0  0
 72147  1  0  0  0
 73 75  2  0  0  0
 73 76  1  0  0  0
 73 83  1  0  0  0
 74 76  2  0  0  0
 74 84  1  0  0  0
 75 85  1  0  0  0
 76 86  1  0  0  0
 77 78  1  0  0  0
 77 80  1  0  0  0
 77148  1  0  0  0
 77149  1  0  0  0
 78 83  1  0  0  0
 78150  1  0  0  0
 78151  1  0  0  0
 79 80  1  0  0  0
 79 83  1  0  0  0
 79152  1  0  0  0
 79153  1  0  0  0
 80 82  1  0  0  0
 80154  1  0  0  0
 81 84  1  0  0  0
 81155  1  0  0  0
 81156  1  0  0  0
 81157  1  0  0  0
 82158  1  0  0  0
 82159  1  0  0  0
M  ISO  4   1 100  68 101  82 101  84 100
M  END
> <chiral flag>
0

> <version>
0

> <s_m_source_file>
/data/baiqing/PycharmProjects/Reinvent-master-3.2/result/LINK_invent/BTK/process_docking_weight1_custom_product_contain_oxygen_bond_distance_aromatic_linkinvent_7_9_3/rearranged_h_0028.sdf

> <i_m_source_file_index>
4

> <r_mmod_Potential_Energy-OPLS-2005>
505.289672851562

> <r_mmod_Stretch_Energy-OPLS-2005>
141.763366699219

> <r_mmod_Bend_Energy-OPLS-2005>
239.118774414062

> <r_mmod_Torsional_Energy-OPLS-2005>
314.00048828125

> <r_mmod_Improper_Torsional_Energy-OPLS-2005>
4.62501192092896

> <r_mmod_Van_der_Waal_Energy-OPLS-2005>
154.90446472168

> <r_mmod_Electrostatic_Energy-OPLS-2005>
-227.319152832031

> <r_mmod_Solvation_Energy-OPLS-2005>
-204.721084594727

> <b_mmod_Minimization_Converged-OPLS-2005>
0

> <r_mmod_RMS_Derivative-OPLS-2005>
2.54447841644287

$$$$
4
                    3D
 Structure written by MMmdl.
159168  0  0  1  0            999 V2000
  -30.6621  -14.6537   20.4697 C   0  0  0  0  0  0
  -30.4162  -12.3966   19.4729 C   0  0  0  0  0  0
  -29.5043  -12.4929   18.2319 C   0  0  0  0  0  0
  -28.0275  -12.3387   18.6417 C   0  0  0  0  0  0
  -27.6423  -13.2306   19.8529 C   0  0  2  0  0  0
  -28.6837  -13.1461   20.9900 C   0  0  0  0  0  0
  -25.2496  -13.8203   20.5685 C   0  0  0  0  0  0
  -24.1789  -13.0445   20.9195 C   0  0  0  0  0  0
  -24.6379  -11.6924   20.8738 C   0  0  0  0  0  0
  -23.9060  -10.4298   21.0405 C   0  0  0  0  0  0
  -24.3613   -9.4210   21.9182 C   0  0  0  0  0  0
  -23.6287   -8.2247   22.0755 C   0  0  0  0  0  0
  -22.4268   -8.0284   21.3546 C   0  0  0  0  0  0
  -21.9903   -9.0256   20.4649 C   0  0  0  0  0  0
  -22.7231  -10.2136   20.3055 C   0  0  0  0  0  0
  -21.6856   -6.0733   22.5276 C   0  0  0  0  0  0
  -21.4021   -6.5635   23.8207 C   0  0  0  0  0  0
  -21.3657   -5.6790   24.9169 C   0  0  0  0  0  0
  -21.6043   -4.3052   24.7221 C   0  0  0  0  0  0
  -21.8819   -3.8143   23.4341 C   0  0  0  0  0  0
  -21.9191   -4.6961   22.3398 C   0  0  0  0  0  0
  -22.7810  -13.5224   21.1861 C   0  0  0  0  0  0
  -22.1663   -4.2146   21.0978 F   0  0  0  0  0  0
  -21.5621   -3.4535   25.7733 F   0  0  0  0  0  0
  -29.9944  -13.4588   20.4114 N   0  0  0  0  0  0
  -26.2926  -12.9412   20.3279 N   0  0  0  0  0  0
  -25.9307  -11.6552   20.5746 N   0  0  0  0  0  0
  -22.0462  -12.8213   22.0423 N   0  0  0  0  0  0
  -25.4189  -15.1927   20.4117 N   0  0  0  0  0  0
  -31.8492  -14.7160   20.1411 O   0  0  0  0  0  0
  -21.6638   -6.8877   21.4238 O   0  0  0  0  0  0
  -22.3492  -14.5527   20.6705 O   0  0  0  0  0  0
  -24.6251  -31.8588   23.2017 C   0  0  0  0  0  0
  -25.9101  -32.4771   23.8342 C   0  0  1  0  0  0
  -27.2238  -27.3175   20.1070 C   0  0  0  0  0  0
  -25.5917  -33.8573   24.2267 N   0  0  0  0  0  0
  -23.4183  -30.4819   21.5443 C   0  0  2  0  0  0
  -24.8629  -28.9347   20.1093 C   0  0  0  0  0  0
  -22.7464  -29.4620   22.4938 C   0  0  0  0  0  0
  -18.0283  -28.1385   22.8492 C   0  0  0  0  0  0
  -24.1489  -36.7292   23.2638 C   0  0  0  0  0  0
  -25.9587  -30.7878   21.3728 C   0  0  0  0  0  0
  -26.0305  -29.4151   20.7139 C   0  0  0  0  0  0
  -27.2095  -28.6146   20.7078 C   0  0  0  0  0  0
  -26.0255  -26.8780   19.5000 C   0  0  0  0  0  0
  -24.8616  -27.6711   19.4973 C   0  0  0  0  0  0
  -23.6318  -29.8155   20.1593 C   0  0  0  0  0  0
  -25.4115  -36.3078   24.0325 C   0  0  1  0  0  0
  -20.5882  -28.3687   23.1290 C   0  0  2  0  0  0
  -20.6774  -26.9412   22.5413 C   0  0  0  0  0  0
  -19.5749  -26.6388   21.5215 C   0  0  0  0  0  0
  -18.1929  -26.7929   22.1629 C   0  0  0  0  0  0
  -19.1535  -28.8852   23.2888 C   0  0  0  0  0  0
  -18.9459  -30.1456   23.8903 C   0  0  0  0  0  0
  -17.6459  -30.6589   24.0567 C   0  0  0  0  0  0
  -25.9051  -34.9448   23.5098 C   0  0  0  0  0  0
  -16.5350  -29.9088   23.6332 C   0  0  0  0  0  0
  -16.7271  -28.6505   23.0354 C   0  0  0  0  0  0
  -26.4492  -31.6585   25.0715 C   0  0  0  0  0  0
  -25.3732  -31.3728   26.1448 C   0  0  0  0  0  0
  -27.0331  -30.3004   24.6178 C   0  0  0  0  0  0
  -27.6047  -32.4330   25.7486 C   0  0  0  0  0  0
  -27.5579  -37.1800   24.8464 C   0  0  0  0  0  0
  -21.4178  -29.3038   22.3682 N   0  0  0  0  0  0
  -26.4292  -37.3773   23.9407 N   0  0  0  0  0  0
  -24.6862  -31.0599   22.0967 N   0  0  0  0  0  0
  -23.4187  -28.8166   23.3024 O   0  0  0  0  0  0
  -28.3607  -26.4981   20.1798 O   0  0  0  0  0  0
  -26.5626  -34.8917   22.4669 O   0  0  0  0  0  0
  -23.5418  -32.1390   23.7349 O   0  0  0  0  0  0
  -29.0376  -19.2039   19.5338 C   0  0  0  0  0  0
  -28.7834  -20.6165   19.5269 C   0  0  0  0  0  0
  -30.0988  -20.8455   21.5177 C   0  0  0  0  0  0
  -29.8761  -18.5835   20.5042 C   0  0  0  0  0  0
  -29.3617  -21.4934   20.4881 C   0  0  0  0  0  0
  -30.3533  -19.4430   21.5290 C   0  0  0  0  0  0
  -30.9692  -24.7872   19.7448 C   0  0  0  0  0  0
  -29.9501  -25.3909   18.7819 C   0  0  0  0  0  0
  -30.7366  -23.2780   19.8495 C   0  0  0  0  0  0
  -28.2484  -23.7925   19.9339 C   0  0  0  0  0  0
  -28.5359  -25.2790   19.3629 C   0  0  1  0  0  0
  -30.5365  -17.1654   20.2805 C   0  0  0  0  0  0
  -29.4089  -22.9345   20.3715 N   0  0  0  0  0  0
  -29.9525  -15.8208   20.6442 N   0  0  0  0  0  0
  -31.1608  -18.9395   22.4938 F   0  0  0  0  0  0
  -31.4637  -12.4852   19.1792 H   0  0  0  0  0  0
  -30.3235  -11.4181   19.9456 H   0  0  0  0  0  0
  -29.7724  -11.7249   17.5055 H   0  0  0  0  0  0
  -29.6536  -13.4525   17.7335 H   0  0  0  0  0  0
  -27.8663  -11.2888   18.8892 H   0  0  0  0  0  0
  -27.3762  -12.5538   17.7935 H   0  0  0  0  0  0
  -27.6441  -14.2563   19.4834 H   0  0  0  0  0  0
  -28.6931  -12.1492   21.4329 H   0  0  0  0  0  0
  -28.4337  -13.8384   21.7955 H   0  0  0  0  0  0
  -25.2762   -9.5681   22.4747 H   0  0  0  0  0  0
  -23.9995   -7.4635   22.7466 H   0  0  0  0  0  0
  -21.0835   -8.8767   19.8958 H   0  0  0  0  0  0
  -22.3687  -10.9665   19.6155 H   0  0  0  0  0  0
  -21.2031   -7.6148   23.9707 H   0  0  0  0  0  0
  -21.1476   -6.0526   25.9069 H   0  0  0  0  0  0
  -22.0605   -2.7607   23.2842 H   0  0  0  0  0  0
  -22.4089  -11.9884   22.4825 H   0  0  0  0  0  0
  -21.1079  -13.1235   22.2627 H   0  0  0  0  0  0
  -24.6518  -15.8470   20.5230 H   0  0  0  0  0  0
  -26.2668  -15.6334   20.0786 H   0  0  0  0  0  0
  -26.7165  -32.5438   23.1085 H   0  0  0  0  0  0
  -25.0052  -33.9719   25.0403 H   0  0  0  0  0  0
  -22.7121  -31.3024   21.4010 H   0  0  0  0  0  0
  -23.3748  -35.9628   23.3303 H   0  0  0  0  0  0
  -24.3576  -36.8914   22.2053 H   0  0  0  0  0  0
  -23.7249  -37.6495   23.6664 H   0  0  0  0  0  0
  -26.0915  -31.5527   20.6064 H   0  0  0  0  0  0
  -26.8384  -30.8345   22.0031 H   0  0  0  0  0  0
  -28.1063  -28.9778   21.1899 H   0  0  0  0  0  0
  -25.9469  -25.8985   19.0544 H   0  0  0  0  0  0
  -23.9600  -27.2914   19.0359 H   0  0  0  0  0  0
  -23.7504  -30.5911   19.4019 H   0  0  0  0  0  0
  -22.7515  -29.2442   19.8590 H   0  0  0  0  0  0
  -25.1298  -36.1926   25.0818 H   0  0  0  0  0  0
  -20.9975  -28.3263   24.1410 H   0  0  0  0  0  0
  -20.5681  -26.2296   23.3610 H   0  0  0  0  0  0
  -21.6642  -26.7449   22.1203 H   0  0  0  0  0  0
  -19.6912  -25.6299   21.1244 H   0  0  0  0  0  0
  -19.6684  -27.3200   20.6748 H   0  0  0  0  0  0
  -17.4198  -26.6678   21.4032 H   0  0  0  0  0  0
  -18.0329  -26.0069   22.9023 H   0  0  0  0  0  0
  -19.7935  -30.7273   24.2274 H   0  0  0  0  0  0
  -17.5013  -31.6269   24.5166 H   0  0  0  0  0  0
  -15.5351  -30.2992   23.7652 H   0  0  0  0  0  0
  -15.8670  -28.0825   22.7068 H   0  0  0  0  0  0
  -24.5892  -30.7095   25.7779 H   0  0  0  0  0  0
  -24.8946  -32.2900   26.4889 H   0  0  0  0  0  0
  -25.8059  -30.8890   27.0212 H   0  0  0  0  0  0
  -26.2901  -29.6756   24.1207 H   0  0  0  0  0  0
  -27.4024  -29.7262   25.4686 H   0  0  0  0  0  0
  -27.8775  -30.4278   23.9399 H   0  0  0  0  0  0
  -27.2640  -33.3622   26.2066 H   0  0  0  0  0  0
  -28.3850  -32.6908   25.0314 H   0  0  0  0  0  0
  -28.0721  -31.8461   26.5402 H   0  0  0  0  0  0
  -28.2598  -38.0096   24.7506 H   0  0  0  0  0  0
  -28.1074  -36.2627   24.6295 H   0  0  0  0  0  0
  -27.2298  -37.1455   25.8868 H   0  0  0  0  0  0
  -20.9352  -29.8748   21.6884 H   0  0  0  0  0  0
  -26.0171  -38.2847   24.1405 H   0  0  0  0  0  0
  -28.6641  -18.6111   18.7109 H   0  0  0  0  0  0
  -28.2181  -21.0282   18.7029 H   0  0  0  0  0  0
  -30.5648  -21.4458   22.2851 H   0  0  0  0  0  0
  -30.9024  -25.2605   20.7262 H   0  0  0  0  0  0
  -31.9784  -24.9741   19.3761 H   0  0  0  0  0  0
  -29.9996  -24.8612   17.8294 H   0  0  0  0  0  0
  -30.1928  -26.4317   18.5631 H   0  0  0  0  0  0
  -31.5127  -22.8591   20.4919 H   0  0  0  0  0  0
  -30.8721  -22.8177   18.8684 H   0  0  0  0  0  0
  -27.7245  -23.2423   19.1515 H   0  0  0  0  0  0
  -27.5356  -23.8637   20.7563 H   0  0  0  0  0  0
  -27.8990  -25.3909   18.4870 H   0  0  0  0  0  0
  -31.5206  -17.2184   20.7496 H   0  0  0  0  0  0
  -30.7559  -17.1162   19.2127 H   0  0  0  0  0  0
  -28.9698  -15.7642   20.8656 H   0  0  0  0  0  0
  1 25  1  0  0  0
  1 30  2  0  0  0
  1 84  1  0  0  0
  2  3  1  0  0  0
  2 25  1  0  0  0
  2 86  1  0  0  0
  2 87  1  0  0  0
  3  4  1  0  0  0
  3 88  1  0  0  0
  3 89  1  0  0  0
  4  5  1  0  0  0
  4 90  1  0  0  0
  4 91  1  0  0  0
  5  6  1  0  0  0
  5 26  1  0  0  0
  5 92  1  0  0  0
  6 25  1  0  0  0
  6 93  1  0  0  0
  6 94  1  0  0  0
  7  8  2  0  0  0
  7 26  1  0  0  0
  7 29  1  0  0  0
  8  9  1  0  0  0
  8 22  1  0  0  0
  9 10  1  0  0  0
  9 27  2  0  0  0
 10 11  2  0  0  0
 10 15  1  0  0  0
 11 12  1  0  0  0
 11 95  1  0  0  0
 12 13  2  0  0  0
 12 96  1  0  0  0
 13 14  1  0  0  0
 13 31  1  0  0  0
 14 15  2  0  0  0
 14 97  1  0  0  0
 15 98  1  0  0  0
 16 17  2  0  0  0
 16 21  1  0  0  0
 16 31  1  0  0  0
 17 18  1  0  0  0
 17 99  1  0  0  0
 18 19  2  0  0  0
 18100  1  0  0  0
 19 20  1  0  0  0
 19 24  1  0  0  0
 20 21  2  0  0  0
 20101  1  0  0  0
 21 23  1  0  0  0
 22 28  1  0  0  0
 22 32  2  0  0  0
 26 27  1  0  0  0
 28102  1  0  0  0
 28103  1  0  0  0
 29104  1  0  0  0
 29105  1  0  0  0
 33 34  1  0  0  0
 33 66  1  0  0  0
 33 70  2  0  0  0
 34 36  1  0  0  0
 34 59  1  0  0  0
 34106  1  0  0  0
 35 44  2  0  0  0
 35 45  1  0  0  0
 35 68  1  0  0  0
 36 56  1  0  0  0
 36107  1  0  0  0
 37 39  1  0  0  0
 37 47  1  0  0  0
 37 66  1  0  0  0
 37108  1  0  0  0
 38 43  2  0  0  0
 38 46  1  0  0  0
 38 47  1  0  0  0
 39 64  1  0  0  0
 39 67  2  0  0  0
 40 52  1  0  0  0
 40 53  2  0  0  0
 40 58  1  0  0  0
 41109  1  0  0  0
 41110  1  0  0  0
 41111  1  0  0  0
 41 48  1  0  0  0
 42 43  1  0  0  0
 42 66  1  0  0  0
 42112  1  0  0  0
 42113  1  0  0  0
 43 44  1  0  0  0
 44114  1  0  0  0
 45 46  2  0  0  0
 45115  1  0  0  0
 46116  1  0  0  0
 47117  1  0  0  0
 47118  1  0  0  0
 48 56  1  0  0  0
 48 65  1  0  0  0
 48119  1  0  0  0
 49 50  1  0  0  0
 49 53  1  0  0  0
 49 64  1  0  0  0
 49120  1  0  0  0
 50 51  1  0  0  0
 50121  1  0  0  0
 50122  1  0  0  0
 51 52  1  0  0  0
 51123  1  0  0  0
 51124  1  0  0  0
 52125  1  0  0  0
 52126  1  0  0  0
 53 54  1  0  0  0
 54 55  2  0  0  0
 54127  1  0  0  0
 55 57  1  0  0  0
 55128  1  0  0  0
 56 69  2  0  0  0
 57 58  2  0  0  0
 57129  1  0  0  0
 58130  1  0  0  0
 59 60  1  0  0  0
 59 61  1  0  0  0
 59 62  1  0  0  0
 60131  1  0  0  0
 60132  1  0  0  0
 60133  1  0  0  0
 61134  1  0  0  0
 61135  1  0  0  0
 61136  1  0  0  0
 62137  1  0  0  0
 62138  1  0  0  0
 62139  1  0  0  0
 63 65  1  0  0  0
 63140  1  0  0  0
 63141  1  0  0  0
 63142  1  0  0  0
 64143  1  0  0  0
 65144  1  0  0  0
 68 81  1  0  0  0
 71 72  2  0  0  0
 71 74  1  0  0  0
 71145  1  0  0  0
 72 75  1  0  0  0
 72146  1  0  0  0
 73 75  2  0  0  0
 73 76  1  0  0  0
 73147  1  0  0  0
 74 76  2  0  0  0
 74 82  1  0  0  0
 75 83  1  0  0  0
 76 85  1  0  0  0
 77 78  1  0  0  0
 77 79  1  0  0  0
 77148  1  0  0  0
 77149  1  0  0  0
 78 81  1  0  0  0
 78150  1  0  0  0
 78151  1  0  0  0
 79 83  1  0  0  0
 79152  1  0  0  0
 79153  1  0  0  0
 80 81  1  0  0  0
 80 83  1  0  0  0
 80154  1  0  0  0
 80155  1  0  0  0
 81156  1  0  0  0
 82 84  1  0  0  0
 82157  1  0  0  0
 82158  1  0  0  0
 84159  1  0  0  0
M  ISO  4   1 100  68 101  81 101  84 100
M  END
> <chiral flag>
0

> <version>
0

> <s_m_source_file>
/data/baiqing/PycharmProjects/Reinvent-master-3.2/result/LINK_invent/BTK/process_docking_weight1_custom_product_contain_oxygen_bond_distance_aromatic_linkinvent_7_9_3/rearranged_h_0028.sdf

> <i_m_source_file_index>
5

> <r_mmod_Potential_Energy-OPLS-2005>
164.808502197266

> <r_mmod_Stretch_Energy-OPLS-2005>
87.3776931762695

> <r_mmod_Bend_Energy-OPLS-2005>
176.543594360352

> <r_mmod_Torsional_Energy-OPLS-2005>
289.662567138672

> <r_mmod_Improper_Torsional_Energy-OPLS-2005>
13.300368309021

> <r_mmod_Van_der_Waal_Energy-OPLS-2005>
152.018569946289

> <r_mmod_Electrostatic_Energy-OPLS-2005>
-383.975769042969

> <r_mmod_Solvation_Energy-OPLS-2005>
-223.862457275391

> <b_mmod_Minimization_Converged-OPLS-2005>
0

> <r_mmod_RMS_Derivative-OPLS-2005>
1.03446781635284

$$$$
5
                    3D
 Structure written by MMmdl.
157166  0  0  1  0            999 V2000
  -30.5829  -14.8228   20.3958 C   0  0  0  0  0  0
  -30.4287  -12.4986   19.4787 C   0  0  0  0  0  0
  -29.5078  -12.5183   18.2388 C   0  0  0  0  0  0
  -28.0368  -12.3344   18.6537 C   0  0  0  0  0  0
  -27.6354  -13.2431   19.8464 C   0  0  2  0  0  0
  -28.6825  -13.2187   20.9806 C   0  0  0  0  0  0
  -25.2466  -13.8234   20.5702 C   0  0  0  0  0  0
  -24.1773  -13.0457   20.9223 C   0  0  0  0  0  0
  -24.6378  -11.6940   20.8736 C   0  0  0  0  0  0
  -23.9070  -10.4297   21.0379 C   0  0  0  0  0  0
  -24.3618   -9.4228   21.9159 C   0  0  0  0  0  0
  -23.6297   -8.2264   22.0747 C   0  0  0  0  0  0
  -22.4268   -8.0295   21.3553 C   0  0  0  0  0  0
  -21.9904   -9.0257   20.4641 C   0  0  0  0  0  0
  -22.7230  -10.2131   20.3047 C   0  0  0  0  0  0
  -21.6856   -6.0737   22.5283 C   0  0  0  0  0  0
  -21.4014   -6.5632   23.8217 C   0  0  0  0  0  0
  -21.3669   -5.6780   24.9181 C   0  0  0  0  0  0
  -21.6048   -4.3040   24.7229 C   0  0  0  0  0  0
  -21.8812   -3.8144   23.4346 C   0  0  0  0  0  0
  -21.9192   -4.6966   22.3400 C   0  0  0  0  0  0
  -22.7775  -13.5228   21.1873 C   0  0  0  0  0  0
  -22.1664   -4.2157   21.0976 F   0  0  0  0  0  0
  -21.5636   -3.4528   25.7744 F   0  0  0  0  0  0
  -29.9729  -13.5804   20.3866 N   0  0  0  0  0  0
  -26.2913  -12.9472   20.3301 N   0  0  0  0  0  0
  -25.9324  -11.6606   20.5760 N   0  0  0  0  0  0
  -22.0443  -12.8240   22.0440 N   0  0  0  0  0  0
  -25.4076  -15.1965   20.4080 N   0  0  0  0  0  0
  -31.7889  -14.8885   20.1406 O   0  0  0  0  0  0
  -21.6660   -6.8884   21.4243 O   0  0  0  0  0  0
  -22.3462  -14.5521   20.6699 O   0  0  0  0  0  0
  -24.6382  -31.8504   23.1941 C   0  0  0  0  0  0
  -25.9194  -32.4717   23.8308 C   0  0  1  0  0  0
  -27.2185  -27.2083   20.1392 C   0  0  0  0  0  0
  -25.5984  -33.8523   24.2235 N   0  0  0  0  0  0
  -23.4377  -30.4751   21.5364 C   0  0  2  0  0  0
  -24.8827  -28.9113   20.1090 C   0  0  0  0  0  0
  -22.7527  -29.4621   22.4872 C   0  0  0  0  0  0
  -18.0303  -28.1381   22.8500 C   0  0  0  0  0  0
  -24.1501  -36.7260   23.2639 C   0  0  0  0  0  0
  -25.9879  -30.7482   21.3813 C   0  0  0  0  0  0
  -26.0563  -29.3661   20.7214 C   0  0  0  0  0  0
  -27.2256  -28.5304   20.7190 C   0  0  0  0  0  0
  -26.0150  -26.8315   19.5002 C   0  0  0  0  0  0
  -24.8709  -27.6558   19.4838 C   0  0  0  0  0  0
  -23.6570  -29.8068   20.1530 C   0  0  0  0  0  0
  -25.4133  -36.3050   24.0325 C   0  0  1  0  0  0
  -20.5920  -28.3721   23.1240 C   0  0  2  0  0  0
  -20.6798  -26.9431   22.5404 C   0  0  0  0  0  0
  -19.5759  -26.6381   21.5225 C   0  0  0  0  0  0
  -18.1941  -26.7928   22.1626 C   0  0  0  0  0  0
  -19.1561  -28.8875   23.2861 C   0  0  0  0  0  0
  -18.9470  -30.1477   23.8879 C   0  0  0  0  0  0
  -17.6464  -30.6586   24.0580 C   0  0  0  0  0  0
  -25.9077  -34.9416   23.5080 C   0  0  0  0  0  0
  -16.5367  -29.9090   23.6333 C   0  0  0  0  0  0
  -16.7291  -28.6506   23.0371 C   0  0  0  0  0  0
  -26.4538  -31.6557   25.0708 C   0  0  0  0  0  0
  -25.3749  -31.3681   26.1405 C   0  0  0  0  0  0
  -27.0412  -30.2966   24.6247 C   0  0  0  0  0  0
  -27.6091  -32.4314   25.7466 C   0  0  0  0  0  0
  -27.5605  -37.1764   24.8458 C   0  0  0  0  0  0
  -21.4230  -29.3065   22.3609 N   0  0  0  0  0  0
  -26.4292  -37.3768   23.9439 N   0  0  0  0  0  0
  -24.7074  -31.0442   22.0927 N   0  0  0  0  0  0
  -23.4192  -28.8160   23.3000 O   0  0  0  0  0  0
  -28.3130  -26.2960   20.2069 O   0  0  0  0  0  0
  -26.5640  -34.8908   22.4643 O   0  0  0  0  0  0
  -23.5521  -32.1362   23.7210 O   0  0  0  0  0  0
  -29.4891  -18.6289   20.5270 C   0  0  0  0  0  0
  -30.5188  -18.7837   17.9841 C   0  0  0  0  0  0
  -29.5721  -19.9754   19.9217 C   0  0  0  0  0  0
  -30.1544  -19.9882   18.6235 C   0  0  0  0  0  0
  -29.9328  -17.3619   19.9094 C   0  0  0  0  0  0
  -30.4047  -17.5099   18.5755 C   0  0  0  0  0  0
  -27.7883  -23.6597   20.8112 C   0  0  0  0  0  0
  -29.4558  -23.8834   19.7478 C   0  0  0  0  0  0
  -28.1941  -24.8207   19.8252 C   0  0  2  0  0  0
  -30.4412  -21.2696   17.8601 C   0  0  0  0  0  0
  -29.1785  -21.3695   20.6856 C   0  0  0  0  0  0
  -29.8020  -15.9829   20.5181 N   0  0  0  0  0  0
  -28.6042  -22.6695   20.0177 N   0  3  1  0  0  0
  -30.7904  -16.1744   17.5430 Cl  0  0  0  0  0  0
  -31.4667  -12.6287   19.1698 H   0  0  0  0  0  0
  -30.3842  -11.5320   19.9819 H   0  0  0  0  0  0
  -29.7984  -11.7366   17.5367 H   0  0  0  0  0  0
  -29.6247  -13.4647   17.7075 H   0  0  0  0  0  0
  -27.8993  -11.2869   18.9236 H   0  0  0  0  0  0
  -27.3818  -12.5213   17.8021 H   0  0  0  0  0  0
  -27.6135  -14.2582   19.4509 H   0  0  0  0  0  0
  -28.7354  -12.2352   21.4500 H   0  0  0  0  0  0
  -28.4129  -13.9228   21.7682 H   0  0  0  0  0  0
  -25.2753   -9.5742   22.4740 H   0  0  0  0  0  0
  -23.9991   -7.4680   22.7480 H   0  0  0  0  0  0
  -21.0839   -8.8782   19.8950 H   0  0  0  0  0  0
  -22.3675  -10.9679   19.6169 H   0  0  0  0  0  0
  -21.1991   -7.6129   23.9734 H   0  0  0  0  0  0
  -21.1500   -6.0508   25.9083 H   0  0  0  0  0  0
  -22.0575   -2.7608   23.2861 H   0  0  0  0  0  0
  -22.4040  -11.9880   22.4810 H   0  0  0  0  0  0
  -21.1080  -13.1325   22.2675 H   0  0  0  0  0  0
  -24.6156  -15.8284   20.4667 H   0  0  0  0  0  0
  -26.2479  -15.6503   20.0696 H   0  0  0  0  0  0
  -26.7259  -32.5326   23.1042 H   0  0  0  0  0  0
  -25.0207  -33.9663   25.0433 H   0  0  0  0  0  0
  -22.7385  -31.2997   21.3847 H   0  0  0  0  0  0
  -23.3803  -35.9536   23.3215 H   0  0  0  0  0  0
  -24.3628  -36.8980   22.2071 H   0  0  0  0  0  0
  -23.7173  -37.6401   23.6730 H   0  0  0  0  0  0
  -26.1428  -31.5101   20.6170 H   0  0  0  0  0  0
  -26.8604  -30.7893   22.0217 H   0  0  0  0  0  0
  -28.1250  -28.8782   21.2087 H   0  0  0  0  0  0
  -25.9105  -25.8714   19.0240 H   0  0  0  0  0  0
  -23.9715  -27.3035   18.9965 H   0  0  0  0  0  0
  -23.7826  -30.5821   19.3957 H   0  0  0  0  0  0
  -22.7744  -29.2438   19.8457 H   0  0  0  0  0  0
  -25.1299  -36.1893   25.0811 H   0  0  0  0  0  0
  -21.0029  -28.3330   24.1355 H   0  0  0  0  0  0
  -20.5724  -26.2345   23.3619 H   0  0  0  0  0  0
  -21.6652  -26.7460   22.1174 H   0  0  0  0  0  0
  -19.6926  -25.6297   21.1250 H   0  0  0  0  0  0
  -19.6677  -27.3193   20.6753 H   0  0  0  0  0  0
  -17.4214  -26.6717   21.4025 H   0  0  0  0  0  0
  -18.0318  -26.0063   22.9002 H   0  0  0  0  0  0
  -19.7949  -30.7316   24.2212 H   0  0  0  0  0  0
  -17.5010  -31.6243   24.5204 H   0  0  0  0  0  0
  -15.5370  -30.2976   23.7639 H   0  0  0  0  0  0
  -15.8698  -28.0797   22.7096 H   0  0  0  0  0  0
  -24.5956  -30.7011   25.7706 H   0  0  0  0  0  0
  -24.8906  -32.2819   26.4841 H   0  0  0  0  0  0
  -25.8046  -30.8836   27.0180 H   0  0  0  0  0  0
  -26.2996  -29.6641   24.1339 H   0  0  0  0  0  0
  -27.4159  -29.7297   25.4792 H   0  0  0  0  0  0
  -27.8859  -30.4234   23.9461 H   0  0  0  0  0  0
  -27.2726  -33.3654   26.1969 H   0  0  0  0  0  0
  -28.3906  -32.6798   25.0275 H   0  0  0  0  0  0
  -28.0746  -31.8477   26.5416 H   0  0  0  0  0  0
  -28.2527  -38.0157   24.7659 H   0  0  0  0  0  0
  -28.1192  -36.2699   24.6097 H   0  0  0  0  0  0
  -27.2337  -37.1185   25.8854 H   0  0  0  0  0  0
  -20.9423  -29.8760   21.6787 H   0  0  0  0  0  0
  -26.0155  -38.2816   24.1529 H   0  0  0  0  0  0
  -29.0873  -18.5697   21.5277 H   0  0  0  0  0  0
  -30.9167  -18.8240   16.9795 H   0  0  0  0  0  0
  -26.7202  -23.4375   20.8236 H   0  0  0  0  0  0
  -28.1616  -23.8019   21.8287 H   0  0  0  0  0  0
  -30.1882  -24.0709   20.5366 H   0  0  0  0  0  0
  -29.9386  -23.8902   18.7721 H   0  0  0  0  0  0
  -27.6667  -24.7310   18.8750 H   0  0  0  0  0  0
  -30.9017  -21.0663   16.8938 H   0  0  0  0  0  0
  -31.1360  -21.8995   18.4144 H   0  0  0  0  0  0
  -29.5323  -21.8243   17.6450 H   0  0  0  0  0  0
  -30.0421  -21.6647   21.2814 H   0  0  0  0  0  0
  -28.4259  -21.0778   21.4179 H   0  0  0  0  0  0
  -28.9068  -15.8102   20.9473 H   0  0  0  0  0  0
  -28.0575  -22.4157   19.2107 H   0  0  0  0  0  0
  1 25  1  0  0  0
  1 30  2  0  0  0
  1 82  1  0  0  0
  2  3  1  0  0  0
  2 25  1  0  0  0
  2 85  1  0  0  0
  2 86  1  0  0  0
  3  4  1  0  0  0
  3 87  1  0  0  0
  3 88  1  0  0  0
  4  5  1  0  0  0
  4 89  1  0  0  0
  4 90  1  0  0  0
  5  6  1  0  0  0
  5 26  1  0  0  0
  5 91  1  0  0  0
  6 25  1  0  0  0
  6 92  1  0  0  0
  6 93  1  0  0  0
  7  8  2  0  0  0
  7 26  1  0  0  0
  7 29  1  0  0  0
  8  9  1  0  0  0
  8 22  1  0  0  0
  9 10  1  0  0  0
  9 27  2  0  0  0
 10 11  2  0  0  0
 10 15  1  0  0  0
 11 12  1  0  0  0
 11 94  1  0  0  0
 12 13  2  0  0  0
 12 95  1  0  0  0
 13 14  1  0  0  0
 13 31  1  0  0  0
 14 15  2  0  0  0
 14 96  1  0  0  0
 15 97  1  0  0  0
 16 17  2  0  0  0
 16 21  1  0  0  0
 16 31  1  0  0  0
 17 18  1  0  0  0
 17 98  1  0  0  0
 18 19  2  0  0  0
 18 99  1  0  0  0
 19 20  1  0  0  0
 19 24  1  0  0  0
 20 21  2  0  0  0
 20100  1  0  0  0
 21 23  1  0  0  0
 22 28  1  0  0  0
 22 32  2  0  0  0
 26 27  1  0  0  0
 28101  1  0  0  0
 28102  1  0  0  0
 29103  1  0  0  0
 29104  1  0  0  0
 33 34  1  0  0  0
 33 66  1  0  0  0
 33 70  2  0  0  0
 34 36  1  0  0  0
 34 59  1  0  0  0
 34105  1  0  0  0
 35 44  2  0  0  0
 35 45  1  0  0  0
 35 68  1  0  0  0
 36 56  1  0  0  0
 36106  1  0  0  0
 37 39  1  0  0  0
 37 47  1  0  0  0
 37 66  1  0  0  0
 37107  1  0  0  0
 38 43  2  0  0  0
 38 46  1  0  0  0
 38 47  1  0  0  0
 39 64  1  0  0  0
 39 67  2  0  0  0
 40 52  1  0  0  0
 40 53  2  0  0  0
 40 58  1  0  0  0
 41108  1  0  0  0
 41109  1  0  0  0
 41110  1  0  0  0
 41 48  1  0  0  0
 42 43  1  0  0  0
 42 66  1  0  0  0
 42111  1  0  0  0
 42112  1  0  0  0
 43 44  1  0  0  0
 44113  1  0  0  0
 45 46  2  0  0  0
 45114  1  0  0  0
 46115  1  0  0  0
 47116  1  0  0  0
 47117  1  0  0  0
 48 56  1  0  0  0
 48 65  1  0  0  0
 48118  1  0  0  0
 49 50  1  0  0  0
 49 53  1  0  0  0
 49 64  1  0  0  0
 49119  1  0  0  0
 50 51  1  0  0  0
 50120  1  0  0  0
 50121  1  0  0  0
 51 52  1  0  0  0
 51122  1  0  0  0
 51123  1  0  0  0
 52124  1  0  0  0
 52125  1  0  0  0
 53 54  1  0  0  0
 54 55  2  0  0  0
 54126  1  0  0  0
 55 57  1  0  0  0
 55127  1  0  0  0
 56 69  2  0  0  0
 57 58  2  0  0  0
 57128  1  0  0  0
 58129  1  0  0  0
 59 60  1  0  0  0
 59 61  1  0  0  0
 59 62  1  0  0  0
 60130  1  0  0  0
 60131  1  0  0  0
 60132  1  0  0  0
 61133  1  0  0  0
 61134  1  0  0  0
 61135  1  0  0  0
 62136  1  0  0  0
 62137  1  0  0  0
 62138  1  0  0  0
 63 65  1  0  0  0
 63139  1  0  0  0
 63140  1  0  0  0
 63141  1  0  0  0
 64142  1  0  0  0
 65143  1  0  0  0
 68 79  1  0  0  0
 71 73  2  0  0  0
 71 75  1  0  0  0
 71144  1  0  0  0
 72 74  2  0  0  0
 72 76  1  0  0  0
 72145  1  0  0  0
 73 74  1  0  0  0
 73 81  1  0  0  0
 74 80  1  0  0  0
 75 76  2  0  0  0
 75 82  1  0  0  0
 76 84  1  0  0  0
 77 79  1  0  0  0
 77 83  1  0  0  0
 77146  1  0  0  0
 77147  1  0  0  0
 78 79  1  0  0  0
 78 83  1  0  0  0
 78148  1  0  0  0
 78149  1  0  0  0
 79150  1  0  0  0
 80151  1  0  0  0
 80152  1  0  0  0
 80153  1  0  0  0
 81154  1  0  0  0
 81155  1  0  0  0
 81 83  1  0  0  0
 82156  1  0  0  0
 83157  1  0  0  0
M  CHG  1  83   1
M  ISO  4   1 100  68 101  79 101  82 100
M  END
> <chiral flag>
0

> <version>
0

> <s_m_source_file>
/data/baiqing/PycharmProjects/Reinvent-master-3.2/result/LINK_invent/BTK/process_docking_weight1_custom_product_contain_oxygen_bond_distance_aromatic_linkinvent_7_9_3/rearranged_h_0028.sdf

> <i_m_source_file_index>
6

> <r_mmod_Potential_Energy-OPLS-2005>
111.689758300781

> <r_mmod_Stretch_Energy-OPLS-2005>
173.579345703125

> <r_mmod_Bend_Energy-OPLS-2005>
234.577667236328

> <r_mmod_Torsional_Energy-OPLS-2005>
242.048736572266

> <r_mmod_Improper_Torsional_Energy-OPLS-2005>
5.30193042755127

> <r_mmod_Van_der_Waal_Energy-OPLS-2005>
142.720489501953

> <r_mmod_Electrostatic_Energy-OPLS-2005>
-310.232391357422

> <r_mmod_Solvation_Energy-OPLS-2005>
-498.253631591797

> <b_mmod_Minimization_Converged-OPLS-2005>
0

> <r_mmod_RMS_Derivative-OPLS-2005>
3.58613181114197

$$$$
6
                    3D
 Structure written by MMmdl.
159168  0  0  1  0            999 V2000
  -30.6395  -14.7109   20.4596 C   0  0  0  0  0  0
  -30.4243  -12.4339   19.4619 C   0  0  0  0  0  0
  -29.5031  -12.4966   18.2254 C   0  0  0  0  0  0
  -28.0294  -12.3300   18.6430 C   0  0  0  0  0  0
  -27.6422  -13.2302   19.8481 C   0  0  2  0  0  0
  -28.6892  -13.1641   20.9809 C   0  0  0  0  0  0
  -25.2532  -13.8200   20.5703 C   0  0  0  0  0  0
  -24.1817  -13.0440   20.9204 C   0  0  0  0  0  0
  -24.6409  -11.6926   20.8748 C   0  0  0  0  0  0
  -23.9086  -10.4298   21.0417 C   0  0  0  0  0  0
  -24.3634   -9.4211   21.9192 C   0  0  0  0  0  0
  -23.6302   -8.2243   22.0763 C   0  0  0  0  0  0
  -22.4286   -8.0291   21.3546 C   0  0  0  0  0  0
  -21.9928   -9.0263   20.4646 C   0  0  0  0  0  0
  -22.7261  -10.2140   20.3055 C   0  0  0  0  0  0
  -21.6855   -6.0745   22.5276 C   0  0  0  0  0  0
  -21.4016   -6.5645   23.8211 C   0  0  0  0  0  0
  -21.3652   -5.6794   24.9172 C   0  0  0  0  0  0
  -21.6045   -4.3060   24.7222 C   0  0  0  0  0  0
  -21.8820   -3.8155   23.4342 C   0  0  0  0  0  0
  -21.9194   -4.6969   22.3398 C   0  0  0  0  0  0
  -22.7841  -13.5228   21.1851 C   0  0  0  0  0  0
  -22.1663   -4.2164   21.0972 F   0  0  0  0  0  0
  -21.5624   -3.4541   25.7732 F   0  0  0  0  0  0
  -29.9874  -13.5026   20.3890 N   0  0  0  0  0  0
  -26.2957  -12.9404   20.3292 N   0  0  0  0  0  0
  -25.9340  -11.6549   20.5764 N   0  0  0  0  0  0
  -22.0479  -12.8199   22.0395 N   0  0  0  0  0  0
  -25.4205  -15.1916   20.4114 N   0  0  0  0  0  0
  -31.8365  -14.7725   20.1666 O   0  0  0  0  0  0
  -21.6638   -6.8892   21.4246 O   0  0  0  0  0  0
  -22.3529  -14.5536   20.6710 O   0  0  0  0  0  0
  -24.6280  -31.8554   23.1961 C   0  0  0  0  0  0
  -25.9108  -32.4745   23.8299 C   0  0  1  0  0  0
  -27.2198  -27.2759   20.1260 C   0  0  0  0  0  0
  -25.5919  -33.8548   24.2244 N   0  0  0  0  0  0
  -23.4216  -30.4772   21.5420 C   0  0  2  0  0  0
  -24.8673  -28.9242   20.1127 C   0  0  0  0  0  0
  -22.7471  -29.4592   22.4928 C   0  0  0  0  0  0
  -18.0282  -28.1367   22.8481 C   0  0  0  0  0  0
  -24.1480  -36.7274   23.2632 C   0  0  0  0  0  0
  -25.9630  -30.7779   21.3647 C   0  0  0  0  0  0
  -26.0383  -29.3976   20.7173 C   0  0  0  0  0  0
  -27.2146  -28.5840   20.7168 C   0  0  0  0  0  0
  -26.0197  -26.8631   19.5027 C   0  0  0  0  0  0
  -24.8620  -27.6638   19.4984 C   0  0  0  0  0  0
  -23.6361  -29.8083   20.1592 C   0  0  0  0  0  0
  -25.4099  -36.3062   24.0328 C   0  0  1  0  0  0
  -20.5882  -28.3674   23.1282 C   0  0  2  0  0  0
  -20.6774  -26.9392   22.5411 C   0  0  0  0  0  0
  -19.5755  -26.6389   21.5199 C   0  0  0  0  0  0
  -18.1928  -26.7913   22.1601 C   0  0  0  0  0  0
  -19.1534  -28.8834   23.2876 C   0  0  0  0  0  0
  -18.9465  -30.1439   23.8890 C   0  0  0  0  0  0
  -17.6471  -30.6565   24.0577 C   0  0  0  0  0  0
  -25.9050  -34.9440   23.5091 C   0  0  0  0  0  0
  -16.5362  -29.9063   23.6342 C   0  0  0  0  0  0
  -16.7271  -28.6491   23.0344 C   0  0  0  0  0  0
  -26.4493  -31.6547   25.0669 C   0  0  0  0  0  0
  -25.3724  -31.3688   26.1398 C   0  0  0  0  0  0
  -27.0325  -30.2972   24.6088 C   0  0  0  0  0  0
  -27.6060  -32.4267   25.7450 C   0  0  0  0  0  0
  -27.5580  -37.1770   24.8446 C   0  0  0  0  0  0
  -21.4177  -29.3029   22.3683 N   0  0  0  0  0  0
  -26.4259  -37.3777   23.9441 N   0  0  0  0  0  0
  -24.6911  -31.0529   22.0929 N   0  0  0  0  0  0
  -23.4182  -28.8132   23.3021 O   0  0  0  0  0  0
  -28.3366  -26.4144   20.1843 O   0  0  0  0  0  0
  -26.5626  -34.8926   22.4662 O   0  0  0  0  0  0
  -23.5439  -32.1360   23.7281 O   0  0  0  0  0  0
  -30.4148  -19.5004   19.4595 C   0  0  0  0  0  0
  -28.4101  -20.6768   20.9362 C   0  0  0  0  0  0
  -29.8166  -18.6626   20.4370 C   0  0  0  0  0  0
  -30.0413  -20.8647   19.2333 C   0  0  0  0  0  0
  -28.7608  -19.2952   21.1584 C   0  0  0  0  0  0
  -29.0365  -21.5507   19.9919 C   0  0  0  0  0  0
  -27.7157  -23.7874   20.5234 C   0  0  0  0  0  0
  -29.5428  -24.1077   19.6521 C   0  0  0  0  0  0
  -28.2597  -25.0044   19.6833 C   0  0  0  0  0  0
  -30.7611  -21.5852   18.1039 C   0  0  0  0  0  0
  -27.9892  -18.5100   22.2033 C   0  0  0  0  0  0
  -30.5078  -17.2677   20.8000 C   0  0  0  0  0  0
  -28.6262  -22.9510   19.7141 N   0  0  0  0  0  0
  -29.9145  -15.8735   20.6637 N   0  0  0  0  0  0
  -31.4673  -12.5423   19.1590 H   0  0  0  0  0  0
  -30.3544  -11.4578   19.9450 H   0  0  0  0  0  0
  -29.7771  -11.7201   17.5099 H   0  0  0  0  0  0
  -29.6365  -13.4497   17.7107 H   0  0  0  0  0  0
  -27.8804  -11.2811   18.9034 H   0  0  0  0  0  0
  -27.3714  -12.5300   17.7964 H   0  0  0  0  0  0
  -27.6384  -14.2521   19.4690 H   0  0  0  0  0  0
  -28.7211  -12.1701   21.4295 H   0  0  0  0  0  0
  -28.4355  -13.8567   21.7849 H   0  0  0  0  0  0
  -25.2783   -9.5680   22.4769 H   0  0  0  0  0  0
  -24.0009   -7.4640   22.7489 H   0  0  0  0  0  0
  -21.0861   -8.8790   19.8948 H   0  0  0  0  0  0
  -22.3736  -10.9682   19.6160 H   0  0  0  0  0  0
  -21.2009   -7.6154   23.9721 H   0  0  0  0  0  0
  -21.1468   -6.0523   25.9074 H   0  0  0  0  0  0
  -22.0604   -2.7624   23.2837 H   0  0  0  0  0  0
  -22.4099  -11.9846   22.4751 H   0  0  0  0  0  0
  -21.1092  -13.1213   22.2590 H   0  0  0  0  0  0
  -24.6484  -15.8405   20.5189 H   0  0  0  0  0  0
  -26.2602  -15.6343   20.0616 H   0  0  0  0  0  0
  -26.7170  -32.5416   23.1045 H   0  0  0  0  0  0
  -25.0104  -33.9694   25.0416 H   0  0  0  0  0  0
  -22.7175  -31.2996   21.3967 H   0  0  0  0  0  0
  -23.3752  -35.9589   23.3249 H   0  0  0  0  0  0
  -24.3591  -36.8937   22.2055 H   0  0  0  0  0  0
  -23.7226  -37.6463   23.6676 H   0  0  0  0  0  0
  -26.0770  -31.5299   20.5825 H   0  0  0  0  0  0
  -26.8496  -30.8452   21.9826 H   0  0  0  0  0  0
  -28.1105  -28.9445   21.2031 H   0  0  0  0  0  0
  -25.9316  -25.8984   19.0293 H   0  0  0  0  0  0
  -23.9614  -27.2931   19.0290 H   0  0  0  0  0  0
  -23.7546  -30.5828   19.4004 H   0  0  0  0  0  0
  -22.7547  -29.2389   19.8590 H   0  0  0  0  0  0
  -25.1266  -36.1894   25.0817 H   0  0  0  0  0  0
  -20.9977  -28.3247   24.1401 H   0  0  0  0  0  0
  -20.5664  -26.2270   23.3603 H   0  0  0  0  0  0
  -21.6645  -26.7408   22.1220 H   0  0  0  0  0  0
  -19.6929  -25.6309   21.1202 H   0  0  0  0  0  0
  -19.6702  -27.3230   20.6753 H   0  0  0  0  0  0
  -17.4206  -26.6671   21.3994 H   0  0  0  0  0  0
  -18.0321  -26.0032   22.8974 H   0  0  0  0  0  0
  -19.7947  -30.7266   24.2235 H   0  0  0  0  0  0
  -17.5024  -31.6244   24.5175 H   0  0  0  0  0  0
  -15.5363  -30.2974   23.7656 H   0  0  0  0  0  0
  -15.8668  -28.0830   22.7028 H   0  0  0  0  0  0
  -24.6013  -30.6869   25.7792 H   0  0  0  0  0  0
  -24.8764  -32.2831   26.4663 H   0  0  0  0  0  0
  -25.8080  -30.9068   27.0266 H   0  0  0  0  0  0
  -26.2884  -29.6726   24.1129 H   0  0  0  0  0  0
  -27.4075  -29.7209   25.4558 H   0  0  0  0  0  0
  -27.8719  -30.4264   23.9250 H   0  0  0  0  0  0
  -27.2703  -33.3634   26.1904 H   0  0  0  0  0  0
  -28.3936  -32.6686   25.0302 H   0  0  0  0  0  0
  -28.0613  -31.8431   26.5459 H   0  0  0  0  0  0
  -28.2514  -38.0147   24.7603 H   0  0  0  0  0  0
  -28.1158  -36.2690   24.6110 H   0  0  0  0  0  0
  -27.2331  -37.1237   25.8852 H   0  0  0  0  0  0
  -20.9331  -29.8776   21.6929 H   0  0  0  0  0  0
  -26.0120  -38.2821   24.1535 H   0  0  0  0  0  0
  -31.2255  -19.0914   18.8704 H   0  0  0  0  0  0
  -27.6050  -21.0924   21.5256 H   0  0  0  0  0  0
  -26.6562  -23.5752   20.3788 H   0  0  0  0  0  0
  -27.9957  -23.8087   21.5794 H   0  0  0  0  0  0
  -30.1720  -24.1926   20.5413 H   0  0  0  0  0  0
  -30.1171  -24.2077   18.7313 H   0  0  0  0  0  0
  -27.8452  -25.0111   18.6728 H   0  0  0  0  0  0
  -31.1551  -20.8806   17.3714 H   0  0  0  0  0  0
  -31.5955  -22.1674   18.4945 H   0  0  0  0  0  0
  -30.0889  -22.2504   17.5626 H   0  0  0  0  0  0
  -27.2766  -19.1429   22.7346 H   0  0  0  0  0  0
  -28.6590  -18.0683   22.9407 H   0  0  0  0  0  0
  -27.4240  -17.7091   21.7254 H   0  0  0  0  0  0
  -30.8128  -17.3565   21.8428 H   0  0  0  0  0  0
  -31.4522  -17.2643   20.2529 H   0  0  0  0  0  0
  -28.9254  -15.7745   20.8325 H   0  0  0  0  0  0
  1 25  1  0  0  0
  1 30  2  0  0  0
  1 84  1  0  0  0
  2  3  1  0  0  0
  2 25  1  0  0  0
  2 85  1  0  0  0
  2 86  1  0  0  0
  3  4  1  0  0  0
  3 87  1  0  0  0
  3 88  1  0  0  0
  4  5  1  0  0  0
  4 89  1  0  0  0
  4 90  1  0  0  0
  5  6  1  0  0  0
  5 26  1  0  0  0
  5 91  1  0  0  0
  6 25  1  0  0  0
  6 92  1  0  0  0
  6 93  1  0  0  0
  7  8  2  0  0  0
  7 26  1  0  0  0
  7 29  1  0  0  0
  8  9  1  0  0  0
  8 22  1  0  0  0
  9 10  1  0  0  0
  9 27  2  0  0  0
 10 11  2  0  0  0
 10 15  1  0  0  0
 11 12  1  0  0  0
 11 94  1  0  0  0
 12 13  2  0  0  0
 12 95  1  0  0  0
 13 14  1  0  0  0
 13 31  1  0  0  0
 14 15  2  0  0  0
 14 96  1  0  0  0
 15 97  1  0  0  0
 16 17  2  0  0  0
 16 21  1  0  0  0
 16 31  1  0  0  0
 17 18  1  0  0  0
 17 98  1  0  0  0
 18 19  2  0  0  0
 18 99  1  0  0  0
 19 20  1  0  0  0
 19 24  1  0  0  0
 20 21  2  0  0  0
 20100  1  0  0  0
 21 23  1  0  0  0
 22 28  1  0  0  0
 22 32  2  0  0  0
 26 27  1  0  0  0
 28101  1  0  0  0
 28102  1  0  0  0
 29103  1  0  0  0
 29104  1  0  0  0
 33 34  1  0  0  0
 33 66  1  0  0  0
 33 70  2  0  0  0
 34 36  1  0  0  0
 34 59  1  0  0  0
 34105  1  0  0  0
 35 44  2  0  0  0
 35 45  1  0  0  0
 35 68  1  0  0  0
 36 56  1  0  0  0
 36106  1  0  0  0
 37 39  1  0  0  0
 37 47  1  0  0  0
 37 66  1  0  0  0
 37107  1  0  0  0
 38 43  2  0  0  0
 38 46  1  0  0  0
 38 47  1  0  0  0
 39 64  1  0  0  0
 39 67  2  0  0  0
 40 52  1  0  0  0
 40 53  2  0  0  0
 40 58  1  0  0  0
 41108  1  0  0  0
 41109  1  0  0  0
 41110  1  0  0  0
 41 48  1  0  0  0
 42 43  1  0  0  0
 42 66  1  0  0  0
 42111  1  0  0  0
 42112  1  0  0  0
 43 44  1  0  0  0
 44113  1  0  0  0
 45 46  2  0  0  0
 45114  1  0  0  0
 46115  1  0  0  0
 47116  1  0  0  0
 47117  1  0  0  0
 48 56  1  0  0  0
 48 65  1  0  0  0
 48118  1  0  0  0
 49 50  1  0  0  0
 49 53  1  0  0  0
 49 64  1  0  0  0
 49119  1  0  0  0
 50 51  1  0  0  0
 50120  1  0  0  0
 50121  1  0  0  0
 51 52  1  0  0  0
 51122  1  0  0  0
 51123  1  0  0  0
 52124  1  0  0  0
 52125  1  0  0  0
 53 54  1  0  0  0
 54 55  2  0  0  0
 54126  1  0  0  0
 55 57  1  0  0  0
 55127  1  0  0  0
 56 69  2  0  0  0
 57 58  2  0  0  0
 57128  1  0  0  0
 58129  1  0  0  0
 59 60  1  0  0  0
 59 61  1  0  0  0
 59 62  1  0  0  0
 60130  1  0  0  0
 60131  1  0  0  0
 60132  1  0  0  0
 61133  1  0  0  0
 61134  1  0  0  0
 61135  1  0  0  0
 62136  1  0  0  0
 62137  1  0  0  0
 62138  1  0  0  0
 63 65  1  0  0  0
 63139  1  0  0  0
 63140  1  0  0  0
 63141  1  0  0  0
 64142  1  0  0  0
 65143  1  0  0  0
 68 79  1  0  0  0
 71 73  2  0  0  0
 71 74  1  0  0  0
 71144  1  0  0  0
 72 75  2  0  0  0
 72 76  1  0  0  0
 72145  1  0  0  0
 73 75  1  0  0  0
 73 82  1  0  0  0
 74 76  2  0  0  0
 74 80  1  0  0  0
 75 81  1  0  0  0
 76 83  1  0  0  0
 77 79  1  0  0  0
 77 83  1  0  0  0
 77146  1  0  0  0
 77147  1  0  0  0
 78 79  1  0  0  0
 78 83  1  0  0  0
 78148  1  0  0  0
 78149  1  0  0  0
 79150  1  0  0  0
 80151  1  0  0  0
 80152  1  0  0  0
 80153  1  0  0  0
 81154  1  0  0  0
 81155  1  0  0  0
 81156  1  0  0  0
 82 84  1  0  0  0
 82157  1  0  0  0
 82158  1  0  0  0
 84159  1  0  0  0
M  ISO  4   1 100  68 101  79 101  84 100
M  END
> <chiral flag>
0

> <version>
0

> <s_m_source_file>
/data/baiqing/PycharmProjects/Reinvent-master-3.2/result/LINK_invent/BTK/process_docking_weight1_custom_product_contain_oxygen_bond_distance_aromatic_linkinvent_7_9_3/rearranged_h_0028.sdf

> <i_m_source_file_index>
7

> <r_mmod_Potential_Energy-OPLS-2005>
150.606002807617

> <r_mmod_Stretch_Energy-OPLS-2005>
102.656280517578

> <r_mmod_Bend_Energy-OPLS-2005>
237.540664672852

> <r_mmod_Torsional_Energy-OPLS-2005>
226.239349365234

> <r_mmod_Improper_Torsional_Energy-OPLS-2005>
12.6016626358032

> <r_mmod_Van_der_Waal_Energy-OPLS-2005>
146.922714233398

> <r_mmod_Electrostatic_Energy-OPLS-2005>
-423.201354980469

> <r_mmod_Solvation_Energy-OPLS-2005>
-225.378341674805

> <b_mmod_Minimization_Converged-OPLS-2005>
0

> <r_mmod_RMS_Derivative-OPLS-2005>
2.09263515472412

$$$$
7
                    3D
 Structure written by MMmdl.
168177  0  0  1  0            999 V2000
  -30.7408  -14.6441   20.5173 C   0  0  0  0  0  0
  -30.4136  -12.4018   19.4808 C   0  0  0  0  0  0
  -29.4998  -12.5168   18.2425 C   0  0  0  0  0  0
  -28.0261  -12.3639   18.6561 C   0  0  0  0  0  0
  -27.6543  -13.2468   19.8789 C   0  0  2  0  0  0
  -28.7066  -13.1453   21.0144 C   0  0  0  0  0  0
  -25.2447  -13.8217   20.5624 C   0  0  0  0  0  0
  -24.1778  -13.0459   20.9201 C   0  0  0  0  0  0
  -24.6426  -11.6949   20.8795 C   0  0  0  0  0  0
  -23.9109  -10.4319   21.0443 C   0  0  0  0  0  0
  -24.3630   -9.4214   21.9221 C   0  0  0  0  0  0
  -23.6283   -8.2250   22.0778 C   0  0  0  0  0  0
  -22.4273   -8.0290   21.3546 C   0  0  0  0  0  0
  -21.9924   -9.0291   20.4671 C   0  0  0  0  0  0
  -22.7274  -10.2156   20.3096 C   0  0  0  0  0  0
  -21.6848   -6.0744   22.5284 C   0  0  0  0  0  0
  -21.4013   -6.5649   23.8216 C   0  0  0  0  0  0
  -21.3656   -5.6802   24.9188 C   0  0  0  0  0  0
  -21.6044   -4.3060   24.7234 C   0  0  0  0  0  0
  -21.8803   -3.8150   23.4351 C   0  0  0  0  0  0
  -21.9188   -4.6974   22.3414 C   0  0  0  0  0  0
  -22.7800  -13.5233   21.1839 C   0  0  0  0  0  0
  -22.1648   -4.2155   21.0988 F   0  0  0  0  0  0
  -21.5644   -3.4545   25.7746 F   0  0  0  0  0  0
  -30.0263  -13.4637   20.4483 N   0  0  0  0  0  0
  -26.2996  -12.9509   20.3443 N   0  0  0  0  0  0
  -25.9370  -11.6628   20.5860 N   0  0  0  0  0  0
  -22.0419  -12.8274   22.0407 N   0  0  0  0  0  0
  -25.3966  -15.1911   20.3728 N   0  0  0  0  0  0
  -31.7848  -14.7175   19.8758 O   0  0  0  0  0  0
  -21.6629   -6.8884   21.4236 O   0  0  0  0  0  0
  -22.3481  -14.5544   20.6676 O   0  0  0  0  0  0
  -24.6295  -31.8566   23.1981 C   0  0  0  0  0  0
  -25.9152  -32.4745   23.8312 C   0  0  1  0  0  0
  -27.2338  -27.3067   20.0990 C   0  0  0  0  0  0
  -25.5959  -33.8543   24.2228 N   0  0  0  0  0  0
  -23.4219  -30.4796   21.5436 C   0  0  2  0  0  0
  -24.8697  -28.9286   20.1080 C   0  0  0  0  0  0
  -22.7487  -29.4610   22.4968 C   0  0  0  0  0  0
  -18.0300  -28.1361   22.8496 C   0  0  0  0  0  0
  -24.1487  -36.7275   23.2634 C   0  0  0  0  0  0
  -25.9639  -30.7780   21.3721 C   0  0  0  0  0  0
  -26.0395  -29.4033   20.7157 C   0  0  0  0  0  0
  -27.2209  -28.6030   20.7046 C   0  0  0  0  0  0
  -26.0449  -26.8963   19.4507 C   0  0  0  0  0  0
  -24.8740  -27.6797   19.4693 C   0  0  0  0  0  0
  -23.6354  -29.8090   20.1617 C   0  0  0  0  0  0
  -25.4116  -36.3049   24.0307 C   0  0  1  0  0  0
  -20.5881  -28.3696   23.1325 C   0  0  2  0  0  0
  -20.6804  -26.9408   22.5452 C   0  0  0  0  0  0
  -19.5797  -26.6393   21.5229 C   0  0  0  0  0  0
  -18.1938  -26.7945   22.1550 C   0  0  0  0  0  0
  -19.1526  -28.8840   23.2910 C   0  0  0  0  0  0
  -18.9442  -30.1448   23.8928 C   0  0  0  0  0  0
  -17.6445  -30.6597   24.0548 C   0  0  0  0  0  0
  -25.9077  -34.9429   23.5067 C   0  0  0  0  0  0
  -16.5354  -29.9071   23.6308 C   0  0  0  0  0  0
  -16.7291  -28.6481   23.0365 C   0  0  0  0  0  0
  -26.4519  -31.6572   25.0704 C   0  0  0  0  0  0
  -25.3737  -31.3752   26.1422 C   0  0  0  0  0  0
  -27.0379  -30.2997   24.6187 C   0  0  0  0  0  0
  -27.6071  -32.4316   25.7491 C   0  0  0  0  0  0
  -27.5563  -37.1780   24.8464 C   0  0  0  0  0  0
  -21.4188  -29.3065   22.3750 N   0  0  0  0  0  0
  -26.4281  -37.3752   23.9407 N   0  0  0  0  0  0
  -24.6914  -31.0550   22.0949 N   0  0  0  0  0  0
  -23.4209  -28.8140   23.3046 O   0  0  0  0  0  0
  -28.3580  -26.4594   20.1608 O   0  0  0  0  0  0
  -26.5637  -34.8919   22.4633 O   0  0  0  0  0  0
  -23.5446  -32.1406   23.7287 O   0  0  0  0  0  0
  -30.5321  -19.4425   20.3373 C   0  0  0  0  0  0
  -28.4365  -18.9827   21.3768 C   0  0  0  0  0  0
  -30.9062  -18.0575   20.4612 C   0  0  0  0  0  0
  -28.7683  -17.5966   21.4807 C   0  0  0  0  0  0
  -30.0105  -17.0689   21.0103 C   0  0  0  0  0  0
  -29.3003  -19.9552   20.8147 C   0  0  0  0  0  0
  -32.3300  -17.7151   20.0253 C   0  0  0  0  0  0
  -33.3009  -17.1317   21.0868 C   0  0  0  0  0  0
  -33.0592  -17.3697   22.5912 C   0  0  0  0  0  0
  -31.7402  -16.8754   23.2403 C   0  0  0  0  0  0
  -31.0987  -15.5682   22.6864 C   0  0  0  0  0  0
  -27.7926  -16.7026   22.2215 C   0  0  0  0  0  0
  -29.2375  -23.9657   20.5106 C   0  0  0  0  0  0
  -29.3610  -22.4598   19.9534 C   0  0  0  0  0  0
  -28.2314  -25.0109   19.8369 C   0  0  0  0  0  0
  -30.4043  -15.6801   21.3781 N   0  0  0  0  0  0
  -28.9244  -21.3459   20.8526 N   0  0  0  0  0  0
  -31.4614  -12.4618   19.1786 H   0  0  0  0  0  0
  -30.3080  -11.4193   19.9456 H   0  0  0  0  0  0
  -29.7583  -11.7534   17.5083 H   0  0  0  0  0  0
  -29.6559  -13.4800   17.7544 H   0  0  0  0  0  0
  -27.8555  -11.3128   18.8966 H   0  0  0  0  0  0
  -27.3734  -12.5887   17.8137 H   0  0  0  0  0  0
  -27.6623  -14.2774   19.5222 H   0  0  0  0  0  0
  -28.7191  -12.1357   21.4288 H   0  0  0  0  0  0
  -28.4669  -13.8015   21.8503 H   0  0  0  0  0  0
  -25.2760   -9.5680   22.4816 H   0  0  0  0  0  0
  -23.9973   -7.4646   22.7507 H   0  0  0  0  0  0
  -21.0862   -8.8829   19.8987 H   0  0  0  0  0  0
  -22.3741  -10.9700   19.6211 H   0  0  0  0  0  0
  -21.1983   -7.6145   23.9723 H   0  0  0  0  0  0
  -21.1500   -6.0535   25.9091 H   0  0  0  0  0  0
  -22.0576   -2.7604   23.2857 H   0  0  0  0  0  0
  -22.3959  -11.9929   22.4833 H   0  0  0  0  0  0
  -21.1063  -13.1380   22.2614 H   0  0  0  0  0  0
  -24.6137  -15.8337   20.4396 H   0  0  0  0  0  0
  -26.2391  -15.6281   20.0216 H   0  0  0  0  0  0
  -26.7227  -32.5419   23.1059 H   0  0  0  0  0  0
  -25.0143  -33.9678   25.0397 H   0  0  0  0  0  0
  -22.7144  -31.3002   21.4008 H   0  0  0  0  0  0
  -23.3727  -35.9630   23.3304 H   0  0  0  0  0  0
  -24.3574  -36.8900   22.2051 H   0  0  0  0  0  0
  -23.7258  -37.6484   23.6670 H   0  0  0  0  0  0
  -26.0939  -31.5337   20.5987 H   0  0  0  0  0  0
  -26.8432  -30.8313   22.0017 H   0  0  0  0  0  0
  -28.1213  -28.9615   21.1855 H   0  0  0  0  0  0
  -25.9919  -25.9626   18.9135 H   0  0  0  0  0  0
  -23.9830  -27.3095   18.9799 H   0  0  0  0  0  0
  -23.7435  -30.5799   19.3970 H   0  0  0  0  0  0
  -22.7550  -29.2328   19.8693 H   0  0  0  0  0  0
  -25.1282  -36.1882   25.0787 H   0  0  0  0  0  0
  -20.9921  -28.3278   24.1449 H   0  0  0  0  0  0
  -20.5759  -26.2252   23.3608 H   0  0  0  0  0  0
  -21.6679  -26.7518   22.1197 H   0  0  0  0  0  0
  -19.7020  -25.6312   21.1270 H   0  0  0  0  0  0
  -19.6766  -27.3186   20.6754 H   0  0  0  0  0  0
  -17.4266  -26.6792   21.3868 H   0  0  0  0  0  0
  -18.0239  -26.0055   22.8878 H   0  0  0  0  0  0
  -19.7896  -30.7274   24.2309 H   0  0  0  0  0  0
  -17.4962  -31.6307   24.5105 H   0  0  0  0  0  0
  -15.5340  -30.2961   23.7598 H   0  0  0  0  0  0
  -15.8705  -28.0781   22.7055 H   0  0  0  0  0  0
  -24.5886  -30.7131   25.7741 H   0  0  0  0  0  0
  -24.8965  -32.2955   26.4819 H   0  0  0  0  0  0
  -25.8032  -30.8934   27.0216 H   0  0  0  0  0  0
  -26.2973  -29.6739   24.1191 H   0  0  0  0  0  0
  -27.4067  -29.7263   25.4700 H   0  0  0  0  0  0
  -27.8847  -30.4278   23.9434 H   0  0  0  0  0  0
  -27.2660  -33.3605   26.2078 H   0  0  0  0  0  0
  -28.3893  -32.6889   25.0331 H   0  0  0  0  0  0
  -28.0745  -31.8443   26.5406 H   0  0  0  0  0  0
  -28.2570  -38.0078   24.7484 H   0  0  0  0  0  0
  -28.1047  -36.2600   24.6300 H   0  0  0  0  0  0
  -27.2291  -37.1469   25.8870 H   0  0  0  0  0  0
  -20.9376  -29.8845   21.7015 H   0  0  0  0  0  0
  -26.0141  -38.2823   24.1400 H   0  0  0  0  0  0
  -31.2444  -20.1434   19.9281 H   0  0  0  0  0  0
  -27.4934  -19.3096   21.7869 H   0  0  0  0  0  0
  -32.7911  -18.6149   19.6212 H   0  0  0  0  0  0
  -32.2845  -17.0548   19.1597 H   0  0  0  0  0  0
  -34.2985  -17.4990   20.8455 H   0  0  0  0  0  0
  -33.4052  -16.0620   20.9487 H   0  0  0  0  0  0
  -33.2116  -18.4247   22.8219 H   0  0  0  0  0  0
  -33.8782  -16.8584   23.1038 H   0  0  0  0  0  0
  -31.0180  -17.6898   23.2748 H   0  0  0  0  0  0
  -31.9638  -16.7076   24.2945 H   0  0  0  0  0  0
  -30.3628  -15.2078   23.4066 H   0  0  0  0  0  0
  -31.8799  -14.8023   22.6730 H   0  0  0  0  0  0
  -26.8274  -17.1837   22.3872 H   0  0  0  0  0  0
  -28.2064  -16.4259   23.1903 H   0  0  0  0  0  0
  -27.6049  -15.7960   21.6557 H   0  0  0  0  0  0
  -30.2328  -24.4030   20.4119 H   0  0  0  0  0  0
  -29.0554  -23.9449   21.5862 H   0  0  0  0  0  0
  -30.4037  -22.2777   19.6858 H   0  0  0  0  0  0
  -28.8118  -22.3783   19.0145 H   0  0  0  0  0  0
  -27.2337  -24.6612   20.1005 H   0  0  0  0  0  0
  -28.3107  -24.9168   18.7529 H   0  0  0  0  0  0
  -28.0775  -21.5456   21.3764 H   0  0  0  0  0  0
  1 25  1  0  0  0
  1 30  2  0  0  0
  1 86  1  0  0  0
  2  3  1  0  0  0
  2 25  1  0  0  0
  2 88  1  0  0  0
  2 89  1  0  0  0
  3  4  1  0  0  0
  3 90  1  0  0  0
  3 91  1  0  0  0
  4  5  1  0  0  0
  4 92  1  0  0  0
  4 93  1  0  0  0
  5  6  1  0  0  0
  5 26  1  0  0  0
  5 94  1  0  0  0
  6 25  1  0  0  0
  6 95  1  0  0  0
  6 96  1  0  0  0
  7  8  2  0  0  0
  7 26  1  0  0  0
  7 29  1  0  0  0
  8  9  1  0  0  0
  8 22  1  0  0  0
  9 10  1  0  0  0
  9 27  2  0  0  0
 10 11  2  0  0  0
 10 15  1  0  0  0
 11 12  1  0  0  0
 11 97  1  0  0  0
 12 13  2  0  0  0
 12 98  1  0  0  0
 13 14  1  0  0  0
 13 31  1  0  0  0
 14 15  2  0  0  0
 14 99  1  0  0  0
 15100  1  0  0  0
 16 17  2  0  0  0
 16 21  1  0  0  0
 16 31  1  0  0  0
 17 18  1  0  0  0
 17101  1  0  0  0
 18 19  2  0  0  0
 18102  1  0  0  0
 19 20  1  0  0  0
 19 24  1  0  0  0
 20 21  2  0  0  0
 20103  1  0  0  0
 21 23  1  0  0  0
 22 28  1  0  0  0
 22 32  2  0  0  0
 26 27  1  0  0  0
 28104  1  0  0  0
 28105  1  0  0  0
 29106  1  0  0  0
 29107  1  0  0  0
 33 34  1  0  0  0
 33 66  1  0  0  0
 33 70  2  0  0  0
 34 36  1  0  0  0
 34 59  1  0  0  0
 34108  1  0  0  0
 35 44  2  0  0  0
 35 45  1  0  0  0
 35 68  1  0  0  0
 36 56  1  0  0  0
 36109  1  0  0  0
 37 39  1  0  0  0
 37 47  1  0  0  0
 37 66  1  0  0  0
 37110  1  0  0  0
 38 43  2  0  0  0
 38 46  1  0  0  0
 38 47  1  0  0  0
 39 64  1  0  0  0
 39 67  2  0  0  0
 40 52  1  0  0  0
 40 53  2  0  0  0
 40 58  1  0  0  0
 41111  1  0  0  0
 41112  1  0  0  0
 41113  1  0  0  0
 41 48  1  0  0  0
 42 43  1  0  0  0
 42 66  1  0  0  0
 42114  1  0  0  0
 42115  1  0  0  0
 43 44  1  0  0  0
 44116  1  0  0  0
 45 46  2  0  0  0
 45117  1  0  0  0
 46118  1  0  0  0
 47119  1  0  0  0
 47120  1  0  0  0
 48 56  1  0  0  0
 48 65  1  0  0  0
 48121  1  0  0  0
 49 50  1  0  0  0
 49 53  1  0  0  0
 49 64  1  0  0  0
 49122  1  0  0  0
 50 51  1  0  0  0
 50123  1  0  0  0
 50124  1  0  0  0
 51 52  1  0  0  0
 51125  1  0  0  0
 51126  1  0  0  0
 52127  1  0  0  0
 52128  1  0  0  0
 53 54  1  0  0  0
 54 55  2  0  0  0
 54129  1  0  0  0
 55 57  1  0  0  0
 55130  1  0  0  0
 56 69  2  0  0  0
 57 58  2  0  0  0
 57131  1  0  0  0
 58132  1  0  0  0
 59 60  1  0  0  0
 59 61  1  0  0  0
 59 62  1  0  0  0
 60133  1  0  0  0
 60134  1  0  0  0
 60135  1  0  0  0
 61136  1  0  0  0
 61137  1  0  0  0
 61138  1  0  0  0
 62139  1  0  0  0
 62140  1  0  0  0
 62141  1  0  0  0
 63 65  1  0  0  0
 63142  1  0  0  0
 63143  1  0  0  0
 63144  1  0  0  0
 64145  1  0  0  0
 65146  1  0  0  0
 68 85  1  0  0  0
 71 73  2  0  0  0
 71 76  1  0  0  0
 71147  1  0  0  0
 72 74  1  0  0  0
 72 76  2  0  0  0
 72148  1  0  0  0
 73 75  1  0  0  0
 73 77  1  0  0  0
 74 75  2  0  0  0
 74 82  1  0  0  0
 75 86  1  0  0  0
 76 87  1  0  0  0
 77 78  1  0  0  0
 77149  1  0  0  0
 77150  1  0  0  0
 78 79  1  0  0  0
 78151  1  0  0  0
 78152  1  0  0  0
 79 80  1  0  0  0
 79153  1  0  0  0
 79154  1  0  0  0
 80 81  1  0  0  0
 80155  1  0  0  0
 80156  1  0  0  0
 81 86  1  0  0  0
 81157  1  0  0  0
 81158  1  0  0  0
 82159  1  0  0  0
 82160  1  0  0  0
 82161  1  0  0  0
 83 84  1  0  0  0
 83 85  1  0  0  0
 83162  1  0  0  0
 83163  1  0  0  0
 84 87  1  0  0  0
 84164  1  0  0  0
 84165  1  0  0  0
 85166  1  0  0  0
 85167  1  0  0  0
 87168  1  0  0  0
M  ISO  4   1 100  68 101  85 101  86 100
M  END
> <chiral flag>
0

> <version>
0

> <s_m_source_file>
/data/baiqing/PycharmProjects/Reinvent-master-3.2/result/LINK_invent/BTK/process_docking_weight1_custom_product_contain_oxygen_bond_distance_aromatic_linkinvent_7_9_3/rearranged_h_0028.sdf

> <i_m_source_file_index>
8

> <r_mmod_Potential_Energy-OPLS-2005>
382.907287597656

> <r_mmod_Stretch_Energy-OPLS-2005>
105.037132263184

> <r_mmod_Bend_Energy-OPLS-2005>
208.537231445312

> <r_mmod_Torsional_Energy-OPLS-2005>
344.989440917969

> <r_mmod_Improper_Torsional_Energy-OPLS-2005>
8.89137268066406

> <r_mmod_Van_der_Waal_Energy-OPLS-2005>
154.810577392578

> <r_mmod_Electrostatic_Energy-OPLS-2005>
-301.462158203125

> <r_mmod_Solvation_Energy-OPLS-2005>
-193.902404785156

> <b_mmod_Minimization_Converged-OPLS-2005>
0

> <r_mmod_RMS_Derivative-OPLS-2005>
4.36550045013428

$$$$
8
                    3D
 Structure written by MMmdl.
160169  0  0  1  0            999 V2000
  -30.6026  -14.6848   20.4967 C   0  0  0  0  0  0
  -30.4499  -12.4224   19.4511 C   0  0  0  0  0  0
  -29.5111  -12.5160   18.2259 C   0  0  0  0  0  0
  -28.0340  -12.3474   18.6399 C   0  0  0  0  0  0
  -27.6508  -13.2196   19.8652 C   0  0  2  0  0  0
  -28.7031  -13.0795   20.9904 C   0  0  0  0  0  0
  -25.2419  -13.8041   20.5605 C   0  0  0  0  0  0
  -24.1745  -13.0308   20.9162 C   0  0  0  0  0  0
  -24.6391  -11.6823   20.8749 C   0  0  0  0  0  0
  -23.9072  -10.4225   21.0412 C   0  0  0  0  0  0
  -24.3619   -9.4154   21.9197 C   0  0  0  0  0  0
  -23.6282   -8.2202   22.0763 C   0  0  0  0  0  0
  -22.4264   -8.0255   21.3548 C   0  0  0  0  0  0
  -21.9906   -9.0226   20.4646 C   0  0  0  0  0  0
  -22.7247  -10.2091   20.3054 C   0  0  0  0  0  0
  -21.6839   -6.0725   22.5284 C   0  0  0  0  0  0
  -21.4003   -6.5632   23.8217 C   0  0  0  0  0  0
  -21.3656   -5.6786   24.9179 C   0  0  0  0  0  0
  -21.6046   -4.3050   24.7230 C   0  0  0  0  0  0
  -21.8820   -3.8140   23.4351 C   0  0  0  0  0  0
  -21.9188   -4.6955   22.3407 C   0  0  0  0  0  0
  -22.7777  -13.5124   21.1847 C   0  0  0  0  0  0
  -22.1659   -4.2143   21.0984 F   0  0  0  0  0  0
  -21.5632   -3.4535   25.7744 F   0  0  0  0  0  0
  -30.0164  -13.4428   20.4266 N   0  0  0  0  0  0
  -26.2965  -12.9322   20.3352 N   0  0  0  0  0  0
  -25.9341  -11.6466   20.5809 N   0  0  0  0  0  0
  -22.0435  -12.8143   22.0433 N   0  0  0  0  0  0
  -25.3789  -15.1726   20.3935 N   0  0  0  0  0  0
  -31.7649  -14.8715   20.1252 O   0  0  0  0  0  0
  -21.6617   -6.8862   21.4246 O   0  0  0  0  0  0
  -22.3464  -14.5444   20.6714 O   0  0  0  0  0  0
  -24.6244  -31.8589   23.2000 C   0  0  0  0  0  0
  -25.9090  -32.4779   23.8335 C   0  0  1  0  0  0
  -27.2426  -27.3263   20.1314 C   0  0  0  0  0  0
  -25.5905  -33.8578   24.2271 N   0  0  0  0  0  0
  -23.4198  -30.4777   21.5425 C   0  0  2  0  0  0
  -24.8713  -28.9215   20.1204 C   0  0  0  0  0  0
  -22.7466  -29.4614   22.4948 C   0  0  0  0  0  0
  -18.0282  -28.1383   22.8490 C   0  0  0  0  0  0
  -24.1487  -36.7285   23.2643 C   0  0  0  0  0  0
  -25.9577  -30.7927   21.3679 C   0  0  0  0  0  0
  -26.0374  -29.4159   20.7192 C   0  0  0  0  0  0
  -27.2274  -28.6318   20.7091 C   0  0  0  0  0  0
  -26.0545  -26.8684   19.5257 C   0  0  0  0  0  0
  -24.8808  -27.6518   19.5153 C   0  0  0  0  0  0
  -23.6369  -29.8012   20.1621 C   0  0  0  0  0  0
  -25.4114  -36.3084   24.0334 C   0  0  1  0  0  0
  -20.5882  -28.3679   23.1295 C   0  0  2  0  0  0
  -20.6773  -26.9404   22.5415 C   0  0  0  0  0  0
  -19.5751  -26.6383   21.5215 C   0  0  0  0  0  0
  -18.1930  -26.7928   22.1624 C   0  0  0  0  0  0
  -19.1536  -28.8848   23.2890 C   0  0  0  0  0  0
  -18.9461  -30.1454   23.8898 C   0  0  0  0  0  0
  -17.6463  -30.6587   24.0565 C   0  0  0  0  0  0
  -25.9045  -34.9454   23.5105 C   0  0  0  0  0  0
  -16.5353  -29.9087   23.6334 C   0  0  0  0  0  0
  -16.7271  -28.6506   23.0352 C   0  0  0  0  0  0
  -26.4483  -31.6585   25.0699 C   0  0  0  0  0  0
  -25.3719  -31.3716   26.1427 C   0  0  0  0  0  0
  -27.0327  -30.3018   24.6131 C   0  0  0  0  0  0
  -27.6044  -32.4314   25.7472 C   0  0  0  0  0  0
  -27.5578  -37.1801   24.8470 C   0  0  0  0  0  0
  -21.4180  -29.3034   22.3691 N   0  0  0  0  0  0
  -26.4293  -37.3777   23.9409 N   0  0  0  0  0  0
  -24.6859  -31.0600   22.0946 N   0  0  0  0  0  0
  -23.4188  -28.8170   23.3041 O   0  0  0  0  0  0
  -28.3857  -26.5188   20.0971 O   0  0  0  0  0  0
  -26.5621  -34.8925   22.4678 O   0  0  0  0  0  0
  -23.5408  -32.1382   23.7331 O   0  0  0  0  0  0
  -27.8348  -22.7433   22.8351 C   0  0  0  0  0  0
  -30.7601  -18.1170   20.7340 C   0  0  0  0  0  0
  -29.1836  -20.0775   20.8294 C   0  0  0  0  0  0
  -30.5151  -19.5425   20.7854 C   0  0  0  0  0  0
  -29.6971  -17.1668   20.7168 C   0  0  0  0  0  0
  -28.1435  -19.1179   20.7024 C   0  0  0  0  0  0
  -28.4007  -17.7243   20.6629 C   0  0  0  0  0  0
  -28.7934  -21.5439   21.2010 C   0  0  0  0  0  0
  -31.7160  -20.4763   20.8856 C   0  0  0  0  0  0
  -31.6202  -21.7485   20.0173 C   0  0  0  0  0  0
  -30.7775  -22.8899   20.6244 C   0  0  0  0  0  0
  -28.5794  -23.8473   19.9272 C   0  0  0  0  0  0
  -28.3666  -25.1969   20.7612 C   0  0  0  0  0  0
  -27.6650  -23.7103   23.4470 N   0  0  0  0  0  0
  -28.0205  -21.5760   22.2419 N   0  0  0  0  0  0
  -29.3354  -22.6778   20.5249 N   0  0  0  0  0  0
  -29.7484  -15.7003   20.8431 N   0  0  0  0  0  0
  -26.8484  -19.5224   20.6661 F   0  0  0  0  0  0
  -27.3506  -16.8827   20.6088 F   0  0  0  0  0  0
  -31.4871  -12.5674   19.1437 H   0  0  0  0  0  0
  -30.4053  -11.4278   19.8975 H   0  0  0  0  0  0
  -29.7796  -11.7588   17.4879 H   0  0  0  0  0  0
  -29.6449  -13.4809   17.7342 H   0  0  0  0  0  0
  -27.8780  -11.2941   18.8764 H   0  0  0  0  0  0
  -27.3777  -12.5695   17.7976 H   0  0  0  0  0  0
  -27.6587  -14.2541   19.5213 H   0  0  0  0  0  0
  -28.7266  -12.0549   21.3647 H   0  0  0  0  0  0
  -28.4428  -13.6997   21.8495 H   0  0  0  0  0  0
  -25.2763   -9.5628   22.4773 H   0  0  0  0  0  0
  -23.9980   -7.4592   22.7488 H   0  0  0  0  0  0
  -21.0834   -8.8753   19.8953 H   0  0  0  0  0  0
  -22.3721  -10.9634   19.6159 H   0  0  0  0  0  0
  -21.1989   -7.6140   23.9719 H   0  0  0  0  0  0
  -21.1480   -6.0516   25.9082 H   0  0  0  0  0  0
  -22.0602   -2.7603   23.2853 H   0  0  0  0  0  0
  -22.4042  -11.9801   22.4820 H   0  0  0  0  0  0
  -21.1069  -13.1197   22.2668 H   0  0  0  0  0  0
  -24.5979  -15.8037   20.5288 H   0  0  0  0  0  0
  -26.2420  -15.6625   20.1857 H   0  0  0  0  0  0
  -26.7154  -32.5458   23.1081 H   0  0  0  0  0  0
  -25.0053  -33.9722   25.0416 H   0  0  0  0  0  0
  -22.7136  -31.2973   21.3937 H   0  0  0  0  0  0
  -23.3753  -35.9612   23.3313 H   0  0  0  0  0  0
  -24.3575  -36.8894   22.2054 H   0  0  0  0  0  0
  -23.7236  -37.6490   23.6655 H   0  0  0  0  0  0
  -26.0820  -31.5523   20.5949 H   0  0  0  0  0  0
  -26.8402  -30.8493   21.9935 H   0  0  0  0  0  0
  -28.1289  -29.0156   21.1659 H   0  0  0  0  0  0
  -26.0370  -25.8943   19.0573 H   0  0  0  0  0  0
  -23.9865  -27.2657   19.0456 H   0  0  0  0  0  0
  -23.7552  -30.5721   19.3998 H   0  0  0  0  0  0
  -22.7583  -29.2266   19.8633 H   0  0  0  0  0  0
  -25.1298  -36.1937   25.0827 H   0  0  0  0  0  0
  -20.9974  -28.3245   24.1416 H   0  0  0  0  0  0
  -20.5675  -26.2283   23.3610 H   0  0  0  0  0  0
  -21.6643  -26.7438   22.1209 H   0  0  0  0  0  0
  -19.6915  -25.6296   21.1237 H   0  0  0  0  0  0
  -19.6694  -27.3200   20.6752 H   0  0  0  0  0  0
  -17.4202  -26.6676   21.4024 H   0  0  0  0  0  0
  -18.0327  -26.0070   22.9019 H   0  0  0  0  0  0
  -19.7939  -30.7270   24.2264 H   0  0  0  0  0  0
  -17.5020  -31.6270   24.5160 H   0  0  0  0  0  0
  -15.5355  -30.2992   23.7662 H   0  0  0  0  0  0
  -15.8669  -28.0830   22.7065 H   0  0  0  0  0  0
  -24.5897  -30.7063   25.7750 H   0  0  0  0  0  0
  -24.8905  -32.2881   26.4847 H   0  0  0  0  0  0
  -25.8043  -30.8894   27.0203 H   0  0  0  0  0  0
  -26.2895  -29.6768   24.1164 H   0  0  0  0  0  0
  -27.4060  -29.7266   25.4614 H   0  0  0  0  0  0
  -27.8742  -30.4321   23.9322 H   0  0  0  0  0  0
  -27.2658  -33.3615   26.2047 H   0  0  0  0  0  0
  -28.3855  -32.6871   25.0300 H   0  0  0  0  0  0
  -28.0707  -31.8438   26.5389 H   0  0  0  0  0  0
  -28.2608  -38.0087   24.7510 H   0  0  0  0  0  0
  -28.1064  -36.2621   24.6309 H   0  0  0  0  0  0
  -27.2294  -37.1464   25.8874 H   0  0  0  0  0  0
  -20.9354  -29.8739   21.6887 H   0  0  0  0  0  0
  -26.0177  -38.2854   24.1406 H   0  0  0  0  0  0
  -31.7772  -17.7518   20.7691 H   0  0  0  0  0  0
  -32.6038  -19.9235   20.5744 H   0  0  0  0  0  0
  -31.8821  -20.7377   21.9314 H   0  0  0  0  0  0
  -31.2935  -21.5099   19.0041 H   0  0  0  0  0  0
  -32.6341  -22.1366   19.9113 H   0  0  0  0  0  0
  -31.0414  -23.8190   20.1176 H   0  0  0  0  0  0
  -31.0471  -23.0396   21.6712 H   0  0  0  0  0  0
  -29.0993  -24.1114   19.0062 H   0  0  0  0  0  0
  -27.6038  -23.4893   19.5966 H   0  0  0  0  0  0
  -29.1528  -25.2499   21.5145 H   0  0  0  0  0  0
  -27.4336  -25.1136   21.3164 H   0  0  0  0  0  0
  -28.8464  -15.3184   21.0837 H   0  0  0  0  0  0
  1 25  1  0  0  0
  1 30  2  0  0  0
  1 87  1  0  0  0
  2  3  1  0  0  0
  2 25  1  0  0  0
  2 90  1  0  0  0
  2 91  1  0  0  0
  3  4  1  0  0  0
  3 92  1  0  0  0
  3 93  1  0  0  0
  4  5  1  0  0  0
  4 94  1  0  0  0
  4 95  1  0  0  0
  5  6  1  0  0  0
  5 26  1  0  0  0
  5 96  1  0  0  0
  6 25  1  0  0  0
  6 97  1  0  0  0
  6 98  1  0  0  0
  7  8  2  0  0  0
  7 26  1  0  0  0
  7 29  1  0  0  0
  8  9  1  0  0  0
  8 22  1  0  0  0
  9 10  1  0  0  0
  9 27  2  0  0  0
 10 11  2  0  0  0
 10 15  1  0  0  0
 11 12  1  0  0  0
 11 99  1  0  0  0
 12 13  2  0  0  0
 12100  1  0  0  0
 13 14  1  0  0  0
 13 31  1  0  0  0
 14 15  2  0  0  0
 14101  1  0  0  0
 15102  1  0  0  0
 16 17  2  0  0  0
 16 21  1  0  0  0
 16 31  1  0  0  0
 17 18  1  0  0  0
 17103  1  0  0  0
 18 19  2  0  0  0
 18104  1  0  0  0
 19 20  1  0  0  0
 19 24  1  0  0  0
 20 21  2  0  0  0
 20105  1  0  0  0
 21 23  1  0  0  0
 22 28  1  0  0  0
 22 32  2  0  0  0
 26 27  1  0  0  0
 28106  1  0  0  0
 28107  1  0  0  0
 29108  1  0  0  0
 29109  1  0  0  0
 33 34  1  0  0  0
 33 66  1  0  0  0
 33 70  2  0  0  0
 34 36  1  0  0  0
 34 59  1  0  0  0
 34110  1  0  0  0
 35 44  2  0  0  0
 35 45  1  0  0  0
 35 68  1  0  0  0
 36 56  1  0  0  0
 36111  1  0  0  0
 37 39  1  0  0  0
 37 47  1  0  0  0
 37 66  1  0  0  0
 37112  1  0  0  0
 38 43  2  0  0  0
 38 46  1  0  0  0
 38 47  1  0  0  0
 39 64  1  0  0  0
 39 67  2  0  0  0
 40 52  1  0  0  0
 40 53  2  0  0  0
 40 58  1  0  0  0
 41113  1  0  0  0
 41114  1  0  0  0
 41115  1  0  0  0
 41 48  1  0  0  0
 42 43  1  0  0  0
 42 66  1  0  0  0
 42116  1  0  0  0
 42117  1  0  0  0
 43 44  1  0  0  0
 44118  1  0  0  0
 45 46  2  0  0  0
 45119  1  0  0  0
 46120  1  0  0  0
 47121  1  0  0  0
 47122  1  0  0  0
 48 56  1  0  0  0
 48 65  1  0  0  0
 48123  1  0  0  0
 49 50  1  0  0  0
 49 53  1  0  0  0
 49 64  1  0  0  0
 49124  1  0  0  0
 50 51  1  0  0  0
 50125  1  0  0  0
 50126  1  0  0  0
 51 52  1  0  0  0
 51127  1  0  0  0
 51128  1  0  0  0
 52129  1  0  0  0
 52130  1  0  0  0
 53 54  1  0  0  0
 54 55  2  0  0  0
 54131  1  0  0  0
 55 57  1  0  0  0
 55132  1  0  0  0
 56 69  2  0  0  0
 57 58  2  0  0  0
 57133  1  0  0  0
 58134  1  0  0  0
 59 60  1  0  0  0
 59 61  1  0  0  0
 59 62  1  0  0  0
 60135  1  0  0  0
 60136  1  0  0  0
 60137  1  0  0  0
 61138  1  0  0  0
 61139  1  0  0  0
 61140  1  0  0  0
 62141  1  0  0  0
 62142  1  0  0  0
 62143  1  0  0  0
 63 65  1  0  0  0
 63144  1  0  0  0
 63145  1  0  0  0
 63146  1  0  0  0
 64147  1  0  0  0
 65148  1  0  0  0
 68 83  1  0  0  0
 71 84  3  0  0  0
 71 85  1  0  0  0
 72 74  2  0  0  0
 72 75  1  0  0  0
 72149  1  0  0  0
 73 74  1  0  0  0
 73 76  2  0  0  0
 73 78  1  0  0  0
 74 79  1  0  0  0
 75 77  2  0  0  0
 75 87  1  0  0  0
 76 77  1  0  0  0
 76 88  1  0  0  0
 77 89  1  0  0  0
 78 85  2  0  0  0
 78 86  1  0  0  0
 79 80  1  0  0  0
 79150  1  0  0  0
 79151  1  0  0  0
 80 81  1  0  0  0
 80152  1  0  0  0
 80153  1  0  0  0
 81 86  1  0  0  0
 81154  1  0  0  0
 81155  1  0  0  0
 82 83  1  0  0  0
 82 86  1  0  0  0
 82156  1  0  0  0
 82157  1  0  0  0
 83158  1  0  0  0
 83159  1  0  0  0
 87160  1  0  0  0
M  ISO  4   1 100  68 101  83 101  87 100
M  END
> <chiral flag>
0

> <version>
0

> <s_m_source_file>
/data/baiqing/PycharmProjects/Reinvent-master-3.2/result/LINK_invent/BTK/process_docking_weight1_custom_product_contain_oxygen_bond_distance_aromatic_linkinvent_7_9_3/rearranged_h_0028.sdf

> <i_m_source_file_index>
9

> <r_mmod_Potential_Energy-OPLS-2005>
207.588897705078

> <r_mmod_Stretch_Energy-OPLS-2005>
91.6953201293945

> <r_mmod_Bend_Energy-OPLS-2005>
181.809677124023

> <r_mmod_Torsional_Energy-OPLS-2005>
300.271087646484

> <r_mmod_Improper_Torsional_Energy-OPLS-2005>
6.80502891540527

> <r_mmod_Van_der_Waal_Energy-OPLS-2005>
152.27375793457

> <r_mmod_Electrostatic_Energy-OPLS-2005>
-373.97265625

> <r_mmod_Solvation_Energy-OPLS-2005>
-203.933532714844

> <b_mmod_Minimization_Converged-OPLS-2005>
0

> <r_mmod_RMS_Derivative-OPLS-2005>
0.551878571510315

$$$$
9
                    3D
 Structure written by MMmdl.
153162  0  0  1  0            999 V2000
  -30.5051  -15.0368   20.3530 C   0  0  0  0  0  0
  -30.4496  -12.6466   19.4835 C   0  0  0  0  0  0
  -29.5144  -12.5264   18.2608 C   0  0  0  0  0  0
  -28.0576  -12.2855   18.6991 C   0  0  0  0  0  0
  -27.6239  -13.2474   19.8343 C   0  0  2  0  0  0
  -28.6737  -13.3313   20.9599 C   0  0  0  0  0  0
  -25.2525  -13.8279   20.5951 C   0  0  0  0  0  0
  -24.1793  -13.0464   20.9217 C   0  0  0  0  0  0
  -24.6397  -11.6931   20.8787 C   0  0  0  0  0  0
  -23.9051  -10.4302   21.0404 C   0  0  0  0  0  0
  -24.3620   -9.4247   21.9234 C   0  0  0  0  0  0
  -23.6292   -8.2309   22.0823 C   0  0  0  0  0  0
  -22.4287   -8.0337   21.3602 C   0  0  0  0  0  0
  -21.9876   -9.0286   20.4661 C   0  0  0  0  0  0
  -22.7216  -10.2164   20.3057 C   0  0  0  0  0  0
  -21.6806   -6.0752   22.5286 C   0  0  0  0  0  0
  -21.4007   -6.5653   23.8232 C   0  0  0  0  0  0
  -21.3680   -5.6825   24.9216 C   0  0  0  0  0  0
  -21.6043   -4.3080   24.7222 C   0  0  0  0  0  0
  -21.8812   -3.8160   23.4329 C   0  0  0  0  0  0
  -21.9183   -4.6985   22.3401 C   0  0  0  0  0  0
  -22.7832  -13.5283   21.1895 C   0  0  0  0  0  0
  -22.1647   -4.2170   21.0957 F   0  0  0  0  0  0
  -21.5639   -3.4557   25.7714 F   0  0  0  0  0  0
  -29.9334  -13.7586   20.3423 N   0  0  0  0  0  0
  -26.2906  -12.9474   20.3441 N   0  0  0  0  0  0
  -25.9319  -11.6583   20.5813 N   0  0  0  0  0  0
  -22.0439  -12.8294   22.0435 N   0  0  0  0  0  0
  -25.4152  -15.2042   20.4505 N   0  0  0  0  0  0
  -31.7191  -15.0915   20.1199 O   0  0  0  0  0  0
  -21.6647   -6.8937   21.4257 O   0  0  0  0  0  0
  -22.3495  -14.5568   20.6681 O   0  0  0  0  0  0
  -24.6511  -31.8296   23.1633 C   0  0  0  0  0  0
  -25.9256  -32.4619   23.8069 C   0  0  1  0  0  0
  -27.2325  -27.0503   20.1632 C   0  0  0  0  0  0
  -25.5924  -33.8400   24.2058 N   0  0  0  0  0  0
  -23.4622  -30.4354   21.5206 C   0  0  2  0  0  0
  -24.9171  -28.8469   20.1060 C   0  0  0  0  0  0
  -22.7612  -29.4371   22.4797 C   0  0  0  0  0  0
  -18.0290  -28.1376   22.8487 C   0  0  0  0  0  0
  -24.1516  -36.7283   23.2636 C   0  0  0  0  0  0
  -26.0163  -30.6984   21.3559 C   0  0  0  0  0  0
  -26.0965  -29.2889   20.7155 C   0  0  0  0  0  0
  -27.2507  -28.4040   20.7262 C   0  0  0  0  0  0
  -26.0399  -26.7450   19.4782 C   0  0  0  0  0  0
  -24.9041  -27.5913   19.4725 C   0  0  0  0  0  0
  -23.6941  -29.7509   20.1457 C   0  0  0  0  0  0
  -25.4123  -36.3005   24.0308 C   0  0  1  0  0  0
  -20.5912  -28.3654   23.1242 C   0  0  2  0  0  0
  -20.6754  -26.9358   22.5402 C   0  0  0  0  0  0
  -19.5727  -26.6378   21.5204 C   0  0  0  0  0  0
  -18.1906  -26.7914   22.1641 C   0  0  0  0  0  0
  -19.1546  -28.8830   23.2886 C   0  0  0  0  0  0
  -18.9481  -30.1437   23.8897 C   0  0  0  0  0  0
  -17.6465  -30.6572   24.0544 C   0  0  0  0  0  0
  -25.9082  -34.9364   23.5020 C   0  0  0  0  0  0
  -16.5353  -29.9069   23.6329 C   0  0  0  0  0  0
  -16.7274  -28.6499   23.0352 C   0  0  0  0  0  0
  -26.4547  -31.6447   25.0503 C   0  0  0  0  0  0
  -25.3705  -31.3625   26.1202 C   0  0  0  0  0  0
  -27.0306  -30.2786   24.6021 C   0  0  0  0  0  0
  -27.6091  -32.4102   25.7348 C   0  0  0  0  0  0
  -27.5581  -37.1778   24.8477 C   0  0  0  0  0  0
  -21.4267  -29.2965   22.3599 N   0  0  0  0  0  0
  -26.4290  -37.3719   23.9428 N   0  0  0  0  0  0
  -24.7319  -31.0061   22.0719 N   0  0  0  0  0  0
  -23.4204  -28.7935   23.2995 O   0  0  0  0  0  0
  -28.2825  -26.0490   20.3523 O   0  0  0  0  0  0
  -26.5724  -34.8898   22.4624 O   0  0  0  0  0  0
  -23.5596  -32.1173   23.6828 O   0  0  0  0  0  0
  -25.2169  -22.8273   20.7964 C   0  0  0  0  0  0
  -25.3216  -21.4485   20.6665 C   0  0  0  0  0  0
  -26.4507  -19.4285   20.4680 C   0  0  0  0  0  0
  -26.3611  -23.6085   20.6989 C   0  0  0  0  0  0
  -27.5396  -18.5618   20.3719 C   0  0  0  0  0  0
  -26.5751  -20.8394   20.4939 C   0  0  0  0  0  0
  -27.8257  -21.5741   20.3589 C   0  0  0  0  0  0
  -27.6490  -23.1250   20.3821 C   0  0  0  0  0  0
  -28.8520  -19.0484   20.2700 C   0  0  0  0  0  0
  -28.9682  -20.5732   20.2345 C   0  0  0  0  0  0
  -29.9728  -17.8041   20.1507 C   0  0  0  0  0  0
  -28.5315  -24.4894   19.9998 C   0  0  0  0  0  0
  -29.7056  -16.2315   20.3977 N   0  0  0  0  0  0
  -30.2236  -21.0838   20.1065 F   0  0  0  0  0  0
  -31.4638  -12.8420   19.1241 H   0  0  0  0  0  0
  -30.5136  -11.7152   20.0412 H   0  0  0  0  0  0
  -29.8523  -11.7265   17.6004 H   0  0  0  0  0  0
  -29.5727  -13.4476   17.6785 H   0  0  0  0  0  0
  -27.9751  -11.2480   19.0365 H   0  0  0  0  0  0
  -27.3847  -12.3797   17.8413 H   0  0  0  0  0  0
  -27.5709  -14.2342   19.3763 H   0  0  0  0  0  0
  -28.7874  -12.3815   21.4819 H   0  0  0  0  0  0
  -28.3686  -14.0643   21.7114 H   0  0  0  0  0  0
  -25.2772   -9.5709   22.4769 H   0  0  0  0  0  0
  -23.9969   -7.4698   22.7547 H   0  0  0  0  0  0
  -21.0823   -8.8777   19.8957 H   0  0  0  0  0  0
  -22.3728  -10.9679   19.6094 H   0  0  0  0  0  0
  -21.1996   -7.6149   23.9720 H   0  0  0  0  0  0
  -21.1502   -6.0565   25.9127 H   0  0  0  0  0  0
  -22.0544   -2.7594   23.2811 H   0  0  0  0  0  0
  -22.4036  -11.9937   22.4799 H   0  0  0  0  0  0
  -21.1061  -13.1359   22.2578 H   0  0  0  0  0  0
  -24.6298  -15.8410   20.5395 H   0  0  0  0  0  0
  -26.2840  -15.6672   20.2112 H   0  0  0  0  0  0
  -26.7336  -32.5265   23.0826 H   0  0  0  0  0  0
  -24.9889  -33.9455   25.0085 H   0  0  0  0  0  0
  -22.7693  -31.2574   21.3479 H   0  0  0  0  0  0
  -23.3744  -35.9658   23.3224 H   0  0  0  0  0  0
  -24.3622  -36.8986   22.2079 H   0  0  0  0  0  0
  -23.7356  -37.6470   23.6710 H   0  0  0  0  0  0
  -26.1372  -31.4404   20.5621 H   0  0  0  0  0  0
  -26.8973  -30.7805   21.9801 H   0  0  0  0  0  0
  -28.1556  -28.7378   21.2201 H   0  0  0  0  0  0
  -25.9621  -25.7764   19.0028 H   0  0  0  0  0  0
  -23.9997  -27.2450   18.9922 H   0  0  0  0  0  0
  -23.8174  -30.5123   19.3725 H   0  0  0  0  0  0
  -22.8144  -29.1722   19.8504 H   0  0  0  0  0  0
  -25.1318  -36.1767   25.0791 H   0  0  0  0  0  0
  -21.0027  -28.3244   24.1370 H   0  0  0  0  0  0
  -20.5550  -26.2261   23.3622 H   0  0  0  0  0  0
  -21.6624  -26.7289   22.1246 H   0  0  0  0  0  0
  -19.6843  -25.6295   21.1213 H   0  0  0  0  0  0
  -19.6677  -27.3215   20.6755 H   0  0  0  0  0  0
  -17.4169  -26.6669   21.4064 H   0  0  0  0  0  0
  -18.0311  -26.0062   22.9038 H   0  0  0  0  0  0
  -19.7938  -30.7253   24.2292 H   0  0  0  0  0  0
  -17.5006  -31.6258   24.5138 H   0  0  0  0  0  0
  -15.5346  -30.2964   23.7615 H   0  0  0  0  0  0
  -15.8702  -28.0798   22.7056 H   0  0  0  0  0  0
  -24.6024  -30.6820   25.7544 H   0  0  0  0  0  0
  -24.8769  -32.2785   26.4400 H   0  0  0  0  0  0
  -25.8006  -30.8991   27.0116 H   0  0  0  0  0  0
  -26.2921  -29.6662   24.0853 H   0  0  0  0  0  0
  -27.3721  -29.6876   25.4551 H   0  0  0  0  0  0
  -27.8900  -30.3930   23.9408 H   0  0  0  0  0  0
  -27.2770  -33.3513   26.1734 H   0  0  0  0  0  0
  -28.4062  -32.6440   25.0268 H   0  0  0  0  0  0
  -28.0577  -31.8282   26.5437 H   0  0  0  0  0  0
  -28.2569  -38.0095   24.7468 H   0  0  0  0  0  0
  -28.1074  -36.2597   24.6313 H   0  0  0  0  0  0
  -27.2268  -37.1468   25.8872 H   0  0  0  0  0  0
  -20.9416  -29.8753   21.6883 H   0  0  0  0  0  0
  -26.0116  -38.2759   24.1404 H   0  0  0  0  0  0
  -24.2520  -23.2920   20.9561 H   0  0  0  0  0  0
  -24.4106  -20.8626   20.7530 H   0  0  0  0  0  0
  -25.4679  -18.9596   20.5390 H   0  0  0  0  0  0
  -26.2103  -24.6636   20.8410 H   0  0  0  0  0  0
  -27.3370  -17.4999   20.3748 H   0  0  0  0  0  0
  -30.3067  -17.8401   19.1122 H   0  0  0  0  0  0
  -30.8616  -18.0944   20.7212 H   0  0  0  0  0  0
  -28.7445  -24.4271   18.9280 H   0  0  0  0  0  0
  -29.4949  -24.2802   20.4707 H   0  0  0  0  0  0
  -28.7359  -16.0247   20.5617 H   0  0  0  0  0  0
  1 25  1  0  0  0
  1 30  2  0  0  0
  1 83  1  0  0  0
  2  3  1  0  0  0
  2 25  1  0  0  0
  2 85  1  0  0  0
  2 86  1  0  0  0
  3  4  1  0  0  0
  3 87  1  0  0  0
  3 88  1  0  0  0
  4  5  1  0  0  0
  4 89  1  0  0  0
  4 90  1  0  0  0
  5  6  1  0  0  0
  5 26  1  0  0  0
  5 91  1  0  0  0
  6 25  1  0  0  0
  6 92  1  0  0  0
  6 93  1  0  0  0
  7  8  2  0  0  0
  7 26  1  0  0  0
  7 29  1  0  0  0
  8  9  1  0  0  0
  8 22  1  0  0  0
  9 10  1  0  0  0
  9 27  2  0  0  0
 10 11  2  0  0  0
 10 15  1  0  0  0
 11 12  1  0  0  0
 11 94  1  0  0  0
 12 13  2  0  0  0
 12 95  1  0  0  0
 13 14  1  0  0  0
 13 31  1  0  0  0
 14 15  2  0  0  0
 14 96  1  0  0  0
 15 97  1  0  0  0
 16 17  2  0  0  0
 16 21  1  0  0  0
 16 31  1  0  0  0
 17 18  1  0  0  0
 17 98  1  0  0  0
 18 19  2  0  0  0
 18 99  1  0  0  0
 19 20  1  0  0  0
 19 24  1  0  0  0
 20 21  2  0  0  0
 20100  1  0  0  0
 21 23  1  0  0  0
 22 28  1  0  0  0
 22 32  2  0  0  0
 26 27  1  0  0  0
 28101  1  0  0  0
 28102  1  0  0  0
 29103  1  0  0  0
 29104  1  0  0  0
 33 34  1  0  0  0
 33 66  1  0  0  0
 33 70  2  0  0  0
 34 36  1  0  0  0
 34 59  1  0  0  0
 34105  1  0  0  0
 35 44  2  0  0  0
 35 45  1  0  0  0
 35 68  1  0  0  0
 36 56  1  0  0  0
 36106  1  0  0  0
 37 39  1  0  0  0
 37 47  1  0  0  0
 37 66  1  0  0  0
 37107  1  0  0  0
 38 43  2  0  0  0
 38 46  1  0  0  0
 38 47  1  0  0  0
 39 64  1  0  0  0
 39 67  2  0  0  0
 40 52  1  0  0  0
 40 53  2  0  0  0
 40 58  1  0  0  0
 41108  1  0  0  0
 41109  1  0  0  0
 41110  1  0  0  0
 41 48  1  0  0  0
 42 43  1  0  0  0
 42 66  1  0  0  0
 42111  1  0  0  0
 42112  1  0  0  0
 43 44  1  0  0  0
 44113  1  0  0  0
 45 46  2  0  0  0
 45114  1  0  0  0
 46115  1  0  0  0
 47116  1  0  0  0
 47117  1  0  0  0
 48 56  1  0  0  0
 48 65  1  0  0  0
 48118  1  0  0  0
 49 50  1  0  0  0
 49 53  1  0  0  0
 49 64  1  0  0  0
 49119  1  0  0  0
 50 51  1  0  0  0
 50120  1  0  0  0
 50121  1  0  0  0
 51 52  1  0  0  0
 51122  1  0  0  0
 51123  1  0  0  0
 52124  1  0  0  0
 52125  1  0  0  0
 53 54  1  0  0  0
 54 55  2  0  0  0
 54126  1  0  0  0
 55 57  1  0  0  0
 55127  1  0  0  0
 56 69  2  0  0  0
 57 58  2  0  0  0
 57128  1  0  0  0
 58129  1  0  0  0
 59 60  1  0  0  0
 59 61  1  0  0  0
 59 62  1  0  0  0
 60130  1  0  0  0
 60131  1  0  0  0
 60132  1  0  0  0
 61133  1  0  0  0
 61134  1  0  0  0
 61135  1  0  0  0
 62136  1  0  0  0
 62137  1  0  0  0
 62138  1  0  0  0
 63 65  1  0  0  0
 63139  1  0  0  0
 63140  1  0  0  0
 63141  1  0  0  0
 64142  1  0  0  0
 65143  1  0  0  0
 68 82  1  0  0  0
 71 72  2  0  0  0
 71 74  1  0  0  0
 71144  1  0  0  0
 72 76  1  0  0  0
 72145  1  0  0  0
 73 75  1  0  0  0
 73 76  2  0  0  0
 73146  1  0  0  0
 74 78  2  0  0  0
 74147  1  0  0  0
 75 79  2  0  0  0
 75148  1  0  0  0
 76 77  1  0  0  0
 77 78  1  0  0  0
 77 80  2  0  0  0
 78 82  1  0  0  0
 79 80  1  0  0  0
 79 81  1  0  0  0
 80 84  1  0  0  0
 81 83  1  0  0  0
 81149  1  0  0  0
 81150  1  0  0  0
 82151  1  0  0  0
 82152  1  0  0  0
 83153  1  0  0  0
M  ISO  4   1 100  68 101  82 101  83 100
M  END
> <chiral flag>
0

> <version>
0

> <s_m_source_file>
/data/baiqing/PycharmProjects/Reinvent-master-3.2/result/LINK_invent/BTK/process_docking_weight1_custom_product_contain_oxygen_bond_distance_aromatic_linkinvent_7_9_3/rearranged_h_0028.sdf

> <i_m_source_file_index>
10

> <r_mmod_Potential_Energy-OPLS-2005>
850.256286621094

> <r_mmod_Stretch_Energy-OPLS-2005>
390.867889404297

> <r_mmod_Bend_Energy-OPLS-2005>
402.058288574219

> <r_mmod_Torsional_Energy-OPLS-2005>
213.676040649414

> <r_mmod_Improper_Torsional_Energy-OPLS-2005>
5.39634656906128

> <r_mmod_Van_der_Waal_Energy-OPLS-2005>
138.750717163086

> <r_mmod_Electrostatic_Energy-OPLS-2005>
-360.280426025391

> <r_mmod_Solvation_Energy-OPLS-2005>
-213.692199707031

> <b_mmod_Minimization_Converged-OPLS-2005>
0

> <r_mmod_RMS_Derivative-OPLS-2005>
10.7276468276978

$$$$
10
                    3D
 Structure written by MMmdl.
166175  0  0  1  0            999 V2000
  -30.6015  -14.7413   20.4824 C   0  0  0  0  0  0
  -30.4421  -12.4523   19.4912 C   0  0  0  0  0  0
  -29.5242  -12.5150   18.2491 C   0  0  0  0  0  0
  -28.0486  -12.3357   18.6571 C   0  0  0  0  0  0
  -27.6520  -13.2300   19.8616 C   0  0  2  0  0  0
  -28.6908  -13.1479   21.0043 C   0  0  0  0  0  0
  -25.2566  -13.8175   20.5690 C   0  0  0  0  0  0
  -24.1845  -13.0441   20.9189 C   0  0  0  0  0  0
  -24.6415  -11.6924   20.8729 C   0  0  0  0  0  0
  -23.9082  -10.4302   21.0402 C   0  0  0  0  0  0
  -24.3622   -9.4218   21.9199 C   0  0  0  0  0  0
  -23.6288   -8.2260   22.0775 C   0  0  0  0  0  0
  -22.4274   -8.0287   21.3559 C   0  0  0  0  0  0
  -21.9911   -9.0263   20.4661 C   0  0  0  0  0  0
  -22.7247  -10.2139   20.3069 C   0  0  0  0  0  0
  -21.6840   -6.0731   22.5294 C   0  0  0  0  0  0
  -21.4015   -6.5641   23.8227 C   0  0  0  0  0  0
  -21.3659   -5.6788   24.9179 C   0  0  0  0  0  0
  -21.6034   -4.3051   24.7230 C   0  0  0  0  0  0
  -21.8816   -3.8151   23.4354 C   0  0  0  0  0  0
  -21.9197   -4.6962   22.3410 C   0  0  0  0  0  0
  -22.7868  -13.5256   21.1832 C   0  0  0  0  0  0
  -22.1663   -4.2152   21.0978 F   0  0  0  0  0  0
  -21.5632   -3.4540   25.7738 F   0  0  0  0  0  0
  -30.0005  -13.5028   20.4421 N   0  0  0  0  0  0
  -26.2997  -12.9391   20.3312 N   0  0  0  0  0  0
  -25.9362  -11.6518   20.5786 N   0  0  0  0  0  0
  -22.0461  -12.8263   22.0334 N   0  0  0  0  0  0
  -25.4236  -15.1911   20.4106 N   0  0  0  0  0  0
  -31.7531  -14.8780   20.0634 O   0  0  0  0  0  0
  -21.6645   -6.8881   21.4253 O   0  0  0  0  0  0
  -22.3569  -14.5559   20.6647 O   0  0  0  0  0  0
  -24.6355  -31.8535   23.1956 C   0  0  0  0  0  0
  -25.9194  -32.4740   23.8305 C   0  0  1  0  0  0
  -27.2204  -27.2468   20.1494 C   0  0  0  0  0  0
  -25.5968  -33.8534   24.2264 N   0  0  0  0  0  0
  -23.4296  -30.4804   21.5389 C   0  0  2  0  0  0
  -24.8738  -28.9170   20.1199 C   0  0  0  0  0  0
  -22.7485  -29.4672   22.4927 C   0  0  0  0  0  0
  -18.0309  -28.1408   22.8355 C   0  0  0  0  0  0
  -24.1487  -36.7288   23.2644 C   0  0  0  0  0  0
  -25.9769  -30.7672   21.3696 C   0  0  0  0  0  0
  -26.0497  -29.3857   20.7215 C   0  0  0  0  0  0
  -27.2297  -28.5701   20.7139 C   0  0  0  0  0  0
  -26.0109  -26.8389   19.5446 C   0  0  0  0  0  0
  -24.8619  -27.6519   19.5169 C   0  0  0  0  0  0
  -23.6440  -29.8021   20.1610 C   0  0  0  0  0  0
  -25.4098  -36.3050   24.0333 C   0  0  1  0  0  0
  -20.5879  -28.3727   23.1229 C   0  0  2  0  0  0
  -20.6789  -26.9470   22.5264 C   0  0  0  0  0  0
  -19.5803  -26.6452   21.5047 C   0  0  0  0  0  0
  -18.1976  -26.7998   22.1406 C   0  0  0  0  0  0
  -19.1531  -28.8838   23.2857 C   0  0  0  0  0  0
  -18.9410  -30.1354   23.9024 C   0  0  0  0  0  0
  -17.6397  -30.6464   24.0683 C   0  0  0  0  0  0
  -25.9029  -34.9425   23.5084 C   0  0  0  0  0  0
  -16.5308  -29.9026   23.6283 C   0  0  0  0  0  0
  -16.7302  -28.6509   23.0213 C   0  0  0  0  0  0
  -26.4554  -31.6551   25.0686 C   0  0  0  0  0  0
  -25.3788  -31.3717   26.1421 C   0  0  0  0  0  0
  -27.0418  -30.2972   24.6170 C   0  0  0  0  0  0
  -27.6079  -32.4330   25.7481 C   0  0  0  0  0  0
  -27.5572  -37.1794   24.8466 C   0  0  0  0  0  0
  -21.4187  -29.3142   22.3671 N   0  0  0  0  0  0
  -26.4283  -37.3749   23.9399 N   0  0  0  0  0  0
  -24.7013  -31.0512   22.0924 N   0  0  0  0  0  0
  -23.4159  -28.8227   23.3078 O   0  0  0  0  0  0
  -28.3356  -26.3719   20.1189 O   0  0  0  0  0  0
  -26.5627  -34.8914   22.4666 O   0  0  0  0  0  0
  -23.5505  -32.1375   23.7245 O   0  0  0  0  0  0
  -25.9944  -23.0816   19.3277 C   0  0  0  0  0  0
  -25.8500  -22.3235   20.5044 C   0  0  0  0  0  0
  -27.2437  -23.6606   19.0135 C   0  0  0  0  0  0
  -28.2682  -23.6125   19.9844 C   0  0  0  0  0  0
  -28.2694  -22.3464   20.7346 C   0  0  0  0  0  0
  -27.0052  -21.8990   21.1853 C   0  0  0  0  0  0
  -28.5696  -18.5270   18.3041 C   0  0  0  0  0  0
  -28.6179  -17.2361   19.1327 C   0  0  0  0  0  0
  -28.3689  -19.7723   19.1875 C   0  0  0  0  0  0
  -29.6430  -18.6043   21.0083 C   0  0  0  0  0  0
  -29.7872  -17.2371   20.1342 C   0  0  1  0  0  0
  -27.4314  -24.4067   17.7028 C   0  0  0  0  0  0
  -29.4654  -21.3011   20.9119 C   0  0  0  0  0  0
  -28.3007  -25.0108   20.7759 C   0  0  0  0  0  0
  -29.8122  -15.8445   20.7850 N   0  0  0  0  0  0
  -29.4434  -19.9157   20.2072 N   0  3  2  0  0  0
  -26.8552  -20.6899   22.4134 Cl  0  0  0  0  0  0
  -31.4842  -12.5783   19.1906 H   0  0  0  0  0  0
  -30.3875  -11.4715   19.9620 H   0  0  0  0  0  0
  -29.8097  -11.7470   17.5309 H   0  0  0  0  0  0
  -29.6544  -13.4745   17.7443 H   0  0  0  0  0  0
  -27.9069  -11.2870   18.9154 H   0  0  0  0  0  0
  -27.3947  -12.5329   17.8061 H   0  0  0  0  0  0
  -27.6519  -14.2549   19.4882 H   0  0  0  0  0  0
  -28.7254  -12.1464   21.4351 H   0  0  0  0  0  0
  -28.4215  -13.8193   21.8208 H   0  0  0  0  0  0
  -25.2756   -9.5688   22.4794 H   0  0  0  0  0  0
  -23.9977   -7.4658   22.7515 H   0  0  0  0  0  0
  -21.0841   -8.8795   19.8977 H   0  0  0  0  0  0
  -22.3710  -10.9681   19.6196 H   0  0  0  0  0  0
  -21.2001   -7.6152   23.9723 H   0  0  0  0  0  0
  -21.1479   -6.0523   25.9080 H   0  0  0  0  0  0
  -22.0590   -2.7621   23.2852 H   0  0  0  0  0  0
  -22.4018  -11.9919   22.4759 H   0  0  0  0  0  0
  -21.1090  -13.1380   22.2505 H   0  0  0  0  0  0
  -24.6510  -15.8388   20.5117 H   0  0  0  0  0  0
  -26.2614  -15.6251   20.0487 H   0  0  0  0  0  0
  -26.7296  -32.5404   23.1081 H   0  0  0  0  0  0
  -25.0087  -33.9619   25.0410 H   0  0  0  0  0  0
  -22.7311  -31.3058   21.3858 H   0  0  0  0  0  0
  -23.3719  -35.9648   23.3281 H   0  0  0  0  0  0
  -24.3604  -36.8928   22.2063 H   0  0  0  0  0  0
  -23.7269  -37.6503   23.6681 H   0  0  0  0  0  0
  -26.1068  -31.5174   20.5881 H   0  0  0  0  0  0
  -26.8597  -30.8274   21.9958 H   0  0  0  0  0  0
  -28.1384  -28.9356   21.1776 H   0  0  0  0  0  0
  -25.9196  -25.8652   19.1003 H   0  0  0  0  0  0
  -23.9635  -27.2832   19.0429 H   0  0  0  0  0  0
  -23.7600  -30.5698   19.3947 H   0  0  0  0  0  0
  -22.7618  -29.2278   19.8691 H   0  0  0  0  0  0
  -25.1273  -36.1884   25.0828 H   0  0  0  0  0  0
  -20.9956  -28.3210   24.1349 H   0  0  0  0  0  0
  -20.5769  -26.2333   23.3462 H   0  0  0  0  0  0
  -21.6631  -26.7595   22.0966 H   0  0  0  0  0  0
  -19.7021  -25.6387   21.1009 H   0  0  0  0  0  0
  -19.6772  -27.3322   20.6638 H   0  0  0  0  0  0
  -17.4222  -26.6884   21.3804 H   0  0  0  0  0  0
  -18.0315  -26.0050   22.8661 H   0  0  0  0  0  0
  -19.7821  -30.7084   24.2621 H   0  0  0  0  0  0
  -17.4925  -31.6035   24.5466 H   0  0  0  0  0  0
  -15.5306  -30.2919   23.7618 H   0  0  0  0  0  0
  -15.8735  -28.0848   22.6844 H   0  0  0  0  0  0
  -24.5943  -30.7082   25.7783 H   0  0  0  0  0  0
  -24.8999  -32.2890   26.4847 H   0  0  0  0  0  0
  -25.8087  -30.8915   27.0209 H   0  0  0  0  0  0
  -26.2993  -29.6688   24.1237 H   0  0  0  0  0  0
  -27.4178  -29.7252   25.4657 H   0  0  0  0  0  0
  -27.8834  -30.4249   23.9353 H   0  0  0  0  0  0
  -27.2645  -33.3633   26.2020 H   0  0  0  0  0  0
  -28.3906  -32.6893   25.0334 H   0  0  0  0  0  0
  -28.0761  -31.8511   26.5433 H   0  0  0  0  0  0
  -28.2572  -38.0105   24.7493 H   0  0  0  0  0  0
  -28.1066  -36.2621   24.6280 H   0  0  0  0  0  0
  -27.2294  -37.1451   25.8877 H   0  0  0  0  0  0
  -20.9326  -29.8752   21.6817 H   0  0  0  0  0  0
  -26.0139  -38.2824   24.1376 H   0  0  0  0  0  0
  -25.1352  -23.2389   18.6899 H   0  0  0  0  0  0
  -24.8825  -21.9352   20.7861 H   0  0  0  0  0  0
  -27.7478  -18.4684   17.5887 H   0  0  0  0  0  0
  -29.4776  -18.6245   17.7079 H   0  0  0  0  0  0
  -28.6914  -16.3790   18.4621 H   0  0  0  0  0  0
  -27.6768  -17.1276   19.6733 H   0  0  0  0  0  0
  -27.3990  -19.7097   19.6809 H   0  0  0  0  0  0
  -28.3435  -20.6594   18.5529 H   0  0  0  0  0  0
  -30.5307  -18.7159   21.6303 H   0  0  0  0  0  0
  -28.8062  -18.4969   21.6999 H   0  0  0  0  0  0
  -30.7130  -17.3258   19.5625 H   0  0  0  0  0  0
  -26.4687  -24.5910   17.2220 H   0  0  0  0  0  0
  -28.0409  -23.8098   17.0265 H   0  0  0  0  0  0
  -27.9324  -25.3662   17.8338 H   0  0  0  0  0  0
  -29.6230  -21.1375   21.9810 H   0  0  0  0  0  0
  -30.3750  -21.8024   20.5733 H   0  0  0  0  0  0
  -29.1761  -24.9629   21.4235 H   0  0  0  0  0  0
  -27.4566  -25.0017   21.4657 H   0  0  0  0  0  0
  -28.9522  -15.5930   21.2513 H   0  0  0  0  0  0
  -30.2920  -19.9668   19.6581 H   0  0  0  0  0  0
  1 25  1  0  0  0
  1 30  2  0  0  0
  1 85  1  0  0  0
  2  3  1  0  0  0
  2 25  1  0  0  0
  2 88  1  0  0  0
  2 89  1  0  0  0
  3  4  1  0  0  0
  3 90  1  0  0  0
  3 91  1  0  0  0
  4  5  1  0  0  0
  4 92  1  0  0  0
  4 93  1  0  0  0
  5  6  1  0  0  0
  5 26  1  0  0  0
  5 94  1  0  0  0
  6 25  1  0  0  0
  6 95  1  0  0  0
  6 96  1  0  0  0
  7  8  2  0  0  0
  7 26  1  0  0  0
  7 29  1  0  0  0
  8  9  1  0  0  0
  8 22  1  0  0  0
  9 10  1  0  0  0
  9 27  2  0  0  0
 10 11  2  0  0  0
 10 15  1  0  0  0
 11 12  1  0  0  0
 11 97  1  0  0  0
 12 13  2  0  0  0
 12 98  1  0  0  0
 13 14  1  0  0  0
 13 31  1  0  0  0
 14 15  2  0  0  0
 14 99  1  0  0  0
 15100  1  0  0  0
 16 17  2  0  0  0
 16 21  1  0  0  0
 16 31  1  0  0  0
 17 18  1  0  0  0
 17101  1  0  0  0
 18 19  2  0  0  0
 18102  1  0  0  0
 19 20  1  0  0  0
 19 24  1  0  0  0
 20 21  2  0  0  0
 20103  1  0  0  0
 21 23  1  0  0  0
 22 28  1  0  0  0
 22 32  2  0  0  0
 26 27  1  0  0  0
 28104  1  0  0  0
 28105  1  0  0  0
 29106  1  0  0  0
 29107  1  0  0  0
 33 34  1  0  0  0
 33 66  1  0  0  0
 33 70  2  0  0  0
 34 36  1  0  0  0
 34 59  1  0  0  0
 34108  1  0  0  0
 35 44  2  0  0  0
 35 45  1  0  0  0
 35 68  1  0  0  0
 36 56  1  0  0  0
 36109  1  0  0  0
 37 39  1  0  0  0
 37 47  1  0  0  0
 37 66  1  0  0  0
 37110  1  0  0  0
 38 43  2  0  0  0
 38 46  1  0  0  0
 38 47  1  0  0  0
 39 64  1  0  0  0
 39 67  2  0  0  0
 40 52  1  0  0  0
 40 53  2  0  0  0
 40 58  1  0  0  0
 41111  1  0  0  0
 41112  1  0  0  0
 41113  1  0  0  0
 41 48  1  0  0  0
 42 43  1  0  0  0
 42 66  1  0  0  0
 42114  1  0  0  0
 42115  1  0  0  0
 43 44  1  0  0  0
 44116  1  0  0  0
 45 46  2  0  0  0
 45117  1  0  0  0
 46118  1  0  0  0
 47119  1  0  0  0
 47120  1  0  0  0
 48 56  1  0  0  0
 48 65  1  0  0  0
 48121  1  0  0  0
 49 50  1  0  0  0
 49 53  1  0  0  0
 49 64  1  0  0  0
 49122  1  0  0  0
 50 51  1  0  0  0
 50123  1  0  0  0
 50124  1  0  0  0
 51 52  1  0  0  0
 51125  1  0  0  0
 51126  1  0  0  0
 52127  1  0  0  0
 52128  1  0  0  0
 53 54  1  0  0  0
 54 55  2  0  0  0
 54129  1  0  0  0
 55 57  1  0  0  0
 55130  1  0  0  0
 56 69  2  0  0  0
 57 58  2  0  0  0
 57131  1  0  0  0
 58132  1  0  0  0
 59 60  1  0  0  0
 59 61  1  0  0  0
 59 62  1  0  0  0
 60133  1  0  0  0
 60134  1  0  0  0
 60135  1  0  0  0
 61136  1  0  0  0
 61137  1  0  0  0
 61138  1  0  0  0
 62139  1  0  0  0
 62140  1  0  0  0
 62141  1  0  0  0
 63 65  1  0  0  0
 63142  1  0  0  0
 63143  1  0  0  0
 63144  1  0  0  0
 64145  1  0  0  0
 65146  1  0  0  0
 68 84  1  0  0  0
 71 72  2  0  0  0
 71 73  1  0  0  0
 71147  1  0  0  0
 72 76  1  0  0  0
 72148  1  0  0  0
 73 74  2  0  0  0
 73 82  1  0  0  0
 74 75  1  0  0  0
 74 84  1  0  0  0
 75 76  2  0  0  0
 75 83  1  0  0  0
 76 87  1  0  0  0
 77 78  1  0  0  0
 77 79  1  0  0  0
 77149  1  0  0  0
 77150  1  0  0  0
 78 81  1  0  0  0
 78151  1  0  0  0
 78152  1  0  0  0
 79 86  1  0  0  0
 79153  1  0  0  0
 79154  1  0  0  0
 80 81  1  0  0  0
 80 86  1  0  0  0
 80155  1  0  0  0
 80156  1  0  0  0
 81 85  1  0  0  0
 81157  1  0  0  0
 82158  1  0  0  0
 82159  1  0  0  0
 82160  1  0  0  0
 83161  1  0  0  0
 83162  1  0  0  0
 83 86  1  0  0  0
 84163  1  0  0  0
 84164  1  0  0  0
 85165  1  0  0  0
 86166  1  0  0  0
M  CHG  1  86   1
M  ISO  4   1 100  68 101  84 101  85 100
M  END
> <chiral flag>
0

> <version>
0

> <s_m_source_file>
/data/baiqing/PycharmProjects/Reinvent-master-3.2/result/LINK_invent/BTK/process_docking_weight1_custom_product_contain_oxygen_bond_distance_aromatic_linkinvent_7_9_3/rearranged_h_0028.sdf

> <i_m_source_file_index>
11

> <r_mmod_Potential_Energy-OPLS-2005>
299.330902099609

> <r_mmod_Stretch_Energy-OPLS-2005>
142.530426025391

> <r_mmod_Bend_Energy-OPLS-2005>
200.226440429688

> <r_mmod_Torsional_Energy-OPLS-2005>
474.310180664062

> <r_mmod_Improper_Torsional_Energy-OPLS-2005>
27.7931671142578

> <r_mmod_Van_der_Waal_Energy-OPLS-2005>
131.024078369141

> <r_mmod_Electrostatic_Energy-OPLS-2005>
-315.172515869141

> <r_mmod_Solvation_Energy-OPLS-2005>
-444.703796386719

> <b_mmod_Minimization_Converged-OPLS-2005>
0

> <r_mmod_RMS_Derivative-OPLS-2005>
5.21095609664917

$$$$
11
                    3D
 Structure written by MMmdl.
157166  0  0  1  0            999 V2000
  -30.5101  -15.0301   20.4363 C   0  0  0  0  0  0
  -30.4580  -12.6548   19.5016 C   0  0  0  0  0  0
  -29.5308  -12.5163   18.2684 C   0  0  0  0  0  0
  -28.0744  -12.2752   18.7106 C   0  0  0  0  0  0
  -27.6314  -13.2421   19.8390 C   0  0  2  0  0  0
  -28.6729  -13.3046   20.9728 C   0  0  0  0  0  0
  -25.2477  -13.8191   20.5749 C   0  0  0  0  0  0
  -24.1779  -13.0424   20.9234 C   0  0  0  0  0  0
  -24.6408  -11.6912   20.8782 C   0  0  0  0  0  0
  -23.9096  -10.4289   21.0444 C   0  0  0  0  0  0
  -24.3633   -9.4191   21.9209 C   0  0  0  0  0  0
  -23.6293   -8.2236   22.0765 C   0  0  0  0  0  0
  -22.4273   -8.0291   21.3557 C   0  0  0  0  0  0
  -21.9931   -9.0271   20.4657 C   0  0  0  0  0  0
  -22.7282  -10.2135   20.3080 C   0  0  0  0  0  0
  -21.6848   -6.0738   22.5284 C   0  0  0  0  0  0
  -21.4005   -6.5639   23.8216 C   0  0  0  0  0  0
  -21.3656   -5.6788   24.9173 C   0  0  0  0  0  0
  -21.6036   -4.3052   24.7225 C   0  0  0  0  0  0
  -21.8827   -3.8146   23.4351 C   0  0  0  0  0  0
  -21.9200   -4.6965   22.3406 C   0  0  0  0  0  0
  -22.7797  -13.5190   21.1873 C   0  0  0  0  0  0
  -22.1664   -4.2152   21.0991 F   0  0  0  0  0  0
  -21.5649   -3.4547   25.7745 F   0  0  0  0  0  0
  -29.9269  -13.7592   20.3604 N   0  0  0  0  0  0
  -26.2906  -12.9415   20.3295 N   0  0  0  0  0  0
  -25.9346  -11.6548   20.5782 N   0  0  0  0  0  0
  -22.0441  -12.8176   22.0424 N   0  0  0  0  0  0
  -25.4138  -15.1919   20.4204 N   0  0  0  0  0  0
  -31.7232  -15.0700   20.1911 O   0  0  0  0  0  0
  -21.6628   -6.8894   21.4248 O   0  0  0  0  0  0
  -22.3501  -14.5501   20.6727 O   0  0  0  0  0  0
  -24.6463  -31.8379   23.1828 C   0  0  0  0  0  0
  -25.9200  -32.4672   23.8247 C   0  0  1  0  0  0
  -27.2164  -27.0803   20.1726 C   0  0  0  0  0  0
  -25.5922  -33.8474   24.2151 N   0  0  0  0  0  0
  -23.4549  -30.4546   21.5282 C   0  0  2  0  0  0
  -24.9101  -28.8720   20.1107 C   0  0  0  0  0  0
  -22.7576  -29.4499   22.4815 C   0  0  0  0  0  0
  -18.0326  -28.1357   22.8484 C   0  0  0  0  0  0
  -24.1502  -36.7243   23.2650 C   0  0  0  0  0  0
  -26.0154  -30.6932   21.3959 C   0  0  0  0  0  0
  -26.0849  -29.3009   20.7366 C   0  0  0  0  0  0
  -27.2376  -28.4209   20.7507 C   0  0  0  0  0  0
  -26.0124  -26.7658   19.5032 C   0  0  0  0  0  0
  -24.8896  -27.6212   19.4753 C   0  0  0  0  0  0
  -23.6887  -29.7793   20.1497 C   0  0  0  0  0  0
  -25.4138  -36.3013   24.0317 C   0  0  1  0  0  0
  -20.5915  -28.3689   23.1234 C   0  0  2  0  0  0
  -20.6769  -26.9370   22.5393 C   0  0  0  0  0  0
  -19.5756  -26.6344   21.5213 C   0  0  0  0  0  0
  -18.1950  -26.7886   22.1649 C   0  0  0  0  0  0
  -19.1581  -28.8828   23.2854 C   0  0  0  0  0  0
  -18.9499  -30.1430   23.8839 C   0  0  0  0  0  0
  -17.6512  -30.6569   24.0540 C   0  0  0  0  0  0
  -25.9084  -34.9390   23.5051 C   0  0  0  0  0  0
  -16.5390  -29.9066   23.6328 C   0  0  0  0  0  0
  -16.7318  -28.6478   23.0372 C   0  0  0  0  0  0
  -26.4521  -31.6553   25.0714 C   0  0  0  0  0  0
  -25.3688  -31.3755   26.1392 C   0  0  0  0  0  0
  -27.0416  -30.2944   24.6367 C   0  0  0  0  0  0
  -27.6043  -32.4342   25.7498 C   0  0  0  0  0  0
  -27.5586  -37.1789   24.8466 C   0  0  0  0  0  0
  -21.4250  -29.3039   22.3598 N   0  0  0  0  0  0
  -26.4309  -37.3727   23.9400 N   0  0  0  0  0  0
  -24.7245  -31.0199   22.0886 N   0  0  0  0  0  0
  -23.4191  -28.8070   23.3002 O   0  0  0  0  0  0
  -28.2577  -26.0684   20.2641 O   0  0  0  0  0  0
  -26.5677  -34.8897   22.4652 O   0  0  0  0  0  0
  -23.5563  -32.1272   23.7019 O   0  0  0  0  0  0
  -30.7867  -18.1584   23.0765 C   0  0  0  0  0  0
  -31.0909  -17.7688   21.7563 C   0  0  0  0  0  0
  -29.4902  -18.6142   23.3812 C   0  0  0  0  0  0
  -29.0946  -18.9272   21.0022 C   0  0  0  0  0  0
  -30.0425  -17.7454   20.8073 C   0  0  0  0  0  0
  -28.6225  -18.9826   22.3376 C   0  0  0  0  0  0
  -27.0591  -23.8304   21.0531 C   0  0  0  0  0  0
  -27.1794  -22.2708   20.8490 C   0  0  0  0  0  0
  -29.1470  -23.2524   20.1093 C   0  0  0  0  0  0
  -28.0396  -24.5068   20.0830 C   0  0  2  0  0  0
  -29.0097  -20.4049   20.1762 C   0  0  0  0  0  0
  -29.7229  -16.2398   20.5322 N   0  0  0  0  0  0
  -28.6205  -21.8929   20.7193 N   0  3  2  0  0  0
  -27.0529  -19.5557   22.7528 Cl  0  0  0  0  0  0
  -31.4787  -12.8550   19.1701 H   0  0  0  0  0  0
  -30.5132  -11.7240   20.0677 H   0  0  0  0  0  0
  -29.8721  -11.6955   17.6335 H   0  0  0  0  0  0
  -29.5859  -13.4204   17.6602 H   0  0  0  0  0  0
  -28.0203  -11.2495   19.0785 H   0  0  0  0  0  0
  -27.3934  -12.3349   17.8608 H   0  0  0  0  0  0
  -27.5897  -14.2325   19.3869 H   0  0  0  0  0  0
  -28.7875  -12.3268   21.4475 H   0  0  0  0  0  0
  -28.3637  -13.9993   21.7544 H   0  0  0  0  0  0
  -25.2793   -9.5627   22.4768 H   0  0  0  0  0  0
  -23.9995   -7.4610   22.7463 H   0  0  0  0  0  0
  -21.0877   -8.8806   19.8948 H   0  0  0  0  0  0
  -22.3781  -10.9670   19.6171 H   0  0  0  0  0  0
  -21.1986   -7.6149   23.9710 H   0  0  0  0  0  0
  -21.1458   -6.0529   25.9072 H   0  0  0  0  0  0
  -22.0608   -2.7617   23.2861 H   0  0  0  0  0  0
  -22.4076  -11.9827   22.4791 H   0  0  0  0  0  0
  -21.1047  -13.1158   22.2649 H   0  0  0  0  0  0
  -24.6480  -15.8430   20.5549 H   0  0  0  0  0  0
  -26.2609  -15.6379   20.0956 H   0  0  0  0  0  0
  -26.7271  -32.5265   23.0974 H   0  0  0  0  0  0
  -25.0004  -33.9571   25.0247 H   0  0  0  0  0  0
  -22.7582  -31.2807   21.3666 H   0  0  0  0  0  0
  -23.3777  -35.9564   23.3297 H   0  0  0  0  0  0
  -24.3580  -36.8903   22.2069 H   0  0  0  0  0  0
  -23.7251  -37.6437   23.6696 H   0  0  0  0  0  0
  -26.1795  -31.4482   20.6261 H   0  0  0  0  0  0
  -26.8811  -30.7411   22.0468 H   0  0  0  0  0  0
  -28.1324  -28.7414   21.2680 H   0  0  0  0  0  0
  -25.8969  -25.8094   19.0151 H   0  0  0  0  0  0
  -23.9891  -27.2916   18.9753 H   0  0  0  0  0  0
  -23.8255  -30.5500   19.3888 H   0  0  0  0  0  0
  -22.8056  -29.2150   19.8432 H   0  0  0  0  0  0
  -25.1336  -36.1855   25.0815 H   0  0  0  0  0  0
  -21.0030  -28.3235   24.1335 H   0  0  0  0  0  0
  -20.5642  -26.2283   23.3623 H   0  0  0  0  0  0
  -21.6629  -26.7353   22.1217 H   0  0  0  0  0  0
  -19.6875  -25.6283   21.1186 H   0  0  0  0  0  0
  -19.6659  -27.3205   20.6783 H   0  0  0  0  0  0
  -17.4201  -26.6602   21.4081 H   0  0  0  0  0  0
  -18.0426  -26.0046   22.9079 H   0  0  0  0  0  0
  -19.8003  -30.7261   24.2156 H   0  0  0  0  0  0
  -17.5098  -31.6227   24.5168 H   0  0  0  0  0  0
  -15.5388  -30.2946   23.7700 H   0  0  0  0  0  0
  -15.8729  -28.0732   22.7143 H   0  0  0  0  0  0
  -24.5866  -30.7114   25.7682 H   0  0  0  0  0  0
  -24.8873  -32.2939   26.4754 H   0  0  0  0  0  0
  -25.7942  -30.8949   27.0206 H   0  0  0  0  0  0
  -26.3047  -29.6630   24.1393 H   0  0  0  0  0  0
  -27.4003  -29.7294   25.4972 H   0  0  0  0  0  0
  -27.8952  -30.4152   23.9701 H   0  0  0  0  0  0
  -27.2621  -33.3664   26.2007 H   0  0  0  0  0  0
  -28.3879  -32.6894   25.0343 H   0  0  0  0  0  0
  -28.0682  -31.8531   26.5481 H   0  0  0  0  0  0
  -28.2608  -38.0085   24.7516 H   0  0  0  0  0  0
  -28.1094  -36.2620   24.6303 H   0  0  0  0  0  0
  -27.2295  -37.1430   25.8869 H   0  0  0  0  0  0
  -20.9434  -29.8760   21.6802 H   0  0  0  0  0  0
  -26.0182  -38.2809   24.1388 H   0  0  0  0  0  0
  -31.4883  -17.9643   23.8760 H   0  0  0  0  0  0
  -31.9732  -17.1556   21.6403 H   0  0  0  0  0  0
  -29.1842  -18.7365   24.4131 H   0  0  0  0  0  0
  -27.3336  -24.0883   22.0765 H   0  0  0  0  0  0
  -26.0373  -24.1809   20.9060 H   0  0  0  0  0  0
  -26.6537  -21.9778   19.9378 H   0  0  0  0  0  0
  -26.6759  -21.7827   21.6727 H   0  0  0  0  0  0
  -30.0274  -23.5569   20.6764 H   0  0  0  0  0  0
  -29.4976  -23.0711   19.0931 H   0  0  0  0  0  0
  -27.5969  -24.4250   19.0902 H   0  0  0  0  0  0
  -28.3814  -20.2278   19.3019 H   0  0  0  0  0  0
  -30.0145  -20.5229   19.7695 H   0  0  0  0  0  0
  -28.7336  -16.0429   20.4986 H   0  0  0  0  0  0
  -28.9817  -21.9028   21.6625 H   0  0  0  0  0  0
  1 25  1  0  0  0
  1 30  2  0  0  0
  1 82  1  0  0  0
  2  3  1  0  0  0
  2 25  1  0  0  0
  2 85  1  0  0  0
  2 86  1  0  0  0
  3  4  1  0  0  0
  3 87  1  0  0  0
  3 88  1  0  0  0
  4  5  1  0  0  0
  4 89  1  0  0  0
  4 90  1  0  0  0
  5  6  1  0  0  0
  5 26  1  0  0  0
  5 91  1  0  0  0
  6 25  1  0  0  0
  6 92  1  0  0  0
  6 93  1  0  0  0
  7  8  2  0  0  0
  7 26  1  0  0  0
  7 29  1  0  0  0
  8  9  1  0  0  0
  8 22  1  0  0  0
  9 10  1  0  0  0
  9 27  2  0  0  0
 10 11  2  0  0  0
 10 15  1  0  0  0
 11 12  1  0  0  0
 11 94  1  0  0  0
 12 13  2  0  0  0
 12 95  1  0  0  0
 13 14  1  0  0  0
 13 31  1  0  0  0
 14 15  2  0  0  0
 14 96  1  0  0  0
 15 97  1  0  0  0
 16 17  2  0  0  0
 16 21  1  0  0  0
 16 31  1  0  0  0
 17 18  1  0  0  0
 17 98  1  0  0  0
 18 19  2  0  0  0
 18 99  1  0  0  0
 19 20  1  0  0  0
 19 24  1  0  0  0
 20 21  2  0  0  0
 20100  1  0  0  0
 21 23  1  0  0  0
 22 28  1  0  0  0
 22 32  2  0  0  0
 26 27  1  0  0  0
 28101  1  0  0  0
 28102  1  0  0  0
 29103  1  0  0  0
 29104  1  0  0  0
 33 34  1  0  0  0
 33 66  1  0  0  0
 33 70  2  0  0  0
 34 36  1  0  0  0
 34 59  1  0  0  0
 34105  1  0  0  0
 35 44  2  0  0  0
 35 45  1  0  0  0
 35 68  1  0  0  0
 36 56  1  0  0  0
 36106  1  0  0  0
 37 39  1  0  0  0
 37 47  1  0  0  0
 37 66  1  0  0  0
 37107  1  0  0  0
 38 43  2  0  0  0
 38 46  1  0  0  0
 38 47  1  0  0  0
 39 64  1  0  0  0
 39 67  2  0  0  0
 40 52  1  0  0  0
 40 53  2  0  0  0
 40 58  1  0  0  0
 41108  1  0  0  0
 41109  1  0  0  0
 41110  1  0  0  0
 41 48  1  0  0  0
 42 43  1  0  0  0
 42 66  1  0  0  0
 42111  1  0  0  0
 42112  1  0  0  0
 43 44  1  0  0  0
 44113  1  0  0  0
 45 46  2  0  0  0
 45114  1  0  0  0
 46115  1  0  0  0
 47116  1  0  0  0
 47117  1  0  0  0
 48 56  1  0  0  0
 48 65  1  0  0  0
 48118  1  0  0  0
 49 50  1  0  0  0
 49 53  1  0  0  0
 49 64  1  0  0  0
 49119  1  0  0  0
 50 51  1  0  0  0
 50120  1  0  0  0
 50121  1  0  0  0
 51 52  1  0  0  0
 51122  1  0  0  0
 51123  1  0  0  0
 52124  1  0  0  0
 52125  1  0  0  0
 53 54  1  0  0  0
 54 55  2  0  0  0
 54126  1  0  0  0
 55 57  1  0  0  0
 55127  1  0  0  0
 56 69  2  0  0  0
 57 58  2  0  0  0
 57128  1  0  0  0
 58129  1  0  0  0
 59 60  1  0  0  0
 59 61  1  0  0  0
 59 62  1  0  0  0
 60130  1  0  0  0
 60131  1  0  0  0
 60132  1  0  0  0
 61133  1  0  0  0
 61134  1  0  0  0
 61135  1  0  0  0
 62136  1  0  0  0
 62137  1  0  0  0
 62138  1  0  0  0
 63 65  1  0  0  0
 63139  1  0  0  0
 63140  1  0  0  0
 63141  1  0  0  0
 64142  1  0  0  0
 65143  1  0  0  0
 68 80  1  0  0  0
 71 72  2  0  0  0
 71 73  1  0  0  0
 71144  1  0  0  0
 72 75  1  0  0  0
 72145  1  0  0  0
 73 76  2  0  0  0
 73146  1  0  0  0
 74 75  2  0  0  0
 74 76  1  0  0  0
 74 81  1  0  0  0
 75 82  1  0  0  0
 76 84  1  0  0  0
 77 78  1  0  0  0
 77 80  1  0  0  0
 77147  1  0  0  0
 77148  1  0  0  0
 78 83  1  0  0  0
 78149  1  0  0  0
 78150  1  0  0  0
 79 80  1  0  0  0
 79 83  1  0  0  0
 79151  1  0  0  0
 79152  1  0  0  0
 80153  1  0  0  0
 81154  1  0  0  0
 81155  1  0  0  0
 81 83  1  0  0  0
 82156  1  0  0  0
 83157  1  0  0  0
M  CHG  1  83   1
M  ISO  4   1 100  68 101  80 101  82 100
M  END
> <chiral flag>
0

> <version>
0

> <s_m_source_file>
/data/baiqing/PycharmProjects/Reinvent-master-3.2/result/LINK_invent/BTK/process_docking_weight1_custom_product_contain_oxygen_bond_distance_aromatic_linkinvent_7_9_3/rearranged_h_0028.sdf

> <i_m_source_file_index>
12

> <r_mmod_Potential_Energy-OPLS-2005>
890.858581542969

> <r_mmod_Stretch_Energy-OPLS-2005>
340.294982910156

> <r_mmod_Bend_Energy-OPLS-2005>
351.314300537109

> <r_mmod_Torsional_Energy-OPLS-2005>
495.563812255859

> <r_mmod_Improper_Torsional_Energy-OPLS-2005>
29.7347106933594

> <r_mmod_Van_der_Waal_Energy-OPLS-2005>
133.962524414062

> <r_mmod_Electrostatic_Energy-OPLS-2005>
-275.076324462891

> <r_mmod_Solvation_Energy-OPLS-2005>
-436.853485107422

> <b_mmod_Minimization_Converged-OPLS-2005>
0

> <r_mmod_RMS_Derivative-OPLS-2005>
4.35206365585327

$$$$
12
                    3D
 Structure written by MMmdl.
161170  0  0  1  0            999 V2000
  -30.6398  -14.7614   20.4301 C   0  0  0  0  0  0
  -30.4297  -12.4618   19.4755 C   0  0  0  0  0  0
  -29.5152  -12.5020   18.2338 C   0  0  0  0  0  0
  -28.0373  -12.3410   18.6405 C   0  0  0  0  0  0
  -27.6415  -13.2403   19.8427 C   0  0  2  0  0  0
  -28.6918  -13.2026   20.9771 C   0  0  0  0  0  0
  -25.2525  -13.8210   20.5692 C   0  0  0  0  0  0
  -24.1838  -13.0452   20.9228 C   0  0  0  0  0  0
  -24.6418  -11.6937   20.8743 C   0  0  0  0  0  0
  -23.9076  -10.4313   21.0402 C   0  0  0  0  0  0
  -24.3619   -9.4225   21.9179 C   0  0  0  0  0  0
  -23.6300   -8.2256   22.0715 C   0  0  0  0  0  0
  -22.4280   -8.0285   21.3519 C   0  0  0  0  0  0
  -21.9916   -9.0247   20.4618 C   0  0  0  0  0  0
  -22.7235  -10.2142   20.3034 C   0  0  0  0  0  0
  -21.6861   -6.0733   22.5288 C   0  0  0  0  0  0
  -21.3995   -6.5619   23.8213 C   0  0  0  0  0  0
  -21.3688   -5.6772   24.9177 C   0  0  0  0  0  0
  -21.6066   -4.3031   24.7220 C   0  0  0  0  0  0
  -21.8824   -3.8126   23.4337 C   0  0  0  0  0  0
  -21.9193   -4.6954   22.3402 C   0  0  0  0  0  0
  -22.7864  -13.5238   21.1904 C   0  0  0  0  0  0
  -22.1641   -4.2154   21.0965 F   0  0  0  0  0  0
  -21.5690   -3.4509   25.7715 F   0  0  0  0  0  0
  -29.9904  -13.5453   20.3861 N   0  0  0  0  0  0
  -26.2941  -12.9429   20.3231 N   0  0  0  0  0  0
  -25.9346  -11.6578   20.5735 N   0  0  0  0  0  0
  -22.0517  -12.8184   22.0434 N   0  0  0  0  0  0
  -25.4258  -15.1920   20.4027 N   0  0  0  0  0  0
  -31.8377  -14.8006   20.1435 O   0  0  0  0  0  0
  -21.6648   -6.8875   21.4228 O   0  0  0  0  0  0
  -22.3550  -14.5561   20.6782 O   0  0  0  0  0  0
  -24.6306  -31.8528   23.1973 C   0  0  0  0  0  0
  -25.9135  -32.4738   23.8311 C   0  0  1  0  0  0
  -27.2194  -27.2653   20.1055 C   0  0  0  0  0  0
  -25.5943  -33.8538   24.2215 N   0  0  0  0  0  0
  -23.4259  -30.4797   21.5398 C   0  0  2  0  0  0
  -24.8683  -28.9234   20.1081 C   0  0  0  0  0  0
  -22.7484  -29.4627   22.4890 C   0  0  0  0  0  0
  -18.0273  -28.1416   22.8482 C   0  0  0  0  0  0
  -24.1485  -36.7278   23.2654 C   0  0  0  0  0  0
  -25.9716  -30.7643   21.3786 C   0  0  0  0  0  0
  -26.0370  -29.3893   20.7168 C   0  0  0  0  0  0
  -27.2098  -28.5692   20.7087 C   0  0  0  0  0  0
  -26.0174  -26.8572   19.4904 C   0  0  0  0  0  0
  -24.8619  -27.6635   19.4889 C   0  0  0  0  0  0
  -23.6430  -29.8138   20.1554 C   0  0  0  0  0  0
  -25.4114  -36.3039   24.0300 C   0  0  1  0  0  0
  -20.5885  -28.3726   23.1272 C   0  0  2  0  0  0
  -20.6791  -26.9455   22.5425 C   0  0  0  0  0  0
  -19.5757  -26.6413   21.5236 C   0  0  0  0  0  0
  -18.1923  -26.7953   22.1625 C   0  0  0  0  0  0
  -19.1528  -28.8884   23.2878 C   0  0  0  0  0  0
  -18.9447  -30.1487   23.8901 C   0  0  0  0  0  0
  -17.6447  -30.6616   24.0588 C   0  0  0  0  0  0
  -25.9068  -34.9425   23.5057 C   0  0  0  0  0  0
  -16.5346  -29.9120   23.6351 C   0  0  0  0  0  0
  -16.7259  -28.6535   23.0366 C   0  0  0  0  0  0
  -26.4516  -31.6579   25.0699 C   0  0  0  0  0  0
  -25.3764  -31.3685   26.1429 C   0  0  0  0  0  0
  -27.0420  -30.3005   24.6222 C   0  0  0  0  0  0
  -27.6062  -32.4355   25.7455 C   0  0  0  0  0  0
  -27.5562  -37.1769   24.8434 C   0  0  0  0  0  0
  -21.4185  -29.3069   22.3646 N   0  0  0  0  0  0
  -26.4258  -37.3755   23.9403 N   0  0  0  0  0  0
  -24.6950  -31.0521   22.0946 N   0  0  0  0  0  0
  -23.4160  -28.8172   23.3016 O   0  0  0  0  0  0
  -28.3627  -26.4374   20.1719 O   0  0  0  0  0  0
  -26.5653  -34.8903   22.4629 O   0  0  0  0  0  0
  -23.5457  -32.1367   23.7265 O   0  0  0  0  0  0
  -31.6012  -17.7895   20.5521 C   0  0  0  0  0  0
  -31.9815  -19.1465   20.5147 C   0  0  0  0  0  0
  -29.2776  -18.4826   20.4035 C   0  0  0  0  0  0
  -29.6527  -19.9006   20.3624 C   0  0  0  0  0  0
  -30.2437  -17.3847   20.4950 C   0  0  0  0  0  0
  -31.0346  -20.1839   20.4312 C   0  0  0  0  0  0
  -28.4742  -23.7402   20.4175 C   0  0  0  0  0  0
  -28.8243  -23.5353   17.5144 C   0  0  0  0  0  0
  -28.1038  -24.7618   18.1293 C   0  0  0  0  0  0
  -29.5660  -22.6304   18.5348 C   0  0  0  0  0  0
  -28.6064  -25.0797   19.5526 C   0  0  1  0  0  0
  -27.7927  -18.1480   20.3492 C   0  0  0  0  0  0
  -28.6072  -21.1151   20.3347 C   0  0  0  0  0  0
  -28.9065  -22.5406   19.8484 N   0  0  0  0  0  0
  -29.8851  -15.9293   20.5686 N   0  0  0  0  0  0
  -27.9570  -23.7880   21.5381 O   0  0  0  0  0  0
  -31.4748  -21.4623   20.4512 F   0  0  0  0  0  0
  -31.4711  -12.5677   19.1710 H   0  0  0  0  0  0
  -30.3653  -11.4945   19.9748 H   0  0  0  0  0  0
  -29.7978  -11.7158   17.5288 H   0  0  0  0  0  0
  -29.6583  -13.4499   17.7125 H   0  0  0  0  0  0
  -27.8810  -11.2933   18.8942 H   0  0  0  0  0  0
  -27.3847  -12.5458   17.7898 H   0  0  0  0  0  0
  -27.6258  -14.2616   19.4586 H   0  0  0  0  0  0
  -28.7297  -12.2177   21.4449 H   0  0  0  0  0  0
  -28.4313  -13.9174   21.7600 H   0  0  0  0  0  0
  -25.2743   -9.5730   22.4770 H   0  0  0  0  0  0
  -24.0043   -7.4620   22.7372 H   0  0  0  0  0  0
  -21.0867   -8.8718   19.8893 H   0  0  0  0  0  0
  -22.3643  -10.9672   19.6141 H   0  0  0  0  0  0
  -21.1926   -7.6112   23.9715 H   0  0  0  0  0  0
  -21.1546   -6.0495   25.9095 H   0  0  0  0  0  0
  -22.0588   -2.7597   23.2825 H   0  0  0  0  0  0
  -22.4062  -11.9758   22.4720 H   0  0  0  0  0  0
  -21.1169  -13.1248   22.2713 H   0  0  0  0  0  0
  -24.6666  -15.8577   20.5013 H   0  0  0  0  0  0
  -26.2549  -15.5986   19.9900 H   0  0  0  0  0  0
  -26.7192  -32.5366   23.1054 H   0  0  0  0  0  0
  -25.0052  -33.9685   25.0324 H   0  0  0  0  0  0
  -22.7243  -31.3040   21.3922 H   0  0  0  0  0  0
  -23.3726  -35.9624   23.3262 H   0  0  0  0  0  0
  -24.3587  -36.8991   22.2086 H   0  0  0  0  0  0
  -23.7231  -37.6455   23.6750 H   0  0  0  0  0  0
  -26.1167  -31.5272   20.6133 H   0  0  0  0  0  0
  -26.8475  -30.8022   22.0154 H   0  0  0  0  0  0
  -28.1060  -28.9240   21.1964 H   0  0  0  0  0  0
  -25.9202  -25.8945   19.0281 H   0  0  0  0  0  0
  -23.9605  -27.2967   19.0163 H   0  0  0  0  0  0
  -23.7733  -30.5894   19.3988 H   0  0  0  0  0  0
  -22.7601  -29.2513   19.8470 H   0  0  0  0  0  0
  -25.1305  -36.1861   25.0783 H   0  0  0  0  0  0
  -20.9966  -28.3328   24.1396 H   0  0  0  0  0  0
  -20.5726  -26.2357   23.3629 H   0  0  0  0  0  0
  -21.6647  -26.7532   22.1199 H   0  0  0  0  0  0
  -19.6943  -25.6321   21.1269 H   0  0  0  0  0  0
  -19.6699  -27.3220   20.6750 H   0  0  0  0  0  0
  -17.4233  -26.6722   21.4014 H   0  0  0  0  0  0
  -18.0311  -26.0089   22.8995 H   0  0  0  0  0  0
  -19.7927  -30.7310   24.2264 H   0  0  0  0  0  0
  -17.5010  -31.6288   24.5189 H   0  0  0  0  0  0
  -15.5352  -30.3043   23.7664 H   0  0  0  0  0  0
  -15.8642  -28.0870   22.7082 H   0  0  0  0  0  0
  -24.5914  -30.7075   25.7726 H   0  0  0  0  0  0
  -24.8994  -32.2841   26.4948 H   0  0  0  0  0  0
  -25.8106  -30.8782   27.0140 H   0  0  0  0  0  0
  -26.3008  -29.6662   24.1338 H   0  0  0  0  0  0
  -27.4201  -29.7373   25.4765 H   0  0  0  0  0  0
  -27.8844  -30.4296   23.9407 H   0  0  0  0  0  0
  -27.2651  -33.3650   26.2018 H   0  0  0  0  0  0
  -28.3861  -32.6912   25.0266 H   0  0  0  0  0  0
  -28.0742  -31.8485   26.5376 H   0  0  0  0  0  0
  -28.2529  -38.0131   24.7566 H   0  0  0  0  0  0
  -28.1116  -36.2654   24.6143 H   0  0  0  0  0  0
  -27.2305  -37.1278   25.8850 H   0  0  0  0  0  0
  -20.9367  -29.8764   21.6825 H   0  0  0  0  0  0
  -26.0113  -38.2798   24.1467 H   0  0  0  0  0  0
  -32.4010  -17.0723   20.6446 H   0  0  0  0  0  0
  -33.0304  -19.4036   20.5637 H   0  0  0  0  0  0
  -29.5288  -23.8659   16.7505 H   0  0  0  0  0  0
  -28.0868  -22.9300   16.9855 H   0  0  0  0  0  0
  -27.0539  -24.4821   18.1600 H   0  0  0  0  0  0
  -28.1826  -25.6305   17.4749 H   0  0  0  0  0  0
  -30.5638  -23.0381   18.7065 H   0  0  0  0  0  0
  -29.7239  -21.6418   18.1012 H   0  0  0  0  0  0
  -29.6867  -25.1692   19.4322 H   0  0  0  0  0  0
  -27.2243  -18.7998   21.0124 H   0  0  0  0  0  0
  -27.5822  -17.1295   20.6654 H   0  0  0  0  0  0
  -27.4080  -18.2753   19.3352 H   0  0  0  0  0  0
  -28.2104  -21.1901   21.3452 H   0  0  0  0  0  0
  -27.7703  -20.7889   19.7188 H   0  0  0  0  0  0
  -28.9014  -15.7463   20.6907 H   0  0  0  0  0  0
  1 25  1  0  0  0
  1 30  2  0  0  0
  1 85  1  0  0  0
  2  3  1  0  0  0
  2 25  1  0  0  0
  2 88  1  0  0  0
  2 89  1  0  0  0
  3  4  1  0  0  0
  3 90  1  0  0  0
  3 91  1  0  0  0
  4  5  1  0  0  0
  4 92  1  0  0  0
  4 93  1  0  0  0
  5  6  1  0  0  0
  5 26  1  0  0  0
  5 94  1  0  0  0
  6 25  1  0  0  0
  6 95  1  0  0  0
  6 96  1  0  0  0
  7  8  2  0  0  0
  7 26  1  0  0  0
  7 29  1  0  0  0
  8  9  1  0  0  0
  8 22  1  0  0  0
  9 10  1  0  0  0
  9 27  2  0  0  0
 10 11  2  0  0  0
 10 15  1  0  0  0
 11 12  1  0  0  0
 11 97  1  0  0  0
 12 13  2  0  0  0
 12 98  1  0  0  0
 13 14  1  0  0  0
 13 31  1  0  0  0
 14 15  2  0  0  0
 14 99  1  0  0  0
 15100  1  0  0  0
 16 17  2  0  0  0
 16 21  1  0  0  0
 16 31  1  0  0  0
 17 18  1  0  0  0
 17101  1  0  0  0
 18 19  2  0  0  0
 18102  1  0  0  0
 19 20  1  0  0  0
 19 24  1  0  0  0
 20 21  2  0  0  0
 20103  1  0  0  0
 21 23  1  0  0  0
 22 28  1  0  0  0
 22 32  2  0  0  0
 26 27  1  0  0  0
 28104  1  0  0  0
 28105  1  0  0  0
 29106  1  0  0  0
 29107  1  0  0  0
 33 34  1  0  0  0
 33 66  1  0  0  0
 33 70  2  0  0  0
 34 36  1  0  0  0
 34 59  1  0  0  0
 34108  1  0  0  0
 35 44  2  0  0  0
 35 45  1  0  0  0
 35 68  1  0  0  0
 36 56  1  0  0  0
 36109  1  0  0  0
 37 39  1  0  0  0
 37 47  1  0  0  0
 37 66  1  0  0  0
 37110  1  0  0  0
 38 43  2  0  0  0
 38 46  1  0  0  0
 38 47  1  0  0  0
 39 64  1  0  0  0
 39 67  2  0  0  0
 40 52  1  0  0  0
 40 53  2  0  0  0
 40 58  1  0  0  0
 41111  1  0  0  0
 41112  1  0  0  0
 41113  1  0  0  0
 41 48  1  0  0  0
 42 43  1  0  0  0
 42 66  1  0  0  0
 42114  1  0  0  0
 42115  1  0  0  0
 43 44  1  0  0  0
 44116  1  0  0  0
 45 46  2  0  0  0
 45117  1  0  0  0
 46118  1  0  0  0
 47119  1  0  0  0
 47120  1  0  0  0
 48 56  1  0  0  0
 48 65  1  0  0  0
 48121  1  0  0  0
 49 50  1  0  0  0
 49 53  1  0  0  0
 49 64  1  0  0  0
 49122  1  0  0  0
 50 51  1  0  0  0
 50123  1  0  0  0
 50124  1  0  0  0
 51 52  1  0  0  0
 51125  1  0  0  0
 51126  1  0  0  0
 52127  1  0  0  0
 52128  1  0  0  0
 53 54  1  0  0  0
 54 55  2  0  0  0
 54129  1  0  0  0
 55 57  1  0  0  0
 55130  1  0  0  0
 56 69  2  0  0  0
 57 58  2  0  0  0
 57131  1  0  0  0
 58132  1  0  0  0
 59 60  1  0  0  0
 59 61  1  0  0  0
 59 62  1  0  0  0
 60133  1  0  0  0
 60134  1  0  0  0
 60135  1  0  0  0
 61136  1  0  0  0
 61137  1  0  0  0
 61138  1  0  0  0
 62139  1  0  0  0
 62140  1  0  0  0
 62141  1  0  0  0
 63 65  1  0  0  0
 63142  1  0  0  0
 63143  1  0  0  0
 63144  1  0  0  0
 64145  1  0  0  0
 65146  1  0  0  0
 68 81  1  0  0  0
 71 72  2  0  0  0
 71 75  1  0  0  0
 71147  1  0  0  0
 72 76  1  0  0  0
 72148  1  0  0  0
 73 74  1  0  0  0
 73 75  2  0  0  0
 73 82  1  0  0  0
 74 76  2  0  0  0
 74 83  1  0  0  0
 75 85  1  0  0  0
 76 87  1  0  0  0
 77 81  1  0  0  0
 77 84  1  0  0  0
 77 86  2  0  0  0
 78 79  1  0  0  0
 78 80  1  0  0  0
 78149  1  0  0  0
 78150  1  0  0  0
 79 81  1  0  0  0
 79151  1  0  0  0
 79152  1  0  0  0
 80 84  1  0  0  0
 80153  1  0  0  0
 80154  1  0  0  0
 81155  1  0  0  0
 82156  1  0  0  0
 82157  1  0  0  0
 82158  1  0  0  0
 83 84  1  0  0  0
 83159  1  0  0  0
 83160  1  0  0  0
 85161  1  0  0  0
M  ISO  4   1 100  68 101  81 101  85 100
M  END
> <chiral flag>
0

> <version>
0

> <s_m_source_file>
/data/baiqing/PycharmProjects/Reinvent-master-3.2/result/LINK_invent/BTK/process_docking_weight1_custom_product_contain_oxygen_bond_distance_aromatic_linkinvent_7_9_3/rearranged_h_0028.sdf

> <i_m_source_file_index>
13

> <r_mmod_Potential_Energy-OPLS-2005>
257.09912109375

> <r_mmod_Stretch_Energy-OPLS-2005>
137.16130065918

> <r_mmod_Bend_Energy-OPLS-2005>
214.721420288086

> <r_mmod_Torsional_Energy-OPLS-2005>
237.724716186523

> <r_mmod_Improper_Torsional_Energy-OPLS-2005>
5.99591541290283

> <r_mmod_Van_der_Waal_Energy-OPLS-2005>
153.332336425781

> <r_mmod_Electrostatic_Energy-OPLS-2005>
-350.080322265625

> <r_mmod_Solvation_Energy-OPLS-2005>
-226.630233764648

> <b_mmod_Minimization_Converged-OPLS-2005>
0

> <r_mmod_RMS_Derivative-OPLS-2005>
4.76895189285278

$$$$
13
                    3D
 Structure written by MMmdl.
182191  0  0  1  0            999 V2000
  -30.8020  -15.0954   20.4407 C   0  0  0  0  0  0
  -30.4611  -12.6891   19.5978 C   0  0  0  0  0  0
  -29.5495  -12.5651   18.3436 C   0  0  0  0  0  0
  -28.1056  -12.3134   18.8013 C   0  0  0  0  0  0
  -27.6747  -13.3082   19.8993 C   0  0  2  0  0  0
  -28.7406  -13.5300   21.0288 C   0  0  0  0  0  0
  -25.2688  -13.8415   20.5862 C   0  0  0  0  0  0
  -24.1909  -13.0505   20.9228 C   0  0  0  0  0  0
  -24.6596  -11.7072   20.8828 C   0  0  0  0  0  0
  -23.9243  -10.4373   21.0408 C   0  0  0  0  0  0
  -24.3690   -9.4248   21.9164 C   0  0  0  0  0  0
  -23.6331   -8.2315   22.0785 C   0  0  0  0  0  0
  -22.4366   -8.0349   21.3533 C   0  0  0  0  0  0
  -21.9984   -9.0357   20.4667 C   0  0  0  0  0  0
  -22.7374  -10.2248   20.3084 C   0  0  0  0  0  0
  -21.6873   -6.0773   22.5218 C   0  0  0  0  0  0
  -21.4085   -6.5687   23.8157 C   0  0  0  0  0  0
  -21.3601   -5.6841   24.9118 C   0  0  0  0  0  0
  -21.6027   -4.3102   24.7230 C   0  0  0  0  0  0
  -21.8827   -3.8184   23.4350 C   0  0  0  0  0  0
  -21.9217   -4.6987   22.3387 C   0  0  0  0  0  0
  -22.7935  -13.5237   21.1718 C   0  0  0  0  0  0
  -22.1683   -4.2110   21.1025 F   0  0  0  0  0  0
  -21.5536   -3.4645   25.7793 F   0  0  0  0  0  0
  -30.0447  -13.8864   20.4281 N   0  0  0  0  0  0
  -26.3268  -12.9725   20.3837 N   0  0  0  0  0  0
  -25.9626  -11.6775   20.6083 N   0  0  0  0  0  0
  -22.0647  -12.8183   22.0357 N   0  0  0  0  0  0
  -25.4331  -15.2061   20.4101 N   0  0  0  0  0  0
  -31.8843  -14.9837   19.8692 O   0  0  0  0  0  0
  -21.6700   -6.8947   21.4213 O   0  0  0  0  0  0
  -22.3552  -14.5430   20.6527 O   0  0  0  0  0  0
  -24.6467  -31.8400   23.1851 C   0  0  0  0  0  0
  -25.9228  -32.4714   23.8297 C   0  0  1  0  0  0
  -27.2121  -27.0185   20.2536 C   0  0  0  0  0  0
  -25.5959  -33.8528   24.2199 N   0  0  0  0  0  0
  -23.4568  -30.4498   21.5284 C   0  0  2  0  0  0
  -24.9107  -28.8433   20.1276 C   0  0  0  0  0  0
  -22.7524  -29.4550   22.4825 C   0  0  0  0  0  0
  -18.0272  -28.1419   22.8422 C   0  0  0  0  0  0
  -24.1476  -36.7259   23.2632 C   0  0  0  0  0  0
  -26.0147  -30.6800   21.3971 C   0  0  0  0  0  0
  -26.0849  -29.2680   20.7626 C   0  0  0  0  0  0
  -27.2357  -28.3768   20.7952 C   0  0  0  0  0  0
  -26.0178  -26.7134   19.5694 C   0  0  0  0  0  0
  -24.8973  -27.5811   19.5130 C   0  0  0  0  0  0
  -23.6935  -29.7654   20.1522 C   0  0  0  0  0  0
  -25.4111  -36.3035   24.0294 C   0  0  1  0  0  0
  -20.5893  -28.3778   23.1174 C   0  0  2  0  0  0
  -20.6755  -26.9481   22.5353 C   0  0  0  0  0  0
  -19.5760  -26.6384   21.5141 C   0  0  0  0  0  0
  -18.1941  -26.7935   22.1568 C   0  0  0  0  0  0
  -19.1537  -28.8885   23.2808 C   0  0  0  0  0  0
  -18.9471  -30.1474   23.8869 C   0  0  0  0  0  0
  -17.6492  -30.6641   24.0534 C   0  0  0  0  0  0
  -25.9116  -34.9406   23.5097 C   0  0  0  0  0  0
  -16.5380  -29.9139   23.6329 C   0  0  0  0  0  0
  -16.7264  -28.6526   23.0384 C   0  0  0  0  0  0
  -26.4520  -31.6638   25.0793 C   0  0  0  0  0  0
  -25.3666  -31.3944   26.1480 C   0  0  0  0  0  0
  -27.0376  -30.2968   24.6555 C   0  0  0  0  0  0
  -27.6003  -32.4461   25.7604 C   0  0  0  0  0  0
  -27.5564  -37.1783   24.8467 C   0  0  0  0  0  0
  -21.4206  -29.3110   22.3503 N   0  0  0  0  0  0
  -26.4268  -37.3739   23.9410 N   0  0  0  0  0  0
  -24.7267  -31.0151   22.0916 N   0  0  0  0  0  0
  -23.4063  -28.8109   23.3059 O   0  0  0  0  0  0
  -28.2600  -25.9989   20.2421 O   0  0  0  0  0  0
  -26.5716  -34.8894   22.4703 O   0  0  0  0  0  0
  -23.5546  -32.1329   23.6959 O   0  0  0  0  0  0
  -33.2762  -16.8471   23.6559 C   0  0  0  0  0  0
  -32.4750  -16.3235   22.6016 C   0  0  0  0  0  0
  -33.0437  -18.1659   24.0701 C   0  0  0  0  0  0
  -31.5715  -18.6094   22.1042 C   0  0  0  0  0  0
  -31.5157  -17.1395   21.8601 C   0  0  0  0  0  0
  -32.2651  -19.0415   23.2915 C   0  0  0  0  0  0
  -29.6164  -17.4372   20.2972 C   0  0  0  0  0  0
  -29.1854  -17.2039   19.0410 C   0  0  0  0  0  0
  -31.0119  -19.7841   21.1549 C   0  0  0  0  0  0
  -28.9143  -18.7150   21.0345 C   0  0  0  0  0  0
  -30.4557  -21.6296   25.2825 C   0  0  0  0  0  0
  -34.4806  -20.8662   22.6577 C   0  0  0  0  0  0
  -27.4301  -22.4382   22.2250 C   0  0  0  0  0  0
  -26.9031  -22.8892   19.8828 C   0  0  0  0  0  0
  -29.0745  -21.5085   20.3975 C   0  0  0  0  0  0
  -31.5143  -20.5239   25.2021 C   0  0  0  0  0  0
  -33.4448  -21.2823   23.7568 C   0  0  0  0  0  0
  -28.3511  -24.6283   21.0737 C   0  0  0  0  0  0
  -28.0735  -22.8849   20.8846 C   0  0  0  0  0  0
  -30.5111  -16.4438   20.9579 N   0  0  0  0  0  0
  -29.5396  -20.1362   21.1800 N   0  3  2  0  0  0
  -32.1800  -20.4731   23.8511 N   0  3  0  0  0  0
  -31.5118  -12.7051   19.3155 H   0  0  0  0  0  0
  -30.3801  -11.7784   20.1981 H   0  0  0  0  0  0
  -29.8652  -11.7275   17.7253 H   0  0  0  0  0  0
  -29.6031  -13.4654   17.7347 H   0  0  0  0  0  0
  -28.0657  -11.2998   19.1969 H   0  0  0  0  0  0
  -27.4194  -12.3326   17.9613 H   0  0  0  0  0  0
  -27.6035  -14.2552   19.3650 H   0  0  0  0  0  0
  -28.8534  -12.6563   21.6698 H   0  0  0  0  0  0
  -28.4638  -14.3769   21.6683 H   0  0  0  0  0  0
  -25.2807   -9.5684   22.4723 H   0  0  0  0  0  0
  -23.9955   -7.4731   22.7522 H   0  0  0  0  0  0
  -21.0869   -8.8908   19.8994 H   0  0  0  0  0  0
  -22.3724  -10.9805   19.6217 H   0  0  0  0  0  0
  -21.2176   -7.6207   23.9665 H   0  0  0  0  0  0
  -21.1343   -6.0600   25.8984 H   0  0  0  0  0  0
  -22.0655   -2.7665   23.2926 H   0  0  0  0  0  0
  -22.4303  -11.9891   22.4651 H   0  0  0  0  0  0
  -21.1254  -13.1056   22.2602 H   0  0  0  0  0  0
  -24.6809  -15.8815   20.5223 H   0  0  0  0  0  0
  -26.2953  -15.6343   20.0979 H   0  0  0  0  0  0
  -26.7272  -32.5249   23.0998 H   0  0  0  0  0  0
  -24.9916  -33.9711   25.0197 H   0  0  0  0  0  0
  -22.7644  -31.2784   21.3717 H   0  0  0  0  0  0
  -23.3747  -35.9603   23.3297 H   0  0  0  0  0  0
  -24.3500  -36.8910   22.2054 H   0  0  0  0  0  0
  -23.7258  -37.6452   23.6698 H   0  0  0  0  0  0
  -26.1768  -31.4199   20.6138 H   0  0  0  0  0  0
  -26.8750  -30.7341   22.0553 H   0  0  0  0  0  0
  -28.1383  -28.7225   21.2720 H   0  0  0  0  0  0
  -25.9443  -25.7531   19.0785 H   0  0  0  0  0  0
  -24.0011  -27.2420   19.0145 H   0  0  0  0  0  0
  -23.8473  -30.5475   19.4075 H   0  0  0  0  0  0
  -22.7957  -29.2243   19.8378 H   0  0  0  0  0  0
  -25.1294  -36.1830   25.0768 H   0  0  0  0  0  0
  -20.9964  -28.3389   24.1326 H   0  0  0  0  0  0
  -20.5576  -26.2434   23.3591 H   0  0  0  0  0  0
  -21.6646  -26.7468   22.1261 H   0  0  0  0  0  0
  -19.6989  -25.6256   21.1302 H   0  0  0  0  0  0
  -19.6766  -27.3054   20.6564 H   0  0  0  0  0  0
  -17.4214  -26.6594   21.4015 H   0  0  0  0  0  0
  -18.0494  -26.0098   22.9011 H   0  0  0  0  0  0
  -19.7975  -30.7240   24.2282 H   0  0  0  0  0  0
  -17.5091  -31.6322   24.5140 H   0  0  0  0  0  0
  -15.5408  -30.3068   23.7670 H   0  0  0  0  0  0
  -15.8642  -28.0810   22.7241 H   0  0  0  0  0  0
  -24.5763  -30.7424   25.7754 H   0  0  0  0  0  0
  -24.9008  -32.3235   26.4801 H   0  0  0  0  0  0
  -25.7850  -30.9116   27.0330 H   0  0  0  0  0  0
  -26.3079  -29.6727   24.1426 H   0  0  0  0  0  0
  -27.3675  -29.7261   25.5246 H   0  0  0  0  0  0
  -27.9096  -30.4063   24.0101 H   0  0  0  0  0  0
  -27.2527  -33.3710   26.2210 H   0  0  0  0  0  0
  -28.3824  -32.7169   25.0512 H   0  0  0  0  0  0
  -28.0742  -31.8673   26.5559 H   0  0  0  0  0  0
  -28.2588  -38.0042   24.7427 H   0  0  0  0  0  0
  -28.1029  -36.2601   24.6368 H   0  0  0  0  0  0
  -27.2297  -37.1506   25.8856 H   0  0  0  0  0  0
  -20.9393  -29.8767   21.6640 H   0  0  0  0  0  0
  -26.0131  -38.2802   24.1395 H   0  0  0  0  0  0
  -33.9831  -16.2263   24.2249 H   0  0  0  0  0  0
  -32.6165  -15.2507   22.4455 H   0  0  0  0  0  0
  -33.4696  -18.5320   24.9981 H   0  0  0  0  0  0
  -28.4331  -17.8511   18.5998 H   0  0  0  0  0  0
  -29.5506  -16.3836   18.4410 H   0  0  0  0  0  0
  -31.2835  -19.5380   20.1224 H   0  0  0  0  0  0
  -31.5583  -20.7111   21.3350 H   0  0  0  0  0  0
  -28.8377  -18.3896   22.0712 H   0  0  0  0  0  0
  -27.8879  -18.8004   20.6880 H   0  0  0  0  0  0
  -30.9224  -22.6135   25.3657 H   0  0  0  0  0  0
  -29.7938  -21.5070   26.1488 H   0  0  0  0  0  0
  -29.8299  -21.5875   24.3923 H   0  0  0  0  0  0
  -34.8543  -19.8453   22.7873 H   0  0  0  0  0  0
  -35.3488  -21.5308   22.7000 H   0  0  0  0  0  0
  -34.1277  -20.9387   21.6256 H   0  0  0  0  0  0
  -27.1213  -21.3899   22.2023 H   0  0  0  0  0  0
  -26.5236  -23.0160   22.4473 H   0  0  0  0  0  0
  -28.0824  -22.5799   23.0893 H   0  0  0  0  0  0
  -26.4425  -21.9018   19.8039 H   0  0  0  0  0  0
  -27.2195  -23.2009   18.8839 H   0  0  0  0  0  0
  -26.1230  -23.5838   20.2002 H   0  0  0  0  0  0
  -29.9756  -21.9496   19.9772 H   0  0  0  0  0  0
  -28.5774  -21.0960   19.5124 H   0  0  0  0  0  0
  -30.9601  -19.5958   25.3426 H   0  0  0  0  0  0
  -32.2234  -20.5485   26.0349 H   0  0  0  0  0  0
  -33.9516  -21.2923   24.7247 H   0  0  0  0  0  0
  -33.1760  -22.3280   23.5759 H   0  0  0  0  0  0
  -29.3380  -24.7016   21.5243 H   0  0  0  0  0  0
  -27.6998  -24.8967   21.9090 H   0  0  0  0  0  0
  -29.3067  -20.3578   22.1349 H   0  0  0  0  0  0
  -31.4939  -20.9899   23.3234 H   0  0  0  0  0  0
  1 25  1  0  0  0
  1 30  2  0  0  0
  1 90  1  0  0  0
  2  3  1  0  0  0
  2 25  1  0  0  0
  2 93  1  0  0  0
  2 94  1  0  0  0
  3  4  1  0  0  0
  3 95  1  0  0  0
  3 96  1  0  0  0
  4  5  1  0  0  0
  4 97  1  0  0  0
  4 98  1  0  0  0
  5  6  1  0  0  0
  5 26  1  0  0  0
  5 99  1  0  0  0
  6 25  1  0  0  0
  6100  1  0  0  0
  6101  1  0  0  0
  7  8  2  0  0  0
  7 26  1  0  0  0
  7 29  1  0  0  0
  8  9  1  0  0  0
  8 22  1  0  0  0
  9 10  1  0  0  0
  9 27  2  0  0  0
 10 11  2  0  0  0
 10 15  1  0  0  0
 11 12  1  0  0  0
 11102  1  0  0  0
 12 13  2  0  0  0
 12103  1  0  0  0
 13 14  1  0  0  0
 13 31  1  0  0  0
 14 15  2  0  0  0
 14104  1  0  0  0
 15105  1  0  0  0
 16 17  2  0  0  0
 16 21  1  0  0  0
 16 31  1  0  0  0
 17 18  1  0  0  0
 17106  1  0  0  0
 18 19  2  0  0  0
 18107  1  0  0  0
 19 20  1  0  0  0
 19 24  1  0  0  0
 20 21  2  0  0  0
 20108  1  0  0  0
 21 23  1  0  0  0
 22 28  1  0  0  0
 22 32  2  0  0  0
 26 27  1  0  0  0
 28109  1  0  0  0
 28110  1  0  0  0
 29111  1  0  0  0
 29112  1  0  0  0
 33 34  1  0  0  0
 33 66  1  0  0  0
 33 70  2  0  0  0
 34 36  1  0  0  0
 34 59  1  0  0  0
 34113  1  0  0  0
 35 44  2  0  0  0
 35 45  1  0  0  0
 35 68  1  0  0  0
 36 56  1  0  0  0
 36114  1  0  0  0
 37 39  1  0  0  0
 37 47  1  0  0  0
 37 66  1  0  0  0
 37115  1  0  0  0
 38 43  2  0  0  0
 38 46  1  0  0  0
 38 47  1  0  0  0
 39 64  1  0  0  0
 39 67  2  0  0  0
 40 52  1  0  0  0
 40 53  2  0  0  0
 40 58  1  0  0  0
 41116  1  0  0  0
 41117  1  0  0  0
 41118  1  0  0  0
 41 48  1  0  0  0
 42 43  1  0  0  0
 42 66  1  0  0  0
 42119  1  0  0  0
 42120  1  0  0  0
 43 44  1  0  0  0
 44121  1  0  0  0
 45 46  2  0  0  0
 45122  1  0  0  0
 46123  1  0  0  0
 47124  1  0  0  0
 47125  1  0  0  0
 48 56  1  0  0  0
 48 65  1  0  0  0
 48126  1  0  0  0
 49 50  1  0  0  0
 49 53  1  0  0  0
 49 64  1  0  0  0
 49127  1  0  0  0
 50 51  1  0  0  0
 50128  1  0  0  0
 50129  1  0  0  0
 51 52  1  0  0  0
 51130  1  0  0  0
 51131  1  0  0  0
 52132  1  0  0  0
 52133  1  0  0  0
 53 54  1  0  0  0
 54 55  2  0  0  0
 54134  1  0  0  0
 55 57  1  0  0  0
 55135  1  0  0  0
 56 69  2  0  0  0
 57 58  2  0  0  0
 57136  1  0  0  0
 58137  1  0  0  0
 59 60  1  0  0  0
 59 61  1  0  0  0
 59 62  1  0  0  0
 60138  1  0  0  0
 60139  1  0  0  0
 60140  1  0  0  0
 61141  1  0  0  0
 61142  1  0  0  0
 61143  1  0  0  0
 62144  1  0  0  0
 62145  1  0  0  0
 62146  1  0  0  0
 63 65  1  0  0  0
 63147  1  0  0  0
 63148  1  0  0  0
 63149  1  0  0  0
 64150  1  0  0  0
 65151  1  0  0  0
 68 88  1  0  0  0
 71 72  2  0  0  0
 71 73  1  0  0  0
 71152  1  0  0  0
 72 75  1  0  0  0
 72153  1  0  0  0
 73 76  2  0  0  0
 73154  1  0  0  0
 74 75  2  0  0  0
 74 76  1  0  0  0
 74 79  1  0  0  0
 75 90  1  0  0  0
 76 92  1  0  0  0
 77 78  2  0  0  0
 77 80  1  0  0  0
 77 90  1  0  0  0
 78155  1  0  0  0
 78156  1  0  0  0
 79 91  1  0  0  0
 79157  1  0  0  0
 79158  1  0  0  0
 80 91  1  0  0  0
 80159  1  0  0  0
 80160  1  0  0  0
 81 86  1  0  0  0
 81161  1  0  0  0
 81162  1  0  0  0
 81163  1  0  0  0
 82 87  1  0  0  0
 82164  1  0  0  0
 82165  1  0  0  0
 82166  1  0  0  0
 83167  1  0  0  0
 83168  1  0  0  0
 83169  1  0  0  0
 83 89  1  0  0  0
 84 89  1  0  0  0
 84170  1  0  0  0
 84171  1  0  0  0
 84172  1  0  0  0
 85 89  1  0  0  0
 85173  1  0  0  0
 85174  1  0  0  0
 85 91  1  0  0  0
 86175  1  0  0  0
 86176  1  0  0  0
 86 92  1  0  0  0
 87 92  1  0  0  0
 87177  1  0  0  0
 87178  1  0  0  0
 88 89  1  0  0  0
 88179  1  0  0  0
 88180  1  0  0  0
 91181  1  0  0  0
 92182  1  0  0  0
M  CHG  2  91   1  92   1
M  ISO  4   1 100  68 101  88 101  90 100
M  END
> <chiral flag>
0

> <version>
0

> <s_m_source_file>
/data/baiqing/PycharmProjects/Reinvent-master-3.2/result/LINK_invent/BTK/process_docking_weight1_custom_product_contain_oxygen_bond_distance_aromatic_linkinvent_7_9_3/rearranged_h_0028.sdf

> <i_m_source_file_index>
14

> <r_mmod_Potential_Energy-OPLS-2005>
1182.39819335938

> <r_mmod_Stretch_Energy-OPLS-2005>
489.981872558594

> <r_mmod_Bend_Energy-OPLS-2005>
552.930603027344

> <r_mmod_Torsional_Energy-OPLS-2005>
392.318145751953

> <r_mmod_Improper_Torsional_Energy-OPLS-2005>
4.08046197891235

> <r_mmod_Van_der_Waal_Energy-OPLS-2005>
140.824203491211

> <r_mmod_Electrostatic_Energy-OPLS-2005>
236.78498840332

> <r_mmod_Solvation_Energy-OPLS-2005>
-958.118225097656

> <b_mmod_Minimization_Converged-OPLS-2005>
0

> <r_mmod_RMS_Derivative-OPLS-2005>
21.0480289459229

$$$$
14
                    3D
 Structure written by MMmdl.
152161  0  0  1  0            999 V2000
  -30.5959  -14.8353   20.3890 C   0  0  0  0  0  0
  -30.4423  -12.4967   19.5023 C   0  0  0  0  0  0
  -29.5377  -12.5186   18.2519 C   0  0  0  0  0  0
  -28.0602  -12.3424   18.6539 C   0  0  0  0  0  0
  -27.6464  -13.2473   19.8462 C   0  0  2  0  0  0
  -28.6902  -13.2293   20.9880 C   0  0  0  0  0  0
  -25.2554  -13.8230   20.5714 C   0  0  0  0  0  0
  -24.1831  -13.0482   20.9224 C   0  0  0  0  0  0
  -24.6435  -11.6957   20.8745 C   0  0  0  0  0  0
  -23.9132  -10.4323   21.0423 C   0  0  0  0  0  0
  -24.3666   -9.4221   21.9191 C   0  0  0  0  0  0
  -23.6314   -8.2269   22.0769 C   0  0  0  0  0  0
  -22.4305   -8.0319   21.3563 C   0  0  0  0  0  0
  -21.9955   -9.0301   20.4688 C   0  0  0  0  0  0
  -22.7323  -10.2158   20.3080 C   0  0  0  0  0  0
  -21.6847   -6.0767   22.5298 C   0  0  0  0  0  0
  -21.4004   -6.5640   23.8244 C   0  0  0  0  0  0
  -21.3643   -5.6789   24.9191 C   0  0  0  0  0  0
  -21.6045   -4.3048   24.7222 C   0  0  0  0  0  0
  -21.8804   -3.8157   23.4328 C   0  0  0  0  0  0
  -21.9184   -4.6993   22.3405 C   0  0  0  0  0  0
  -22.7858  -13.5265   21.1857 C   0  0  0  0  0  0
  -22.1661   -4.2205   21.0978 F   0  0  0  0  0  0
  -21.5637   -3.4502   25.7707 F   0  0  0  0  0  0
  -29.9877  -13.5888   20.4031 N   0  0  0  0  0  0
  -26.2977  -12.9477   20.3248 N   0  0  0  0  0  0
  -25.9372  -11.6613   20.5724 N   0  0  0  0  0  0
  -22.0456  -12.8283   22.0406 N   0  0  0  0  0  0
  -25.4263  -15.1968   20.4172 N   0  0  0  0  0  0
  -31.7816  -14.9041   20.0549 O   0  0  0  0  0  0
  -21.6666   -6.8913   21.4273 O   0  0  0  0  0  0
  -22.3549  -14.5580   20.6738 O   0  0  0  0  0  0
  -24.6373  -31.8462   23.1885 C   0  0  0  0  0  0
  -25.9168  -32.4720   23.8274 C   0  0  1  0  0  0
  -27.2517  -27.1993   20.1269 C   0  0  0  0  0  0
  -25.5946  -33.8527   24.2192 N   0  0  0  0  0  0
  -23.4423  -30.4623   21.5306 C   0  0  2  0  0  0
  -24.8985  -28.8891   20.1121 C   0  0  0  0  0  0
  -22.7542  -29.4566   22.4857 C   0  0  0  0  0  0
  -18.0308  -28.1416   22.8455 C   0  0  0  0  0  0
  -24.1489  -36.7288   23.2635 C   0  0  0  0  0  0
  -25.9926  -30.7358   21.3830 C   0  0  0  0  0  0
  -26.0698  -29.3501   20.7257 C   0  0  0  0  0  0
  -27.2422  -28.5172   20.7222 C   0  0  0  0  0  0
  -26.0483  -26.8147   19.4926 C   0  0  0  0  0  0
  -24.8955  -27.6311   19.4864 C   0  0  0  0  0  0
  -23.6700  -29.7809   20.1531 C   0  0  0  0  0  0
  -25.4115  -36.3051   24.0311 C   0  0  1  0  0  0
  -20.5899  -28.3741   23.1221 C   0  0  2  0  0  0
  -20.6794  -26.9449   22.5392 C   0  0  0  0  0  0
  -19.5782  -26.6383   21.5196 C   0  0  0  0  0  0
  -18.1950  -26.7952   22.1600 C   0  0  0  0  0  0
  -19.1556  -28.8896   23.2837 C   0  0  0  0  0  0
  -18.9491  -30.1483   23.8876 C   0  0  0  0  0  0
  -17.6493  -30.6603   24.0559 C   0  0  0  0  0  0
  -25.9069  -34.9433   23.5063 C   0  0  0  0  0  0
  -16.5379  -29.9097   23.6331 C   0  0  0  0  0  0
  -16.7292  -28.6515   23.0342 C   0  0  0  0  0  0
  -26.4483  -31.6608   25.0731 C   0  0  0  0  0  0
  -25.3666  -31.3837   26.1439 C   0  0  0  0  0  0
  -27.0353  -30.3002   24.6326 C   0  0  0  0  0  0
  -27.6003  -32.4383   25.7532 C   0  0  0  0  0  0
  -27.5574  -37.1801   24.8445 C   0  0  0  0  0  0
  -21.4238  -29.3081   22.3611 N   0  0  0  0  0  0
  -26.4273  -37.3760   23.9399 N   0  0  0  0  0  0
  -24.7094  -31.0339   22.0912 N   0  0  0  0  0  0
  -23.4188  -28.8109   23.3003 O   0  0  0  0  0  0
  -28.3516  -26.2898   20.1920 O   0  0  0  0  0  0
  -26.5639  -34.8901   22.4633 O   0  0  0  0  0  0
  -23.5516  -32.1338   23.7114 O   0  0  0  0  0  0
  -30.6507  -18.8937   18.1914 C   0  0  0  0  0  0
  -30.1291  -20.0524   18.8135 C   0  0  0  0  0  0
  -30.5946  -17.6146   18.8000 C   0  0  0  0  0  0
  -29.4544  -18.6380   20.6749 C   0  0  0  0  0  0
  -29.5308  -19.9871   20.0880 C   0  0  0  0  0  0
  -29.9824  -17.4103   20.0626 C   0  0  0  0  0  0
  -29.5444  -23.8858   19.8940 C   0  0  0  0  0  0
  -27.6018  -23.6759   20.4926 C   0  0  0  0  0  0
  -28.2767  -24.8408   19.6969 C   0  0  1  0  0  0
  -29.1049  -21.3489   20.8498 C   0  0  0  0  0  0
  -28.7867  -22.7600   20.2685 N   0  0  0  0  0  0
  -29.8392  -16.0031   20.5979 N   0  0  0  0  0  0
  -30.7501  -24.0055   19.7790 O   0  0  0  0  0  0
  -31.4888  -12.6024   19.2098 H   0  0  0  0  0  0
  -30.3710  -11.5330   20.0106 H   0  0  0  0  0  0
  -29.8354  -11.7378   17.5523 H   0  0  0  0  0  0
  -29.6688  -13.4612   17.7148 H   0  0  0  0  0  0
  -27.9165  -11.2945   18.9205 H   0  0  0  0  0  0
  -27.4144  -12.5336   17.7958 H   0  0  0  0  0  0
  -27.6294  -14.2621   19.4436 H   0  0  0  0  0  0
  -28.7356  -12.2502   21.4697 H   0  0  0  0  0  0
  -28.4147  -13.9444   21.7651 H   0  0  0  0  0  0
  -25.2806   -9.5663   22.4755 H   0  0  0  0  0  0
  -24.0015   -7.4642   22.7456 H   0  0  0  0  0  0
  -21.0880   -8.8863   19.8969 H   0  0  0  0  0  0
  -22.3824  -10.9700   19.6172 H   0  0  0  0  0  0
  -21.2017   -7.6167   23.9738 H   0  0  0  0  0  0
  -21.1483   -6.0542   25.9099 H   0  0  0  0  0  0
  -22.0594   -2.7633   23.2832 H   0  0  0  0  0  0
  -22.4021  -11.9954   22.4852 H   0  0  0  0  0  0
  -21.1072  -13.1335   22.2557 H   0  0  0  0  0  0
  -24.6628  -15.8531   20.5345 H   0  0  0  0  0  0
  -26.2841  -15.6293   20.1002 H   0  0  0  0  0  0
  -26.7247  -32.5327   23.1026 H   0  0  0  0  0  0
  -25.0106  -33.9661   25.0349 H   0  0  0  0  0  0
  -22.7436  -31.2866   21.3691 H   0  0  0  0  0  0
  -23.3747  -35.9627   23.3280 H   0  0  0  0  0  0
  -24.3570  -36.8946   22.2055 H   0  0  0  0  0  0
  -23.7258  -37.6479   23.6695 H   0  0  0  0  0  0
  -26.1413  -31.4905   20.6097 H   0  0  0  0  0  0
  -26.8666  -30.7875   22.0215 H   0  0  0  0  0  0
  -28.1368  -28.8622   21.2209 H   0  0  0  0  0  0
  -25.9704  -25.8505   19.0165 H   0  0  0  0  0  0
  -23.9969  -27.2670   19.0061 H   0  0  0  0  0  0
  -23.8053  -30.5498   19.3925 H   0  0  0  0  0  0
  -22.7877  -29.2176   19.8421 H   0  0  0  0  0  0
  -25.1304  -36.1877   25.0799 H   0  0  0  0  0  0
  -20.9985  -28.3350   24.1346 H   0  0  0  0  0  0
  -20.5676  -26.2369   23.3617 H   0  0  0  0  0  0
  -21.6672  -26.7450   22.1208 H   0  0  0  0  0  0
  -19.6941  -25.6272   21.1287 H   0  0  0  0  0  0
  -19.6709  -27.3142   20.6687 H   0  0  0  0  0  0
  -17.4202  -26.6658   21.4016 H   0  0  0  0  0  0
  -18.0367  -26.0111   22.9019 H   0  0  0  0  0  0
  -19.7967  -30.7303   24.2227 H   0  0  0  0  0  0
  -17.5051  -31.6276   24.5185 H   0  0  0  0  0  0
  -15.5384  -30.3011   23.7684 H   0  0  0  0  0  0
  -15.8676  -28.0850   22.7071 H   0  0  0  0  0  0
  -24.5787  -30.7247   25.7765 H   0  0  0  0  0  0
  -24.8926  -32.3058   26.4829 H   0  0  0  0  0  0
  -25.7935  -30.9013   27.0248 H   0  0  0  0  0  0
  -26.2987  -29.6742   24.1273 H   0  0  0  0  0  0
  -27.3895  -29.7290   25.4924 H   0  0  0  0  0  0
  -27.8920  -30.4237   23.9692 H   0  0  0  0  0  0
  -27.2559  -33.3667   26.2105 H   0  0  0  0  0  0
  -28.3829  -32.6989   25.0396 H   0  0  0  0  0  0
  -28.0662  -31.8536   26.5481 H   0  0  0  0  0  0
  -28.2567  -38.0121   24.7505 H   0  0  0  0  0  0
  -28.1105  -36.2660   24.6250 H   0  0  0  0  0  0
  -27.2309  -37.1412   25.8849 H   0  0  0  0  0  0
  -20.9455  -29.8799   21.6793 H   0  0  0  0  0  0
  -26.0153  -38.2828   24.1404 H   0  0  0  0  0  0
  -31.1069  -18.9860   17.2129 H   0  0  0  0  0  0
  -30.2190  -21.0090   18.3140 H   0  0  0  0  0  0
  -31.0134  -16.7803   18.2520 H   0  0  0  0  0  0
  -28.9828  -18.5529   21.6451 H   0  0  0  0  0  0
  -26.6720  -23.3296   20.0397 H   0  0  0  0  0  0
  -27.4452  -23.9269   21.5428 H   0  0  0  0  0  0
  -27.9723  -24.8333   18.6511 H   0  0  0  0  0  0
  -29.9271  -21.5229   21.5459 H   0  0  0  0  0  0
  -28.2574  -21.0894   21.4861 H   0  0  0  0  0  0
  -28.9605  -15.8328   21.0645 H   0  0  0  0  0  0
  1 25  1  0  0  0
  1 30  2  0  0  0
  1 82  1  0  0  0
  2  3  1  0  0  0
  2 25  1  0  0  0
  2 84  1  0  0  0
  2 85  1  0  0  0
  3  4  1  0  0  0
  3 86  1  0  0  0
  3 87  1  0  0  0
  4  5  1  0  0  0
  4 88  1  0  0  0
  4 89  1  0  0  0
  5  6  1  0  0  0
  5 26  1  0  0  0
  5 90  1  0  0  0
  6 25  1  0  0  0
  6 91  1  0  0  0
  6 92  1  0  0  0
  7  8  2  0  0  0
  7 26  1  0  0  0
  7 29  1  0  0  0
  8  9  1  0  0  0
  8 22  1  0  0  0
  9 10  1  0  0  0
  9 27  2  0  0  0
 10 11  2  0  0  0
 10 15  1  0  0  0
 11 12  1  0  0  0
 11 93  1  0  0  0
 12 13  2  0  0  0
 12 94  1  0  0  0
 13 14  1  0  0  0
 13 31  1  0  0  0
 14 15  2  0  0  0
 14 95  1  0  0  0
 15 96  1  0  0  0
 16 17  2  0  0  0
 16 21  1  0  0  0
 16 31  1  0  0  0
 17 18  1  0  0  0
 17 97  1  0  0  0
 18 19  2  0  0  0
 18 98  1  0  0  0
 19 20  1  0  0  0
 19 24  1  0  0  0
 20 21  2  0  0  0
 20 99  1  0  0  0
 21 23  1  0  0  0
 22 28  1  0  0  0
 22 32  2  0  0  0
 26 27  1  0  0  0
 28100  1  0  0  0
 28101  1  0  0  0
 29102  1  0  0  0
 29103  1  0  0  0
 33 34  1  0  0  0
 33 66  1  0  0  0
 33 70  2  0  0  0
 34 36  1  0  0  0
 34 59  1  0  0  0
 34104  1  0  0  0
 35 44  2  0  0  0
 35 45  1  0  0  0
 35 68  1  0  0  0
 36 56  1  0  0  0
 36105  1  0  0  0
 37 39  1  0  0  0
 37 47  1  0  0  0
 37 66  1  0  0  0
 37106  1  0  0  0
 38 43  2  0  0  0
 38 46  1  0  0  0
 38 47  1  0  0  0
 39 64  1  0  0  0
 39 67  2  0  0  0
 40 52  1  0  0  0
 40 53  2  0  0  0
 40 58  1  0  0  0
 41107  1  0  0  0
 41108  1  0  0  0
 41109  1  0  0  0
 41 48  1  0  0  0
 42 43  1  0  0  0
 42 66  1  0  0  0
 42110  1  0  0  0
 42111  1  0  0  0
 43 44  1  0  0  0
 44112  1  0  0  0
 45 46  2  0  0  0
 45113  1  0  0  0
 46114  1  0  0  0
 47115  1  0  0  0
 47116  1  0  0  0
 48 56  1  0  0  0
 48 65  1  0  0  0
 48117  1  0  0  0
 49 50  1  0  0  0
 49 53  1  0  0  0
 49 64  1  0  0  0
 49118  1  0  0  0
 50 51  1  0  0  0
 50119  1  0  0  0
 50120  1  0  0  0
 51 52  1  0  0  0
 51121  1  0  0  0
 51122  1  0  0  0
 52123  1  0  0  0
 52124  1  0  0  0
 53 54  1  0  0  0
 54 55  2  0  0  0
 54125  1  0  0  0
 55 57  1  0  0  0
 55126  1  0  0  0
 56 69  2  0  0  0
 57 58  2  0  0  0
 57127  1  0  0  0
 58128  1  0  0  0
 59 60  1  0  0  0
 59 61  1  0  0  0
 59 62  1  0  0  0
 60129  1  0  0  0
 60130  1  0  0  0
 60131  1  0  0  0
 61132  1  0  0  0
 61133  1  0  0  0
 61134  1  0  0  0
 62135  1  0  0  0
 62136  1  0  0  0
 62137  1  0  0  0
 63 65  1  0  0  0
 63138  1  0  0  0
 63139  1  0  0  0
 63140  1  0  0  0
 64141  1  0  0  0
 65142  1  0  0  0
 68 79  1  0  0  0
 71 72  2  0  0  0
 71 73  1  0  0  0
 71143  1  0  0  0
 72 75  1  0  0  0
 72144  1  0  0  0
 73 76  2  0  0  0
 73145  1  0  0  0
 74 75  2  0  0  0
 74 76  1  0  0  0
 74146  1  0  0  0
 75 80  1  0  0  0
 76 82  1  0  0  0
 77 79  1  0  0  0
 77 81  1  0  0  0
 77 83  2  0  0  0
 78 79  1  0  0  0
 78 81  1  0  0  0
 78147  1  0  0  0
 78148  1  0  0  0
 79149  1  0  0  0
 80 81  1  0  0  0
 80150  1  0  0  0
 80151  1  0  0  0
 82152  1  0  0  0
M  ISO  4   1 100  68 101  79 101  82 100
M  END
> <chiral flag>
0

> <version>
0

> <s_m_source_file>
/data/baiqing/PycharmProjects/Reinvent-master-3.2/result/LINK_invent/BTK/process_docking_weight1_custom_product_contain_oxygen_bond_distance_aromatic_linkinvent_7_9_3/rearranged_h_0028.sdf

> <i_m_source_file_index>
15

> <r_mmod_Potential_Energy-OPLS-2005>
270.853149414062

> <r_mmod_Stretch_Energy-OPLS-2005>
167.630004882812

> <r_mmod_Bend_Energy-OPLS-2005>
213.078552246094

> <r_mmod_Torsional_Energy-OPLS-2005>
231.300903320312

> <r_mmod_Improper_Torsional_Energy-OPLS-2005>
5.85756349563599

> <r_mmod_Van_der_Waal_Energy-OPLS-2005>
125.045066833496

> <r_mmod_Electrostatic_Energy-OPLS-2005>
-353.835388183594

> <r_mmod_Solvation_Energy-OPLS-2005>
-246.130996704102

> <b_mmod_Minimization_Converged-OPLS-2005>
0

> <r_mmod_RMS_Derivative-OPLS-2005>
5.0351037979126

$$$$
15
                    3D
 Structure written by MMmdl.
158167  0  0  1  0            999 V2000
  -30.6413  -14.5923   20.4710 C   0  0  0  0  0  0
  -30.4412  -12.3418   19.4710 C   0  0  0  0  0  0
  -29.5198  -12.4249   18.2348 C   0  0  0  0  0  0
  -28.0320  -12.3330   18.6323 C   0  0  0  0  0  0
  -27.6560  -13.2118   19.8571 C   0  0  2  0  0  0
  -28.6944  -13.0661   20.9911 C   0  0  0  0  0  0
  -25.2565  -13.8178   20.5655 C   0  0  0  0  0  0
  -24.1824  -13.0454   20.9181 C   0  0  0  0  0  0
  -24.6379  -11.6919   20.8733 C   0  0  0  0  0  0
  -23.9052  -10.4302   21.0428 C   0  0  0  0  0  0
  -24.3611   -9.4226   21.9201 C   0  0  0  0  0  0
  -23.6299   -8.2251   22.0774 C   0  0  0  0  0  0
  -22.4278   -8.0292   21.3570 C   0  0  0  0  0  0
  -21.9907   -9.0259   20.4672 C   0  0  0  0  0  0
  -22.7227  -10.2144   20.3080 C   0  0  0  0  0  0
  -21.6853   -6.0743   22.5297 C   0  0  0  0  0  0
  -21.4010   -6.5651   23.8226 C   0  0  0  0  0  0
  -21.3652   -5.6808   24.9192 C   0  0  0  0  0  0
  -21.6047   -4.3071   24.7243 C   0  0  0  0  0  0
  -21.8812   -3.8156   23.4365 C   0  0  0  0  0  0
  -21.9190   -4.6972   22.3421 C   0  0  0  0  0  0
  -22.7850  -13.5265   21.1860 C   0  0  0  0  0  0
  -22.1660   -4.2160   21.0999 F   0  0  0  0  0  0
  -21.5634   -3.4553   25.7752 F   0  0  0  0  0  0
  -30.0167  -13.3782   20.4295 N   0  0  0  0  0  0
  -26.2990  -12.9351   20.3263 N   0  0  0  0  0  0
  -25.9307  -11.6515   20.5734 N   0  0  0  0  0  0
  -22.0459  -12.8280   22.0405 N   0  0  0  0  0  0
  -25.4273  -15.1900   20.4094 N   0  0  0  0  0  0
  -31.8175  -14.7325   20.1237 O   0  0  0  0  0  0
  -21.6656   -6.8886   21.4257 O   0  0  0  0  0  0
  -22.3552  -14.5576   20.6708 O   0  0  0  0  0  0
  -24.6177  -31.8660   23.2056 C   0  0  0  0  0  0
  -25.9059  -32.4811   23.8363 C   0  0  1  0  0  0
  -27.2303  -27.3922   20.1164 C   0  0  0  0  0  0
  -25.5903  -33.8607   24.2290 N   0  0  0  0  0  0
  -23.4081  -30.4883   21.5467 C   0  0  2  0  0  0
  -24.8572  -28.9501   20.1117 C   0  0  0  0  0  0
  -22.7428  -29.4637   22.4950 C   0  0  0  0  0  0
  -18.0277  -28.1365   22.8490 C   0  0  0  0  0  0
  -24.1488  -36.7306   23.2638 C   0  0  0  0  0  0
  -25.9415  -30.8204   21.3668 C   0  0  0  0  0  0
  -26.0208  -29.4537   20.7085 C   0  0  0  0  0  0
  -27.2145  -28.6861   20.6991 C   0  0  0  0  0  0
  -26.0530  -26.9164   19.5036 C   0  0  0  0  0  0
  -24.8709  -27.6832   19.5020 C   0  0  0  0  0  0
  -23.6195  -29.8207   20.1616 C   0  0  0  0  0  0
  -25.4115  -36.3103   24.0326 C   0  0  1  0  0  0
  -20.5871  -28.3653   23.1303 C   0  0  2  0  0  0
  -20.6761  -26.9386   22.5412 C   0  0  0  0  0  0
  -19.5740  -26.6367   21.5209 C   0  0  0  0  0  0
  -18.1920  -26.7909   22.1621 C   0  0  0  0  0  0
  -19.1529  -28.8825   23.2895 C   0  0  0  0  0  0
  -18.9458  -30.1430   23.8904 C   0  0  0  0  0  0
  -17.6463  -30.6576   24.0557 C   0  0  0  0  0  0
  -25.9049  -34.9475   23.5107 C   0  0  0  0  0  0
  -16.5352  -29.9076   23.6328 C   0  0  0  0  0  0
  -16.7267  -28.6491   23.0352 C   0  0  0  0  0  0
  -26.4470  -31.6611   25.0718 C   0  0  0  0  0  0
  -25.3717  -31.3752   26.1457 C   0  0  0  0  0  0
  -27.0319  -30.3042   24.6149 C   0  0  0  0  0  0
  -27.6028  -32.4344   25.7496 C   0  0  0  0  0  0
  -27.5578  -37.1816   24.8459 C   0  0  0  0  0  0
  -21.4147  -29.3024   22.3700 N   0  0  0  0  0  0
  -26.4297  -37.3790   23.9397 N   0  0  0  0  0  0
  -24.6737  -31.0728   22.0975 N   0  0  0  0  0  0
  -23.4188  -28.8183   23.3004 O   0  0  0  0  0  0
  -28.3595  -26.5879   20.1343 O   0  0  0  0  0  0
  -26.5616  -34.8933   22.4675 O   0  0  0  0  0  0
  -23.5359  -32.1429   23.7429 O   0  0  0  0  0  0
  -29.7780  -19.6830   19.1501 C   0  0  0  0  0  0
  -29.9958  -18.5873   18.2992 C   0  0  0  0  0  0
  -29.6377  -18.1425   21.0326 C   0  0  0  0  0  0
  -29.5665  -19.4808   20.5259 C   0  0  0  0  0  0
  -30.0180  -17.2642   18.7932 C   0  0  0  0  0  0
  -29.8845  -17.0117   20.1908 C   0  0  0  0  0  0
  -27.8479  -22.7656   20.6846 C   0  0  0  0  0  0
  -29.8650  -23.1852   20.5178 C   0  0  0  0  0  0
  -28.6094  -24.0170   20.1676 C   0  0  2  0  0  0
  -30.0990  -16.1533   17.7645 C   0  0  0  0  0  0
  -29.2598  -20.6862   21.4494 C   0  0  0  0  0  0
  -28.2409  -25.3511   20.8993 C   0  0  0  0  0  0
  -29.0033  -22.0229   20.8395 N   0  0  0  0  0  0
  -29.8452  -15.6662   20.7451 N   0  0  0  0  0  0
  -26.6898  -22.4776   20.9123 O   0  0  0  0  0  0
  -31.4838  -12.4600   19.1729 H   0  0  0  0  0  0
  -30.3773  -11.3543   19.9299 H   0  0  0  0  0  0
  -29.7648  -11.6158   17.5454 H   0  0  0  0  0  0
  -29.7131  -13.3395   17.6813 H   0  0  0  0  0  0
  -27.8253  -11.2858   18.8589 H   0  0  0  0  0  0
  -27.4037  -12.5898   17.7785 H   0  0  0  0  0  0
  -27.6789  -14.2457   19.5146 H   0  0  0  0  0  0
  -28.6866  -12.0502   21.3889 H   0  0  0  0  0  0
  -28.4446  -13.7169   21.8302 H   0  0  0  0  0  0
  -25.2746   -9.5723   22.4783 H   0  0  0  0  0  0
  -24.0027   -7.4644   22.7479 H   0  0  0  0  0  0
  -21.0843   -8.8760   19.8974 H   0  0  0  0  0  0
  -22.3665  -10.9691   19.6199 H   0  0  0  0  0  0
  -21.1995   -7.6157   23.9730 H   0  0  0  0  0  0
  -21.1491   -6.0547   25.9095 H   0  0  0  0  0  0
  -22.0593   -2.7620   23.2871 H   0  0  0  0  0  0
  -22.4024  -11.9947   22.4852 H   0  0  0  0  0  0
  -21.1075  -13.1353   22.2558 H   0  0  0  0  0  0
  -24.6574  -15.8416   20.5213 H   0  0  0  0  0  0
  -26.2762  -15.6352   20.0852 H   0  0  0  0  0  0
  -26.7122  -32.5512   23.1118 H   0  0  0  0  0  0
  -25.0036  -33.9748   25.0421 H   0  0  0  0  0  0
  -22.6993  -31.3070   21.4059 H   0  0  0  0  0  0
  -23.3749  -35.9642   23.3321 H   0  0  0  0  0  0
  -24.3567  -36.8909   22.2047 H   0  0  0  0  0  0
  -23.7255  -37.6517   23.6650 H   0  0  0  0  0  0
  -26.0665  -31.5934   20.6069 H   0  0  0  0  0  0
  -26.8227  -30.8643   21.9953 H   0  0  0  0  0  0
  -28.1132  -29.0723   21.1595 H   0  0  0  0  0  0
  -26.0491  -25.9436   19.0322 H   0  0  0  0  0  0
  -23.9776  -27.2895   19.0375 H   0  0  0  0  0  0
  -23.7289  -30.5983   19.4045 H   0  0  0  0  0  0
  -22.7427  -29.2433   19.8619 H   0  0  0  0  0  0
  -25.1302  -36.1959   25.0819 H   0  0  0  0  0  0
  -20.9960  -28.3220   24.1424 H   0  0  0  0  0  0
  -20.5641  -26.2269   23.3601 H   0  0  0  0  0  0
  -21.6637  -26.7408   22.1226 H   0  0  0  0  0  0
  -19.6905  -25.6281   21.1229 H   0  0  0  0  0  0
  -19.6679  -27.3181   20.6743 H   0  0  0  0  0  0
  -17.4191  -26.6652   21.4022 H   0  0  0  0  0  0
  -18.0326  -26.0043   22.9007 H   0  0  0  0  0  0
  -19.7938  -30.7236   24.2275 H   0  0  0  0  0  0
  -17.5026  -31.6262   24.5145 H   0  0  0  0  0  0
  -15.5355  -30.2983   23.7645 H   0  0  0  0  0  0
  -15.8664  -28.0806   22.7070 H   0  0  0  0  0  0
  -24.5848  -30.7156   25.7781 H   0  0  0  0  0  0
  -24.8968  -32.2937   26.4918 H   0  0  0  0  0  0
  -25.8041  -30.8884   27.0209 H   0  0  0  0  0  0
  -26.2900  -29.6807   24.1149 H   0  0  0  0  0  0
  -27.4006  -29.7277   25.4644 H   0  0  0  0  0  0
  -27.8765  -30.4333   23.9376 H   0  0  0  0  0  0
  -27.2615  -33.3614   26.2112 H   0  0  0  0  0  0
  -28.3828  -32.6963   25.0337 H   0  0  0  0  0  0
  -28.0717  -31.8462   26.5391 H   0  0  0  0  0  0
  -28.2614  -38.0096   24.7499 H   0  0  0  0  0  0
  -28.1060  -36.2634   24.6304 H   0  0  0  0  0  0
  -27.2290  -37.1488   25.8860 H   0  0  0  0  0  0
  -20.9298  -29.8767   21.6947 H   0  0  0  0  0  0
  -26.0186  -38.2868   24.1393 H   0  0  0  0  0  0
  -29.7477  -20.6783   18.7282 H   0  0  0  0  0  0
  -30.1063  -18.7728   17.2390 H   0  0  0  0  0  0
  -29.4856  -17.9785   22.0908 H   0  0  0  0  0  0
  -30.4190  -23.5693   21.3769 H   0  0  0  0  0  0
  -30.5307  -23.0293   19.6672 H   0  0  0  0  0  0
  -28.4957  -24.1104   19.0879 H   0  0  0  0  0  0
  -29.9647  -16.5310   16.7503 H   0  0  0  0  0  0
  -29.3006  -15.4365   17.9444 H   0  0  0  0  0  0
  -31.0630  -15.6485   17.8015 H   0  0  0  0  0  0
  -30.0882  -20.7894   22.1519 H   0  0  0  0  0  0
  -28.3924  -20.4192   22.0548 H   0  0  0  0  0  0
  -28.9007  -25.4796   21.7586 H   0  0  0  0  0  0
  -27.2431  -25.2715   21.3366 H   0  0  0  0  0  0
  -28.9962  -15.4348   21.2376 H   0  0  0  0  0  0
  1 25  1  0  0  0
  1 30  2  0  0  0
  1 84  1  0  0  0
  2  3  1  0  0  0
  2 25  1  0  0  0
  2 86  1  0  0  0
  2 87  1  0  0  0
  3  4  1  0  0  0
  3 88  1  0  0  0
  3 89  1  0  0  0
  4  5  1  0  0  0
  4 90  1  0  0  0
  4 91  1  0  0  0
  5  6  1  0  0  0
  5 26  1  0  0  0
  5 92  1  0  0  0
  6 25  1  0  0  0
  6 93  1  0  0  0
  6 94  1  0  0  0
  7  8  2  0  0  0
  7 26  1  0  0  0
  7 29  1  0  0  0
  8  9  1  0  0  0
  8 22  1  0  0  0
  9 10  1  0  0  0
  9 27  2  0  0  0
 10 11  2  0  0  0
 10 15  1  0  0  0
 11 12  1  0  0  0
 11 95  1  0  0  0
 12 13  2  0  0  0
 12 96  1  0  0  0
 13 14  1  0  0  0
 13 31  1  0  0  0
 14 15  2  0  0  0
 14 97  1  0  0  0
 15 98  1  0  0  0
 16 17  2  0  0  0
 16 21  1  0  0  0
 16 31  1  0  0  0
 17 18  1  0  0  0
 17 99  1  0  0  0
 18 19  2  0  0  0
 18100  1  0  0  0
 19 20  1  0  0  0
 19 24  1  0  0  0
 20 21  2  0  0  0
 20101  1  0  0  0
 21 23  1  0  0  0
 22 28  1  0  0  0
 22 32  2  0  0  0
 26 27  1  0  0  0
 28102  1  0  0  0
 28103  1  0  0  0
 29104  1  0  0  0
 29105  1  0  0  0
 33 34  1  0  0  0
 33 66  1  0  0  0
 33 70  2  0  0  0
 34 36  1  0  0  0
 34 59  1  0  0  0
 34106  1  0  0  0
 35 44  2  0  0  0
 35 45  1  0  0  0
 35 68  1  0  0  0
 36 56  1  0  0  0
 36107  1  0  0  0
 37 39  1  0  0  0
 37 47  1  0  0  0
 37 66  1  0  0  0
 37108  1  0  0  0
 38 43  2  0  0  0
 38 46  1  0  0  0
 38 47  1  0  0  0
 39 64  1  0  0  0
 39 67  2  0  0  0
 40 52  1  0  0  0
 40 53  2  0  0  0
 40 58  1  0  0  0
 41109  1  0  0  0
 41110  1  0  0  0
 41111  1  0  0  0
 41 48  1  0  0  0
 42 43  1  0  0  0
 42 66  1  0  0  0
 42112  1  0  0  0
 42113  1  0  0  0
 43 44  1  0  0  0
 44114  1  0  0  0
 45 46  2  0  0  0
 45115  1  0  0  0
 46116  1  0  0  0
 47117  1  0  0  0
 47118  1  0  0  0
 48 56  1  0  0  0
 48 65  1  0  0  0
 48119  1  0  0  0
 49 50  1  0  0  0
 49 53  1  0  0  0
 49 64  1  0  0  0
 49120  1  0  0  0
 50 51  1  0  0  0
 50121  1  0  0  0
 50122  1  0  0  0
 51 52  1  0  0  0
 51123  1  0  0  0
 51124  1  0  0  0
 52125  1  0  0  0
 52126  1  0  0  0
 53 54  1  0  0  0
 54 55  2  0  0  0
 54127  1  0  0  0
 55 57  1  0  0  0
 55128  1  0  0  0
 56 69  2  0  0  0
 57 58  2  0  0  0
 57129  1  0  0  0
 58130  1  0  0  0
 59 60  1  0  0  0
 59 61  1  0  0  0
 59 62  1  0  0  0
 60131  1  0  0  0
 60132  1  0  0  0
 60133  1  0  0  0
 61134  1  0  0  0
 61135  1  0  0  0
 61136  1  0  0  0
 62137  1  0  0  0
 62138  1  0  0  0
 62139  1  0  0  0
 63 65  1  0  0  0
 63140  1  0  0  0
 63141  1  0  0  0
 63142  1  0  0  0
 64143  1  0  0  0
 65144  1  0  0  0
 68 82  1  0  0  0
 71 72  2  0  0  0
 71 74  1  0  0  0
 71145  1  0  0  0
 72 75  1  0  0  0
 72146  1  0  0  0
 73 74  2  0  0  0
 73 76  1  0  0  0
 73147  1  0  0  0
 74 81  1  0  0  0
 75 76  2  0  0  0
 75 80  1  0  0  0
 76 84  1  0  0  0
 77 79  1  0  0  0
 77 83  1  0  0  0
 77 85  2  0  0  0
 78 79  1  0  0  0
 78 83  1  0  0  0
 78148  1  0  0  0
 78149  1  0  0  0
 79 82  1  0  0  0
 79150  1  0  0  0
 80151  1  0  0  0
 80152  1  0  0  0
 80153  1  0  0  0
 81 83  1  0  0  0
 81154  1  0  0  0
 81155  1  0  0  0
 82156  1  0  0  0
 82157  1  0  0  0
 84158  1  0  0  0
M  ISO  4   1 100  68 101  82 101  84 100
M  END
> <chiral flag>
0

> <version>
0

> <s_m_source_file>
/data/baiqing/PycharmProjects/Reinvent-master-3.2/result/LINK_invent/BTK/process_docking_weight1_custom_product_contain_oxygen_bond_distance_aromatic_linkinvent_7_9_3/rearranged_h_0028.sdf

> <i_m_source_file_index>
16

> <r_mmod_Potential_Energy-OPLS-2005>
-26.5660419464111

> <r_mmod_Stretch_Energy-OPLS-2005>
55.6595230102539

> <r_mmod_Bend_Energy-OPLS-2005>
109.480690002441

> <r_mmod_Torsional_Energy-OPLS-2005>
279.468109130859

> <r_mmod_Improper_Torsional_Energy-OPLS-2005>
5.64899730682373

> <r_mmod_Van_der_Waal_Energy-OPLS-2005>
138.205337524414

> <r_mmod_Electrostatic_Energy-OPLS-2005>
-418.200866699219

> <r_mmod_Solvation_Energy-OPLS-2005>
-229.409149169922

> <b_mmod_Minimization_Converged-OPLS-2005>
0

> <r_mmod_RMS_Derivative-OPLS-2005>
2.16421055793762

$$$$
16
                    3D
 Structure written by MMmdl.
163172  0  0  1  0            999 V2000
  -30.6329  -14.5807   20.4964 C   0  0  0  0  0  0
  -30.4393  -12.3297   19.4870 C   0  0  0  0  0  0
  -29.5283  -12.4345   18.2446 C   0  0  0  0  0  0
  -28.0367  -12.3324   18.6337 C   0  0  0  0  0  0
  -27.6596  -13.1995   19.8692 C   0  0  2  0  0  0
  -28.6928  -13.0421   21.0070 C   0  0  0  0  0  0
  -25.2618  -13.8169   20.5624 C   0  0  0  0  0  0
  -24.1854  -13.0452   20.9090 C   0  0  0  0  0  0
  -24.6389  -11.6928   20.8665 C   0  0  0  0  0  0
  -23.9033  -10.4338   21.0354 C   0  0  0  0  0  0
  -24.3619   -9.4301   21.9149 C   0  0  0  0  0  0
  -23.6309   -8.2336   22.0775 C   0  0  0  0  0  0
  -22.4291   -8.0334   21.3569 C   0  0  0  0  0  0
  -21.9883   -9.0282   20.4671 C   0  0  0  0  0  0
  -22.7186  -10.2167   20.3029 C   0  0  0  0  0  0
  -21.6905   -6.0770   22.5286 C   0  0  0  0  0  0
  -21.4044   -6.5676   23.8210 C   0  0  0  0  0  0
  -21.3611   -5.6823   24.9166 C   0  0  0  0  0  0
  -21.6017   -4.3089   24.7224 C   0  0  0  0  0  0
  -21.8844   -3.8182   23.4356 C   0  0  0  0  0  0
  -21.9228   -4.6994   22.3410 C   0  0  0  0  0  0
  -22.7905  -13.5284   21.1739 C   0  0  0  0  0  0
  -22.1706   -4.2180   21.0985 F   0  0  0  0  0  0
  -21.5566   -3.4570   25.7731 F   0  0  0  0  0  0
  -30.0190  -13.3601   20.4562 N   0  0  0  0  0  0
  -26.3024  -12.9301   20.3303 N   0  0  0  0  0  0
  -25.9320  -11.6483   20.5742 N   0  0  0  0  0  0
  -22.0539  -12.8300   22.0326 N   0  0  0  0  0  0
  -25.4333  -15.1895   20.4104 N   0  0  0  0  0  0
  -31.7742  -14.7535   20.0598 O   0  0  0  0  0  0
  -21.6689   -6.8914   21.4250 O   0  0  0  0  0  0
  -22.3609  -14.5578   20.6584 O   0  0  0  0  0  0
  -24.6161  -31.8657   23.2071 C   0  0  0  0  0  0
  -25.9027  -32.4820   23.8387 C   0  0  1  0  0  0
  -27.2282  -27.3971   20.1135 C   0  0  0  0  0  0
  -25.5875  -33.8623   24.2314 N   0  0  0  0  0  0
  -23.4073  -30.4856   21.5464 C   0  0  2  0  0  0
  -24.8560  -28.9494   20.1011 C   0  0  0  0  0  0
  -22.7420  -29.4638   22.4977 C   0  0  0  0  0  0
  -18.0275  -28.1370   22.8512 C   0  0  0  0  0  0
  -24.1486  -36.7320   23.2635 C   0  0  0  0  0  0
  -25.9344  -30.8197   21.3631 C   0  0  0  0  0  0
  -26.0107  -29.4501   20.7133 C   0  0  0  0  0  0
  -27.1941  -28.6743   20.7281 C   0  0  0  0  0  0
  -26.0656  -26.9252   19.4697 C   0  0  0  0  0  0
  -24.8808  -27.6900   19.4730 C   0  0  0  0  0  0
  -23.6173  -29.8186   20.1587 C   0  0  0  0  0  0
  -25.4111  -36.3123   24.0331 C   0  0  1  0  0  0
  -20.5861  -28.3664   23.1325 C   0  0  2  0  0  0
  -20.6756  -26.9398   22.5431 C   0  0  0  0  0  0
  -19.5742  -26.6385   21.5217 C   0  0  0  0  0  0
  -18.1920  -26.7929   22.1622 C   0  0  0  0  0  0
  -19.1522  -28.8833   23.2916 C   0  0  0  0  0  0
  -18.9447  -30.1441   23.8931 C   0  0  0  0  0  0
  -17.6450  -30.6582   24.0573 C   0  0  0  0  0  0
  -25.9036  -34.9482   23.5128 C   0  0  0  0  0  0
  -16.5343  -29.9090   23.6320 C   0  0  0  0  0  0
  -16.7268  -28.6494   23.0367 C   0  0  0  0  0  0
  -26.4447  -31.6607   25.0724 C   0  0  0  0  0  0
  -25.3710  -31.3704   26.1473 C   0  0  0  0  0  0
  -27.0261  -30.3057   24.6077 C   0  0  0  0  0  0
  -27.6055  -32.4310   25.7460 C   0  0  0  0  0  0
  -27.5592  -37.1808   24.8459 C   0  0  0  0  0  0
  -21.4141  -29.3026   22.3716 N   0  0  0  0  0  0
  -26.4299  -37.3811   23.9410 N   0  0  0  0  0  0
  -24.6708  -31.0728   22.0982 N   0  0  0  0  0  0
  -23.4175  -28.8188   23.3040 O   0  0  0  0  0  0
  -28.3465  -26.5988   20.2663 O   0  0  0  0  0  0
  -26.5619  -34.8934   22.4705 O   0  0  0  0  0  0
  -23.5340  -32.1421   23.7435 O   0  0  0  0  0  0
  -29.5455  -18.1433   20.7823 C   0  0  0  0  0  0
  -28.5373  -17.8092   18.1890 C   0  0  0  0  0  0
  -29.0278  -19.2880   20.0806 C   0  0  0  0  0  0
  -29.5609  -16.8326   20.1932 C   0  0  0  0  0  0
  -28.4539  -19.0647   18.8068 C   0  0  0  0  0  0
  -29.0928  -16.7121   18.8630 C   0  0  0  0  0  0
  -29.8136  -22.5258   17.4137 C   0  0  0  0  0  0
  -29.5529  -24.0058   17.6993 C   0  0  0  0  0  0
  -30.1983  -21.7858   18.6948 C   0  0  0  0  0  0
  -28.8960  -23.2930   20.1153 C   0  0  0  0  0  0
  -28.6464  -24.3171   18.9270 C   0  0  1  0  0  0
  -29.0519  -20.7430   20.6633 C   0  0  0  0  0  0
  -28.8918  -25.8599   19.1704 C   0  0  0  0  0  0
  -29.8872  -15.6301   20.9405 N   0  0  0  0  0  0
  -29.0636  -21.8631   19.6431 N   0  3  2  0  0  0
  -27.8419  -20.0742   18.1413 F   0  0  0  0  0  0
  -29.1101  -15.5244   18.2236 F   0  0  0  0  0  0
  -31.4877  -12.4330   19.2015 H   0  0  0  0  0  0
  -30.3559  -11.3391   19.9392 H   0  0  0  0  0  0
  -29.7768  -11.6401   17.5397 H   0  0  0  0  0  0
  -29.7314  -13.3638   17.7179 H   0  0  0  0  0  0
  -27.8305  -11.2816   18.8455 H   0  0  0  0  0  0
  -27.4071  -12.5909   17.7814 H   0  0  0  0  0  0
  -27.6771  -14.2337   19.5413 H   0  0  0  0  0  0
  -28.6840  -12.0205   21.3903 H   0  0  0  0  0  0
  -28.4346  -13.6770   21.8571 H   0  0  0  0  0  0
  -25.2773   -9.5840   22.4696 H   0  0  0  0  0  0
  -24.0052   -7.4761   22.7518 H   0  0  0  0  0  0
  -21.0807   -8.8765   19.9000 H   0  0  0  0  0  0
  -22.3589  -10.9688   19.6146 H   0  0  0  0  0  0
  -21.2080   -7.6193   23.9707 H   0  0  0  0  0  0
  -21.1346   -6.0562   25.9040 H   0  0  0  0  0  0
  -22.0651   -2.7649   23.2859 H   0  0  0  0  0  0
  -22.4156  -11.9967   22.4711 H   0  0  0  0  0  0
  -21.1159  -13.1355   22.2475 H   0  0  0  0  0  0
  -24.6571  -15.8373   20.4919 H   0  0  0  0  0  0
  -26.2958  -15.6399   20.1374 H   0  0  0  0  0  0
  -26.7103  -32.5529   23.1155 H   0  0  0  0  0  0
  -25.0014  -33.9802   25.0451 H   0  0  0  0  0  0
  -22.6975  -31.3030   21.4065 H   0  0  0  0  0  0
  -23.3762  -35.9638   23.3288 H   0  0  0  0  0  0
  -24.3573  -36.8955   22.2047 H   0  0  0  0  0  0
  -23.7214  -37.6508   23.6665 H   0  0  0  0  0  0
  -26.0397  -31.5794   20.5876 H   0  0  0  0  0  0
  -26.8241  -30.8839   21.9781 H   0  0  0  0  0  0
  -28.0774  -29.0389   21.2334 H   0  0  0  0  0  0
  -26.0531  -25.9480   19.0110 H   0  0  0  0  0  0
  -23.9915  -27.2998   18.9984 H   0  0  0  0  0  0
  -23.7254  -30.5956   19.4011 H   0  0  0  0  0  0
  -22.7403  -29.2402   19.8637 H   0  0  0  0  0  0
  -25.1283  -36.2001   25.0821 H   0  0  0  0  0  0
  -20.9956  -28.3229   24.1441 H   0  0  0  0  0  0
  -20.5651  -26.2269   23.3615 H   0  0  0  0  0  0
  -21.6635  -26.7436   22.1232 H   0  0  0  0  0  0
  -19.6905  -25.6297   21.1242 H   0  0  0  0  0  0
  -19.6689  -27.3202   20.6751 H   0  0  0  0  0  0
  -17.4197  -26.6714   21.4012 H   0  0  0  0  0  0
  -18.0305  -26.0045   22.8988 H   0  0  0  0  0  0
  -19.7916  -30.7249   24.2327 H   0  0  0  0  0  0
  -17.4997  -31.6263   24.5168 H   0  0  0  0  0  0
  -15.5345  -30.3002   23.7601 H   0  0  0  0  0  0
  -15.8673  -28.0807   22.7089 H   0  0  0  0  0  0
  -24.5892  -30.7042   25.7800 H   0  0  0  0  0  0
  -24.8876  -32.2846   26.4934 H   0  0  0  0  0  0
  -25.8052  -30.8866   27.0233 H   0  0  0  0  0  0
  -26.2788  -29.6842   24.1129 H   0  0  0  0  0  0
  -27.4039  -29.7274   25.4518 H   0  0  0  0  0  0
  -27.8622  -30.4392   23.9207 H   0  0  0  0  0  0
  -27.2718  -33.3613   26.2072 H   0  0  0  0  0  0
  -28.3822  -32.6864   25.0237 H   0  0  0  0  0  0
  -28.0766  -31.8407   26.5331 H   0  0  0  0  0  0
  -28.2609  -38.0109   24.7538 H   0  0  0  0  0  0
  -28.1093  -36.2648   24.6255 H   0  0  0  0  0  0
  -27.2320  -37.1427   25.8865 H   0  0  0  0  0  0
  -20.9295  -29.8750   21.6944 H   0  0  0  0  0  0
  -26.0197  -38.2890   24.1437 H   0  0  0  0  0  0
  -29.9171  -18.2688   21.7901 H   0  0  0  0  0  0
  -28.1484  -17.6764   17.1909 H   0  0  0  0  0  0
  -30.6274  -22.4389   16.6920 H   0  0  0  0  0  0
  -28.9440  -22.0654   16.9428 H   0  0  0  0  0  0
  -29.1370  -24.4761   16.8057 H   0  0  0  0  0  0
  -30.5313  -24.4668   17.8414 H   0  0  0  0  0  0
  -31.0980  -22.2116   19.1445 H   0  0  0  0  0  0
  -30.4504  -20.7597   18.4385 H   0  0  0  0  0  0
  -28.0562  -23.3487   20.8099 H   0  0  0  0  0  0
  -29.7770  -23.5861   20.6873 H   0  0  0  0  0  0
  -27.6092  -24.1847   18.6159 H   0  0  0  0  0  0
  -29.9216  -20.8548   21.3115 H   0  0  0  0  0  0
  -28.1744  -20.8565   21.3029 H   0  0  0  0  0  0
  -28.6682  -26.4058   18.2516 H   0  0  0  0  0  0
  -29.9644  -25.9911   19.3177 H   0  0  0  0  0  0
  -29.1456  -15.3356   21.5563 H   0  0  0  0  0  0
  -28.2451  -21.6606   19.0825 H   0  0  0  0  0  0
  1 25  1  0  0  0
  1 30  2  0  0  0
  1 84  1  0  0  0
  2  3  1  0  0  0
  2 25  1  0  0  0
  2 88  1  0  0  0
  2 89  1  0  0  0
  3  4  1  0  0  0
  3 90  1  0  0  0
  3 91  1  0  0  0
  4  5  1  0  0  0
  4 92  1  0  0  0
  4 93  1  0  0  0
  5  6  1  0  0  0
  5 26  1  0  0  0
  5 94  1  0  0  0
  6 25  1  0  0  0
  6 95  1  0  0  0
  6 96  1  0  0  0
  7  8  2  0  0  0
  7 26  1  0  0  0
  7 29  1  0  0  0
  8  9  1  0  0  0
  8 22  1  0  0  0
  9 10  1  0  0  0
  9 27  2  0  0  0
 10 11  2  0  0  0
 10 15  1  0  0  0
 11 12  1  0  0  0
 11 97  1  0  0  0
 12 13  2  0  0  0
 12 98  1  0  0  0
 13 14  1  0  0  0
 13 31  1  0  0  0
 14 15  2  0  0  0
 14 99  1  0  0  0
 15100  1  0  0  0
 16 17  2  0  0  0
 16 21  1  0  0  0
 16 31  1  0  0  0
 17 18  1  0  0  0
 17101  1  0  0  0
 18 19  2  0  0  0
 18102  1  0  0  0
 19 20  1  0  0  0
 19 24  1  0  0  0
 20 21  2  0  0  0
 20103  1  0  0  0
 21 23  1  0  0  0
 22 28  1  0  0  0
 22 32  2  0  0  0
 26 27  1  0  0  0
 28104  1  0  0  0
 28105  1  0  0  0
 29106  1  0  0  0
 29107  1  0  0  0
 33 34  1  0  0  0
 33 66  1  0  0  0
 33 70  2  0  0  0
 34 36  1  0  0  0
 34 59  1  0  0  0
 34108  1  0  0  0
 35 44  2  0  0  0
 35 45  1  0  0  0
 35 68  1  0  0  0
 36 56  1  0  0  0
 36109  1  0  0  0
 37 39  1  0  0  0
 37 47  1  0  0  0
 37 66  1  0  0  0
 37110  1  0  0  0
 38 43  2  0  0  0
 38 46  1  0  0  0
 38 47  1  0  0  0
 39 64  1  0  0  0
 39 67  2  0  0  0
 40 52  1  0  0  0
 40 53  2  0  0  0
 40 58  1  0  0  0
 41111  1  0  0  0
 41112  1  0  0  0
 41113  1  0  0  0
 41 48  1  0  0  0
 42 43  1  0  0  0
 42 66  1  0  0  0
 42114  1  0  0  0
 42115  1  0  0  0
 43 44  1  0  0  0
 44116  1  0  0  0
 45 46  2  0  0  0
 45117  1  0  0  0
 46118  1  0  0  0
 47119  1  0  0  0
 47120  1  0  0  0
 48 56  1  0  0  0
 48 65  1  0  0  0
 48121  1  0  0  0
 49 50  1  0  0  0
 49 53  1  0  0  0
 49 64  1  0  0  0
 49122  1  0  0  0
 50 51  1  0  0  0
 50123  1  0  0  0
 50124  1  0  0  0
 51 52  1  0  0  0
 51125  1  0  0  0
 51126  1  0  0  0
 52127  1  0  0  0
 52128  1  0  0  0
 53 54  1  0  0  0
 54 55  2  0  0  0
 54129  1  0  0  0
 55 57  1  0  0  0
 55130  1  0  0  0
 56 69  2  0  0  0
 57 58  2  0  0  0
 57131  1  0  0  0
 58132  1  0  0  0
 59 60  1  0  0  0
 59 61  1  0  0  0
 59 62  1  0  0  0
 60133  1  0  0  0
 60134  1  0  0  0
 60135  1  0  0  0
 61136  1  0  0  0
 61137  1  0  0  0
 61138  1  0  0  0
 62139  1  0  0  0
 62140  1  0  0  0
 62141  1  0  0  0
 63 65  1  0  0  0
 63142  1  0  0  0
 63143  1  0  0  0
 63144  1  0  0  0
 64145  1  0  0  0
 65146  1  0  0  0
 68 83  1  0  0  0
 71 73  2  0  0  0
 71 74  1  0  0  0
 71147  1  0  0  0
 72 75  2  0  0  0
 72 76  1  0  0  0
 72148  1  0  0  0
 73 75  1  0  0  0
 73 82  1  0  0  0
 74 76  2  0  0  0
 74 84  1  0  0  0
 75 86  1  0  0  0
 76 87  1  0  0  0
 77 78  1  0  0  0
 77 79  1  0  0  0
 77149  1  0  0  0
 77150  1  0  0  0
 78 81  1  0  0  0
 78151  1  0  0  0
 78152  1  0  0  0
 79 85  1  0  0  0
 79153  1  0  0  0
 79154  1  0  0  0
 80 81  1  0  0  0
 80 85  1  0  0  0
 80155  1  0  0  0
 80156  1  0  0  0
 81 83  1  0  0  0
 81157  1  0  0  0
 82158  1  0  0  0
 82159  1  0  0  0
 82 85  1  0  0  0
 83160  1  0  0  0
 83161  1  0  0  0
 84162  1  0  0  0
 85163  1  0  0  0
M  CHG  1  85   1
M  ISO  4   1 100  68 101  83 101  84 100
M  END
> <chiral flag>
0

> <version>
0

> <s_m_source_file>
/data/baiqing/PycharmProjects/Reinvent-master-3.2/result/LINK_invent/BTK/process_docking_weight1_custom_product_contain_oxygen_bond_distance_aromatic_linkinvent_7_9_3/rearranged_h_0028.sdf

> <i_m_source_file_index>
17

> <r_mmod_Potential_Energy-OPLS-2005>
-77.8017501831055

> <r_mmod_Stretch_Energy-OPLS-2005>
62.0838775634766

> <r_mmod_Bend_Energy-OPLS-2005>
146.064315795898

> <r_mmod_Torsional_Energy-OPLS-2005>
303.967041015625

> <r_mmod_Improper_Torsional_Energy-OPLS-2005>
6.58945465087891

> <r_mmod_Van_der_Waal_Energy-OPLS-2005>
156.871444702148

> <r_mmod_Electrostatic_Energy-OPLS-2005>
-345.874786376953

> <r_mmod_Solvation_Energy-OPLS-2005>
-442.2412109375

> <b_mmod_Minimization_Converged-OPLS-2005>
0

> <r_mmod_RMS_Derivative-OPLS-2005>
2.82702445983887

$$$$
17
                    3D
 Structure written by MMmdl.
161170  0  0  1  0            999 V2000
  -30.6248  -14.8219   20.4928 C   0  0  0  0  0  0
  -30.4236  -12.5139   19.4968 C   0  0  0  0  0  0
  -29.5118  -12.5234   18.2510 C   0  0  0  0  0  0
  -28.0409  -12.3301   18.6620 C   0  0  0  0  0  0
  -27.6337  -13.2436   19.8464 C   0  0  2  0  0  0
  -28.6707  -13.2165   20.9863 C   0  0  0  0  0  0
  -25.2466  -13.8226   20.5692 C   0  0  0  0  0  0
  -24.1775  -13.0448   20.9202 C   0  0  0  0  0  0
  -24.6383  -11.6933   20.8746 C   0  0  0  0  0  0
  -23.9068  -10.4303   21.0399 C   0  0  0  0  0  0
  -24.3615   -9.4221   21.9180 C   0  0  0  0  0  0
  -23.6293   -8.2255   22.0757 C   0  0  0  0  0  0
  -22.4282   -8.0286   21.3542 C   0  0  0  0  0  0
  -21.9915   -9.0254   20.4641 C   0  0  0  0  0  0
  -22.7238  -10.2135   20.3045 C   0  0  0  0  0  0
  -21.6852   -6.0741   22.5280 C   0  0  0  0  0  0
  -21.4011   -6.5639   23.8212 C   0  0  0  0  0  0
  -21.3656   -5.6790   24.9174 C   0  0  0  0  0  0
  -21.6049   -4.3055   24.7225 C   0  0  0  0  0  0
  -21.8815   -3.8145   23.4343 C   0  0  0  0  0  0
  -21.9189   -4.6967   22.3403 C   0  0  0  0  0  0
  -22.7794  -13.5215   21.1872 C   0  0  0  0  0  0
  -22.1658   -4.2151   21.0981 F   0  0  0  0  0  0
  -21.5633   -3.4542   25.7738 F   0  0  0  0  0  0
  -29.9685  -13.5991   20.4115 N   0  0  0  0  0  0
  -26.2889  -12.9448   20.3260 N   0  0  0  0  0  0
  -25.9313  -11.6581   20.5743 N   0  0  0  0  0  0
  -22.0448  -12.8191   22.0418 N   0  0  0  0  0  0
  -25.4157  -15.1953   20.4145 N   0  0  0  0  0  0
  -31.7884  -14.8669   20.0770 O   0  0  0  0  0  0
  -21.6637   -6.8883   21.4241 O   0  0  0  0  0  0
  -22.3478  -14.5530   20.6734 O   0  0  0  0  0  0
  -24.6359  -31.8483   23.1940 C   0  0  0  0  0  0
  -25.9170  -32.4708   23.8298 C   0  0  1  0  0  0
  -27.2202  -27.2084   20.1415 C   0  0  0  0  0  0
  -25.5944  -33.8517   24.2232 N   0  0  0  0  0  0
  -23.4347  -30.4695   21.5365 C   0  0  2  0  0  0
  -24.8848  -28.9076   20.1061 C   0  0  0  0  0  0
  -22.7532  -29.4546   22.4870 C   0  0  0  0  0  0
  -18.0301  -28.1369   22.8459 C   0  0  0  0  0  0
  -24.1485  -36.7261   23.2641 C   0  0  0  0  0  0
  -25.9841  -30.7454   21.3806 C   0  0  0  0  0  0
  -26.0559  -29.3632   20.7229 C   0  0  0  0  0  0
  -27.2234  -28.5267   20.7278 C   0  0  0  0  0  0
  -26.0259  -26.8300   19.4908 C   0  0  0  0  0  0
  -24.8783  -27.6514   19.4780 C   0  0  0  0  0  0
  -23.6592  -29.8038   20.1526 C   0  0  0  0  0  0
  -25.4117  -36.3041   24.0318 C   0  0  1  0  0  0
  -20.5906  -28.3681   23.1248 C   0  0  2  0  0  0
  -20.6779  -26.9384   22.5405 C   0  0  0  0  0  0
  -19.5764  -26.6363   21.5192 C   0  0  0  0  0  0
  -18.1935  -26.7908   22.1588 C   0  0  0  0  0  0
  -19.1554  -28.8846   23.2841 C   0  0  0  0  0  0
  -18.9480  -30.1447   23.8859 C   0  0  0  0  0  0
  -17.6477  -30.6561   24.0560 C   0  0  0  0  0  0
  -25.9064  -34.9415   23.5081 C   0  0  0  0  0  0
  -16.5374  -29.9053   23.6337 C   0  0  0  0  0  0
  -16.7288  -28.6479   23.0341 C   0  0  0  0  0  0
  -26.4539  -31.6556   25.0708 C   0  0  0  0  0  0
  -25.3752  -31.3710   26.1427 C   0  0  0  0  0  0
  -27.0416  -30.2970   24.6232 C   0  0  0  0  0  0
  -27.6085  -32.4320   25.7477 C   0  0  0  0  0  0
  -27.5577  -37.1773   24.8464 C   0  0  0  0  0  0
  -21.4229  -29.3024   22.3632 N   0  0  0  0  0  0
  -26.4283  -37.3750   23.9419 N   0  0  0  0  0  0
  -24.7039  -31.0406   22.0940 N   0  0  0  0  0  0
  -23.4213  -28.8087   23.2986 O   0  0  0  0  0  0
  -28.3070  -26.2936   20.2383 O   0  0  0  0  0  0
  -26.5633  -34.8895   22.4653 O   0  0  0  0  0  0
  -23.5499  -32.1336   23.7202 O   0  0  0  0  0  0
  -30.6759  -18.8509   18.5108 C   0  0  0  0  0  0
  -30.0738  -20.0015   19.0595 C   0  0  0  0  0  0
  -30.6068  -17.5890   19.1372 C   0  0  0  0  0  0
  -29.3185  -19.9413   20.2459 C   0  0  0  0  0  0
  -29.2166  -18.5931   20.8555 C   0  0  0  0  0  0
  -29.9219  -17.3785   20.3591 C   0  0  0  0  0  0
  -30.7900  -16.9371   23.1431 C   0  0  0  0  0  0
  -30.1634  -15.9914   22.4167 C   0  0  0  0  0  0
  -27.4860  -23.6744   20.5099 C   0  0  0  0  0  0
  -29.4290  -23.8283   20.0827 C   0  0  0  0  0  0
  -28.2483  -24.8376   19.7771 C   0  0  2  0  0  0
  -28.2846  -18.4569   22.0525 C   0  0  0  0  0  0
  -28.7109  -21.3386   20.8378 C   0  0  0  0  0  0
  -30.0161  -15.9905   21.0158 N   0  0  0  0  0  0
  -28.4904  -22.6574   20.0239 N   0  3  1  0  0  0
  -31.4655  -12.6279   19.1957 H   0  0  0  0  0  0
  -30.3736  -11.5487   20.0037 H   0  0  0  0  0  0
  -29.8136  -11.7397   17.5551 H   0  0  0  0  0  0
  -29.6239  -13.4686   17.7193 H   0  0  0  0  0  0
  -27.9154  -11.2844   18.9446 H   0  0  0  0  0  0
  -27.3825  -12.4961   17.8087 H   0  0  0  0  0  0
  -27.6175  -14.2599   19.4513 H   0  0  0  0  0  0
  -28.7271  -12.2263   21.4414 H   0  0  0  0  0  0
  -28.3602  -13.8974   21.7764 H   0  0  0  0  0  0
  -25.2760   -9.5706   22.4755 H   0  0  0  0  0  0
  -24.0005   -7.4655   22.7480 H   0  0  0  0  0  0
  -21.0848   -8.8763   19.8940 H   0  0  0  0  0  0
  -22.3695  -10.9667   19.6153 H   0  0  0  0  0  0
  -21.1994   -7.6141   23.9713 H   0  0  0  0  0  0
  -21.1485   -6.0523   25.9079 H   0  0  0  0  0  0
  -22.0589   -2.7611   23.2846 H   0  0  0  0  0  0
  -22.4080  -11.9854   22.4789 H   0  0  0  0  0  0
  -21.1058  -13.1199   22.2623 H   0  0  0  0  0  0
  -24.6510  -15.8510   20.5317 H   0  0  0  0  0  0
  -26.2707  -15.6354   20.0962 H   0  0  0  0  0  0
  -26.7237  -32.5340   23.1032 H   0  0  0  0  0  0
  -25.0152  -33.9663   25.0421 H   0  0  0  0  0  0
  -22.7325  -31.2930   21.3867 H   0  0  0  0  0  0
  -23.3747  -35.9586   23.3283 H   0  0  0  0  0  0
  -24.3572  -36.8914   22.2057 H   0  0  0  0  0  0
  -23.7244  -37.6452   23.6696 H   0  0  0  0  0  0
  -26.1299  -31.5020   20.6080 H   0  0  0  0  0  0
  -26.8594  -30.7949   22.0169 H   0  0  0  0  0  0
  -28.1175  -28.8702   21.2295 H   0  0  0  0  0  0
  -25.9487  -25.8666   19.0110 H   0  0  0  0  0  0
  -23.9818  -27.2961   18.9886 H   0  0  0  0  0  0
  -23.7936  -30.5827   19.4005 H   0  0  0  0  0  0
  -22.7754  -29.2449   19.8418 H   0  0  0  0  0  0
  -25.1291  -36.1866   25.0801 H   0  0  0  0  0  0
  -20.9997  -28.3260   24.1368 H   0  0  0  0  0  0
  -20.5646  -26.2288   23.3616 H   0  0  0  0  0  0
  -21.6651  -26.7369   22.1223 H   0  0  0  0  0  0
  -19.6926  -25.6267   21.1239 H   0  0  0  0  0  0
  -19.6723  -27.3166   20.6717 H   0  0  0  0  0  0
  -17.4216  -26.6673   21.3976 H   0  0  0  0  0  0
  -18.0310  -26.0032   22.8965 H   0  0  0  0  0  0
  -19.7962  -30.7275   24.2186 H   0  0  0  0  0  0
  -17.5035  -31.6236   24.5175 H   0  0  0  0  0  0
  -15.5373  -30.2951   23.7679 H   0  0  0  0  0  0
  -15.8686  -28.0818   22.7048 H   0  0  0  0  0  0
  -24.6007  -30.6947   25.7800 H   0  0  0  0  0  0
  -24.8843  -32.2859   26.4749 H   0  0  0  0  0  0
  -25.8078  -30.9022   27.0276 H   0  0  0  0  0  0
  -26.3031  -29.6659   24.1281 H   0  0  0  0  0  0
  -27.4141  -29.7281   25.4766 H   0  0  0  0  0  0
  -27.8869  -30.4251   23.9467 H   0  0  0  0  0  0
  -27.2725  -33.3679   26.1961 H   0  0  0  0  0  0
  -28.3934  -32.6787   25.0309 H   0  0  0  0  0  0
  -28.0709  -31.8498   26.5463 H   0  0  0  0  0  0
  -28.2566  -38.0092   24.7529 H   0  0  0  0  0  0
  -28.1100  -36.2625   24.6262 H   0  0  0  0  0  0
  -27.2305  -37.1392   25.8868 H   0  0  0  0  0  0
  -20.9417  -29.8794   21.6872 H   0  0  0  0  0  0
  -26.0140  -38.2803   24.1459 H   0  0  0  0  0  0
  -31.2368  -18.9446   17.5915 H   0  0  0  0  0  0
  -30.2045  -20.9411   18.5421 H   0  0  0  0  0  0
  -31.1374  -16.7846   18.6517 H   0  0  0  0  0  0
  -30.8536  -16.8573   24.2193 H   0  0  0  0  0  0
  -31.2540  -17.7995   22.6868 H   0  0  0  0  0  0
  -29.7180  -15.1376   22.9078 H   0  0  0  0  0  0
  -26.4791  -23.4978   20.1337 H   0  0  0  0  0  0
  -27.4768  -23.7807   21.5977 H   0  0  0  0  0  0
  -29.8712  -23.9669   21.0726 H   0  0  0  0  0  0
  -30.2052  -23.7981   19.3193 H   0  0  0  0  0  0
  -28.0304  -24.8250   18.7077 H   0  0  0  0  0  0
  -27.3898  -19.0634   21.9348 H   0  0  0  0  0  0
  -28.7779  -18.7586   22.9758 H   0  0  0  0  0  0
  -27.9294  -17.4337   22.1640 H   0  0  0  0  0  0
  -29.2797  -21.5922   21.7317 H   0  0  0  0  0  0
  -27.7137  -21.0969   21.2015 H   0  0  0  0  0  0
  -28.2666  -22.4283   19.0683 H   0  0  0  0  0  0
  1 25  1  0  0  0
  1 30  2  0  0  0
  1 84  1  0  0  0
  2  3  1  0  0  0
  2 25  1  0  0  0
  2 86  1  0  0  0
  2 87  1  0  0  0
  3  4  1  0  0  0
  3 88  1  0  0  0
  3 89  1  0  0  0
  4  5  1  0  0  0
  4 90  1  0  0  0
  4 91  1  0  0  0
  5  6  1  0  0  0
  5 26  1  0  0  0
  5 92  1  0  0  0
  6 25  1  0  0  0
  6 93  1  0  0  0
  6 94  1  0  0  0
  7  8  2  0  0  0
  7 26  1  0  0  0
  7 29  1  0  0  0
  8  9  1  0  0  0
  8 22  1  0  0  0
  9 10  1  0  0  0
  9 27  2  0  0  0
 10 11  2  0  0  0
 10 15  1  0  0  0
 11 12  1  0  0  0
 11 95  1  0  0  0
 12 13  2  0  0  0
 12 96  1  0  0  0
 13 14  1  0  0  0
 13 31  1  0  0  0
 14 15  2  0  0  0
 14 97  1  0  0  0
 15 98  1  0  0  0
 16 17  2  0  0  0
 16 21  1  0  0  0
 16 31  1  0  0  0
 17 18  1  0  0  0
 17 99  1  0  0  0
 18 19  2  0  0  0
 18100  1  0  0  0
 19 20  1  0  0  0
 19 24  1  0  0  0
 20 21  2  0  0  0
 20101  1  0  0  0
 21 23  1  0  0  0
 22 28  1  0  0  0
 22 32  2  0  0  0
 26 27  1  0  0  0
 28102  1  0  0  0
 28103  1  0  0  0
 29104  1  0  0  0
 29105  1  0  0  0
 33 34  1  0  0  0
 33 66  1  0  0  0
 33 70  2  0  0  0
 34 36  1  0  0  0
 34 59  1  0  0  0
 34106  1  0  0  0
 35 44  2  0  0  0
 35 45  1  0  0  0
 35 68  1  0  0  0
 36 56  1  0  0  0
 36107  1  0  0  0
 37 39  1  0  0  0
 37 47  1  0  0  0
 37 66  1  0  0  0
 37108  1  0  0  0
 38 43  2  0  0  0
 38 46  1  0  0  0
 38 47  1  0  0  0
 39 64  1  0  0  0
 39 67  2  0  0  0
 40 52  1  0  0  0
 40 53  2  0  0  0
 40 58  1  0  0  0
 41109  1  0  0  0
 41110  1  0  0  0
 41111  1  0  0  0
 41 48  1  0  0  0
 42 43  1  0  0  0
 42 66  1  0  0  0
 42112  1  0  0  0
 42113  1  0  0  0
 43 44  1  0  0  0
 44114  1  0  0  0
 45 46  2  0  0  0
 45115  1  0  0  0
 46116  1  0  0  0
 47117  1  0  0  0
 47118  1  0  0  0
 48 56  1  0  0  0
 48 65  1  0  0  0
 48119  1  0  0  0
 49 50  1  0  0  0
 49 53  1  0  0  0
 49 64  1  0  0  0
 49120  1  0  0  0
 50 51  1  0  0  0
 50121  1  0  0  0
 50122  1  0  0  0
 51 52  1  0  0  0
 51123  1  0  0  0
 51124  1  0  0  0
 52125  1  0  0  0
 52126  1  0  0  0
 53 54  1  0  0  0
 54 55  2  0  0  0
 54127  1  0  0  0
 55 57  1  0  0  0
 55128  1  0  0  0
 56 69  2  0  0  0
 57 58  2  0  0  0
 57129  1  0  0  0
 58130  1  0  0  0
 59 60  1  0  0  0
 59 61  1  0  0  0
 59 62  1  0  0  0
 60131  1  0  0  0
 60132  1  0  0  0
 60133  1  0  0  0
 61134  1  0  0  0
 61135  1  0  0  0
 61136  1  0  0  0
 62137  1  0  0  0
 62138  1  0  0  0
 62139  1  0  0  0
 63 65  1  0  0  0
 63140  1  0  0  0
 63141  1  0  0  0
 63142  1  0  0  0
 64143  1  0  0  0
 65144  1  0  0  0
 68 81  1  0  0  0
 71 72  2  0  0  0
 71 73  1  0  0  0
 71145  1  0  0  0
 72 74  1  0  0  0
 72146  1  0  0  0
 73 76  2  0  0  0
 73147  1  0  0  0
 74 75  2  0  0  0
 74 83  1  0  0  0
 75 76  1  0  0  0
 75 82  1  0  0  0
 76 84  1  0  0  0
 77 78  2  0  0  0
 77148  1  0  0  0
 77149  1  0  0  0
 78 84  1  0  0  0
 78150  1  0  0  0
 79 81  1  0  0  0
 79 85  1  0  0  0
 79151  1  0  0  0
 79152  1  0  0  0
 80 81  1  0  0  0
 80 85  1  0  0  0
 80153  1  0  0  0
 80154  1  0  0  0
 81155  1  0  0  0
 82156  1  0  0  0
 82157  1  0  0  0
 82158  1  0  0  0
 83159  1  0  0  0
 83160  1  0  0  0
 83 85  1  0  0  0
 85161  1  0  0  0
M  CHG  1  85   1
M  ISO  4   1 100  68 101  81 101  84 100
M  END
> <chiral flag>
0

> <version>
0

> <s_m_source_file>
/data/baiqing/PycharmProjects/Reinvent-master-3.2/result/LINK_invent/BTK/process_docking_weight1_custom_product_contain_oxygen_bond_distance_aromatic_linkinvent_7_9_3/rearranged_h_0028.sdf

> <i_m_source_file_index>
18

> <r_mmod_Potential_Energy-OPLS-2005>
318.461395263672

> <r_mmod_Stretch_Energy-OPLS-2005>
190.985076904297

> <r_mmod_Bend_Energy-OPLS-2005>
252.341522216797

> <r_mmod_Torsional_Energy-OPLS-2005>
307.744903564453

> <r_mmod_Improper_Torsional_Energy-OPLS-2005>
4.18434381484985

> <r_mmod_Van_der_Waal_Energy-OPLS-2005>
148.226425170898

> <r_mmod_Electrostatic_Energy-OPLS-2005>
-239.456848144531

> <r_mmod_Solvation_Energy-OPLS-2005>
-464.696166992188

> <b_mmod_Minimization_Converged-OPLS-2005>
0

> <r_mmod_RMS_Derivative-OPLS-2005>
2.0727915763855

$$$$
18
                    3D
 Structure written by MMmdl.
157166  0  0  1  0            999 V2000
  -30.5655  -14.8304   20.4246 C   0  0  0  0  0  0
  -30.4329  -12.5022   19.4940 C   0  0  0  0  0  0
  -29.5147  -12.5114   18.2508 C   0  0  0  0  0  0
  -28.0425  -12.3225   18.6638 C   0  0  0  0  0  0
  -27.6358  -13.2379   19.8489 C   0  0  2  0  0  0
  -28.6761  -13.2061   20.9889 C   0  0  0  0  0  0
  -25.2483  -13.8210   20.5711 C   0  0  0  0  0  0
  -24.1786  -13.0446   20.9225 C   0  0  0  0  0  0
  -24.6389  -11.6926   20.8756 C   0  0  0  0  0  0
  -23.9070  -10.4293   21.0411 C   0  0  0  0  0  0
  -24.3620   -9.4207   21.9187 C   0  0  0  0  0  0
  -23.6295   -8.2242   22.0752 C   0  0  0  0  0  0
  -22.4278   -8.0278   21.3546 C   0  0  0  0  0  0
  -21.9918   -9.0250   20.4641 C   0  0  0  0  0  0
  -22.7245  -10.2130   20.3055 C   0  0  0  0  0  0
  -21.6854   -6.0736   22.5276 C   0  0  0  0  0  0
  -21.4012   -6.5638   23.8210 C   0  0  0  0  0  0
  -21.3660   -5.6792   24.9170 C   0  0  0  0  0  0
  -21.6047   -4.3055   24.7221 C   0  0  0  0  0  0
  -21.8818   -3.8148   23.4343 C   0  0  0  0  0  0
  -21.9193   -4.6966   22.3399 C   0  0  0  0  0  0
  -22.7806  -13.5220   21.1884 C   0  0  0  0  0  0
  -22.1661   -4.2151   21.0978 F   0  0  0  0  0  0
  -21.5631   -3.4537   25.7735 F   0  0  0  0  0  0
  -29.9695  -13.5811   20.4058 N   0  0  0  0  0  0
  -26.2904  -12.9424   20.3275 N   0  0  0  0  0  0
  -25.9315  -11.6562   20.5756 N   0  0  0  0  0  0
  -22.0455  -12.8186   22.0428 N   0  0  0  0  0  0
  -25.4178  -15.1933   20.4127 N   0  0  0  0  0  0
  -31.7593  -14.9074   20.1156 O   0  0  0  0  0  0
  -21.6641   -6.8877   21.4241 O   0  0  0  0  0  0
  -22.3486  -14.5529   20.6739 O   0  0  0  0  0  0
  -24.6360  -31.8502   23.1925 C   0  0  0  0  0  0
  -25.9161  -32.4727   23.8298 C   0  0  1  0  0  0
  -27.2119  -27.2067   20.1424 C   0  0  0  0  0  0
  -25.5943  -33.8532   24.2230 N   0  0  0  0  0  0
  -23.4349  -30.4717   21.5359 C   0  0  2  0  0  0
  -24.8814  -28.9089   20.1082 C   0  0  0  0  0  0
  -22.7531  -29.4569   22.4872 C   0  0  0  0  0  0
  -18.0302  -28.1376   22.8491 C   0  0  0  0  0  0
  -24.1491  -36.7261   23.2642 C   0  0  0  0  0  0
  -25.9838  -30.7489   21.3771 C   0  0  0  0  0  0
  -26.0539  -29.3650   20.7218 C   0  0  0  0  0  0
  -27.2197  -28.5253   20.7271 C   0  0  0  0  0  0
  -26.0153  -26.8283   19.4967 C   0  0  0  0  0  0
  -24.8699  -27.6519   19.4840 C   0  0  0  0  0  0
  -23.6551  -29.8027   20.1531 C   0  0  0  0  0  0
  -25.4114  -36.3048   24.0329 C   0  0  1  0  0  0
  -20.5911  -28.3689   23.1258 C   0  0  2  0  0  0
  -20.6780  -26.9401   22.5404 C   0  0  0  0  0  0
  -19.5748  -26.6377   21.5216 C   0  0  0  0  0  0
  -18.1932  -26.7921   22.1629 C   0  0  0  0  0  0
  -19.1560  -28.8855   23.2873 C   0  0  0  0  0  0
  -18.9479  -30.1455   23.8886 C   0  0  0  0  0  0
  -17.6474  -30.6580   24.0563 C   0  0  0  0  0  0
  -25.9063  -34.9422   23.5084 C   0  0  0  0  0  0
  -16.5364  -29.9074   23.6335 C   0  0  0  0  0  0
  -16.7291  -28.6492   23.0358 C   0  0  0  0  0  0
  -26.4519  -31.6566   25.0705 C   0  0  0  0  0  0
  -25.3733  -31.3705   26.1418 C   0  0  0  0  0  0
  -27.0382  -30.2984   24.6204 C   0  0  0  0  0  0
  -27.6071  -32.4306   25.7477 C   0  0  0  0  0  0
  -27.5575  -37.1776   24.8461 C   0  0  0  0  0  0
  -21.4229  -29.3036   22.3637 N   0  0  0  0  0  0
  -26.4273  -37.3761   23.9428 N   0  0  0  0  0  0
  -24.7046  -31.0433   22.0916 N   0  0  0  0  0  0
  -23.4214  -28.8119   23.2990 O   0  0  0  0  0  0
  -28.2957  -26.2864   20.2313 O   0  0  0  0  0  0
  -26.5645  -34.8904   22.4656 O   0  0  0  0  0  0
  -23.5494  -32.1336   23.7188 O   0  0  0  0  0  0
  -31.0288  -19.0333   18.6828 C   0  0  0  0  0  0
  -30.3299  -20.1357   19.2150 C   0  0  0  0  0  0
  -30.8467  -17.7213   19.1677 C   0  0  0  0  0  0
  -29.3946  -19.9842   20.2597 C   0  0  0  0  0  0
  -29.2177  -18.5954   20.7481 C   0  0  0  0  0  0
  -29.9487  -17.4255   20.2191 C   0  0  0  0  0  0
  -27.4788  -23.6786   20.5733 C   0  0  0  0  0  0
  -29.3960  -23.8157   20.0260 C   0  0  0  0  0  0
  -28.2052  -24.8275   19.7839 C   0  0  2  0  0  0
  -28.2317  -18.3442   21.8772 C   0  0  0  0  0  0
  -28.7068  -21.3381   20.8521 C   0  0  0  0  0  0
  -29.7797  -15.9799   20.6361 N   0  0  0  0  0  0
  -28.4479  -22.6516   20.0419 N   0  3  1  0  0  0
  -31.4726  -12.6352   19.1915 H   0  0  0  0  0  0
  -30.3927  -11.5345   19.9966 H   0  0  0  0  0  0
  -29.8105  -11.7248   17.5555 H   0  0  0  0  0  0
  -29.6283  -13.4544   17.7140 H   0  0  0  0  0  0
  -27.9158  -11.2774   18.9481 H   0  0  0  0  0  0
  -27.3821  -12.4866   17.8117 H   0  0  0  0  0  0
  -27.6198  -14.2525   19.4503 H   0  0  0  0  0  0
  -28.7280  -12.2147   21.4411 H   0  0  0  0  0  0
  -28.3956  -13.8926   21.7892 H   0  0  0  0  0  0
  -25.2762   -9.5685   22.4764 H   0  0  0  0  0  0
  -24.0004   -7.4633   22.7472 H   0  0  0  0  0  0
  -21.0852   -8.8769   19.8941 H   0  0  0  0  0  0
  -22.3707  -10.9670   19.6162 H   0  0  0  0  0  0
  -21.2001   -7.6143   23.9715 H   0  0  0  0  0  0
  -21.1484   -6.0518   25.9074 H   0  0  0  0  0  0
  -22.0598   -2.7610   23.2841 H   0  0  0  0  0  0
  -22.4072  -11.9835   22.4788 H   0  0  0  0  0  0
  -21.1070  -13.1192   22.2642 H   0  0  0  0  0  0
  -24.6477  -15.8448   20.5170 H   0  0  0  0  0  0
  -26.2552  -15.6285   20.0485 H   0  0  0  0  0  0
  -26.7226  -32.5363   23.1030 H   0  0  0  0  0  0
  -25.0093  -33.9670   25.0382 H   0  0  0  0  0  0
  -22.7340  -31.2957   21.3853 H   0  0  0  0  0  0
  -23.3774  -35.9572   23.3268 H   0  0  0  0  0  0
  -24.3593  -36.8922   22.2065 H   0  0  0  0  0  0
  -23.7220  -37.6438   23.6696 H   0  0  0  0  0  0
  -26.1261  -31.5061   20.6046 H   0  0  0  0  0  0
  -26.8605  -30.8018   22.0104 H   0  0  0  0  0  0
  -28.1142  -28.8672   21.2296 H   0  0  0  0  0  0
  -25.9293  -25.8634   19.0215 H   0  0  0  0  0  0
  -23.9702  -27.2986   18.9997 H   0  0  0  0  0  0
  -23.7817  -30.5775   19.3960 H   0  0  0  0  0  0
  -22.7729  -29.2376   19.8472 H   0  0  0  0  0  0
  -25.1292  -36.1879   25.0820 H   0  0  0  0  0  0
  -21.0020  -28.3267   24.1372 H   0  0  0  0  0  0
  -20.5675  -26.2301   23.3614 H   0  0  0  0  0  0
  -21.6641  -26.7402   22.1195 H   0  0  0  0  0  0
  -19.6906  -25.6295   21.1227 H   0  0  0  0  0  0
  -19.6681  -27.3204   20.6760 H   0  0  0  0  0  0
  -17.4201  -26.6702   21.4021 H   0  0  0  0  0  0
  -18.0309  -26.0052   22.9009 H   0  0  0  0  0  0
  -19.7956  -30.7285   24.2233 H   0  0  0  0  0  0
  -17.5023  -31.6255   24.5168 H   0  0  0  0  0  0
  -15.5360  -30.2968   23.7656 H   0  0  0  0  0  0
  -15.8692  -28.0804   22.7071 H   0  0  0  0  0  0
  -24.5947  -30.7007   25.7743 H   0  0  0  0  0  0
  -24.8882  -32.2867   26.4797 H   0  0  0  0  0  0
  -25.8052  -30.8927   27.0223 H   0  0  0  0  0  0
  -26.2976  -29.6704   24.1241 H   0  0  0  0  0  0
  -27.4092  -29.7263   25.4723 H   0  0  0  0  0  0
  -27.8835  -30.4268   23.9437 H   0  0  0  0  0  0
  -27.2706  -33.3654   26.1967 H   0  0  0  0  0  0
  -28.3924  -32.6777   25.0320 H   0  0  0  0  0  0
  -28.0684  -31.8474   26.5457 H   0  0  0  0  0  0
  -28.2548  -38.0118   24.7558 H   0  0  0  0  0  0
  -28.1115  -36.2647   24.6214 H   0  0  0  0  0  0
  -27.2302  -37.1322   25.8864 H   0  0  0  0  0  0
  -20.9411  -29.8782   21.6866 H   0  0  0  0  0  0
  -26.0142  -38.2821   24.1468 H   0  0  0  0  0  0
  -31.7305  -19.1981   17.8767 H   0  0  0  0  0  0
  -30.5376  -21.1162   18.8086 H   0  0  0  0  0  0
  -31.4124  -16.9339   18.6913 H   0  0  0  0  0  0
  -26.4491  -23.5047   20.2597 H   0  0  0  0  0  0
  -27.5334  -23.7950   21.6586 H   0  0  0  0  0  0
  -29.9028  -23.9616   20.9822 H   0  0  0  0  0  0
  -30.1183  -23.7722   19.2107 H   0  0  0  0  0  0
  -27.9290  -24.8022   18.7278 H   0  0  0  0  0  0
  -28.1674  -19.1946   22.5554 H   0  0  0  0  0  0
  -28.5284  -17.4864   22.4806 H   0  0  0  0  0  0
  -27.2370  -18.1481   21.4747 H   0  0  0  0  0  0
  -29.2363  -21.6075   21.7651 H   0  0  0  0  0  0
  -27.7149  -21.0298   21.1820 H   0  0  0  0  0  0
  -28.8790  -15.7689   21.0383 H   0  0  0  0  0  0
  -28.1662  -22.4118   19.1038 H   0  0  0  0  0  0
  1 25  1  0  0  0
  1 30  2  0  0  0
  1 82  1  0  0  0
  2  3  1  0  0  0
  2 25  1  0  0  0
  2 84  1  0  0  0
  2 85  1  0  0  0
  3  4  1  0  0  0
  3 86  1  0  0  0
  3 87  1  0  0  0
  4  5  1  0  0  0
  4 88  1  0  0  0
  4 89  1  0  0  0
  5  6  1  0  0  0
  5 26  1  0  0  0
  5 90  1  0  0  0
  6 25  1  0  0  0
  6 91  1  0  0  0
  6 92  1  0  0  0
  7  8  2  0  0  0
  7 26  1  0  0  0
  7 29  1  0  0  0
  8  9  1  0  0  0
  8 22  1  0  0  0
  9 10  1  0  0  0
  9 27  2  0  0  0
 10 11  2  0  0  0
 10 15  1  0  0  0
 11 12  1  0  0  0
 11 93  1  0  0  0
 12 13  2  0  0  0
 12 94  1  0  0  0
 13 14  1  0  0  0
 13 31  1  0  0  0
 14 15  2  0  0  0
 14 95  1  0  0  0
 15 96  1  0  0  0
 16 17  2  0  0  0
 16 21  1  0  0  0
 16 31  1  0  0  0
 17 18  1  0  0  0
 17 97  1  0  0  0
 18 19  2  0  0  0
 18 98  1  0  0  0
 19 20  1  0  0  0
 19 24  1  0  0  0
 20 21  2  0  0  0
 20 99  1  0  0  0
 21 23  1  0  0  0
 22 28  1  0  0  0
 22 32  2  0  0  0
 26 27  1  0  0  0
 28100  1  0  0  0
 28101  1  0  0  0
 29102  1  0  0  0
 29103  1  0  0  0
 33 34  1  0  0  0
 33 66  1  0  0  0
 33 70  2  0  0  0
 34 36  1  0  0  0
 34 59  1  0  0  0
 34104  1  0  0  0
 35 44  2  0  0  0
 35 45  1  0  0  0
 35 68  1  0  0  0
 36 56  1  0  0  0
 36105  1  0  0  0
 37 39  1  0  0  0
 37 47  1  0  0  0
 37 66  1  0  0  0
 37106  1  0  0  0
 38 43  2  0  0  0
 38 46  1  0  0  0
 38 47  1  0  0  0
 39 64  1  0  0  0
 39 67  2  0  0  0
 40 52  1  0  0  0
 40 53  2  0  0  0
 40 58  1  0  0  0
 41107  1  0  0  0
 41108  1  0  0  0
 41109  1  0  0  0
 41 48  1  0  0  0
 42 43  1  0  0  0
 42 66  1  0  0  0
 42110  1  0  0  0
 42111  1  0  0  0
 43 44  1  0  0  0
 44112  1  0  0  0
 45 46  2  0  0  0
 45113  1  0  0  0
 46114  1  0  0  0
 47115  1  0  0  0
 47116  1  0  0  0
 48 56  1  0  0  0
 48 65  1  0  0  0
 48117  1  0  0  0
 49 50  1  0  0  0
 49 53  1  0  0  0
 49 64  1  0  0  0
 49118  1  0  0  0
 50 51  1  0  0  0
 50119  1  0  0  0
 50120  1  0  0  0
 51 52  1  0  0  0
 51121  1  0  0  0
 51122  1  0  0  0
 52123  1  0  0  0
 52124  1  0  0  0
 53 54  1  0  0  0
 54 55  2  0  0  0
 54125  1  0  0  0
 55 57  1  0  0  0
 55126  1  0  0  0
 56 69  2  0  0  0
 57 58  2  0  0  0
 57127  1  0  0  0
 58128  1  0  0  0
 59 60  1  0  0  0
 59 61  1  0  0  0
 59 62  1  0  0  0
 60129  1  0  0  0
 60130  1  0  0  0
 60131  1  0  0  0
 61132  1  0  0  0
 61133  1  0  0  0
 61134  1  0  0  0
 62135  1  0  0  0
 62136  1  0  0  0
 62137  1  0  0  0
 63 65  1  0  0  0
 63138  1  0  0  0
 63139  1  0  0  0
 63140  1  0  0  0
 64141  1  0  0  0
 65142  1  0  0  0
 68 79  1  0  0  0
 71 72  2  0  0  0
 71 73  1  0  0  0
 71143  1  0  0  0
 72 74  1  0  0  0
 72144  1  0  0  0
 73 76  2  0  0  0
 73145  1  0  0  0
 74 75  2  0  0  0
 74 81  1  0  0  0
 75 76  1  0  0  0
 75 80  1  0  0  0
 76 82  1  0  0  0
 77 79  1  0  0  0
 77 83  1  0  0  0
 77146  1  0  0  0
 77147  1  0  0  0
 78 79  1  0  0  0
 78 83  1  0  0  0
 78148  1  0  0  0
 78149  1  0  0  0
 79150  1  0  0  0
 80151  1  0  0  0
 80152  1  0  0  0
 80153  1  0  0  0
 81154  1  0  0  0
 81155  1  0  0  0
 81 83  1  0  0  0
 82156  1  0  0  0
 83157  1  0  0  0
M  CHG  1  83   1
M  ISO  4   1 100  68 101  79 101  82 100
M  END
> <chiral flag>
0

> <version>
0

> <s_m_source_file>
/data/baiqing/PycharmProjects/Reinvent-master-3.2/result/LINK_invent/BTK/process_docking_weight1_custom_product_contain_oxygen_bond_distance_aromatic_linkinvent_7_9_3/rearranged_h_0028.sdf

> <i_m_source_file_index>
19

> <r_mmod_Potential_Energy-OPLS-2005>
75.9034118652344

> <r_mmod_Stretch_Energy-OPLS-2005>
169.932220458984

> <r_mmod_Bend_Energy-OPLS-2005>
225.856201171875

> <r_mmod_Torsional_Energy-OPLS-2005>
222.959136962891

> <r_mmod_Improper_Torsional_Energy-OPLS-2005>
4.07569265365601

> <r_mmod_Van_der_Waal_Energy-OPLS-2005>
134.445114135742

> <r_mmod_Electrostatic_Energy-OPLS-2005>
-322.274261474609

> <r_mmod_Solvation_Energy-OPLS-2005>
-484.015441894531

> <b_mmod_Minimization_Converged-OPLS-2005>
0

> <r_mmod_RMS_Derivative-OPLS-2005>
1.20469701290131

$$$$
19
                    3D
 Structure written by MMmdl.
161169  0  0  1  0            999 V2000
  -30.7572  -14.3884   20.6848 C   0  0  0  0  0  0
  -30.4168  -12.3077   19.3929 C   0  0  0  0  0  0
  -29.4795  -12.5348   18.1925 C   0  0  0  0  0  0
  -28.0051  -12.3795   18.6095 C   0  0  0  0  0  0
  -27.6644  -13.1854   19.8887 C   0  0  2  0  0  0
  -28.7092  -12.9182   20.9966 C   0  0  0  0  0  0
  -25.2618  -13.8112   20.5686 C   0  0  0  0  0  0
  -24.1848  -13.0420   20.9181 C   0  0  0  0  0  0
  -24.6367  -11.6878   20.8748 C   0  0  0  0  0  0
  -23.9025  -10.4277   21.0415 C   0  0  0  0  0  0
  -24.3583   -9.4201   21.9194 C   0  0  0  0  0  0
  -23.6270   -8.2235   22.0760 C   0  0  0  0  0  0
  -22.4257   -8.0273   21.3544 C   0  0  0  0  0  0
  -21.9891   -9.0239   20.4641 C   0  0  0  0  0  0
  -22.7207  -10.2122   20.3053 C   0  0  0  0  0  0
  -21.6844   -6.0729   22.5273 C   0  0  0  0  0  0
  -21.4006   -6.5632   23.8208 C   0  0  0  0  0  0
  -21.3656   -5.6789   24.9171 C   0  0  0  0  0  0
  -21.6045   -4.3053   24.7222 C   0  0  0  0  0  0
  -21.8826   -3.8146   23.4342 C   0  0  0  0  0  0
  -21.9191   -4.6962   22.3396 C   0  0  0  0  0  0
  -22.7874  -13.5242   21.1832 C   0  0  0  0  0  0
  -22.1664   -4.2148   21.0975 F   0  0  0  0  0  0
  -21.5631   -3.4537   25.7737 F   0  0  0  0  0  0
  -30.0414  -13.2493   20.4603 N   0  0  0  0  0  0
  -26.3030  -12.9228   20.3434 N   0  0  0  0  0  0
  -25.9289  -11.6415   20.5797 N   0  0  0  0  0  0
  -22.0502  -12.8236   22.0377 N   0  0  0  0  0  0
  -25.4361  -15.1821   20.4055 N   0  0  0  0  0  0
  -31.7882  -14.6532   20.0541 O   0  0  0  0  0  0
  -21.6626   -6.8870   21.4236 O   0  0  0  0  0  0
  -22.3581  -14.5556   20.6683 O   0  0  0  0  0  0
  -24.6108  -31.8700   23.2125 C   0  0  0  0  0  0
  -25.9015  -32.4828   23.8411 C   0  0  1  0  0  0
  -27.2454  -27.4665   20.0818 C   0  0  0  0  0  0
  -25.5883  -33.8628   24.2340 N   0  0  0  0  0  0
  -23.3974  -30.4927   21.5514 C   0  0  2  0  0  0
  -24.8432  -28.9571   20.1169 C   0  0  0  0  0  0
  -22.7374  -29.4677   22.5007 C   0  0  0  0  0  0
  -18.0265  -28.1377   22.8511 C   0  0  0  0  0  0
  -24.1476  -36.7317   23.2642 C   0  0  0  0  0  0
  -25.9206  -30.8415   21.3619 C   0  0  0  0  0  0
  -25.9976  -29.4743   20.7165 C   0  0  0  0  0  0
  -27.1945  -28.7294   20.7083 C   0  0  0  0  0  0
  -26.0691  -26.9479   19.4912 C   0  0  0  0  0  0
  -24.8709  -27.6892   19.5083 C   0  0  0  0  0  0
  -23.6038  -29.8215   20.1665 C   0  0  0  0  0  0
  -25.4097  -36.3113   24.0339 C   0  0  1  0  0  0
  -20.5849  -28.3666   23.1334 C   0  0  2  0  0  0
  -20.6757  -26.9413   22.5424 C   0  0  0  0  0  0
  -19.5730  -26.6394   21.5224 C   0  0  0  0  0  0
  -18.1909  -26.7929   22.1631 C   0  0  0  0  0  0
  -19.1511  -28.8836   23.2921 C   0  0  0  0  0  0
  -18.9442  -30.1444   23.8931 C   0  0  0  0  0  0
  -17.6447  -30.6592   24.0574 C   0  0  0  0  0  0
  -25.9030  -34.9481   23.5138 C   0  0  0  0  0  0
  -16.5338  -29.9102   23.6322 C   0  0  0  0  0  0
  -16.7256  -28.6507   23.0365 C   0  0  0  0  0  0
  -26.4466  -31.6594   25.0726 C   0  0  0  0  0  0
  -25.3736  -31.3624   26.1461 C   0  0  0  0  0  0
  -27.0325  -30.3062   24.6063 C   0  0  0  0  0  0
  -27.6029  -32.4314   25.7505 C   0  0  0  0  0  0
  -27.5574  -37.1803   24.8464 C   0  0  0  0  0  0
  -21.4105  -29.3038   22.3738 N   0  0  0  0  0  0
  -26.4277  -37.3803   23.9420 N   0  0  0  0  0  0
  -24.6608  -31.0825   22.1011 N   0  0  0  0  0  0
  -23.4153  -28.8230   23.3053 O   0  0  0  0  0  0
  -28.4505  -26.8011   20.0890 O   0  0  0  0  0  0
  -26.5601  -34.8928   22.4702 O   0  0  0  0  0  0
  -23.5312  -32.1452   23.7532 O   0  0  0  0  0  0
  -29.9643  -19.7770   21.7953 C   0  0  0  0  0  0
  -29.2795  -19.0919   19.5728 C   0  0  0  0  0  0
  -29.4678  -17.4138   21.3487 C   0  0  0  0  0  0
  -29.6487  -20.1236   20.4652 C   0  0  0  0  0  0
  -29.8659  -18.4403   22.2361 C   0  0  0  0  0  0
  -29.1952  -17.7545   20.0017 C   0  0  0  0  0  0
  -31.5159  -15.4659   22.7200 C   0  0  0  0  0  0
  -29.2669  -15.9861   21.8666 C   0  0  0  0  0  0
  -29.0995  -23.3833   18.5789 C   0  0  0  0  0  0
  -28.5667  -24.4019   19.6011 C   0  0  0  0  0  0
  -28.8781  -21.9112   18.9497 C   0  0  0  0  0  0
  -28.7292  -25.8388   19.0781 C   0  0  0  0  0  0
  -29.7077  -21.4741   20.0704 N   0  0  0  0  0  0
  -30.4409  -15.0941   21.7959 N   0  0  0  0  0  0
  -30.1395  -18.1504   23.5316 F   0  0  0  0  0  0
  -28.7299  -16.5651   18.8389 Cl  0  0  0  0  0  0
  -31.4575  -12.4168   19.0827 H   0  0  0  0  0  0
  -30.3286  -11.2827   19.7561 H   0  0  0  0  0  0
  -29.7165  -11.8352   17.3896 H   0  0  0  0  0  0
  -29.6412  -13.5343   17.7854 H   0  0  0  0  0  0
  -27.8116  -11.3195   18.7768 H   0  0  0  0  0  0
  -27.3504  -12.6819   17.7915 H   0  0  0  0  0  0
  -27.7138  -14.2349   19.6190 H   0  0  0  0  0  0
  -28.6900  -11.8635   21.2753 H   0  0  0  0  0  0
  -28.4633  -13.4441   21.9178 H   0  0  0  0  0  0
  -25.2723   -9.5689   22.4772 H   0  0  0  0  0  0
  -23.9981   -7.4634   22.7488 H   0  0  0  0  0  0
  -21.0828   -8.8750   19.8943 H   0  0  0  0  0  0
  -22.3667  -10.9664   19.6160 H   0  0  0  0  0  0
  -21.1998   -7.6143   23.9710 H   0  0  0  0  0  0
  -21.1468   -6.0517   25.9072 H   0  0  0  0  0  0
  -22.0610   -2.7609   23.2843 H   0  0  0  0  0  0
  -22.4104  -11.9881   22.4744 H   0  0  0  0  0  0
  -21.1121  -13.1270   22.2572 H   0  0  0  0  0  0
  -24.6634  -15.8329   20.4966 H   0  0  0  0  0  0
  -26.2729  -15.6111   20.0319 H   0  0  0  0  0  0
  -26.7088  -32.5565   23.1185 H   0  0  0  0  0  0
  -25.0012  -33.9795   25.0468 H   0  0  0  0  0  0
  -22.6852  -31.3087   21.4127 H   0  0  0  0  0  0
  -23.3745  -35.9640   23.3289 H   0  0  0  0  0  0
  -24.3568  -36.8958   22.2056 H   0  0  0  0  0  0
  -23.7219  -37.6509   23.6675 H   0  0  0  0  0  0
  -26.0237  -31.6032   20.5872 H   0  0  0  0  0  0
  -26.8119  -30.9019   21.9741 H   0  0  0  0  0  0
  -28.0876  -29.1288   21.1675 H   0  0  0  0  0  0
  -26.0616  -25.9752   19.0216 H   0  0  0  0  0  0
  -23.9801  -27.2808   19.0512 H   0  0  0  0  0  0
  -23.7105  -30.5953   19.4050 H   0  0  0  0  0  0
  -22.7283  -29.2396   19.8736 H   0  0  0  0  0  0
  -25.1264  -36.1976   25.0831 H   0  0  0  0  0  0
  -20.9940  -28.3242   24.1455 H   0  0  0  0  0  0
  -20.5688  -26.2274   23.3602 H   0  0  0  0  0  0
  -21.6629  -26.7479   22.1206 H   0  0  0  0  0  0
  -19.6900  -25.6309   21.1240 H   0  0  0  0  0  0
  -19.6663  -27.3212   20.6756 H   0  0  0  0  0  0
  -17.4182  -26.6699   21.4026 H   0  0  0  0  0  0
  -18.0300  -26.0058   22.9009 H   0  0  0  0  0  0
  -19.7915  -30.7246   24.2320 H   0  0  0  0  0  0
  -17.5006  -31.6275   24.5170 H   0  0  0  0  0  0
  -15.5343  -30.3022   23.7615 H   0  0  0  0  0  0
  -15.8654  -28.0828   22.7081 H   0  0  0  0  0  0
  -24.5932  -30.6972   25.7760 H   0  0  0  0  0  0
  -24.8903  -32.2742   26.4972 H   0  0  0  0  0  0
  -25.8106  -30.8737   27.0178 H   0  0  0  0  0  0
  -26.2864  -29.6788   24.1174 H   0  0  0  0  0  0
  -27.4200  -29.7321   25.4491 H   0  0  0  0  0  0
  -27.8642  -30.4428   23.9145 H   0  0  0  0  0  0
  -27.2647  -33.3613   26.2084 H   0  0  0  0  0  0
  -28.3844  -32.6864   25.0338 H   0  0  0  0  0  0
  -28.0685  -31.8433   26.5424 H   0  0  0  0  0  0
  -28.2557  -38.0136   24.7577 H   0  0  0  0  0  0
  -28.1109  -36.2669   24.6222 H   0  0  0  0  0  0
  -27.2290  -37.1367   25.8865 H   0  0  0  0  0  0
  -20.9258  -29.8756   21.6958 H   0  0  0  0  0  0
  -26.0167  -38.2871   24.1462 H   0  0  0  0  0  0
  -30.2655  -20.5357   22.5033 H   0  0  0  0  0  0
  -29.0461  -19.2931   18.5393 H   0  0  0  0  0  0
  -31.1292  -15.6207   23.7273 H   0  0  0  0  0  0
  -32.0100  -16.3819   22.3948 H   0  0  0  0  0  0
  -32.2746  -14.6832   22.7854 H   0  0  0  0  0  0
  -28.4115  -15.5652   21.3449 H   0  0  0  0  0  0
  -28.9392  -16.0377   22.9056 H   0  0  0  0  0  0
  -30.1599  -23.5613   18.3924 H   0  0  0  0  0  0
  -28.5982  -23.5665   17.6266 H   0  0  0  0  0  0
  -29.1080  -24.2935   20.5410 H   0  0  0  0  0  0
  -27.5182  -24.2010   19.8217 H   0  0  0  0  0  0
  -29.1227  -21.3245   18.0641 H   0  0  0  0  0  0
  -27.8247  -21.7291   19.1717 H   0  0  0  0  0  0
  -28.1529  -26.0036   18.1664 H   0  0  0  0  0  0
  -29.7696  -25.9931   18.7911 H   0  0  0  0  0  0
  -29.8999  -22.1636   20.7928 H   0  0  0  0  0  0
  1 25  1  0  0  0
  1 30  2  0  0  0
  1 84  1  0  0  0
  2  3  1  0  0  0
  2 25  1  0  0  0
  2 87  1  0  0  0
  2 88  1  0  0  0
  3  4  1  0  0  0
  3 89  1  0  0  0
  3 90  1  0  0  0
  4  5  1  0  0  0
  4 91  1  0  0  0
  4 92  1  0  0  0
  5  6  1  0  0  0
  5 26  1  0  0  0
  5 93  1  0  0  0
  6 25  1  0  0  0
  6 94  1  0  0  0
  6 95  1  0  0  0
  7  8  2  0  0  0
  7 26  1  0  0  0
  7 29  1  0  0  0
  8  9  1  0  0  0
  8 22  1  0  0  0
  9 10  1  0  0  0
  9 27  2  0  0  0
 10 11  2  0  0  0
 10 15  1  0  0  0
 11 12  1  0  0  0
 11 96  1  0  0  0
 12 13  2  0  0  0
 12 97  1  0  0  0
 13 14  1  0  0  0
 13 31  1  0  0  0
 14 15  2  0  0  0
 14 98  1  0  0  0
 15 99  1  0  0  0
 16 17  2  0  0  0
 16 21  1  0  0  0
 16 31  1  0  0  0
 17 18  1  0  0  0
 17100  1  0  0  0
 18 19  2  0  0  0
 18101  1  0  0  0
 19 20  1  0  0  0
 19 24  1  0  0  0
 20 21  2  0  0  0
 20102  1  0  0  0
 21 23  1  0  0  0
 22 28  1  0  0  0
 22 32  2  0  0  0
 26 27  1  0  0  0
 28103  1  0  0  0
 28104  1  0  0  0
 29105  1  0  0  0
 29106  1  0  0  0
 33 34  1  0  0  0
 33 66  1  0  0  0
 33 70  2  0  0  0
 34 36  1  0  0  0
 34 59  1  0  0  0
 34107  1  0  0  0
 35 44  2  0  0  0
 35 45  1  0  0  0
 35 68  1  0  0  0
 36 56  1  0  0  0
 36108  1  0  0  0
 37 39  1  0  0  0
 37 47  1  0  0  0
 37 66  1  0  0  0
 37109  1  0  0  0
 38 43  2  0  0  0
 38 46  1  0  0  0
 38 47  1  0  0  0
 39 64  1  0  0  0
 39 67  2  0  0  0
 40 52  1  0  0  0
 40 53  2  0  0  0
 40 58  1  0  0  0
 41110  1  0  0  0
 41111  1  0  0  0
 41112  1  0  0  0
 41 48  1  0  0  0
 42 43  1  0  0  0
 42 66  1  0  0  0
 42113  1  0  0  0
 42114  1  0  0  0
 43 44  1  0  0  0
 44115  1  0  0  0
 45 46  2  0  0  0
 45116  1  0  0  0
 46117  1  0  0  0
 47118  1  0  0  0
 47119  1  0  0  0
 48 56  1  0  0  0
 48 65  1  0  0  0
 48120  1  0  0  0
 49 50  1  0  0  0
 49 53  1  0  0  0
 49 64  1  0  0  0
 49121  1  0  0  0
 50 51  1  0  0  0
 50122  1  0  0  0
 50123  1  0  0  0
 51 52  1  0  0  0
 51124  1  0  0  0
 51125  1  0  0  0
 52126  1  0  0  0
 52127  1  0  0  0
 53 54  1  0  0  0
 54 55  2  0  0  0
 54128  1  0  0  0
 55 57  1  0  0  0
 55129  1  0  0  0
 56 69  2  0  0  0
 57 58  2  0  0  0
 57130  1  0  0  0
 58131  1  0  0  0
 59 60  1  0  0  0
 59 61  1  0  0  0
 59 62  1  0  0  0
 60132  1  0  0  0
 60133  1  0  0  0
 60134  1  0  0  0
 61135  1  0  0  0
 61136  1  0  0  0
 61137  1  0  0  0
 62138  1  0  0  0
 62139  1  0  0  0
 62140  1  0  0  0
 63 65  1  0  0  0
 63141  1  0  0  0
 63142  1  0  0  0
 63143  1  0  0  0
 64144  1  0  0  0
 65145  1  0  0  0
 68 82  1  0  0  0
 71 74  2  0  0  0
 71 75  1  0  0  0
 71146  1  0  0  0
 72 74  1  0  0  0
 72 76  2  0  0  0
 72147  1  0  0  0
 73 75  2  0  0  0
 73 76  1  0  0  0
 73 78  1  0  0  0
 74 83  1  0  0  0
 75 85  1  0  0  0
 76 86  1  0  0  0
 77 84  1  0  0  0
 77148  1  0  0  0
 77149  1  0  0  0
 77150  1  0  0  0
 78 84  1  0  0  0
 78151  1  0  0  0
 78152  1  0  0  0
 79 80  1  0  0  0
 79 81  1  0  0  0
 79153  1  0  0  0
 79154  1  0  0  0
 80 82  1  0  0  0
 80155  1  0  0  0
 80156  1  0  0  0
 81 83  1  0  0  0
 81157  1  0  0  0
 81158  1  0  0  0
 82159  1  0  0  0
 82160  1  0  0  0
 83161  1  0  0  0
M  ISO  4   1 100  68 101  82 101  84 100
M  END
> <chiral flag>
0

> <version>
0

> <s_m_source_file>
/data/baiqing/PycharmProjects/Reinvent-master-3.2/result/LINK_invent/BTK/process_docking_weight1_custom_product_contain_oxygen_bond_distance_aromatic_linkinvent_7_9_3/rearranged_h_0028.sdf

> <i_m_source_file_index>
20

> <r_mmod_Potential_Energy-OPLS-2005>
74.9160079956055

> <r_mmod_Stretch_Energy-OPLS-2005>
34.8734169006348

> <r_mmod_Bend_Energy-OPLS-2005>
106.929985046387

> <r_mmod_Torsional_Energy-OPLS-2005>
260.293273925781

> <r_mmod_Improper_Torsional_Energy-OPLS-2005>
9.7260913848877

> <r_mmod_Van_der_Waal_Energy-OPLS-2005>
151.913543701172

> <r_mmod_Electrostatic_Energy-OPLS-2005>
-298.089477539062

> <r_mmod_Solvation_Energy-OPLS-2005>
-198.880111694336

> <b_mmod_Minimization_Converged-OPLS-2005>
0

> <r_mmod_RMS_Derivative-OPLS-2005>
1.20160222053528

$$$$
20
                    3D
 Structure written by MMmdl.
166176  0  0  1  0            999 V2000
  -30.7331  -14.4389   20.4379 C   0  0  0  0  0  0
  -30.4054  -12.2546   19.4302 C   0  0  0  0  0  0
  -29.4896  -12.4531   18.2054 C   0  0  0  0  0  0
  -28.0085  -12.3408   18.6182 C   0  0  0  0  0  0
  -27.6519  -13.2087   19.8557 C   0  0  2  0  0  0
  -28.7014  -13.0584   20.9816 C   0  0  0  0  0  0
  -25.2557  -13.8168   20.5686 C   0  0  0  0  0  0
  -24.1821  -13.0439   20.9198 C   0  0  0  0  0  0
  -24.6383  -11.6910   20.8749 C   0  0  0  0  0  0
  -23.9053  -10.4289   21.0406 C   0  0  0  0  0  0
  -24.3610   -9.4206   21.9181 C   0  0  0  0  0  0
  -23.6291   -8.2239   22.0749 C   0  0  0  0  0  0
  -22.4272   -8.0277   21.3545 C   0  0  0  0  0  0
  -21.9910   -9.0247   20.4642 C   0  0  0  0  0  0
  -22.7230  -10.2130   20.3048 C   0  0  0  0  0  0
  -21.6851   -6.0731   22.5276 C   0  0  0  0  0  0
  -21.4012   -6.5634   23.8209 C   0  0  0  0  0  0
  -21.3662   -5.6789   24.9171 C   0  0  0  0  0  0
  -21.6047   -4.3052   24.7219 C   0  0  0  0  0  0
  -21.8818   -3.8145   23.4339 C   0  0  0  0  0  0
  -21.9192   -4.6962   22.3398 C   0  0  0  0  0  0
  -22.7841  -13.5231   21.1852 C   0  0  0  0  0  0
  -22.1658   -4.2148   21.0974 F   0  0  0  0  0  0
  -21.5636   -3.4540   25.7732 F   0  0  0  0  0  0
  -30.0317  -13.2839   20.4042 N   0  0  0  0  0  0
  -26.2982  -12.9341   20.3314 N   0  0  0  0  0  0
  -25.9307  -11.6503   20.5774 N   0  0  0  0  0  0
  -22.0473  -12.8219   22.0401 N   0  0  0  0  0  0
  -25.4260  -15.1891   20.4084 N   0  0  0  0  0  0
  -31.9535  -14.4946   20.3042 O   0  0  0  0  0  0
  -21.6638   -6.8875   21.4239 O   0  0  0  0  0  0
  -22.3524  -14.5541   20.6698 O   0  0  0  0  0  0
  -24.6120  -31.8716   23.2140 C   0  0  0  0  0  0
  -25.9028  -32.4841   23.8423 C   0  0  1  0  0  0
  -27.2373  -27.4769   20.0707 C   0  0  0  0  0  0
  -25.5896  -33.8639   24.2354 N   0  0  0  0  0  0
  -23.3977  -30.4975   21.5542 C   0  0  2  0  0  0
  -24.8430  -28.9705   20.1178 C   0  0  0  0  0  0
  -22.7398  -29.4676   22.5006 C   0  0  0  0  0  0
  -18.0270  -28.1371   22.8488 C   0  0  0  0  0  0
  -24.1477  -36.7312   23.2638 C   0  0  0  0  0  0
  -25.9251  -30.8477   21.3634 C   0  0  0  0  0  0
  -26.0033  -29.4860   20.7095 C   0  0  0  0  0  0
  -27.2037  -28.7434   20.6898 C   0  0  0  0  0  0
  -26.0480  -26.9520   19.5189 C   0  0  0  0  0  0
  -24.8569  -27.6973   19.5265 C   0  0  0  0  0  0
  -23.6043  -29.8336   20.1678 C   0  0  0  0  0  0
  -25.4098  -36.3123   24.0345 C   0  0  1  0  0  0
  -20.5859  -28.3654   23.1323 C   0  0  2  0  0  0
  -20.6758  -26.9394   22.5418 C   0  0  0  0  0  0
  -19.5738  -26.6384   21.5210 C   0  0  0  0  0  0
  -18.1916  -26.7920   22.1620 C   0  0  0  0  0  0
  -19.1520  -28.8829   23.2904 C   0  0  0  0  0  0
  -18.9449  -30.1434   23.8914 C   0  0  0  0  0  0
  -17.6453  -30.6579   24.0563 C   0  0  0  0  0  0
  -25.9029  -34.9487   23.5145 C   0  0  0  0  0  0
  -16.5343  -29.9082   23.6325 C   0  0  0  0  0  0
  -16.7261  -28.6500   23.0344 C   0  0  0  0  0  0
  -26.4470  -31.6606   25.0734 C   0  0  0  0  0  0
  -25.3756  -31.3707   26.1497 C   0  0  0  0  0  0
  -27.0299  -30.3053   24.6089 C   0  0  0  0  0  0
  -27.6052  -32.4327   25.7489 C   0  0  0  0  0  0
  -27.5580  -37.1806   24.8464 C   0  0  0  0  0  0
  -21.4132  -29.3028   22.3734 N   0  0  0  0  0  0
  -26.4286  -37.3807   23.9419 N   0  0  0  0  0  0
  -24.6630  -31.0853   22.1021 N   0  0  0  0  0  0
  -23.4187  -28.8218   23.3033 O   0  0  0  0  0  0
  -28.4052  -26.7542   20.0490 O   0  0  0  0  0  0
  -26.5591  -34.8935   22.4706 O   0  0  0  0  0  0
  -23.5317  -32.1449   23.7554 O   0  0  0  0  0  0
  -28.4569  -22.9712   16.8998 C   0  0  0  0  0  0
  -29.5174  -20.7877   17.1384 C   0  0  0  0  0  0
  -29.5965  -23.6609   17.3876 C   0  0  0  0  0  0
  -28.4043  -21.5712   16.7894 C   0  0  0  0  0  0
  -30.6873  -21.4448   17.5802 C   0  0  0  0  0  0
  -30.7204  -22.8504   17.7010 C   0  0  0  0  0  0
  -31.3542  -16.3730   18.1757 C   0  0  0  0  0  0
  -30.1690  -25.6132   18.7670 C   0  0  0  0  0  0
  -28.3145  -25.6980   17.7784 C   0  0  0  0  0  0
  -31.2783  -17.6285   17.3088 C   0  0  0  0  0  0
  -29.5174  -17.6915   18.9174 C   0  0  0  0  0  0
  -30.5649  -16.7049   19.4582 C   0  0  1  0  0  0
  -29.0196  -26.6279   18.7654 C   0  0  0  0  0  0
  -29.4438  -19.2757   16.9488 C   0  0  0  0  0  0
  -29.6128  -25.0877   17.5194 N   0  0  0  0  0  0
  -30.0022  -15.5289   20.1525 N   0  0  0  0  0  0
  -30.2584  -18.5075   17.9255 N   0  3  2  0  0  0
  -27.2748  -20.9841   16.3258 F   0  0  0  0  0  0
  -31.7956  -20.7317   17.8971 F   0  0  0  0  0  0
  -31.8696  -23.4313   18.1251 F   0  0  0  0  0  0
  -31.4551  -12.3147   19.1351 H   0  0  0  0  0  0
  -30.2680  -11.2617   19.8621 H   0  0  0  0  0  0
  -29.7188  -11.7086   17.4418 H   0  0  0  0  0  0
  -29.6753  -13.4258   17.7478 H   0  0  0  0  0  0
  -27.8084  -11.2903   18.8332 H   0  0  0  0  0  0
  -27.3628  -12.6032   17.7797 H   0  0  0  0  0  0
  -27.6718  -14.2426   19.5140 H   0  0  0  0  0  0
  -28.6572  -12.0619   21.4231 H   0  0  0  0  0  0
  -28.5032  -13.7631   21.7913 H   0  0  0  0  0  0
  -25.2751   -9.5692   22.4755 H   0  0  0  0  0  0
  -24.0008   -7.4628   22.7464 H   0  0  0  0  0  0
  -21.0845   -8.8765   19.8942 H   0  0  0  0  0  0
  -22.3688  -10.9669   19.6158 H   0  0  0  0  0  0
  -21.2004   -7.6141   23.9713 H   0  0  0  0  0  0
  -21.1488   -6.0515   25.9077 H   0  0  0  0  0  0
  -22.0599   -2.7607   23.2834 H   0  0  0  0  0  0
  -22.4082  -11.9886   22.4801 H   0  0  0  0  0  0
  -21.1093  -13.1251   22.2600 H   0  0  0  0  0  0
  -24.6580  -15.8420   20.5209 H   0  0  0  0  0  0
  -26.2760  -15.6350   20.0907 H   0  0  0  0  0  0
  -26.7102  -32.5575   23.1197 H   0  0  0  0  0  0
  -25.0067  -33.9803   25.0512 H   0  0  0  0  0  0
  -22.6840  -31.3131   21.4194 H   0  0  0  0  0  0
  -23.3748  -35.9637   23.3309 H   0  0  0  0  0  0
  -24.3575  -36.8916   22.2051 H   0  0  0  0  0  0
  -23.7219  -37.6517   23.6643 H   0  0  0  0  0  0
  -26.0368  -31.6170   20.5976 H   0  0  0  0  0  0
  -26.8131  -30.8969   21.9821 H   0  0  0  0  0  0
  -28.1024  -29.1426   21.1388 H   0  0  0  0  0  0
  -26.0133  -25.9620   19.0957 H   0  0  0  0  0  0
  -23.9586  -27.2828   19.0898 H   0  0  0  0  0  0
  -23.7114  -30.6101   19.4093 H   0  0  0  0  0  0
  -22.7288  -29.2526   19.8723 H   0  0  0  0  0  0
  -25.1270  -36.1991   25.0836 H   0  0  0  0  0  0
  -20.9951  -28.3218   24.1444 H   0  0  0  0  0  0
  -20.5661  -26.2263   23.3604 H   0  0  0  0  0  0
  -21.6628  -26.7438   22.1212 H   0  0  0  0  0  0
  -19.6898  -25.6303   21.1220 H   0  0  0  0  0  0
  -19.6678  -27.3213   20.6755 H   0  0  0  0  0  0
  -17.4190  -26.6674   21.4016 H   0  0  0  0  0  0
  -18.0311  -26.0059   22.9013 H   0  0  0  0  0  0
  -19.7928  -30.7236   24.2297 H   0  0  0  0  0  0
  -17.5015  -31.6262   24.5163 H   0  0  0  0  0  0
  -15.5344  -30.2986   23.7648 H   0  0  0  0  0  0
  -15.8662  -28.0828   22.7045 H   0  0  0  0  0  0
  -24.5899  -30.7083   25.7838 H   0  0  0  0  0  0
  -24.8980  -32.2863   26.4994 H   0  0  0  0  0  0
  -25.8120  -30.8834   27.0223 H   0  0  0  0  0  0
  -26.2824  -29.6816   24.1164 H   0  0  0  0  0  0
  -27.4101  -29.7288   25.4533 H   0  0  0  0  0  0
  -27.8651  -30.4380   23.9208 H   0  0  0  0  0  0
  -27.2667  -33.3604   26.2114 H   0  0  0  0  0  0
  -28.3830  -32.6926   25.0297 H   0  0  0  0  0  0
  -28.0759  -31.8432   26.5366 H   0  0  0  0  0  0
  -28.2599  -38.0103   24.7528 H   0  0  0  0  0  0
  -28.1073  -36.2639   24.6261 H   0  0  0  0  0  0
  -27.2310  -37.1428   25.8871 H   0  0  0  0  0  0
  -20.9288  -29.8753   21.6963 H   0  0  0  0  0  0
  -26.0179  -38.2885   24.1434 H   0  0  0  0  0  0
  -27.5755  -23.5160   16.5970 H   0  0  0  0  0  0
  -32.3901  -16.0928   18.3707 H   0  0  0  0  0  0
  -30.8864  -15.5446   17.6417 H   0  0  0  0  0  0
  -30.1199  -24.9126   19.6025 H   0  0  0  0  0  0
  -31.1578  -26.0607   18.6587 H   0  0  0  0  0  0
  -27.8707  -26.2031   16.9194 H   0  0  0  0  0  0
  -27.6255  -25.0112   18.2684 H   0  0  0  0  0  0
  -31.0331  -17.3441   16.2845 H   0  0  0  0  0  0
  -32.2368  -18.1485   17.2819 H   0  0  0  0  0  0
  -29.0764  -18.3098   19.7005 H   0  0  0  0  0  0
  -28.7110  -17.1474   18.4223 H   0  0  0  0  0  0
  -31.2212  -17.2343   20.1522 H   0  0  0  0  0  0
  -29.3054  -27.5843   18.3222 H   0  0  0  0  0  0
  -29.7639  -19.0806   15.9247 H   0  0  0  0  0  0
  -28.4050  -18.9463   16.9936 H   0  0  0  0  0  0
  -29.0002  -15.4384   20.2128 H   0  0  0  0  0  0
  -30.7882  -19.1963   18.4426 H   0  0  0  0  0  0
  1 25  1  0  0  0
  1 30  2  0  0  0
  1 86  1  0  0  0
  2  3  1  0  0  0
  2 25  1  0  0  0
  2 91  1  0  0  0
  2 92  1  0  0  0
  3  4  1  0  0  0
  3 93  1  0  0  0
  3 94  1  0  0  0
  4  5  1  0  0  0
  4 95  1  0  0  0
  4 96  1  0  0  0
  5  6  1  0  0  0
  5 26  1  0  0  0
  5 97  1  0  0  0
  6 25  1  0  0  0
  6 98  1  0  0  0
  6 99  1  0  0  0
  7  8  2  0  0  0
  7 26  1  0  0  0
  7 29  1  0  0  0
  8  9  1  0  0  0
  8 22  1  0  0  0
  9 10  1  0  0  0
  9 27  2  0  0  0
 10 11  2  0  0  0
 10 15  1  0  0  0
 11 12  1  0  0  0
 11100  1  0  0  0
 12 13  2  0  0  0
 12101  1  0  0  0
 13 14  1  0  0  0
 13 31  1  0  0  0
 14 15  2  0  0  0
 14102  1  0  0  0
 15103  1  0  0  0
 16 17  2  0  0  0
 16 21  1  0  0  0
 16 31  1  0  0  0
 17 18  1  0  0  0
 17104  1  0  0  0
 18 19  2  0  0  0
 18105  1  0  0  0
 19 20  1  0  0  0
 19 24  1  0  0  0
 20 21  2  0  0  0
 20106  1  0  0  0
 21 23  1  0  0  0
 22 28  1  0  0  0
 22 32  2  0  0  0
 26 27  1  0  0  0
 28107  1  0  0  0
 28108  1  0  0  0
 29109  1  0  0  0
 29110  1  0  0  0
 33 34  1  0  0  0
 33 66  1  0  0  0
 33 70  2  0  0  0
 34 36  1  0  0  0
 34 59  1  0  0  0
 34111  1  0  0  0
 35 44  2  0  0  0
 35 45  1  0  0  0
 35 68  1  0  0  0
 36 56  1  0  0  0
 36112  1  0  0  0
 37 39  1  0  0  0
 37 47  1  0  0  0
 37 66  1  0  0  0
 37113  1  0  0  0
 38 43  2  0  0  0
 38 46  1  0  0  0
 38 47  1  0  0  0
 39 64  1  0  0  0
 39 67  2  0  0  0
 40 52  1  0  0  0
 40 53  2  0  0  0
 40 58  1  0  0  0
 41114  1  0  0  0
 41115  1  0  0  0
 41116  1  0  0  0
 41 48  1  0  0  0
 42 43  1  0  0  0
 42 66  1  0  0  0
 42117  1  0  0  0
 42118  1  0  0  0
 43 44  1  0  0  0
 44119  1  0  0  0
 45 46  2  0  0  0
 45120  1  0  0  0
 46121  1  0  0  0
 47122  1  0  0  0
 47123  1  0  0  0
 48 56  1  0  0  0
 48 65  1  0  0  0
 48124  1  0  0  0
 49 50  1  0  0  0
 49 53  1  0  0  0
 49 64  1  0  0  0
 49125  1  0  0  0
 50 51  1  0  0  0
 50126  1  0  0  0
 50127  1  0  0  0
 51 52  1  0  0  0
 51128  1  0  0  0
 51129  1  0  0  0
 52130  1  0  0  0
 52131  1  0  0  0
 53 54  1  0  0  0
 54 55  2  0  0  0
 54132  1  0  0  0
 55 57  1  0  0  0
 55133  1  0  0  0
 56 69  2  0  0  0
 57 58  2  0  0  0
 57134  1  0  0  0
 58135  1  0  0  0
 59 60  1  0  0  0
 59 61  1  0  0  0
 59 62  1  0  0  0
 60136  1  0  0  0
 60137  1  0  0  0
 60138  1  0  0  0
 61139  1  0  0  0
 61140  1  0  0  0
 61141  1  0  0  0
 62142  1  0  0  0
 62143  1  0  0  0
 62144  1  0  0  0
 63 65  1  0  0  0
 63145  1  0  0  0
 63146  1  0  0  0
 63147  1  0  0  0
 64148  1  0  0  0
 65149  1  0  0  0
 68 83  1  0  0  0
 71 73  2  0  0  0
 71 74  1  0  0  0
 71150  1  0  0  0
 72 74  2  0  0  0
 72 75  1  0  0  0
 72 84  1  0  0  0
 73 76  1  0  0  0
 73 85  1  0  0  0
 74 88  1  0  0  0
 75 76  2  0  0  0
 75 89  1  0  0  0
 76 90  1  0  0  0
 77 80  1  0  0  0
 77 82  1  0  0  0
 77151  1  0  0  0
 77152  1  0  0  0
 78 83  1  0  0  0
 78 85  1  0  0  0
 78153  1  0  0  0
 78154  1  0  0  0
 79 83  1  0  0  0
 79 85  1  0  0  0
 79155  1  0  0  0
 79156  1  0  0  0
 80 87  1  0  0  0
 80157  1  0  0  0
 80158  1  0  0  0
 81 82  1  0  0  0
 81 87  1  0  0  0
 81159  1  0  0  0
 81160  1  0  0  0
 82 86  1  0  0  0
 82161  1  0  0  0
 83162  1  0  0  0
 84163  1  0  0  0
 84164  1  0  0  0
 84 87  1  0  0  0
 86165  1  0  0  0
 87166  1  0  0  0
M  CHG  1  87   1
M  ISO  4   1 100  68 101  83 101  86 100
M  END
> <chiral flag>
0

> <version>
0

> <s_m_source_file>
/data/baiqing/PycharmProjects/Reinvent-master-3.2/result/LINK_invent/BTK/process_docking_weight1_custom_product_contain_oxygen_bond_distance_aromatic_linkinvent_7_9_3/rearranged_h_0028.sdf

> <i_m_source_file_index>
21

> <r_mmod_Potential_Energy-OPLS-2005>
-11.3070077896118

> <r_mmod_Stretch_Energy-OPLS-2005>
33.9550247192383

> <r_mmod_Bend_Energy-OPLS-2005>
142.574890136719

> <r_mmod_Torsional_Energy-OPLS-2005>
343.934478759766

> <r_mmod_Improper_Torsional_Energy-OPLS-2005>
22.213996887207

> <r_mmod_Van_der_Waal_Energy-OPLS-2005>
168.567535400391

> <r_mmod_Electrostatic_Energy-OPLS-2005>
-273.217559814453

> <r_mmod_Solvation_Energy-OPLS-2005>
-477.133697509766

> <b_mmod_Minimization_Converged-OPLS-2005>
0

> <r_mmod_RMS_Derivative-OPLS-2005>
1.08410847187042

$$$$
21
                    3D
 Structure written by MMmdl.
174183  0  0  1  0            999 V2000
  -30.6396  -14.7261   20.4494 C   0  0  0  0  0  0
  -30.4222  -12.4384   19.4799 C   0  0  0  0  0  0
  -29.5059  -12.5011   18.2394 C   0  0  0  0  0  0
  -28.0328  -12.3337   18.6528 C   0  0  0  0  0  0
  -27.6410  -13.2349   19.8547 C   0  0  2  0  0  0
  -28.6867  -13.1801   20.9900 C   0  0  0  0  0  0
  -25.2491  -13.8149   20.5662 C   0  0  0  0  0  0
  -24.1780  -13.0406   20.9159 C   0  0  0  0  0  0
  -24.6388  -11.6896   20.8734 C   0  0  0  0  0  0
  -23.9067  -10.4282   21.0406 C   0  0  0  0  0  0
  -24.3614   -9.4200   21.9183 C   0  0  0  0  0  0
  -23.6288   -8.2235   22.0754 C   0  0  0  0  0  0
  -22.4278   -8.0269   21.3540 C   0  0  0  0  0  0
  -21.9909   -9.0245   20.4645 C   0  0  0  0  0  0
  -22.7237  -10.2122   20.3058 C   0  0  0  0  0  0
  -21.6850   -6.0722   22.5276 C   0  0  0  0  0  0
  -21.4006   -6.5625   23.8204 C   0  0  0  0  0  0
  -21.3664   -5.6785   24.9174 C   0  0  0  0  0  0
  -21.6053   -4.3048   24.7223 C   0  0  0  0  0  0
  -21.8818   -3.8135   23.4344 C   0  0  0  0  0  0
  -21.9190   -4.6951   22.3402 C   0  0  0  0  0  0
  -22.7815  -13.5213   21.1852 C   0  0  0  0  0  0
  -22.1665   -4.2138   21.0977 F   0  0  0  0  0  0
  -21.5638   -3.4532   25.7733 F   0  0  0  0  0  0
  -29.9888  -13.5138   20.4023 N   0  0  0  0  0  0
  -26.2947  -12.9388   20.3323 N   0  0  0  0  0  0
  -25.9331  -11.6526   20.5758 N   0  0  0  0  0  0
  -22.0487  -12.8216   22.0422 N   0  0  0  0  0  0
  -25.4156  -15.1840   20.4105 N   0  0  0  0  0  0
  -31.8324  -14.7652   20.1432 O   0  0  0  0  0  0
  -21.6642   -6.8868   21.4237 O   0  0  0  0  0  0
  -22.3498  -14.5529   20.6724 O   0  0  0  0  0  0
  -24.6298  -31.8574   23.1976 C   0  0  0  0  0  0
  -25.9129  -32.4762   23.8337 C   0  0  1  0  0  0
  -27.2224  -27.2820   20.1271 C   0  0  0  0  0  0
  -25.5930  -33.8565   24.2274 N   0  0  0  0  0  0
  -23.4244  -30.4779   21.5403 C   0  0  2  0  0  0
  -24.8710  -28.9229   20.1055 C   0  0  0  0  0  0
  -22.7495  -29.4612   22.4919 C   0  0  0  0  0  0
  -18.0303  -28.1371   22.8466 C   0  0  0  0  0  0
  -24.1481  -36.7285   23.2635 C   0  0  0  0  0  0
  -25.9652  -30.7756   21.3714 C   0  0  0  0  0  0
  -26.0368  -29.3979   20.7183 C   0  0  0  0  0  0
  -27.2104  -28.5861   20.7219 C   0  0  0  0  0  0
  -26.0381  -26.8678   19.4802 C   0  0  0  0  0  0
  -24.8750  -27.6672   19.4754 C   0  0  0  0  0  0
  -23.6401  -29.8070   20.1564 C   0  0  0  0  0  0
  -25.4101  -36.3075   24.0335 C   0  0  1  0  0  0
  -20.5892  -28.3721   23.1294 C   0  0  2  0  0  0
  -20.6811  -26.9430   22.5467 C   0  0  0  0  0  0
  -19.5825  -26.6376   21.5242 C   0  0  0  0  0  0
  -18.1986  -26.7901   22.1638 C   0  0  0  0  0  0
  -19.1542  -28.8871   23.2857 C   0  0  0  0  0  0
  -18.9444  -30.1476   23.8860 C   0  0  0  0  0  0
  -17.6435  -30.6589   24.0510 C   0  0  0  0  0  0
  -25.9049  -34.9448   23.5109 C   0  0  0  0  0  0
  -16.5341  -29.9054   23.6289 C   0  0  0  0  0  0
  -16.7278  -28.6461   23.0337 C   0  0  0  0  0  0
  -26.4506  -31.6580   25.0721 C   0  0  0  0  0  0
  -25.3731  -31.3730   26.1444 C   0  0  0  0  0  0
  -27.0357  -30.3008   24.6176 C   0  0  0  0  0  0
  -27.6060  -32.4319   25.7498 C   0  0  0  0  0  0
  -27.5572  -37.1793   24.8466 C   0  0  0  0  0  0
  -21.4206  -29.3054   22.3673 N   0  0  0  0  0  0
  -26.4278  -37.3772   23.9422 N   0  0  0  0  0  0
  -24.6920  -31.0556   22.0933 N   0  0  0  0  0  0
  -23.4210  -28.8157   23.3014 O   0  0  0  0  0  0
  -28.3502  -26.4466   20.2241 O   0  0  0  0  0  0
  -26.5621  -34.8923   22.4678 O   0  0  0  0  0  0
  -23.5453  -32.1393   23.7283 O   0  0  0  0  0  0
  -30.9677  -20.0816   20.0063 C   0  0  0  0  0  0
  -31.5953  -17.7262   20.2428 C   0  0  0  0  0  0
  -29.6134  -19.8186   20.3068 C   0  0  0  0  0  0
  -29.2673  -18.4003   20.4976 C   0  0  0  0  0  0
  -30.2550  -17.3274   20.4648 C   0  0  0  0  0  0
  -31.9398  -19.0676   20.0035 C   0  0  0  0  0  0
  -25.8060  -18.8965   20.0933 C   0  0  0  0  0  0
  -25.7957  -18.4924   21.5677 C   0  0  0  0  0  0
  -27.0439  -18.2024   19.5224 C   0  0  0  0  0  0
  -27.2711  -18.2733   21.9171 C   0  0  0  0  0  0
  -25.6289  -23.8529   21.4233 C   0  0  0  0  0  0
  -29.9330  -22.6315   21.7544 C   0  0  0  0  0  0
  -28.6029  -21.0655   20.3283 C   0  0  0  0  0  0
  -26.5717  -23.3317   20.3261 C   0  0  0  0  0  0
  -28.4508  -25.0506   19.6943 C   0  0  0  0  0  0
  -28.0633  -23.7285   20.5541 C   0  0  2  0  0  0
  -27.9375  -17.9714   20.6538 N   0  0  0  0  0  0
  -29.8983  -15.8878   20.6337 N   0  0  0  0  0  0
  -29.0745  -22.5306   20.5401 N   0  3  1  0  0  0
  -33.2310  -19.3915   19.7595 F   0  0  0  0  0  0
  -31.4665  -12.5410   19.1808 H   0  0  0  0  0  0
  -30.3462  -11.4654   19.9692 H   0  0  0  0  0  0
  -29.7828  -11.7275   17.5210 H   0  0  0  0  0  0
  -29.6375  -13.4557   17.7280 H   0  0  0  0  0  0
  -27.8851  -11.2848   18.9125 H   0  0  0  0  0  0
  -27.3773  -12.5323   17.8044 H   0  0  0  0  0  0
  -27.6332  -14.2556   19.4705 H   0  0  0  0  0  0
  -28.7163  -12.1892   21.4442 H   0  0  0  0  0  0
  -28.4299  -13.8783   21.7893 H   0  0  0  0  0  0
  -25.2763   -9.5668   22.4753 H   0  0  0  0  0  0
  -23.9987   -7.4630   22.7486 H   0  0  0  0  0  0
  -21.0834   -8.8775   19.8956 H   0  0  0  0  0  0
  -22.3707  -10.9661   19.6166 H   0  0  0  0  0  0
  -21.1988   -7.6131   23.9698 H   0  0  0  0  0  0
  -21.1499   -6.0521   25.9075 H   0  0  0  0  0  0
  -22.0595   -2.7593   23.2852 H   0  0  0  0  0  0
  -22.4109  -11.9884   22.4831 H   0  0  0  0  0  0
  -21.1115  -13.1264   22.2654 H   0  0  0  0  0  0
  -24.6445  -15.8293   20.5315 H   0  0  0  0  0  0
  -26.2939  -15.6468   20.2166 H   0  0  0  0  0  0
  -26.7200  -32.5433   23.1088 H   0  0  0  0  0  0
  -25.0077  -33.9702   25.0424 H   0  0  0  0  0  0
  -22.7195  -31.2993   21.3930 H   0  0  0  0  0  0
  -23.3747  -35.9614   23.3301 H   0  0  0  0  0  0
  -24.3550  -36.8903   22.2042 H   0  0  0  0  0  0
  -23.7238  -37.6490   23.6662 H   0  0  0  0  0  0
  -26.0952  -31.5324   20.5963 H   0  0  0  0  0  0
  -26.8473  -30.8333   21.9986 H   0  0  0  0  0  0
  -28.1041  -28.9405   21.2165 H   0  0  0  0  0  0
  -25.9792  -25.9065   18.9959 H   0  0  0  0  0  0
  -23.9817  -27.3027   18.9860 H   0  0  0  0  0  0
  -23.7621  -30.5821   19.3991 H   0  0  0  0  0  0
  -22.7606  -29.2358   19.8529 H   0  0  0  0  0  0
  -25.1276  -36.1912   25.0826 H   0  0  0  0  0  0
  -20.9949  -28.3351   24.1434 H   0  0  0  0  0  0
  -20.5667  -26.2353   23.3696 H   0  0  0  0  0  0
  -21.6698  -26.7439   22.1321 H   0  0  0  0  0  0
  -19.7044  -25.6286   21.1291 H   0  0  0  0  0  0
  -19.6770  -27.3195   20.6778 H   0  0  0  0  0  0
  -17.4252  -26.6562   21.4057 H   0  0  0  0  0  0
  -18.0420  -26.0095   22.9096 H   0  0  0  0  0  0
  -19.7910  -30.7306   24.2238 H   0  0  0  0  0  0
  -17.4965  -31.6264   24.5102 H   0  0  0  0  0  0
  -15.5335  -30.2932   23.7630 H   0  0  0  0  0  0
  -15.8676  -28.0753   22.7101 H   0  0  0  0  0  0
  -24.5909  -30.7071   25.7786 H   0  0  0  0  0  0
  -24.8910  -32.2892   26.4861 H   0  0  0  0  0  0
  -25.8038  -30.8924   27.0237 H   0  0  0  0  0  0
  -26.2939  -29.6755   24.1187 H   0  0  0  0  0  0
  -27.4059  -29.7265   25.4682 H   0  0  0  0  0  0
  -27.8813  -30.4317   23.9416 H   0  0  0  0  0  0
  -27.2680  -33.3625   26.2077 H   0  0  0  0  0  0
  -28.3878  -32.6863   25.0329 H   0  0  0  0  0  0
  -28.0737  -31.8444   26.5411 H   0  0  0  0  0  0
  -28.2593  -38.0087   24.7497 H   0  0  0  0  0  0
  -28.1066  -36.2612   24.6307 H   0  0  0  0  0  0
  -27.2294  -37.1467   25.8873 H   0  0  0  0  0  0
  -20.9405  -29.8772   21.6860 H   0  0  0  0  0  0
  -26.0161  -38.2856   24.1406 H   0  0  0  0  0  0
  -31.3021  -21.0829   19.7824 H   0  0  0  0  0  0
  -32.4062  -17.0184   20.2231 H   0  0  0  0  0  0
  -25.9047  -19.9767   20.0038 H   0  0  0  0  0  0
  -24.8937  -18.6085   19.5700 H   0  0  0  0  0  0
  -25.2461  -17.5595   21.6904 H   0  0  0  0  0  0
  -25.3143  -19.2324   22.2082 H   0  0  0  0  0  0
  -27.5016  -18.7830   18.7184 H   0  0  0  0  0  0
  -26.7692  -17.2386   19.0918 H   0  0  0  0  0  0
  -27.3803  -17.4474   22.6224 H   0  0  0  0  0  0
  -27.6959  -19.1544   22.3982 H   0  0  0  0  0  0
  -24.5922  -23.5914   21.2066 H   0  0  0  0  0  0
  -25.6819  -24.9357   21.5328 H   0  0  0  0  0  0
  -25.8741  -23.4103   22.3896 H   0  0  0  0  0  0
  -30.3581  -23.6312   21.8530 H   0  0  0  0  0  0
  -30.7712  -21.9399   21.7690 H   0  0  0  0  0  0
  -29.3444  -22.4332   22.6507 H   0  0  0  0  0  0
  -27.8758  -20.8633   21.1105 H   0  0  0  0  0  0
  -28.0657  -21.0292   19.3805 H   0  0  0  0  0  0
  -26.2314  -23.6913   19.3552 H   0  0  0  0  0  0
  -26.4061  -22.2622   20.2788 H   0  0  0  0  0  0
  -27.9991  -24.9992   18.7030 H   0  0  0  0  0  0
  -29.5151  -24.9626   19.4773 H   0  0  0  0  0  0
  -28.0877  -24.0963   21.5807 H   0  0  0  0  0  0
  -28.9194  -15.7434   20.8283 H   0  0  0  0  0  0
  -29.6882  -22.7079   19.7582 H   0  0  0  0  0  0
  1 25  1  0  0  0
  1 30  2  0  0  0
  1 88  1  0  0  0
  2  3  1  0  0  0
  2 25  1  0  0  0
  2 91  1  0  0  0
  2 92  1  0  0  0
  3  4  1  0  0  0
  3 93  1  0  0  0
  3 94  1  0  0  0
  4  5  1  0  0  0
  4 95  1  0  0  0
  4 96  1  0  0  0
  5  6  1  0  0  0
  5 26  1  0  0  0
  5 97  1  0  0  0
  6 25  1  0  0  0
  6 98  1  0  0  0
  6 99  1  0  0  0
  7  8  2  0  0  0
  7 26  1  0  0  0
  7 29  1  0  0  0
  8  9  1  0  0  0
  8 22  1  0  0  0
  9 10  1  0  0  0
  9 27  2  0  0  0
 10 11  2  0  0  0
 10 15  1  0  0  0
 11 12  1  0  0  0
 11100  1  0  0  0
 12 13  2  0  0  0
 12101  1  0  0  0
 13 14  1  0  0  0
 13 31  1  0  0  0
 14 15  2  0  0  0
 14102  1  0  0  0
 15103  1  0  0  0
 16 17  2  0  0  0
 16 21  1  0  0  0
 16 31  1  0  0  0
 17 18  1  0  0  0
 17104  1  0  0  0
 18 19  2  0  0  0
 18105  1  0  0  0
 19 20  1  0  0  0
 19 24  1  0  0  0
 20 21  2  0  0  0
 20106  1  0  0  0
 21 23  1  0  0  0
 22 28  1  0  0  0
 22 32  2  0  0  0
 26 27  1  0  0  0
 28107  1  0  0  0
 28108  1  0  0  0
 29109  1  0  0  0
 29110  1  0  0  0
 33 34  1  0  0  0
 33 66  1  0  0  0
 33 70  2  0  0  0
 34 36  1  0  0  0
 34 59  1  0  0  0
 34111  1  0  0  0
 35 44  2  0  0  0
 35 45  1  0  0  0
 35 68  1  0  0  0
 36 56  1  0  0  0
 36112  1  0  0  0
 37 39  1  0  0  0
 37 47  1  0  0  0
 37 66  1  0  0  0
 37113  1  0  0  0
 38 43  2  0  0  0
 38 46  1  0  0  0
 38 47  1  0  0  0
 39 64  1  0  0  0
 39 67  2  0  0  0
 40 52  1  0  0  0
 40 53  2  0  0  0
 40 58  1  0  0  0
 41114  1  0  0  0
 41115  1  0  0  0
 41116  1  0  0  0
 41 48  1  0  0  0
 42 43  1  0  0  0
 42 66  1  0  0  0
 42117  1  0  0  0
 42118  1  0  0  0
 43 44  1  0  0  0
 44119  1  0  0  0
 45 46  2  0  0  0
 45120  1  0  0  0
 46121  1  0  0  0
 47122  1  0  0  0
 47123  1  0  0  0
 48 56  1  0  0  0
 48 65  1  0  0  0
 48124  1  0  0  0
 49 50  1  0  0  0
 49 53  1  0  0  0
 49 64  1  0  0  0
 49125  1  0  0  0
 50 51  1  0  0  0
 50126  1  0  0  0
 50127  1  0  0  0
 51 52  1  0  0  0
 51128  1  0  0  0
 51129  1  0  0  0
 52130  1  0  0  0
 52131  1  0  0  0
 53 54  1  0  0  0
 54 55  2  0  0  0
 54132  1  0  0  0
 55 57  1  0  0  0
 55133  1  0  0  0
 56 69  2  0  0  0
 57 58  2  0  0  0
 57134  1  0  0  0
 58135  1  0  0  0
 59 60  1  0  0  0
 59 61  1  0  0  0
 59 62  1  0  0  0
 60136  1  0  0  0
 60137  1  0  0  0
 60138  1  0  0  0
 61139  1  0  0  0
 61140  1  0  0  0
 61141  1  0  0  0
 62142  1  0  0  0
 62143  1  0  0  0
 62144  1  0  0  0
 63 65  1  0  0  0
 63145  1  0  0  0
 63146  1  0  0  0
 63147  1  0  0  0
 64148  1  0  0  0
 65149  1  0  0  0
 68 85  1  0  0  0
 71 73  2  0  0  0
 71 76  1  0  0  0
 71150  1  0  0  0
 72 75  1  0  0  0
 72 76  2  0  0  0
 72151  1  0  0  0
 73 74  1  0  0  0
 73 83  1  0  0  0
 74 75  2  0  0  0
 74 87  1  0  0  0
 75 88  1  0  0  0
 76 90  1  0  0  0
 77 78  1  0  0  0
 77 79  1  0  0  0
 77152  1  0  0  0
 77153  1  0  0  0
 78 80  1  0  0  0
 78154  1  0  0  0
 78155  1  0  0  0
 79 87  1  0  0  0
 79156  1  0  0  0
 79157  1  0  0  0
 80 87  1  0  0  0
 80158  1  0  0  0
 80159  1  0  0  0
 81 84  1  0  0  0
 81160  1  0  0  0
 81161  1  0  0  0
 81162  1  0  0  0
 82163  1  0  0  0
 82164  1  0  0  0
 82165  1  0  0  0
 82 89  1  0  0  0
 83 89  1  0  0  0
 83166  1  0  0  0
 83167  1  0  0  0
 84168  1  0  0  0
 84169  1  0  0  0
 84 86  1  0  0  0
 85 86  1  0  0  0
 85170  1  0  0  0
 85171  1  0  0  0
 86 89  1  0  0  0
 86172  1  0  0  0
 88173  1  0  0  0
 89174  1  0  0  0
M  CHG  1  89   1
M  ISO  4   1 100  68 101  85 101  88 100
M  END
> <chiral flag>
0

> <version>
0

> <s_m_source_file>
/data/baiqing/PycharmProjects/Reinvent-master-3.2/result/LINK_invent/BTK/process_docking_weight1_custom_product_contain_oxygen_bond_distance_aromatic_linkinvent_7_9_3/rearranged_h_0028.sdf

> <i_m_source_file_index>
22

> <r_mmod_Potential_Energy-OPLS-2005>
167.292785644531

> <r_mmod_Stretch_Energy-OPLS-2005>
135.504577636719

> <r_mmod_Bend_Energy-OPLS-2005>
221.990676879883

> <r_mmod_Torsional_Energy-OPLS-2005>
327.124053955078

> <r_mmod_Improper_Torsional_Energy-OPLS-2005>
8.83955860137939

> <r_mmod_Van_der_Waal_Energy-OPLS-2005>
138.200912475586

> <r_mmod_Electrostatic_Energy-OPLS-2005>
-311.864776611328

> <r_mmod_Solvation_Energy-OPLS-2005>
-427.652801513672

> <b_mmod_Minimization_Converged-OPLS-2005>
0

> <r_mmod_RMS_Derivative-OPLS-2005>
2.20849514007568

$$$$
22
                    3D
 Structure written by MMmdl.
160169  0  0  1  0            999 V2000
  -30.5706  -14.8143   20.4323 C   0  0  0  0  0  0
  -30.4236  -12.4947   19.4910 C   0  0  0  0  0  0
  -29.5111  -12.5433   18.2453 C   0  0  0  0  0  0
  -28.0360  -12.3536   18.6477 C   0  0  0  0  0  0
  -27.6341  -13.2453   19.8543 C   0  0  2  0  0  0
  -28.6732  -13.1910   20.9935 C   0  0  0  0  0  0
  -25.2456  -13.8214   20.5707 C   0  0  0  0  0  0
  -24.1768  -13.0430   20.9192 C   0  0  0  0  0  0
  -24.6383  -11.6909   20.8732 C   0  0  0  0  0  0
  -23.9080  -10.4276   21.0405 C   0  0  0  0  0  0
  -24.3627   -9.4195   21.9195 C   0  0  0  0  0  0
  -23.6295   -8.2228   22.0748 C   0  0  0  0  0  0
  -22.4270   -8.0276   21.3543 C   0  0  0  0  0  0
  -21.9920   -9.0248   20.4643 C   0  0  0  0  0  0
  -22.7246  -10.2126   20.3058 C   0  0  0  0  0  0
  -21.6841   -6.0736   22.5283 C   0  0  0  0  0  0
  -21.4019   -6.5644   23.8218 C   0  0  0  0  0  0
  -21.3664   -5.6802   24.9184 C   0  0  0  0  0  0
  -21.6046   -4.3061   24.7234 C   0  0  0  0  0  0
  -21.8813   -3.8152   23.4351 C   0  0  0  0  0  0
  -21.9187   -4.6968   22.3410 C   0  0  0  0  0  0
  -22.7788  -13.5206   21.1862 C   0  0  0  0  0  0
  -22.1652   -4.2159   21.0980 F   0  0  0  0  0  0
  -21.5632   -3.4539   25.7745 F   0  0  0  0  0  0
  -29.9716  -13.5653   20.4201 N   0  0  0  0  0  0
  -26.2895  -12.9443   20.3300 N   0  0  0  0  0  0
  -25.9324  -11.6560   20.5742 N   0  0  0  0  0  0
  -22.0470  -12.8186   22.0430 N   0  0  0  0  0  0
  -25.4158  -15.1938   20.4138 N   0  0  0  0  0  0
  -31.7498  -14.9011   20.0771 O   0  0  0  0  0  0
  -21.6629   -6.8874   21.4235 O   0  0  0  0  0  0
  -22.3453  -14.5505   20.6709 O   0  0  0  0  0  0
  -24.6388  -31.8494   23.1907 C   0  0  0  0  0  0
  -25.9181  -32.4719   23.8289 C   0  0  1  0  0  0
  -27.2166  -27.1959   20.1401 C   0  0  0  0  0  0
  -25.5958  -33.8526   24.2205 N   0  0  0  0  0  0
  -23.4398  -30.4707   21.5349 C   0  0  2  0  0  0
  -24.8847  -28.8985   20.1138 C   0  0  0  0  0  0
  -22.7536  -29.4584   22.4865 C   0  0  0  0  0  0
  -18.0306  -28.1395   22.8492 C   0  0  0  0  0  0
  -24.1486  -36.7281   23.2639 C   0  0  0  0  0  0
  -25.9905  -30.7398   21.3798 C   0  0  0  0  0  0
  -26.0612  -29.3565   20.7214 C   0  0  0  0  0  0
  -27.2327  -28.5216   20.7140 C   0  0  0  0  0  0
  -26.0150  -26.8147   19.5095 C   0  0  0  0  0  0
  -24.8691  -27.6382   19.4972 C   0  0  0  0  0  0
  -23.6624  -29.7989   20.1545 C   0  0  0  0  0  0
  -25.4121  -36.3046   24.0306 C   0  0  1  0  0  0
  -20.5911  -28.3730   23.1242 C   0  0  2  0  0  0
  -20.6792  -26.9440   22.5401 C   0  0  0  0  0  0
  -19.5759  -26.6382   21.5218 C   0  0  0  0  0  0
  -18.1940  -26.7934   22.1630 C   0  0  0  0  0  0
  -19.1562  -28.8881   23.2867 C   0  0  0  0  0  0
  -18.9476  -30.1478   23.8894 C   0  0  0  0  0  0
  -17.6476  -30.6597   24.0562 C   0  0  0  0  0  0
  -25.9072  -34.9416   23.5056 C   0  0  0  0  0  0
  -16.5372  -29.9088   23.6338 C   0  0  0  0  0  0
  -16.7288  -28.6504   23.0367 C   0  0  0  0  0  0
  -26.4517  -31.6583   25.0723 C   0  0  0  0  0  0
  -25.3712  -31.3782   26.1431 C   0  0  0  0  0  0
  -27.0388  -30.2982   24.6300 C   0  0  0  0  0  0
  -27.6034  -32.4369   25.7518 C   0  0  0  0  0  0
  -27.5576  -37.1795   24.8461 C   0  0  0  0  0  0
  -21.4233  -29.3063   22.3618 N   0  0  0  0  0  0
  -26.4285  -37.3757   23.9408 N   0  0  0  0  0  0
  -24.7091  -31.0394   22.0917 N   0  0  0  0  0  0
  -23.4203  -28.8116   23.2986 O   0  0  0  0  0  0
  -28.2920  -26.2621   20.1772 O   0  0  0  0  0  0
  -26.5648  -34.8911   22.4631 O   0  0  0  0  0  0
  -23.5520  -32.1352   23.7157 O   0  0  0  0  0  0
  -29.3306  -18.6116   20.6115 C   0  0  0  0  0  0
  -30.3200  -17.4274   18.7466 C   0  0  0  0  0  0
  -29.2472  -19.8941   19.8766 C   0  0  0  0  0  0
  -29.6546  -19.8043   18.5092 C   0  0  0  0  0  0
  -29.8451  -17.3408   20.0692 C   0  0  0  0  0  0
  -30.2175  -18.6096   17.9915 C   0  0  0  0  0  0
  -28.0336  -23.6396   19.3240 C   0  0  0  0  0  0
  -29.1178  -23.8496   21.0715 C   0  0  0  0  0  0
  -28.0252  -24.7701   20.4197 C   0  0  1  0  0  0
  -30.6982  -21.7796   17.2660 C   0  0  0  0  0  0
  -29.4444  -20.9271   17.4981 C   0  0  0  0  0  0
  -28.6258  -21.2754   20.5037 C   0  0  0  0  0  0
  -29.8133  -15.9686   20.7043 N   0  0  0  0  0  0
  -28.9931  -22.7410   20.0652 N   0  3  1  0  0  0
  -30.6390  -18.5763   16.7045 F   0  0  0  0  0  0
  -31.4670  -12.6149   19.1964 H   0  0  0  0  0  0
  -30.3602  -11.5176   19.9717 H   0  0  0  0  0  0
  -29.8056  -11.7821   17.5227 H   0  0  0  0  0  0
  -29.6322  -13.5051   17.7423 H   0  0  0  0  0  0
  -27.8947  -11.3017   18.8964 H   0  0  0  0  0  0
  -27.3817  -12.5562   17.7983 H   0  0  0  0  0  0
  -27.6220  -14.2691   19.4781 H   0  0  0  0  0  0
  -28.7166  -12.1909   21.4269 H   0  0  0  0  0  0
  -28.3928  -13.8638   21.8050 H   0  0  0  0  0  0
  -25.2786   -9.5664   22.4759 H   0  0  0  0  0  0
  -24.0004   -7.4617   22.7462 H   0  0  0  0  0  0
  -21.0848   -8.8752   19.8965 H   0  0  0  0  0  0
  -22.3702  -10.9646   19.6150 H   0  0  0  0  0  0
  -21.2016   -7.6153   23.9718 H   0  0  0  0  0  0
  -21.1494   -6.0543   25.9082 H   0  0  0  0  0  0
  -22.0594   -2.7611   23.2850 H   0  0  0  0  0  0
  -22.4095  -11.9846   22.4816 H   0  0  0  0  0  0
  -21.1106  -13.1206   22.2687 H   0  0  0  0  0  0
  -24.6513  -15.8543   20.5086 H   0  0  0  0  0  0
  -26.2760  -15.6309   20.1098 H   0  0  0  0  0  0
  -26.7246  -32.5331   23.1022 H   0  0  0  0  0  0
  -25.0104  -33.9672   25.0350 H   0  0  0  0  0  0
  -22.7417  -31.2968   21.3814 H   0  0  0  0  0  0
  -23.3744  -35.9618   23.3297 H   0  0  0  0  0  0
  -24.3595  -36.8933   22.2064 H   0  0  0  0  0  0
  -23.7240  -37.6475   23.6688 H   0  0  0  0  0  0
  -26.1417  -31.4947   20.6076 H   0  0  0  0  0  0
  -26.8632  -30.7881   22.0196 H   0  0  0  0  0  0
  -28.1325  -28.8684   21.2016 H   0  0  0  0  0  0
  -25.9441  -25.8450   19.0380 H   0  0  0  0  0  0
  -23.9631  -27.2790   19.0261 H   0  0  0  0  0  0
  -23.8047  -30.5735   19.4012 H   0  0  0  0  0  0
  -22.7771  -29.2450   19.8369 H   0  0  0  0  0  0
  -25.1299  -36.1887   25.0792 H   0  0  0  0  0  0
  -21.0028  -28.3315   24.1354 H   0  0  0  0  0  0
  -20.5711  -26.2349   23.3621 H   0  0  0  0  0  0
  -21.6655  -26.7452   22.1188 H   0  0  0  0  0  0
  -19.6933  -25.6282   21.1268 H   0  0  0  0  0  0
  -19.6686  -27.3177   20.6734 H   0  0  0  0  0  0
  -17.4217  -26.6707   21.4020 H   0  0  0  0  0  0
  -18.0329  -26.0058   22.9008 H   0  0  0  0  0  0
  -19.7954  -30.7294   24.2254 H   0  0  0  0  0  0
  -17.5029  -31.6275   24.5168 H   0  0  0  0  0  0
  -15.5372  -30.2998   23.7653 H   0  0  0  0  0  0
  -15.8684  -28.0813   22.7097 H   0  0  0  0  0  0
  -24.5866  -30.7156   25.7750 H   0  0  0  0  0  0
  -24.8934  -32.2975   26.4817 H   0  0  0  0  0  0
  -25.7998  -30.8969   27.0228 H   0  0  0  0  0  0
  -26.2999  -29.6717   24.1286 H   0  0  0  0  0  0
  -27.3980  -29.7279   25.4874 H   0  0  0  0  0  0
  -27.8911  -30.4228   23.9619 H   0  0  0  0  0  0
  -27.2595  -33.3667   26.2065 H   0  0  0  0  0  0
  -28.3868  -32.6959   25.0379 H   0  0  0  0  0  0
  -28.0687  -31.8537   26.5483 H   0  0  0  0  0  0
  -28.2566  -38.0108   24.7511 H   0  0  0  0  0  0
  -28.1088  -36.2642   24.6267 H   0  0  0  0  0  0
  -27.2312  -37.1424   25.8865 H   0  0  0  0  0  0
  -20.9441  -29.8798   21.6820 H   0  0  0  0  0  0
  -26.0153  -38.2827   24.1410 H   0  0  0  0  0  0
  -28.9563  -18.5981   21.6264 H   0  0  0  0  0  0
  -30.7200  -16.5566   18.2501 H   0  0  0  0  0  0
  -28.4463  -23.9701   18.3707 H   0  0  0  0  0  0
  -27.0524  -23.1867   19.1775 H   0  0  0  0  0  0
  -28.8753  -23.5446   22.0888 H   0  0  0  0  0  0
  -30.1115  -24.2974   21.0383 H   0  0  0  0  0  0
  -27.1159  -24.6767   21.0153 H   0  0  0  0  0  0
  -30.4875  -22.5884   16.5654 H   0  0  0  0  0  0
  -31.4986  -21.1800   16.8322 H   0  0  0  0  0  0
  -31.0825  -22.2197   18.1840 H   0  0  0  0  0  0
  -28.5793  -21.5299   17.7556 H   0  0  0  0  0  0
  -29.1612  -20.4807   16.5433 H   0  0  0  0  0  0
  -28.8805  -21.2151   21.5614 H   0  0  0  0  0  0
  -27.5405  -21.1835   20.4851 H   0  0  0  0  0  0
  -28.9893  -15.7835   21.2568 H   0  0  0  0  0  0
  -29.8704  -22.7001   19.5709 H   0  0  0  0  0  0
  1 25  1  0  0  0
  1 30  2  0  0  0
  1 83  1  0  0  0
  2  3  1  0  0  0
  2 25  1  0  0  0
  2 86  1  0  0  0
  2 87  1  0  0  0
  3  4  1  0  0  0
  3 88  1  0  0  0
  3 89  1  0  0  0
  4  5  1  0  0  0
  4 90  1  0  0  0
  4 91  1  0  0  0
  5  6  1  0  0  0
  5 26  1  0  0  0
  5 92  1  0  0  0
  6 25  1  0  0  0
  6 93  1  0  0  0
  6 94  1  0  0  0
  7  8  2  0  0  0
  7 26  1  0  0  0
  7 29  1  0  0  0
  8  9  1  0  0  0
  8 22  1  0  0  0
  9 10  1  0  0  0
  9 27  2  0  0  0
 10 11  2  0  0  0
 10 15  1  0  0  0
 11 12  1  0  0  0
 11 95  1  0  0  0
 12 13  2  0  0  0
 12 96  1  0  0  0
 13 14  1  0  0  0
 13 31  1  0  0  0
 14 15  2  0  0  0
 14 97  1  0  0  0
 15 98  1  0  0  0
 16 17  2  0  0  0
 16 21  1  0  0  0
 16 31  1  0  0  0
 17 18  1  0  0  0
 17 99  1  0  0  0
 18 19  2  0  0  0
 18100  1  0  0  0
 19 20  1  0  0  0
 19 24  1  0  0  0
 20 21  2  0  0  0
 20101  1  0  0  0
 21 23  1  0  0  0
 22 28  1  0  0  0
 22 32  2  0  0  0
 26 27  1  0  0  0
 28102  1  0  0  0
 28103  1  0  0  0
 29104  1  0  0  0
 29105  1  0  0  0
 33 34  1  0  0  0
 33 66  1  0  0  0
 33 70  2  0  0  0
 34 36  1  0  0  0
 34 59  1  0  0  0
 34106  1  0  0  0
 35 44  2  0  0  0
 35 45  1  0  0  0
 35 68  1  0  0  0
 36 56  1  0  0  0
 36107  1  0  0  0
 37 39  1  0  0  0
 37 47  1  0  0  0
 37 66  1  0  0  0
 37108  1  0  0  0
 38 43  2  0  0  0
 38 46  1  0  0  0
 38 47  1  0  0  0
 39 64  1  0  0  0
 39 67  2  0  0  0
 40 52  1  0  0  0
 40 53  2  0  0  0
 40 58  1  0  0  0
 41109  1  0  0  0
 41110  1  0  0  0
 41111  1  0  0  0
 41 48  1  0  0  0
 42 43  1  0  0  0
 42 66  1  0  0  0
 42112  1  0  0  0
 42113  1  0  0  0
 43 44  1  0  0  0
 44114  1  0  0  0
 45 46  2  0  0  0
 45115  1  0  0  0
 46116  1  0  0  0
 47117  1  0  0  0
 47118  1  0  0  0
 48 56  1  0  0  0
 48 65  1  0  0  0
 48119  1  0  0  0
 49 50  1  0  0  0
 49 53  1  0  0  0
 49 64  1  0  0  0
 49120  1  0  0  0
 50 51  1  0  0  0
 50121  1  0  0  0
 50122  1  0  0  0
 51 52  1  0  0  0
 51123  1  0  0  0
 51124  1  0  0  0
 52125  1  0  0  0
 52126  1  0  0  0
 53 54  1  0  0  0
 54 55  2  0  0  0
 54127  1  0  0  0
 55 57  1  0  0  0
 55128  1  0  0  0
 56 69  2  0  0  0
 57 58  2  0  0  0
 57129  1  0  0  0
 58130  1  0  0  0
 59 60  1  0  0  0
 59 61  1  0  0  0
 59 62  1  0  0  0
 60131  1  0  0  0
 60132  1  0  0  0
 60133  1  0  0  0
 61134  1  0  0  0
 61135  1  0  0  0
 61136  1  0  0  0
 62137  1  0  0  0
 62138  1  0  0  0
 62139  1  0  0  0
 63 65  1  0  0  0
 63140  1  0  0  0
 63141  1  0  0  0
 63142  1  0  0  0
 64143  1  0  0  0
 65144  1  0  0  0
 68 79  1  0  0  0
 71 73  2  0  0  0
 71 75  1  0  0  0
 71145  1  0  0  0
 72 75  2  0  0  0
 72 76  1  0  0  0
 72146  1  0  0  0
 73 74  1  0  0  0
 73 82  1  0  0  0
 74 76  2  0  0  0
 74 81  1  0  0  0
 75 83  1  0  0  0
 76 85  1  0  0  0
 77 79  1  0  0  0
 77 84  1  0  0  0
 77147  1  0  0  0
 77148  1  0  0  0
 78 79  1  0  0  0
 78 84  1  0  0  0
 78149  1  0  0  0
 78150  1  0  0  0
 79151  1  0  0  0
 80 81  1  0  0  0
 80152  1  0  0  0
 80153  1  0  0  0
 80154  1  0  0  0
 81155  1  0  0  0
 81156  1  0  0  0
 82157  1  0  0  0
 82158  1  0  0  0
 82 84  1  0  0  0
 83159  1  0  0  0
 84160  1  0  0  0
M  CHG  1  84   1
M  ISO  4   1 100  68 101  79 101  83 100
M  END
> <chiral flag>
0

> <version>
0

> <s_m_source_file>
/data/baiqing/PycharmProjects/Reinvent-master-3.2/result/LINK_invent/BTK/process_docking_weight1_custom_product_contain_oxygen_bond_distance_aromatic_linkinvent_7_9_3/rearranged_h_0028.sdf

> <i_m_source_file_index>
23

> <r_mmod_Potential_Energy-OPLS-2005>
162.788619995117

> <r_mmod_Stretch_Energy-OPLS-2005>
177.483917236328

> <r_mmod_Bend_Energy-OPLS-2005>
224.524139404297

> <r_mmod_Torsional_Energy-OPLS-2005>
279.495483398438

> <r_mmod_Improper_Torsional_Energy-OPLS-2005>
4.65014505386353

> <r_mmod_Van_der_Waal_Energy-OPLS-2005>
130.44775390625

> <r_mmod_Electrostatic_Energy-OPLS-2005>
-297.290618896484

> <r_mmod_Solvation_Energy-OPLS-2005>
-478.610412597656

> <b_mmod_Minimization_Converged-OPLS-2005>
0

> <r_mmod_RMS_Derivative-OPLS-2005>
2.53078269958496

$$$$
23
                    3D
 Structure written by MMmdl.
154163  0  0  1  0            999 V2000
  -30.5829  -14.8279   20.4565 C   0  0  0  0  0  0
  -30.4358  -12.5148   19.4751 C   0  0  0  0  0  0
  -29.5099  -12.5121   18.2380 C   0  0  0  0  0  0
  -28.0394  -12.3218   18.6564 C   0  0  0  0  0  0
  -27.6346  -13.2367   19.8427 C   0  0  2  0  0  0
  -28.6807  -13.2124   20.9775 C   0  0  0  0  0  0
  -25.2489  -13.8208   20.5714 C   0  0  0  0  0  0
  -24.1792  -13.0443   20.9221 C   0  0  0  0  0  0
  -24.6390  -11.6926   20.8750 C   0  0  0  0  0  0
  -23.9074  -10.4302   21.0409 C   0  0  0  0  0  0
  -24.3623   -9.4221   21.9191 C   0  0  0  0  0  0
  -23.6301   -8.2252   22.0757 C   0  0  0  0  0  0
  -22.4283   -8.0284   21.3549 C   0  0  0  0  0  0
  -21.9920   -9.0259   20.4649 C   0  0  0  0  0  0
  -22.7243  -10.2142   20.3063 C   0  0  0  0  0  0
  -21.6854   -6.0744   22.5283 C   0  0  0  0  0  0
  -21.4008   -6.5643   23.8214 C   0  0  0  0  0  0
  -21.3657   -5.6795   24.9177 C   0  0  0  0  0  0
  -21.6042   -4.3061   24.7222 C   0  0  0  0  0  0
  -21.8824   -3.8155   23.4346 C   0  0  0  0  0  0
  -21.9191   -4.6975   22.3405 C   0  0  0  0  0  0
  -22.7816  -13.5224   21.1880 C   0  0  0  0  0  0
  -22.1665   -4.2159   21.0988 F   0  0  0  0  0  0
  -21.5625   -3.4548   25.7736 F   0  0  0  0  0  0
  -29.9669  -13.5918   20.3834 N   0  0  0  0  0  0
  -26.2905  -12.9413   20.3269 N   0  0  0  0  0  0
  -25.9317  -11.6554   20.5750 N   0  0  0  0  0  0
  -22.0462  -12.8202   22.0418 N   0  0  0  0  0  0
  -25.4149  -15.1935   20.4138 N   0  0  0  0  0  0
  -31.7852  -14.8977   20.1817 O   0  0  0  0  0  0
  -21.6644   -6.8884   21.4244 O   0  0  0  0  0  0
  -22.3501  -14.5539   20.6734 O   0  0  0  0  0  0
  -24.6366  -31.8490   23.1896 C   0  0  0  0  0  0
  -25.9171  -32.4706   23.8268 C   0  0  1  0  0  0
  -27.2275  -27.2076   20.1563 C   0  0  0  0  0  0
  -25.5948  -33.8517   24.2200 N   0  0  0  0  0  0
  -23.4368  -30.4664   21.5338 C   0  0  2  0  0  0
  -24.8866  -28.8953   20.1168 C   0  0  0  0  0  0
  -22.7513  -29.4581   22.4878 C   0  0  0  0  0  0
  -18.0280  -28.1386   22.8454 C   0  0  0  0  0  0
  -24.1495  -36.7267   23.2637 C   0  0  0  0  0  0
  -25.9848  -30.7465   21.3745 C   0  0  0  0  0  0
  -26.0597  -29.3616   20.7234 C   0  0  0  0  0  0
  -27.2353  -28.5349   20.7205 C   0  0  0  0  0  0
  -26.0307  -26.8126   19.5267 C   0  0  0  0  0  0
  -24.8807  -27.6303   19.5043 C   0  0  0  0  0  0
  -23.6601  -29.7893   20.1557 C   0  0  0  0  0  0
  -25.4110  -36.3038   24.0327 C   0  0  1  0  0  0
  -20.5892  -28.3715   23.1240 C   0  0  2  0  0  0
  -20.6775  -26.9425   22.5404 C   0  0  0  0  0  0
  -19.5763  -26.6376   21.5199 C   0  0  0  0  0  0
  -18.1928  -26.7918   22.1602 C   0  0  0  0  0  0
  -19.1535  -28.8864   23.2833 C   0  0  0  0  0  0
  -18.9475  -30.1454   23.8875 C   0  0  0  0  0  0
  -17.6485  -30.6590   24.0560 C   0  0  0  0  0  0
  -25.9073  -34.9422   23.5070 C   0  0  0  0  0  0
  -16.5369  -29.9094   23.6341 C   0  0  0  0  0  0
  -16.7270  -28.6510   23.0351 C   0  0  0  0  0  0
  -26.4498  -31.6553   25.0693 C   0  0  0  0  0  0
  -25.3700  -31.3749   26.1405 C   0  0  0  0  0  0
  -27.0362  -30.2967   24.6226 C   0  0  0  0  0  0
  -27.6026  -32.4319   25.7482 C   0  0  0  0  0  0
  -27.5577  -37.1756   24.8445 C   0  0  0  0  0  0
  -21.4216  -29.3053   22.3620 N   0  0  0  0  0  0
  -26.4262  -37.3757   23.9435 N   0  0  0  0  0  0
  -24.7054  -31.0407   22.0889 N   0  0  0  0  0  0
  -23.4178  -28.8147   23.3028 O   0  0  0  0  0  0
  -28.3230  -26.3009   20.1619 O   0  0  0  0  0  0
  -26.5660  -34.8915   22.4650 O   0  0  0  0  0  0
  -23.5510  -32.1338   23.7164 O   0  0  0  0  0  0
  -31.4027  -17.7747   21.2756 C   0  0  0  0  0  0
  -31.8124  -19.1113   21.4329 C   0  0  0  0  0  0
  -29.7192  -20.0244   20.4825 C   0  0  0  0  0  0
  -30.1532  -17.4479   20.7113 C   0  0  0  0  0  0
  -31.0157  -20.2045   21.0316 C   0  0  0  0  0  0
  -29.3123  -18.6057   20.3465 C   0  0  0  0  0  0
  -29.4228  -23.8862   20.6776 C   0  0  0  0  0  0
  -27.6480  -23.6297   19.8158 C   0  0  0  0  0  0
  -28.1758  -24.8562   20.6450 C   0  0  2  0  0  0
  -28.9552  -21.3291   19.8541 C   0  0  0  0  0  0
  -29.7970  -15.9871   20.5849 N   0  0  0  0  0  0
  -28.5442  -22.6686   20.5660 N   0  3  1  0  0  0
  -31.7253  -21.7701   21.1831 Cl  0  0  0  0  0  0
  -27.7644  -18.2455   19.6671 Cl  0  0  0  0  0  0
  -31.4712  -12.6593   19.1632 H   0  0  0  0  0  0
  -30.4096  -11.5500   19.9826 H   0  0  0  0  0  0
  -29.8061  -11.7228   17.5457 H   0  0  0  0  0  0
  -29.6178  -13.4523   17.6947 H   0  0  0  0  0  0
  -27.9080  -11.2752   18.9341 H   0  0  0  0  0  0
  -27.3792  -12.4926   17.8052 H   0  0  0  0  0  0
  -27.6137  -14.2499   19.4414 H   0  0  0  0  0  0
  -28.7425  -12.2248   21.4361 H   0  0  0  0  0  0
  -28.4037  -13.9036   21.7745 H   0  0  0  0  0  0
  -25.2769   -9.5698   22.4769 H   0  0  0  0  0  0
  -24.0010   -7.4644   22.7475 H   0  0  0  0  0  0
  -21.0852   -8.8783   19.8948 H   0  0  0  0  0  0
  -22.3707  -10.9686   19.6177 H   0  0  0  0  0  0
  -21.2001   -7.6150   23.9719 H   0  0  0  0  0  0
  -21.1467   -6.0527   25.9077 H   0  0  0  0  0  0
  -22.0602   -2.7617   23.2848 H   0  0  0  0  0  0
  -22.4082  -11.9862   22.4796 H   0  0  0  0  0  0
  -21.1085  -13.1224   22.2635 H   0  0  0  0  0  0
  -24.6405  -15.8377   20.5299 H   0  0  0  0  0  0
  -26.2491  -15.6447   20.0627 H   0  0  0  0  0  0
  -26.7231  -32.5339   23.1001 H   0  0  0  0  0  0
  -25.0059  -33.9642   25.0319 H   0  0  0  0  0  0
  -22.7376  -31.2903   21.3766 H   0  0  0  0  0  0
  -23.3771  -35.9592   23.3275 H   0  0  0  0  0  0
  -24.3592  -36.8932   22.2057 H   0  0  0  0  0  0
  -23.7250  -37.6456   23.6694 H   0  0  0  0  0  0
  -26.1274  -31.5008   20.5993 H   0  0  0  0  0  0
  -26.8610  -30.8003   22.0094 H   0  0  0  0  0  0
  -28.1367  -28.8953   21.1957 H   0  0  0  0  0  0
  -25.9777  -25.8438   19.0506 H   0  0  0  0  0  0
  -23.9844  -27.2646   19.0215 H   0  0  0  0  0  0
  -23.7932  -30.5604   19.3963 H   0  0  0  0  0  0
  -22.7766  -29.2267   19.8472 H   0  0  0  0  0  0
  -25.1286  -36.1840   25.0820 H   0  0  0  0  0  0
  -20.9951  -28.3308   24.1376 H   0  0  0  0  0  0
  -20.5681  -26.2325   23.3614 H   0  0  0  0  0  0
  -21.6634  -26.7451   22.1198 H   0  0  0  0  0  0
  -19.6961  -25.6287   21.1235 H   0  0  0  0  0  0
  -19.6710  -27.3172   20.6719 H   0  0  0  0  0  0
  -17.4198  -26.6643   21.4006 H   0  0  0  0  0  0
  -18.0342  -26.0057   22.9003 H   0  0  0  0  0  0
  -19.7969  -30.7237   24.2236 H   0  0  0  0  0  0
  -17.5069  -31.6274   24.5159 H   0  0  0  0  0  0
  -15.5379  -30.3015   23.7688 H   0  0  0  0  0  0
  -15.8649  -28.0845   22.7093 H   0  0  0  0  0  0
  -24.5878  -30.7091   25.7741 H   0  0  0  0  0  0
  -24.8885  -32.2941   26.4759 H   0  0  0  0  0  0
  -25.7984  -30.8972   27.0228 H   0  0  0  0  0  0
  -26.2962  -29.6695   24.1246 H   0  0  0  0  0  0
  -27.4025  -29.7250   25.4762 H   0  0  0  0  0  0
  -27.8844  -30.4241   23.9496 H   0  0  0  0  0  0
  -27.2606  -33.3633   26.2012 H   0  0  0  0  0  0
  -28.3852  -32.6861   25.0321 H   0  0  0  0  0  0
  -28.0680  -31.8482   26.5439 H   0  0  0  0  0  0
  -28.2497  -38.0135   24.7577 H   0  0  0  0  0  0
  -28.1153  -36.2669   24.6140 H   0  0  0  0  0  0
  -27.2320  -37.1244   25.8846 H   0  0  0  0  0  0
  -20.9415  -29.8769   21.6810 H   0  0  0  0  0  0
  -26.0129  -38.2817   24.1501 H   0  0  0  0  0  0
  -32.0793  -16.9981   21.6006 H   0  0  0  0  0  0
  -32.7918  -19.3030   21.8488 H   0  0  0  0  0  0
  -29.9815  -23.9338   21.6121 H   0  0  0  0  0  0
  -30.0896  -24.0113   19.8212 H   0  0  0  0  0  0
  -27.8957  -23.6966   18.7539 H   0  0  0  0  0  0
  -26.5857  -23.4257   19.9467 H   0  0  0  0  0  0
  -27.7006  -24.8752   21.6283 H   0  0  0  0  0  0
  -28.0163  -20.9475   19.4571 H   0  0  0  0  0  0
  -29.5224  -21.6105   18.9681 H   0  0  0  0  0  0
  -28.8054  -15.8049   20.5857 H   0  0  0  0  0  0
  -28.1227  -22.4612   21.4583 H   0  0  0  0  0  0
  1 25  1  0  0  0
  1 30  2  0  0  0
  1 81  1  0  0  0
  2  3  1  0  0  0
  2 25  1  0  0  0
  2 85  1  0  0  0
  2 86  1  0  0  0
  3  4  1  0  0  0
  3 87  1  0  0  0
  3 88  1  0  0  0
  4  5  1  0  0  0
  4 89  1  0  0  0
  4 90  1  0  0  0
  5  6  1  0  0  0
  5 26  1  0  0  0
  5 91  1  0  0  0
  6 25  1  0  0  0
  6 92  1  0  0  0
  6 93  1  0  0  0
  7  8  2  0  0  0
  7 26  1  0  0  0
  7 29  1  0  0  0
  8  9  1  0  0  0
  8 22  1  0  0  0
  9 10  1  0  0  0
  9 27  2  0  0  0
 10 11  2  0  0  0
 10 15  1  0  0  0
 11 12  1  0  0  0
 11 94  1  0  0  0
 12 13  2  0  0  0
 12 95  1  0  0  0
 13 14  1  0  0  0
 13 31  1  0  0  0
 14 15  2  0  0  0
 14 96  1  0  0  0
 15 97  1  0  0  0
 16 17  2  0  0  0
 16 21  1  0  0  0
 16 31  1  0  0  0
 17 18  1  0  0  0
 17 98  1  0  0  0
 18 19  2  0  0  0
 18 99  1  0  0  0
 19 20  1  0  0  0
 19 24  1  0  0  0
 20 21  2  0  0  0
 20100  1  0  0  0
 21 23  1  0  0  0
 22 28  1  0  0  0
 22 32  2  0  0  0
 26 27  1  0  0  0
 28101  1  0  0  0
 28102  1  0  0  0
 29103  1  0  0  0
 29104  1  0  0  0
 33 34  1  0  0  0
 33 66  1  0  0  0
 33 70  2  0  0  0
 34 36  1  0  0  0
 34 59  1  0  0  0
 34105  1  0  0  0
 35 44  2  0  0  0
 35 45  1  0  0  0
 35 68  1  0  0  0
 36 56  1  0  0  0
 36106  1  0  0  0
 37 39  1  0  0  0
 37 47  1  0  0  0
 37 66  1  0  0  0
 37107  1  0  0  0
 38 43  2  0  0  0
 38 46  1  0  0  0
 38 47  1  0  0  0
 39 64  1  0  0  0
 39 67  2  0  0  0
 40 52  1  0  0  0
 40 53  2  0  0  0
 40 58  1  0  0  0
 41108  1  0  0  0
 41109  1  0  0  0
 41110  1  0  0  0
 41 48  1  0  0  0
 42 43  1  0  0  0
 42 66  1  0  0  0
 42111  1  0  0  0
 42112  1  0  0  0
 43 44  1  0  0  0
 44113  1  0  0  0
 45 46  2  0  0  0
 45114  1  0  0  0
 46115  1  0  0  0
 47116  1  0  0  0
 47117  1  0  0  0
 48 56  1  0  0  0
 48 65  1  0  0  0
 48118  1  0  0  0
 49 50  1  0  0  0
 49 53  1  0  0  0
 49 64  1  0  0  0
 49119  1  0  0  0
 50 51  1  0  0  0
 50120  1  0  0  0
 50121  1  0  0  0
 51 52  1  0  0  0
 51122  1  0  0  0
 51123  1  0  0  0
 52124  1  0  0  0
 52125  1  0  0  0
 53 54  1  0  0  0
 54 55  2  0  0  0
 54126  1  0  0  0
 55 57  1  0  0  0
 55127  1  0  0  0
 56 69  2  0  0  0
 57 58  2  0  0  0
 57128  1  0  0  0
 58129  1  0  0  0
 59 60  1  0  0  0
 59 61  1  0  0  0
 59 62  1  0  0  0
 60130  1  0  0  0
 60131  1  0  0  0
 60132  1  0  0  0
 61133  1  0  0  0
 61134  1  0  0  0
 61135  1  0  0  0
 62136  1  0  0  0
 62137  1  0  0  0
 62138  1  0  0  0
 63 65  1  0  0  0
 63139  1  0  0  0
 63140  1  0  0  0
 63141  1  0  0  0
 64142  1  0  0  0
 65143  1  0  0  0
 68 79  1  0  0  0
 71 72  2  0  0  0
 71 74  1  0  0  0
 71144  1  0  0  0
 72 75  1  0  0  0
 72145  1  0  0  0
 73 75  2  0  0  0
 73 76  1  0  0  0
 73 80  1  0  0  0
 74 76  2  0  0  0
 74 81  1  0  0  0
 75 83  1  0  0  0
 76 84  1  0  0  0
 77 79  1  0  0  0
 77 82  1  0  0  0
 77146  1  0  0  0
 77147  1  0  0  0
 78 79  1  0  0  0
 78 82  1  0  0  0
 78148  1  0  0  0
 78149  1  0  0  0
 79150  1  0  0  0
 80151  1  0  0  0
 80152  1  0  0  0
 80 82  1  0  0  0
 81153  1  0  0  0
 82154  1  0  0  0
M  CHG  1  82   1
M  ISO  4   1 100  68 101  79 101  81 100
M  END
> <chiral flag>
0

> <version>
0

> <s_m_source_file>
/data/baiqing/PycharmProjects/Reinvent-master-3.2/result/LINK_invent/BTK/process_docking_weight1_custom_product_contain_oxygen_bond_distance_aromatic_linkinvent_7_9_3/rearranged_h_0028.sdf

> <i_m_source_file_index>
24

> <r_mmod_Potential_Energy-OPLS-2005>
21.969633102417

> <r_mmod_Stretch_Energy-OPLS-2005>
172.430068969727

> <r_mmod_Bend_Energy-OPLS-2005>
240.083038330078

> <r_mmod_Torsional_Energy-OPLS-2005>
238.274978637695

> <r_mmod_Improper_Torsional_Energy-OPLS-2005>
7.07717037200928

> <r_mmod_Van_der_Waal_Energy-OPLS-2005>
131.851806640625

> <r_mmod_Electrostatic_Energy-OPLS-2005>
-415.906127929688

> <r_mmod_Solvation_Energy-OPLS-2005>
-472.987426757812

> <b_mmod_Minimization_Converged-OPLS-2005>
0

> <r_mmod_RMS_Derivative-OPLS-2005>
1.92789089679718

$$$$
24
                    3D
 Structure written by MMmdl.
155164  0  0  1  0            999 V2000
  -30.5208  -15.0170   20.4061 C   0  0  0  0  0  0
  -30.4334  -12.6317   19.5306 C   0  0  0  0  0  0
  -29.5222  -12.5499   18.2829 C   0  0  0  0  0  0
  -28.0557  -12.3351   18.6932 C   0  0  0  0  0  0
  -27.6231  -13.2686   19.8523 C   0  0  2  0  0  0
  -28.6618  -13.3175   20.9962 C   0  0  0  0  0  0
  -25.2431  -13.8261   20.5779 C   0  0  0  0  0  0
  -24.1752  -13.0441   20.9263 C   0  0  0  0  0  0
  -24.6393  -11.6936   20.8755 C   0  0  0  0  0  0
  -23.9068  -10.4285   21.0385 C   0  0  0  0  0  0
  -24.3601   -9.4198   21.9181 C   0  0  0  0  0  0
  -23.6271   -8.2237   22.0761 C   0  0  0  0  0  0
  -22.4262   -8.0283   21.3540 C   0  0  0  0  0  0
  -21.9888   -9.0261   20.4643 C   0  0  0  0  0  0
  -22.7222  -10.2136   20.3049 C   0  0  0  0  0  0
  -21.6853   -6.0727   22.5260 C   0  0  0  0  0  0
  -21.4018   -6.5629   23.8195 C   0  0  0  0  0  0
  -21.3670   -5.6795   24.9166 C   0  0  0  0  0  0
  -21.6029   -4.3053   24.7222 C   0  0  0  0  0  0
  -21.8824   -3.8140   23.4345 C   0  0  0  0  0  0
  -21.9195   -4.6953   22.3394 C   0  0  0  0  0  0
  -22.7761  -13.5182   21.1896 C   0  0  0  0  0  0
  -22.1675   -4.2124   21.0978 F   0  0  0  0  0  0
  -21.5613   -3.4553   25.7747 F   0  0  0  0  0  0
  -29.9356  -13.7430   20.4036 N   0  0  0  0  0  0
  -26.2861  -12.9525   20.3328 N   0  0  0  0  0  0
  -25.9331  -11.6618   20.5763 N   0  0  0  0  0  0
  -22.0444  -12.8162   22.0461 N   0  0  0  0  0  0
  -25.4081  -15.1995   20.4240 N   0  0  0  0  0  0
  -31.7141  -15.0565   20.0854 O   0  0  0  0  0  0
  -21.6644   -6.8868   21.4227 O   0  0  0  0  0  0
  -22.3425  -14.5468   20.6744 O   0  0  0  0  0  0
  -24.6488  -31.8366   23.1850 C   0  0  0  0  0  0
  -25.9219  -32.4654   23.8267 C   0  0  1  0  0  0
  -27.2147  -27.0645   20.1594 C   0  0  0  0  0  0
  -25.5941  -33.8466   24.2171 N   0  0  0  0  0  0
  -23.4551  -30.4563   21.5320 C   0  0  2  0  0  0
  -24.9058  -28.8687   20.1150 C   0  0  0  0  0  0
  -22.7592  -29.4512   22.4842 C   0  0  0  0  0  0
  -18.0318  -28.1387   22.8483 C   0  0  0  0  0  0
  -24.1497  -36.7262   23.2647 C   0  0  0  0  0  0
  -26.0173  -30.6871   21.3936 C   0  0  0  0  0  0
  -26.0871  -29.2908   20.7377 C   0  0  0  0  0  0
  -27.2408  -28.4073   20.7386 C   0  0  0  0  0  0
  -26.0026  -26.7612   19.5005 C   0  0  0  0  0  0
  -24.8797  -27.6182   19.4811 C   0  0  0  0  0  0
  -23.6856  -29.7811   20.1551 C   0  0  0  0  0  0
  -25.4126  -36.3012   24.0316 C   0  0  1  0  0  0
  -20.5936  -28.3727   23.1236 C   0  0  2  0  0  0
  -20.6823  -26.9427   22.5416 C   0  0  0  0  0  0
  -19.5792  -26.6371   21.5228 C   0  0  0  0  0  0
  -18.1960  -26.7918   22.1623 C   0  0  0  0  0  0
  -19.1575  -28.8877   23.2848 C   0  0  0  0  0  0
  -18.9481  -30.1475   23.8871 C   0  0  0  0  0  0
  -17.6479  -30.6585   24.0563 C   0  0  0  0  0  0
  -25.9083  -34.9385   23.5072 C   0  0  0  0  0  0
  -16.5378  -29.9067   23.6348 C   0  0  0  0  0  0
  -16.7303  -28.6493   23.0359 C   0  0  0  0  0  0
  -26.4510  -31.6541   25.0738 C   0  0  0  0  0  0
  -25.3707  -31.3714   26.1444 C   0  0  0  0  0  0
  -27.0381  -30.2931   24.6361 C   0  0  0  0  0  0
  -27.6040  -32.4319   25.7514 C   0  0  0  0  0  0
  -27.5578  -37.1787   24.8459 C   0  0  0  0  0  0
  -21.4277  -29.3024   22.3585 N   0  0  0  0  0  0
  -26.4287  -37.3728   23.9406 N   0  0  0  0  0  0
  -24.7282  -31.0156   22.0920 N   0  0  0  0  0  0
  -23.4219  -28.8060   23.3007 O   0  0  0  0  0  0
  -28.2601  -26.0485   20.2217 O   0  0  0  0  0  0
  -26.5679  -34.8878   22.4661 O   0  0  0  0  0  0
  -23.5588  -32.1244   23.7049 O   0  0  0  0  0  0
  -28.5160  -17.3108   17.7517 C   0  0  0  0  0  0
  -29.7057  -17.1677   18.4860 C   0  0  0  0  0  0
  -27.4686  -18.0907   18.2631 C   0  0  0  0  0  0
  -28.9408  -18.8816   20.0613 C   0  0  0  0  0  0
  -29.7402  -17.5905   19.8383 C   0  0  0  0  0  0
  -27.7068  -18.9290   19.3617 C   0  0  0  0  0  0
  -27.6574  -22.2331   21.2271 C   0  0  0  0  0  0
  -27.2962  -23.7618   21.2298 C   0  0  0  0  0  0
  -29.1527  -23.2504   19.8948 C   0  0  0  0  0  0
  -28.0422  -24.4764   20.0804 C   0  0  2  0  0  0
  -29.4388  -20.4238   20.5071 C   0  0  0  0  0  0
  -28.6742  -21.8560   20.4140 N   0  0  0  0  0  0
  -29.7778  -16.2400   20.6156 N   0  0  0  0  0  0
  -27.0654  -21.4605   21.9851 O   0  0  0  0  0  0
  -26.7894  -19.8884   19.6173 F   0  0  0  0  0  0
  -31.4667  -12.7837   19.2126 H   0  0  0  0  0  0
  -30.4369  -11.6885   20.0783 H   0  0  0  0  0  0
  -29.8453  -11.7459   17.6238 H   0  0  0  0  0  0
  -29.6062  -13.4733   17.7075 H   0  0  0  0  0  0
  -27.9478  -11.2936   19.0017 H   0  0  0  0  0  0
  -27.3944  -12.4699   17.8378 H   0  0  0  0  0  0
  -27.5756  -14.2675   19.4164 H   0  0  0  0  0  0
  -28.7596  -12.3458   21.4839 H   0  0  0  0  0  0
  -28.3510  -14.0238   21.7668 H   0  0  0  0  0  0
  -25.2731   -9.5675   22.4783 H   0  0  0  0  0  0
  -23.9976   -7.4609   22.7462 H   0  0  0  0  0  0
  -21.0836   -8.8770   19.8921 H   0  0  0  0  0  0
  -22.3673  -10.9691   19.6170 H   0  0  0  0  0  0
  -21.2032   -7.6144   23.9690 H   0  0  0  0  0  0
  -21.1481   -6.0533   25.9060 H   0  0  0  0  0  0
  -22.0596   -2.7598   23.2859 H   0  0  0  0  0  0
  -22.4110  -11.9834   22.4820 H   0  0  0  0  0  0
  -21.1049  -13.1147   22.2670 H   0  0  0  0  0  0
  -24.6364  -15.8479   20.5389 H   0  0  0  0  0  0
  -26.2494  -15.6434   20.0814 H   0  0  0  0  0  0
  -26.7282  -32.5233   23.0988 H   0  0  0  0  0  0
  -25.0048  -33.9589   25.0291 H   0  0  0  0  0  0
  -22.7607  -31.2854   21.3732 H   0  0  0  0  0  0
  -23.3764  -35.9591   23.3274 H   0  0  0  0  0  0
  -24.3588  -36.8940   22.2071 H   0  0  0  0  0  0
  -23.7258  -37.6451   23.6718 H   0  0  0  0  0  0
  -26.1775  -31.4338   20.6131 H   0  0  0  0  0  0
  -26.8866  -30.7436   22.0362 H   0  0  0  0  0  0
  -28.1405  -28.7260   21.2455 H   0  0  0  0  0  0
  -25.8773  -25.8105   19.0078 H   0  0  0  0  0  0
  -23.9792  -27.2867   18.9832 H   0  0  0  0  0  0
  -23.8235  -30.5549   19.3983 H   0  0  0  0  0  0
  -22.7975  -29.2268   19.8453 H   0  0  0  0  0  0
  -25.1299  -36.1857   25.0807 H   0  0  0  0  0  0
  -21.0023  -28.3335   24.1359 H   0  0  0  0  0  0
  -20.5762  -26.2314   23.3627 H   0  0  0  0  0  0
  -21.6679  -26.7455   22.1173 H   0  0  0  0  0  0
  -19.6969  -25.6269   21.1274 H   0  0  0  0  0  0
  -19.6751  -27.3169   20.6753 H   0  0  0  0  0  0
  -17.4243  -26.6684   21.4015 H   0  0  0  0  0  0
  -18.0367  -26.0046   22.9012 H   0  0  0  0  0  0
  -19.7964  -30.7314   24.2204 H   0  0  0  0  0  0
  -17.5033  -31.6270   24.5152 H   0  0  0  0  0  0
  -15.5375  -30.2964   23.7688 H   0  0  0  0  0  0
  -15.8699  -28.0819   22.7063 H   0  0  0  0  0  0
  -24.5927  -30.6988   25.7801 H   0  0  0  0  0  0
  -24.8824  -32.2865   26.4819 H   0  0  0  0  0  0
  -25.8005  -30.8966   27.0277 H   0  0  0  0  0  0
  -26.2997  -29.6650   24.1365 H   0  0  0  0  0  0
  -27.3952  -29.7231   25.4948 H   0  0  0  0  0  0
  -27.8917  -30.4123   23.9692 H   0  0  0  0  0  0
  -27.2641  -33.3673   26.1983 H   0  0  0  0  0  0
  -28.3901  -32.6813   25.0372 H   0  0  0  0  0  0
  -28.0647  -31.8522   26.5519 H   0  0  0  0  0  0
  -28.2554  -38.0115   24.7527 H   0  0  0  0  0  0
  -28.1102  -36.2650   24.6249 H   0  0  0  0  0  0
  -27.2307  -37.1402   25.8859 H   0  0  0  0  0  0
  -20.9503  -29.8687   21.6715 H   0  0  0  0  0  0
  -26.0153  -38.2797   24.1416 H   0  0  0  0  0  0
  -28.3824  -16.7590   16.8325 H   0  0  0  0  0  0
  -30.3798  -16.4067   18.1192 H   0  0  0  0  0  0
  -26.5297  -18.1558   17.7338 H   0  0  0  0  0  0
  -27.6178  -24.1687   22.1884 H   0  0  0  0  0  0
  -26.2189  -23.9089   21.1568 H   0  0  0  0  0  0
  -30.0568  -23.5109   20.4464 H   0  0  0  0  0  0
  -29.4503  -23.1663   18.8483 H   0  0  0  0  0  0
  -27.4156  -24.3697   19.1957 H   0  0  0  0  0  0
  -30.3923  -20.5780   20.0010 H   0  0  0  0  0  0
  -29.7062  -20.3251   21.5600 H   0  0  0  0  0  0
  -28.9445  -16.0757   21.1598 H   0  0  0  0  0  0
  1 25  1  0  0  0
  1 30  2  0  0  0
  1 83  1  0  0  0
  2  3  1  0  0  0
  2 25  1  0  0  0
  2 86  1  0  0  0
  2 87  1  0  0  0
  3  4  1  0  0  0
  3 88  1  0  0  0
  3 89  1  0  0  0
  4  5  1  0  0  0
  4 90  1  0  0  0
  4 91  1  0  0  0
  5  6  1  0  0  0
  5 26  1  0  0  0
  5 92  1  0  0  0
  6 25  1  0  0  0
  6 93  1  0  0  0
  6 94  1  0  0  0
  7  8  2  0  0  0
  7 26  1  0  0  0
  7 29  1  0  0  0
  8  9  1  0  0  0
  8 22  1  0  0  0
  9 10  1  0  0  0
  9 27  2  0  0  0
 10 11  2  0  0  0
 10 15  1  0  0  0
 11 12  1  0  0  0
 11 95  1  0  0  0
 12 13  2  0  0  0
 12 96  1  0  0  0
 13 14  1  0  0  0
 13 31  1  0  0  0
 14 15  2  0  0  0
 14 97  1  0  0  0
 15 98  1  0  0  0
 16 17  2  0  0  0
 16 21  1  0  0  0
 16 31  1  0  0  0
 17 18  1  0  0  0
 17 99  1  0  0  0
 18 19  2  0  0  0
 18100  1  0  0  0
 19 20  1  0  0  0
 19 24  1  0  0  0
 20 21  2  0  0  0
 20101  1  0  0  0
 21 23  1  0  0  0
 22 28  1  0  0  0
 22 32  2  0  0  0
 26 27  1  0  0  0
 28102  1  0  0  0
 28103  1  0  0  0
 29104  1  0  0  0
 29105  1  0  0  0
 33 34  1  0  0  0
 33 66  1  0  0  0
 33 70  2  0  0  0
 34 36  1  0  0  0
 34 59  1  0  0  0
 34106  1  0  0  0
 35 44  2  0  0  0
 35 45  1  0  0  0
 35 68  1  0  0  0
 36 56  1  0  0  0
 36107  1  0  0  0
 37 39  1  0  0  0
 37 47  1  0  0  0
 37 66  1  0  0  0
 37108  1  0  0  0
 38 43  2  0  0  0
 38 46  1  0  0  0
 38 47  1  0  0  0
 39 64  1  0  0  0
 39 67  2  0  0  0
 40 52  1  0  0  0
 40 53  2  0  0  0
 40 58  1  0  0  0
 41109  1  0  0  0
 41110  1  0  0  0
 41111  1  0  0  0
 41 48  1  0  0  0
 42 43  1  0  0  0
 42 66  1  0  0  0
 42112  1  0  0  0
 42113  1  0  0  0
 43 44  1  0  0  0
 44114  1  0  0  0
 45 46  2  0  0  0
 45115  1  0  0  0
 46116  1  0  0  0
 47117  1  0  0  0
 47118  1  0  0  0
 48 56  1  0  0  0
 48 65  1  0  0  0
 48119  1  0  0  0
 49 50  1  0  0  0
 49 53  1  0  0  0
 49 64  1  0  0  0
 49120  1  0  0  0
 50 51  1  0  0  0
 50121  1  0  0  0
 50122  1  0  0  0
 51 52  1  0  0  0
 51123  1  0  0  0
 51124  1  0  0  0
 52125  1  0  0  0
 52126  1  0  0  0
 53 54  1  0  0  0
 54 55  2  0  0  0
 54127  1  0  0  0
 55 57  1  0  0  0
 55128  1  0  0  0
 56 69  2  0  0  0
 57 58  2  0  0  0
 57129  1  0  0  0
 58130  1  0  0  0
 59 60  1  0  0  0
 59 61  1  0  0  0
 59 62  1  0  0  0
 60131  1  0  0  0
 60132  1  0  0  0
 60133  1  0  0  0
 61134  1  0  0  0
 61135  1  0  0  0
 61136  1  0  0  0
 62137  1  0  0  0
 62138  1  0  0  0
 62139  1  0  0  0
 63 65  1  0  0  0
 63140  1  0  0  0
 63141  1  0  0  0
 63142  1  0  0  0
 64143  1  0  0  0
 65144  1  0  0  0
 68 80  1  0  0  0
 71 72  2  0  0  0
 71 73  1  0  0  0
 71145  1  0  0  0
 72 75  1  0  0  0
 72146  1  0  0  0
 73 76  2  0  0  0
 73147  1  0  0  0
 74 75  2  0  0  0
 74 76  1  0  0  0
 74 81  1  0  0  0
 75 83  1  0  0  0
 76 85  1  0  0  0
 77 78  1  0  0  0
 77 82  1  0  0  0
 77 84  2  0  0  0
 78 80  1  0  0  0
 78148  1  0  0  0
 78149  1  0  0  0
 79 80  1  0  0  0
 79 82  1  0  0  0
 79150  1  0  0  0
 79151  1  0  0  0
 80152  1  0  0  0
 81 82  1  0  0  0
 81153  1  0  0  0
 81154  1  0  0  0
 83155  1  0  0  0
M  ISO  4   1 100  68 101  80 101  83 100
M  END
> <chiral flag>
0

> <version>
0

> <s_m_source_file>
/data/baiqing/PycharmProjects/Reinvent-master-3.2/result/LINK_invent/BTK/process_docking_weight1_custom_product_contain_oxygen_bond_distance_aromatic_linkinvent_7_9_3/rearranged_h_0028.sdf

> <i_m_source_file_index>
25

> <r_mmod_Potential_Energy-OPLS-2005>
944.172424316406

> <r_mmod_Stretch_Energy-OPLS-2005>
344.625274658203

> <r_mmod_Bend_Energy-OPLS-2005>
364.28955078125

> <r_mmod_Torsional_Energy-OPLS-2005>
438.007598876953

> <r_mmod_Improper_Torsional_Energy-OPLS-2005>
29.7104721069336

> <r_mmod_Van_der_Waal_Energy-OPLS-2005>
128.762237548828

> <r_mmod_Electrostatic_Energy-OPLS-2005>
-377.413787841797

> <r_mmod_Solvation_Energy-OPLS-2005>
-232.227233886719

> <b_mmod_Minimization_Converged-OPLS-2005>
0

> <r_mmod_RMS_Derivative-OPLS-2005>
3.31427359580994

$$$$
25
                    3D
 Structure written by MMmdl.
155164  0  0  1  0            999 V2000
  -30.5101  -14.9157   20.4314 C   0  0  0  0  0  0
  -30.4551  -12.5640   19.4948 C   0  0  0  0  0  0
  -29.5296  -12.5188   18.2545 C   0  0  0  0  0  0
  -28.0590  -12.3095   18.6705 C   0  0  0  0  0  0
  -27.6366  -13.2322   19.8422 C   0  0  2  0  0  0
  -28.6786  -13.2242   20.9813 C   0  0  0  0  0  0
  -25.2501  -13.8180   20.5681 C   0  0  0  0  0  0
  -24.1797  -13.0431   20.9219 C   0  0  0  0  0  0
  -24.6378  -11.6903   20.8733 C   0  0  0  0  0  0
  -23.9058  -10.4283   21.0403 C   0  0  0  0  0  0
  -24.3609   -9.4210   21.9183 C   0  0  0  0  0  0
  -23.6287   -8.2238   22.0752 C   0  0  0  0  0  0
  -22.4270   -8.0277   21.3550 C   0  0  0  0  0  0
  -21.9901   -9.0253   20.4651 C   0  0  0  0  0  0
  -22.7222  -10.2130   20.3061 C   0  0  0  0  0  0
  -21.6857   -6.0723   22.5274 C   0  0  0  0  0  0
  -21.4020   -6.5632   23.8205 C   0  0  0  0  0  0
  -21.3661   -5.6784   24.9166 C   0  0  0  0  0  0
  -21.6043   -4.3045   24.7220 C   0  0  0  0  0  0
  -21.8819   -3.8140   23.4341 C   0  0  0  0  0  0
  -21.9196   -4.6954   22.3400 C   0  0  0  0  0  0
  -22.7821  -13.5222   21.1876 C   0  0  0  0  0  0
  -22.1664   -4.2134   21.0975 F   0  0  0  0  0  0
  -21.5632   -3.4540   25.7739 F   0  0  0  0  0  0
  -29.9611  -13.6387   20.3954 N   0  0  0  0  0  0
  -26.2910  -12.9372   20.3219 N   0  0  0  0  0  0
  -25.9306  -11.6520   20.5715 N   0  0  0  0  0  0
  -22.0462  -12.8228   22.0435 N   0  0  0  0  0  0
  -25.4180  -15.1899   20.4062 N   0  0  0  0  0  0
  -31.7075  -15.0456   20.1522 O   0  0  0  0  0  0
  -21.6642   -6.8870   21.4235 O   0  0  0  0  0  0
  -22.3515  -14.5523   20.6710 O   0  0  0  0  0  0
  -24.6399  -31.8461   23.1887 C   0  0  0  0  0  0
  -25.9173  -32.4702   23.8282 C   0  0  1  0  0  0
  -27.2301  -27.1649   20.1608 C   0  0  0  0  0  0
  -25.5917  -33.8509   24.2191 N   0  0  0  0  0  0
  -23.4448  -30.4631   21.5331 C   0  0  2  0  0  0
  -24.8964  -28.8848   20.1197 C   0  0  0  0  0  0
  -22.7556  -29.4560   22.4877 C   0  0  0  0  0  0
  -18.0305  -28.1404   22.8480 C   0  0  0  0  0  0
  -24.1488  -36.7274   23.2646 C   0  0  0  0  0  0
  -25.9980  -30.7279   21.3845 C   0  0  0  0  0  0
  -26.0721  -29.3385   20.7320 C   0  0  0  0  0  0
  -27.2428  -28.4960   20.7316 C   0  0  0  0  0  0
  -26.0282  -26.7961   19.5209 C   0  0  0  0  0  0
  -24.8846  -27.6247   19.4992 C   0  0  0  0  0  0
  -23.6714  -29.7845   20.1556 C   0  0  0  0  0  0
  -25.4118  -36.3045   24.0320 C   0  0  1  0  0  0
  -20.5915  -28.3728   23.1240 C   0  0  2  0  0  0
  -20.6779  -26.9429   22.5408 C   0  0  0  0  0  0
  -19.5752  -26.6389   21.5211 C   0  0  0  0  0  0
  -18.1937  -26.7941   22.1629 C   0  0  0  0  0  0
  -19.1559  -28.8880   23.2850 C   0  0  0  0  0  0
  -18.9480  -30.1479   23.8874 C   0  0  0  0  0  0
  -17.6479  -30.6593   24.0571 C   0  0  0  0  0  0
  -25.9063  -34.9412   23.5065 C   0  0  0  0  0  0
  -16.5369  -29.9088   23.6346 C   0  0  0  0  0  0
  -16.7289  -28.6517   23.0356 C   0  0  0  0  0  0
  -26.4491  -31.6578   25.0732 C   0  0  0  0  0  0
  -25.3682  -31.3786   26.1443 C   0  0  0  0  0  0
  -27.0353  -30.2970   24.6320 C   0  0  0  0  0  0
  -27.6025  -32.4355   25.7515 C   0  0  0  0  0  0
  -27.5580  -37.1789   24.8464 C   0  0  0  0  0  0
  -21.4254  -29.3055   22.3616 N   0  0  0  0  0  0
  -26.4286  -37.3756   23.9412 N   0  0  0  0  0  0
  -24.7135  -31.0338   22.0901 N   0  0  0  0  0  0
  -23.4206  -28.8119   23.3033 O   0  0  0  0  0  0
  -28.3104  -26.2198   20.1514 O   0  0  0  0  0  0
  -26.5675  -34.8902   22.4659 O   0  0  0  0  0  0
  -23.5516  -32.1326   23.7102 O   0  0  0  0  0  0
  -30.4567  -19.9270   20.7530 C   0  0  0  0  0  0
  -30.6545  -18.4807   20.7030 C   0  0  0  0  0  0
  -28.3478  -18.2230   20.2920 C   0  0  0  0  0  0
  -29.1909  -20.6044   20.5898 C   0  0  0  0  0  0
  -29.5944  -17.5354   20.4989 C   0  0  0  0  0  0
  -28.1469  -19.6594   20.3285 C   0  0  0  0  0  0
  -28.8211  -22.2697   22.3278 C   0  0  0  0  0  0
  -28.3448  -23.6122   22.9079 C   0  0  0  0  0  0
  -28.7034  -24.8631   22.0996 C   0  0  0  0  0  0
  -28.7604  -23.3445   20.0766 C   0  0  0  0  0  0
  -28.1438  -24.7789   20.6852 C   0  0  2  0  0  0
  -28.9220  -22.0677   20.9826 N   0  0  0  0  0  0
  -29.6196  -16.0058   20.5732 N   0  0  0  0  0  0
  -29.0692  -21.3835   23.1528 O   0  0  0  0  0  0
  -26.5366  -20.2485   20.1180 Cl  0  0  0  0  0  0
  -31.4867  -12.7388   19.1870 H   0  0  0  0  0  0
  -30.4593  -11.6042   20.0142 H   0  0  0  0  0  0
  -29.8437  -11.7202   17.5811 H   0  0  0  0  0  0
  -29.6246  -13.4483   17.6908 H   0  0  0  0  0  0
  -27.9473  -11.2670   18.9710 H   0  0  0  0  0  0
  -27.3979  -12.4525   17.8156 H   0  0  0  0  0  0
  -27.6123  -14.2388   19.4259 H   0  0  0  0  0  0
  -28.7562  -12.2344   21.4344 H   0  0  0  0  0  0
  -28.3806  -13.9030   21.7818 H   0  0  0  0  0  0
  -25.2754   -9.5698   22.4754 H   0  0  0  0  0  0
  -24.0008   -7.4634   22.7472 H   0  0  0  0  0  0
  -21.0838   -8.8769   19.8954 H   0  0  0  0  0  0
  -22.3685  -10.9670   19.6172 H   0  0  0  0  0  0
  -21.2015   -7.6140   23.9704 H   0  0  0  0  0  0
  -21.1486   -6.0513   25.9065 H   0  0  0  0  0  0
  -22.0598   -2.7603   23.2842 H   0  0  0  0  0  0
  -22.4082  -11.9907   22.4855 H   0  0  0  0  0  0
  -21.1076  -13.1253   22.2620 H   0  0  0  0  0  0
  -24.6391  -15.8335   20.4961 H   0  0  0  0  0  0
  -26.2340  -15.6136   19.9874 H   0  0  0  0  0  0
  -26.7249  -32.5324   23.1024 H   0  0  0  0  0  0
  -24.9974  -33.9624   25.0273 H   0  0  0  0  0  0
  -22.7460  -31.2874   21.3741 H   0  0  0  0  0  0
  -23.3740  -35.9616   23.3304 H   0  0  0  0  0  0
  -24.3568  -36.8919   22.2065 H   0  0  0  0  0  0
  -23.7251  -37.6468   23.6689 H   0  0  0  0  0  0
  -26.1527  -31.4806   20.6101 H   0  0  0  0  0  0
  -26.8674  -30.7786   22.0289 H   0  0  0  0  0  0
  -28.1453  -28.8435   21.2145 H   0  0  0  0  0  0
  -25.9648  -25.8290   19.0407 H   0  0  0  0  0  0
  -23.9874  -27.2701   19.0101 H   0  0  0  0  0  0
  -23.8065  -30.5531   19.3943 H   0  0  0  0  0  0
  -22.7880  -29.2232   19.8485 H   0  0  0  0  0  0
  -25.1298  -36.1882   25.0813 H   0  0  0  0  0  0
  -21.0015  -28.3316   24.1360 H   0  0  0  0  0  0
  -20.5665  -26.2339   23.3628 H   0  0  0  0  0  0
  -21.6646  -26.7425   22.1216 H   0  0  0  0  0  0
  -19.6907  -25.6293   21.1255 H   0  0  0  0  0  0
  -19.6684  -27.3186   20.6730 H   0  0  0  0  0  0
  -17.4204  -26.6695   21.4037 H   0  0  0  0  0  0
  -18.0336  -26.0084   22.9031 H   0  0  0  0  0  0
  -19.7953  -30.7301   24.2232 H   0  0  0  0  0  0
  -17.5031  -31.6269   24.5179 H   0  0  0  0  0  0
  -15.5369  -30.2985   23.7672 H   0  0  0  0  0  0
  -15.8698  -28.0823   22.7081 H   0  0  0  0  0  0
  -24.5826  -30.7162   25.7781 H   0  0  0  0  0  0
  -24.8898  -32.2978   26.4845 H   0  0  0  0  0  0
  -25.7969  -30.8976   27.0246 H   0  0  0  0  0  0
  -26.2972  -29.6704   24.1295 H   0  0  0  0  0  0
  -27.3917  -29.7269   25.4910 H   0  0  0  0  0  0
  -27.8904  -30.4203   23.9668 H   0  0  0  0  0  0
  -27.2595  -33.3649   26.2079 H   0  0  0  0  0  0
  -28.3834  -32.6940   25.0350 H   0  0  0  0  0  0
  -28.0691  -31.8498   26.5446 H   0  0  0  0  0  0
  -28.2592  -38.0091   24.7498 H   0  0  0  0  0  0
  -28.1074  -36.2615   24.6285 H   0  0  0  0  0  0
  -27.2298  -37.1449   25.8868 H   0  0  0  0  0  0
  -20.9463  -29.8767   21.6792 H   0  0  0  0  0  0
  -26.0152  -38.2829   24.1391 H   0  0  0  0  0  0
  -31.3168  -20.5319   20.9993 H   0  0  0  0  0  0
  -31.6490  -18.1006   20.8879 H   0  0  0  0  0  0
  -27.4662  -17.6205   20.1294 H   0  0  0  0  0  0
  -28.7527  -23.7188   23.9135 H   0  0  0  0  0  0
  -27.2633  -23.5516   23.0290 H   0  0  0  0  0  0
  -29.7871  -24.9897   22.0638 H   0  0  0  0  0  0
  -28.3072  -25.7423   22.6092 H   0  0  0  0  0  0
  -29.7611  -23.5562   19.7008 H   0  0  0  0  0  0
  -28.1814  -23.0584   19.1992 H   0  0  0  0  0  0
  -27.0692  -24.6166   20.7797 H   0  0  0  0  0  0
  -28.6931  -15.6328   20.7090 H   0  0  0  0  0  0
  1 25  1  0  0  0
  1 30  2  0  0  0
  1 83  1  0  0  0
  2  3  1  0  0  0
  2 25  1  0  0  0
  2 86  1  0  0  0
  2 87  1  0  0  0
  3  4  1  0  0  0
  3 88  1  0  0  0
  3 89  1  0  0  0
  4  5  1  0  0  0
  4 90  1  0  0  0
  4 91  1  0  0  0
  5  6  1  0  0  0
  5 26  1  0  0  0
  5 92  1  0  0  0
  6 25  1  0  0  0
  6 93  1  0  0  0
  6 94  1  0  0  0
  7  8  2  0  0  0
  7 26  1  0  0  0
  7 29  1  0  0  0
  8  9  1  0  0  0
  8 22  1  0  0  0
  9 10  1  0  0  0
  9 27  2  0  0  0
 10 11  2  0  0  0
 10 15  1  0  0  0
 11 12  1  0  0  0
 11 95  1  0  0  0
 12 13  2  0  0  0
 12 96  1  0  0  0
 13 14  1  0  0  0
 13 31  1  0  0  0
 14 15  2  0  0  0
 14 97  1  0  0  0
 15 98  1  0  0  0
 16 17  2  0  0  0
 16 21  1  0  0  0
 16 31  1  0  0  0
 17 18  1  0  0  0
 17 99  1  0  0  0
 18 19  2  0  0  0
 18100  1  0  0  0
 19 20  1  0  0  0
 19 24  1  0  0  0
 20 21  2  0  0  0
 20101  1  0  0  0
 21 23  1  0  0  0
 22 28  1  0  0  0
 22 32  2  0  0  0
 26 27  1  0  0  0
 28102  1  0  0  0
 28103  1  0  0  0
 29104  1  0  0  0
 29105  1  0  0  0
 33 34  1  0  0  0
 33 66  1  0  0  0
 33 70  2  0  0  0
 34 36  1  0  0  0
 34 59  1  0  0  0
 34106  1  0  0  0
 35 44  2  0  0  0
 35 45  1  0  0  0
 35 68  1  0  0  0
 36 56  1  0  0  0
 36107  1  0  0  0
 37 39  1  0  0  0
 37 47  1  0  0  0
 37 66  1  0  0  0
 37108  1  0  0  0
 38 43  2  0  0  0
 38 46  1  0  0  0
 38 47  1  0  0  0
 39 64  1  0  0  0
 39 67  2  0  0  0
 40 52  1  0  0  0
 40 53  2  0  0  0
 40 58  1  0  0  0
 41109  1  0  0  0
 41110  1  0  0  0
 41111  1  0  0  0
 41 48  1  0  0  0
 42 43  1  0  0  0
 42 66  1  0  0  0
 42112  1  0  0  0
 42113  1  0  0  0
 43 44  1  0  0  0
 44114  1  0  0  0
 45 46  2  0  0  0
 45115  1  0  0  0
 46116  1  0  0  0
 47117  1  0  0  0
 47118  1  0  0  0
 48 56  1  0  0  0
 48 65  1  0  0  0
 48119  1  0  0  0
 49 50  1  0  0  0
 49 53  1  0  0  0
 49 64  1  0  0  0
 49120  1  0  0  0
 50 51  1  0  0  0
 50121  1  0  0  0
 50122  1  0  0  0
 51 52  1  0  0  0
 51123  1  0  0  0
 51124  1  0  0  0
 52125  1  0  0  0
 52126  1  0  0  0
 53 54  1  0  0  0
 54 55  2  0  0  0
 54127  1  0  0  0
 55 57  1  0  0  0
 55128  1  0  0  0
 56 69  2  0  0  0
 57 58  2  0  0  0
 57129  1  0  0  0
 58130  1  0  0  0
 59 60  1  0  0  0
 59 61  1  0  0  0
 59 62  1  0  0  0
 60131  1  0  0  0
 60132  1  0  0  0
 60133  1  0  0  0
 61134  1  0  0  0
 61135  1  0  0  0
 61136  1  0  0  0
 62137  1  0  0  0
 62138  1  0  0  0
 62139  1  0  0  0
 63 65  1  0  0  0
 63140  1  0  0  0
 63141  1  0  0  0
 63142  1  0  0  0
 64143  1  0  0  0
 65144  1  0  0  0
 68 81  1  0  0  0
 71 72  2  0  0  0
 71 74  1  0  0  0
 71145  1  0  0  0
 72 75  1  0  0  0
 72146  1  0  0  0
 73 75  2  0  0  0
 73 76  1  0  0  0
 73147  1  0  0  0
 74 76  2  0  0  0
 74 82  1  0  0  0
 75 83  1  0  0  0
 76 85  1  0  0  0
 77 78  1  0  0  0
 77 82  1  0  0  0
 77 84  2  0  0  0
 78 79  1  0  0  0
 78148  1  0  0  0
 78149  1  0  0  0
 79 81  1  0  0  0
 79150  1  0  0  0
 79151  1  0  0  0
 80 81  1  0  0  0
 80 82  1  0  0  0
 80152  1  0  0  0
 80153  1  0  0  0
 81154  1  0  0  0
 83155  1  0  0  0
M  ISO  4   1 100  68 101  81 101  83 100
M  END
> <chiral flag>
0

> <version>
0

> <s_m_source_file>
/data/baiqing/PycharmProjects/Reinvent-master-3.2/result/LINK_invent/BTK/process_docking_weight1_custom_product_contain_oxygen_bond_distance_aromatic_linkinvent_7_9_3/rearranged_h_0028.sdf

> <i_m_source_file_index>
26

> <r_mmod_Potential_Energy-OPLS-2005>
488.968688964844

> <r_mmod_Stretch_Energy-OPLS-2005>
217.78108215332

> <r_mmod_Bend_Energy-OPLS-2005>
251.562164306641

> <r_mmod_Torsional_Energy-OPLS-2005>
316.055755615234

> <r_mmod_Improper_Torsional_Energy-OPLS-2005>
8.3170337677002

> <r_mmod_Van_der_Waal_Energy-OPLS-2005>
132.269348144531

> <r_mmod_Electrostatic_Energy-OPLS-2005>
-383.478332519531

> <r_mmod_Solvation_Energy-OPLS-2005>
-221.046615600586

> <b_mmod_Minimization_Converged-OPLS-2005>
0

> <r_mmod_RMS_Derivative-OPLS-2005>
1.94105267524719

$$$$
26
                    3D
 Structure written by MMmdl.
150158  0  0  1  0            999 V2000
  -30.4024  -15.3205   20.3415 C   0  0  0  0  0  0
  -30.4397  -12.8413   19.5390 C   0  0  0  0  0  0
  -29.5442  -12.5837   18.2988 C   0  0  0  0  0  0
  -28.0899  -12.3089   18.7176 C   0  0  0  0  0  0
  -27.6120  -13.2811   19.8255 C   0  0  2  0  0  0
  -28.6419  -13.4658   20.9619 C   0  0  0  0  0  0
  -25.2389  -13.8260   20.5759 C   0  0  0  0  0  0
  -24.1744  -13.0446   20.9268 C   0  0  0  0  0  0
  -24.6404  -11.6944   20.8765 C   0  0  0  0  0  0
  -23.9098  -10.4291   21.0404 C   0  0  0  0  0  0
  -24.3642   -9.4206   21.9185 C   0  0  0  0  0  0
  -23.6313   -8.2248   22.0756 C   0  0  0  0  0  0
  -22.4297   -8.0286   21.3539 C   0  0  0  0  0  0
  -21.9935   -9.0268   20.4648 C   0  0  0  0  0  0
  -22.7270  -10.2149   20.3052 C   0  0  0  0  0  0
  -21.6859   -6.0744   22.5277 C   0  0  0  0  0  0
  -21.4016   -6.5643   23.8210 C   0  0  0  0  0  0
  -21.3670   -5.6792   24.9169 C   0  0  0  0  0  0
  -21.6051   -4.3053   24.7216 C   0  0  0  0  0  0
  -21.8812   -3.8147   23.4335 C   0  0  0  0  0  0
  -21.9192   -4.6971   22.3393 C   0  0  0  0  0  0
  -22.7757  -13.5209   21.1887 C   0  0  0  0  0  0
  -22.1653   -4.2145   21.0972 F   0  0  0  0  0  0
  -21.5631   -3.4542   25.7725 F   0  0  0  0  0  0
  -29.8690  -13.9927   20.3396 N   0  0  0  0  0  0
  -26.2817  -12.9546   20.3222 N   0  0  0  0  0  0
  -25.9346  -11.6649   20.5728 N   0  0  0  0  0  0
  -22.0388  -12.8221   22.0445 N   0  0  0  0  0  0
  -25.4033  -15.1992   20.4181 N   0  0  0  0  0  0
  -31.6120  -15.3292   20.0651 O   0  0  0  0  0  0
  -21.6650   -6.8892   21.4244 O   0  0  0  0  0  0
  -22.3450  -14.5510   20.6704 O   0  0  0  0  0  0
  -24.6682  -31.8175   23.1679 C   0  0  0  0  0  0
  -25.9339  -32.4560   23.8157 C   0  0  1  0  0  0
  -27.2158  -26.8760   20.1896 C   0  0  0  0  0  0
  -25.5973  -33.8373   24.2059 N   0  0  0  0  0  0
  -23.4855  -30.4282   21.5172 C   0  0  2  0  0  0
  -24.9402  -28.8065   20.1102 C   0  0  0  0  0  0
  -22.7695  -29.4407   22.4767 C   0  0  0  0  0  0
  -18.0328  -28.1405   22.8467 C   0  0  0  0  0  0
  -24.1495  -36.7191   23.2648 C   0  0  0  0  0  0
  -26.0581  -30.6057   21.4079 C   0  0  0  0  0  0
  -26.1236  -29.1909   20.7511 C   0  0  0  0  0  0
  -27.2523  -28.2470   20.7700 C   0  0  0  0  0  0
  -26.0095  -26.6617   19.4844 C   0  0  0  0  0  0
  -24.9117  -27.5638   19.4551 C   0  0  0  0  0  0
  -23.7285  -29.7402   20.1449 C   0  0  0  0  0  0
  -25.4142  -36.2955   24.0303 C   0  0  1  0  0  0
  -20.5958  -28.3761   23.1179 C   0  0  2  0  0  0
  -20.6796  -26.9435   22.5404 C   0  0  0  0  0  0
  -19.5772  -26.6369   21.5213 C   0  0  0  0  0  0
  -18.1957  -26.7929   22.1630 C   0  0  0  0  0  0
  -19.1590  -28.8902   23.2805 C   0  0  0  0  0  0
  -18.9493  -30.1491   23.8843 C   0  0  0  0  0  0
  -17.6485  -30.6593   24.0554 C   0  0  0  0  0  0
  -25.9114  -34.9336   23.5012 C   0  0  0  0  0  0
  -16.5380  -29.9082   23.6336 C   0  0  0  0  0  0
  -16.7302  -28.6499   23.0362 C   0  0  0  0  0  0
  -26.4554  -31.6528   25.0720 C   0  0  0  0  0  0
  -25.3659  -31.3802   26.1370 C   0  0  0  0  0  0
  -27.0453  -30.2883   24.6503 C   0  0  0  0  0  0
  -27.6059  -32.4329   25.7512 C   0  0  0  0  0  0
  -27.5574  -37.1756   24.8466 C   0  0  0  0  0  0
  -21.4356  -29.3041   22.3524 N   0  0  0  0  0  0
  -26.4282  -37.3700   23.9401 N   0  0  0  0  0  0
  -24.7595  -30.9799   22.0842 N   0  0  0  0  0  0
  -23.4220  -28.7980   23.3026 O   0  0  0  0  0  0
  -28.1887  -25.7324   20.3120 O   0  0  0  0  0  0
  -26.5735  -34.8882   22.4620 O   0  0  0  0  0  0
  -23.5737  -32.1175   23.6748 O   0  0  0  0  0  0
  -28.8579  -21.1631   19.9179 C   0  0  0  0  0  0
  -29.1720  -21.2792   22.5909 C   0  0  0  0  0  0
  -29.2540  -19.8066   20.5799 C   0  0  0  0  0  0
  -28.6159  -22.5758   20.5328 C   0  0  0  0  0  0
  -29.3866  -20.0081   21.9768 C   0  0  0  0  0  0
  -28.8099  -22.4877   21.9297 C   0  0  0  0  0  0
  -29.7909  -18.8437   22.8671 C   0  0  0  0  0  0
  -29.6641  -18.2046   19.9390 C   0  0  0  0  0  0
  -27.9883  -24.1179   19.9191 C   0  0  0  0  0  0
  -29.6190  -16.5916   20.4566 N   0  0  0  0  0  0
  -28.6144  -23.5943   22.6876 F   0  0  0  0  0  0
  -31.4569  -13.0487   19.2048 H   0  0  0  0  0  0
  -30.5186  -11.9433   20.1552 H   0  0  0  0  0  0
  -29.9358  -11.7454   17.7188 H   0  0  0  0  0  0
  -29.5737  -13.4539   17.6388 H   0  0  0  0  0  0
  -28.0407  -11.2851   19.0889 H   0  0  0  0  0  0
  -27.4254  -12.3525   17.8535 H   0  0  0  0  0  0
  -27.5267  -14.2475   19.3267 H   0  0  0  0  0  0
  -28.8209  -12.5307   21.4954 H   0  0  0  0  0  0
  -28.2723  -14.1771   21.7022 H   0  0  0  0  0  0
  -25.2779   -9.5706   22.4769 H   0  0  0  0  0  0
  -24.0018   -7.4652   22.7500 H   0  0  0  0  0  0
  -21.0846   -8.8813   19.8974 H   0  0  0  0  0  0
  -22.3718  -10.9704   19.6172 H   0  0  0  0  0  0
  -21.2017   -7.6150   23.9718 H   0  0  0  0  0  0
  -21.1498   -6.0515   25.9078 H   0  0  0  0  0  0
  -22.0586   -2.7607   23.2825 H   0  0  0  0  0  0
  -22.3992  -11.9915   22.4902 H   0  0  0  0  0  0
  -21.0995  -13.1265   22.2591 H   0  0  0  0  0  0
  -24.6373  -15.8520   20.5447 H   0  0  0  0  0  0
  -26.2366  -15.6367   20.0497 H   0  0  0  0  0  0
  -26.7418  -32.5068   23.0875 H   0  0  0  0  0  0
  -25.0020  -33.9435   25.0140 H   0  0  0  0  0  0
  -22.8021  -31.2623   21.3439 H   0  0  0  0  0  0
  -23.3766  -35.9512   23.3306 H   0  0  0  0  0  0
  -24.3564  -36.8841   22.2061 H   0  0  0  0  0  0
  -23.7248  -37.6380   23.6705 H   0  0  0  0  0  0
  -26.2518  -31.3424   20.6282 H   0  0  0  0  0  0
  -26.9130  -30.6593   22.0692 H   0  0  0  0  0  0
  -28.1411  -28.5363   21.3136 H   0  0  0  0  0  0
  -25.8707  -25.7146   18.9852 H   0  0  0  0  0  0
  -24.0140  -27.2642   18.9318 H   0  0  0  0  0  0
  -23.8908  -30.5077   19.3879 H   0  0  0  0  0  0
  -22.8356  -29.2004   19.8241 H   0  0  0  0  0  0
  -25.1346  -36.1752   25.0790 H   0  0  0  0  0  0
  -21.0042  -28.3357   24.1316 H   0  0  0  0  0  0
  -20.5682  -26.2375   23.3646 H   0  0  0  0  0  0
  -21.6656  -26.7409   22.1211 H   0  0  0  0  0  0
  -19.6935  -25.6267   21.1280 H   0  0  0  0  0  0
  -19.6701  -27.3151   20.6719 H   0  0  0  0  0  0
  -17.4223  -26.6664   21.4037 H   0  0  0  0  0  0
  -18.0362  -26.0090   22.9043 H   0  0  0  0  0  0
  -19.7965  -30.7313   24.2200 H   0  0  0  0  0  0
  -17.5036  -31.6270   24.5161 H   0  0  0  0  0  0
  -15.5376  -30.2966   23.7689 H   0  0  0  0  0  0
  -15.8704  -28.0800   22.7108 H   0  0  0  0  0  0
  -24.5818  -30.7197   25.7656 H   0  0  0  0  0  0
  -24.8875  -32.3013   26.4708 H   0  0  0  0  0  0
  -25.7855  -30.8989   27.0216 H   0  0  0  0  0  0
  -26.3128  -29.6540   24.1508 H   0  0  0  0  0  0
  -27.3949  -29.7286   25.5191 H   0  0  0  0  0  0
  -27.9089  -30.4054   23.9960 H   0  0  0  0  0  0
  -27.2638  -33.3650   26.2025 H   0  0  0  0  0  0
  -28.3894  -32.6855   25.0358 H   0  0  0  0  0  0
  -28.0707  -31.8499   26.5479 H   0  0  0  0  0  0
  -28.2588  -38.0056   24.7512 H   0  0  0  0  0  0
  -28.1069  -36.2586   24.6293 H   0  0  0  0  0  0
  -27.2287  -37.1406   25.8867 H   0  0  0  0  0  0
  -20.9632  -29.8710   21.6621 H   0  0  0  0  0  0
  -26.0132  -38.2763   24.1383 H   0  0  0  0  0  0
  -28.7183  -21.1131   18.8459 H   0  0  0  0  0  0
  -29.2832  -21.3397   23.6644 H   0  0  0  0  0  0
  -30.0670  -19.1774   23.8688 H   0  0  0  0  0  0
  -30.6522  -18.3142   22.4570 H   0  0  0  0  0  0
  -28.9664  -18.1367   22.9674 H   0  0  0  0  0  0
  -30.6856  -18.3299   19.5808 H   0  0  0  0  0  0
  -29.0777  -18.1682   19.0221 H   0  0  0  0  0  0
  -26.9154  -23.9680   20.0371 H   0  0  0  0  0  0
  -28.1462  -24.0733   18.8417 H   0  0  0  0  0  0
  -28.6887  -16.3642   20.7764 H   0  0  0  0  0  0
  1 25  1  0  0  0
  1 30  2  0  0  0
  1 80  1  0  0  0
  2  3  1  0  0  0
  2 25  1  0  0  0
  2 82  1  0  0  0
  2 83  1  0  0  0
  3  4  1  0  0  0
  3 84  1  0  0  0
  3 85  1  0  0  0
  4  5  1  0  0  0
  4 86  1  0  0  0
  4 87  1  0  0  0
  5  6  1  0  0  0
  5 26  1  0  0  0
  5 88  1  0  0  0
  6 25  1  0  0  0
  6 89  1  0  0  0
  6 90  1  0  0  0
  7  8  2  0  0  0
  7 26  1  0  0  0
  7 29  1  0  0  0
  8  9  1  0  0  0
  8 22  1  0  0  0
  9 10  1  0  0  0
  9 27  2  0  0  0
 10 11  2  0  0  0
 10 15  1  0  0  0
 11 12  1  0  0  0
 11 91  1  0  0  0
 12 13  2  0  0  0
 12 92  1  0  0  0
 13 14  1  0  0  0
 13 31  1  0  0  0
 14 15  2  0  0  0
 14 93  1  0  0  0
 15 94  1  0  0  0
 16 17  2  0  0  0
 16 21  1  0  0  0
 16 31  1  0  0  0
 17 18  1  0  0  0
 17 95  1  0  0  0
 18 19  2  0  0  0
 18 96  1  0  0  0
 19 20  1  0  0  0
 19 24  1  0  0  0
 20 21  2  0  0  0
 20 97  1  0  0  0
 21 23  1  0  0  0
 22 28  1  0  0  0
 22 32  2  0  0  0
 26 27  1  0  0  0
 28 98  1  0  0  0
 28 99  1  0  0  0
 29100  1  0  0  0
 29101  1  0  0  0
 33 34  1  0  0  0
 33 66  1  0  0  0
 33 70  2  0  0  0
 34 36  1  0  0  0
 34 59  1  0  0  0
 34102  1  0  0  0
 35 44  2  0  0  0
 35 45  1  0  0  0
 35 68  1  0  0  0
 36 56  1  0  0  0
 36103  1  0  0  0
 37 39  1  0  0  0
 37 47  1  0  0  0
 37 66  1  0  0  0
 37104  1  0  0  0
 38 43  2  0  0  0
 38 46  1  0  0  0
 38 47  1  0  0  0
 39 64  1  0  0  0
 39 67  2  0  0  0
 40 52  1  0  0  0
 40 53  2  0  0  0
 40 58  1  0  0  0
 41105  1  0  0  0
 41106  1  0  0  0
 41107  1  0  0  0
 41 48  1  0  0  0
 42 43  1  0  0  0
 42 66  1  0  0  0
 42108  1  0  0  0
 42109  1  0  0  0
 43 44  1  0  0  0
 44110  1  0  0  0
 45 46  2  0  0  0
 45111  1  0  0  0
 46112  1  0  0  0
 47113  1  0  0  0
 47114  1  0  0  0
 48 56  1  0  0  0
 48 65  1  0  0  0
 48115  1  0  0  0
 49 50  1  0  0  0
 49 53  1  0  0  0
 49 64  1  0  0  0
 49116  1  0  0  0
 50 51  1  0  0  0
 50117  1  0  0  0
 50118  1  0  0  0
 51 52  1  0  0  0
 51119  1  0  0  0
 51120  1  0  0  0
 52121  1  0  0  0
 52122  1  0  0  0
 53 54  1  0  0  0
 54 55  2  0  0  0
 54123  1  0  0  0
 55 57  1  0  0  0
 55124  1  0  0  0
 56 69  2  0  0  0
 57 58  2  0  0  0
 57125  1  0  0  0
 58126  1  0  0  0
 59 60  1  0  0  0
 59 61  1  0  0  0
 59 62  1  0  0  0
 60127  1  0  0  0
 60128  1  0  0  0
 60129  1  0  0  0
 61130  1  0  0  0
 61131  1  0  0  0
 61132  1  0  0  0
 62133  1  0  0  0
 62134  1  0  0  0
 62135  1  0  0  0
 63 65  1  0  0  0
 63136  1  0  0  0
 63137  1  0  0  0
 63138  1  0  0  0
 64139  1  0  0  0
 65140  1  0  0  0
 68 79  1  0  0  0
 71 73  2  0  0  0
 71 74  1  0  0  0
 71141  1  0  0  0
 72 75  2  0  0  0
 72 76  1  0  0  0
 72142  1  0  0  0
 73 75  1  0  0  0
 73 78  1  0  0  0
 74 76  2  0  0  0
 74 79  1  0  0  0
 75 77  1  0  0  0
 76 81  1  0  0  0
 77143  1  0  0  0
 77144  1  0  0  0
 77145  1  0  0  0
 78 80  1  0  0  0
 78146  1  0  0  0
 78147  1  0  0  0
 79148  1  0  0  0
 79149  1  0  0  0
 80150  1  0  0  0
M  ISO  4   1 100  68 101  79 101  80 100
M  END
> <chiral flag>
0

> <version>
0

> <s_m_source_file>
/data/baiqing/PycharmProjects/Reinvent-master-3.2/result/LINK_invent/BTK/process_docking_weight1_custom_product_contain_oxygen_bond_distance_aromatic_linkinvent_7_9_3/rearranged_h_0028.sdf

> <i_m_source_file_index>
27

> <r_mmod_Potential_Energy-OPLS-2005>
1390.87182617188

> <r_mmod_Stretch_Energy-OPLS-2005>
648.694885253906

> <r_mmod_Bend_Energy-OPLS-2005>
440.407531738281

> <r_mmod_Torsional_Energy-OPLS-2005>
218.178497314453

> <r_mmod_Improper_Torsional_Energy-OPLS-2005>
6.01894903182983

> <r_mmod_Van_der_Waal_Energy-OPLS-2005>
125.672981262207

> <r_mmod_Electrostatic_Energy-OPLS-2005>
-367.505950927734

> <r_mmod_Solvation_Energy-OPLS-2005>
-213.243865966797

> <b_mmod_Minimization_Converged-OPLS-2005>
0

> <r_mmod_RMS_Derivative-OPLS-2005>
2.69534277915955

$$$$
27
                    3D
 Structure written by MMmdl.
160169  0  0  1  0            999 V2000
  -30.5956  -14.7121   20.4307 C   0  0  0  0  0  0
  -30.4223  -12.4221   19.4709 C   0  0  0  0  0  0
  -29.4975  -12.4846   18.2349 C   0  0  0  0  0  0
  -28.0222  -12.3240   18.6524 C   0  0  0  0  0  0
  -27.6365  -13.2238   19.8546 C   0  0  2  0  0  0
  -28.6819  -13.1385   20.9865 C   0  0  0  0  0  0
  -25.2513  -13.8205   20.5740 C   0  0  0  0  0  0
  -24.1791  -13.0448   20.9240 C   0  0  0  0  0  0
  -24.6362  -11.6922   20.8786 C   0  0  0  0  0  0
  -23.9037  -10.4297   21.0444 C   0  0  0  0  0  0
  -24.3590   -9.4211   21.9225 C   0  0  0  0  0  0
  -23.6278   -8.2237   22.0773 C   0  0  0  0  0  0
  -22.4280   -8.0265   21.3533 C   0  0  0  0  0  0
  -21.9912   -9.0241   20.4649 C   0  0  0  0  0  0
  -22.7223  -10.2135   20.3085 C   0  0  0  0  0  0
  -21.6840   -6.0739   22.5284 C   0  0  0  0  0  0
  -21.4000   -6.5651   23.8215 C   0  0  0  0  0  0
  -21.3667   -5.6803   24.9179 C   0  0  0  0  0  0
  -21.6049   -4.3059   24.7229 C   0  0  0  0  0  0
  -21.8824   -3.8143   23.4358 C   0  0  0  0  0  0
  -21.9186   -4.6965   22.3417 C   0  0  0  0  0  0
  -22.7824  -13.5242   21.1887 C   0  0  0  0  0  0
  -22.1662   -4.2157   21.0991 F   0  0  0  0  0  0
  -21.5638   -3.4544   25.7740 F   0  0  0  0  0  0
  -29.9795  -13.4844   20.4017 N   0  0  0  0  0  0
  -26.2901  -12.9377   20.3326 N   0  0  0  0  0  0
  -25.9285  -11.6528   20.5802 N   0  0  0  0  0  0
  -22.0466  -12.8205   22.0428 N   0  0  0  0  0  0
  -25.4231  -15.1919   20.4147 N   0  0  0  0  0  0
  -31.8000  -14.7812   20.1718 O   0  0  0  0  0  0
  -21.6625   -6.8880   21.4245 O   0  0  0  0  0  0
  -22.3525  -14.5555   20.6741 O   0  0  0  0  0  0
  -24.6299  -31.8547   23.1988 C   0  0  0  0  0  0
  -25.9125  -32.4744   23.8345 C   0  0  1  0  0  0
  -27.2244  -27.2622   20.1312 C   0  0  0  0  0  0
  -25.5910  -33.8550   24.2248 N   0  0  0  0  0  0
  -23.4287  -30.4722   21.5430 C   0  0  2  0  0  0
  -24.8749  -28.9141   20.1102 C   0  0  0  0  0  0
  -22.7510  -29.4569   22.4938 C   0  0  0  0  0  0
  -18.0271  -28.1382   22.8513 C   0  0  0  0  0  0
  -24.1478  -36.7285   23.2652 C   0  0  0  0  0  0
  -25.9738  -30.7644   21.3796 C   0  0  0  0  0  0
  -26.0431  -29.3879   20.7176 C   0  0  0  0  0  0
  -27.2170  -28.5729   20.7163 C   0  0  0  0  0  0
  -26.0345  -26.8435   19.4999 C   0  0  0  0  0  0
  -24.8744  -27.6506   19.4922 C   0  0  0  0  0  0
  -23.6458  -29.8019   20.1595 C   0  0  0  0  0  0
  -25.4115  -36.3074   24.0322 C   0  0  1  0  0  0
  -20.5882  -28.3686   23.1282 C   0  0  2  0  0  0
  -20.6753  -26.9390   22.5423 C   0  0  0  0  0  0
  -19.5715  -26.6362   21.5236 C   0  0  0  0  0  0
  -18.1896  -26.7930   22.1639 C   0  0  0  0  0  0
  -19.1533  -28.8855   23.2886 C   0  0  0  0  0  0
  -18.9458  -30.1463   23.8885 C   0  0  0  0  0  0
  -17.6453  -30.6590   24.0562 C   0  0  0  0  0  0
  -25.9048  -34.9436   23.5094 C   0  0  0  0  0  0
  -16.5338  -29.9081   23.6341 C   0  0  0  0  0  0
  -16.7262  -28.6492   23.0379 C   0  0  0  0  0  0
  -26.4499  -31.6604   25.0759 C   0  0  0  0  0  0
  -25.3721  -31.3727   26.1475 C   0  0  0  0  0  0
  -27.0401  -30.3038   24.6272 C   0  0  0  0  0  0
  -27.6024  -32.4407   25.7527 C   0  0  0  0  0  0
  -27.5580  -37.1781   24.8461 C   0  0  0  0  0  0
  -21.4217  -29.3024   22.3679 N   0  0  0  0  0  0
  -26.4287  -37.3779   23.9413 N   0  0  0  0  0  0
  -24.6963  -31.0488   22.0973 N   0  0  0  0  0  0
  -23.4202  -28.8094   23.3031 O   0  0  0  0  0  0
  -28.3507  -26.4213   20.2320 O   0  0  0  0  0  0
  -26.5635  -34.8905   22.4672 O   0  0  0  0  0  0
  -23.5440  -32.1367   23.7265 O   0  0  0  0  0  0
  -30.6672  -19.9308   19.2362 C   0  0  0  0  0  0
  -31.1226  -17.5276   19.2530 C   0  0  0  0  0  0
  -29.5698  -19.8059   20.1175 C   0  0  0  0  0  0
  -29.2710  -18.4339   20.5532 C   0  0  0  0  0  0
  -30.0600  -17.2652   20.1479 C   0  0  0  0  0  0
  -31.4216  -18.8240   18.8134 C   0  0  0  0  0  0
  -29.9663  -24.6841   19.6947 C   0  0  0  0  0  0
  -30.1294  -23.1414   19.6029 C   0  0  0  0  0  0
  -27.9932  -23.6748   20.4299 C   0  0  0  0  0  0
  -28.4693  -25.0187   19.7085 C   0  0  1  0  0  0
  -28.0849  -18.2114   21.4776 C   0  0  0  0  0  0
  -28.8235  -21.1411   20.6380 C   0  0  0  0  0  0
  -29.8011  -15.8505   20.5538 N   0  0  0  0  0  0
  -28.8202  -22.5023   19.8886 N   0  3  2  0  0  0
  -32.4672  -19.0146   17.9726 F   0  0  0  0  0  0
  -31.4620  -12.5402   19.1610 H   0  0  0  0  0  0
  -30.3625  -11.4456   19.9544 H   0  0  0  0  0  0
  -29.7642  -11.7070   17.5165 H   0  0  0  0  0  0
  -29.6326  -13.4384   17.7223 H   0  0  0  0  0  0
  -27.8668  -11.2773   18.9151 H   0  0  0  0  0  0
  -27.3658  -12.5214   17.8041 H   0  0  0  0  0  0
  -27.6390  -14.2449   19.4760 H   0  0  0  0  0  0
  -28.7138  -12.1349   21.4150 H   0  0  0  0  0  0
  -28.4287  -13.8116   21.8075 H   0  0  0  0  0  0
  -25.2732   -9.5703   22.4809 H   0  0  0  0  0  0
  -23.9990   -7.4640   22.7500 H   0  0  0  0  0  0
  -21.0855   -8.8757   19.8935 H   0  0  0  0  0  0
  -22.3679  -10.9681   19.6199 H   0  0  0  0  0  0
  -21.1984   -7.6161   23.9723 H   0  0  0  0  0  0
  -21.1489   -6.0530   25.9084 H   0  0  0  0  0  0
  -22.0590   -2.7606   23.2849 H   0  0  0  0  0  0
  -22.4048  -11.9806   22.4735 H   0  0  0  0  0  0
  -21.1117  -13.1264   22.2711 H   0  0  0  0  0  0
  -24.6552  -15.8454   20.5275 H   0  0  0  0  0  0
  -26.2561  -15.6238   20.0379 H   0  0  0  0  0  0
  -26.7198  -32.5396   23.1089 H   0  0  0  0  0  0
  -25.0034  -33.9679   25.0382 H   0  0  0  0  0  0
  -22.7259  -31.2951   21.3960 H   0  0  0  0  0  0
  -23.3761  -35.9596   23.3298 H   0  0  0  0  0  0
  -24.3575  -36.8972   22.2081 H   0  0  0  0  0  0
  -23.7189  -37.6447   23.6728 H   0  0  0  0  0  0
  -26.1182  -31.5262   20.6121 H   0  0  0  0  0  0
  -26.8486  -30.8088   22.0168 H   0  0  0  0  0  0
  -28.1149  -28.9284   21.2030 H   0  0  0  0  0  0
  -25.9758  -25.8710   19.0354 H   0  0  0  0  0  0
  -23.9742  -27.2817   19.0191 H   0  0  0  0  0  0
  -23.7695  -30.5801   19.4057 H   0  0  0  0  0  0
  -22.7650  -29.2355   19.8556 H   0  0  0  0  0  0
  -25.1286  -36.1939   25.0811 H   0  0  0  0  0  0
  -20.9971  -28.3270   24.1407 H   0  0  0  0  0  0
  -20.5674  -26.2279   23.3630 H   0  0  0  0  0  0
  -21.6611  -26.7403   22.1205 H   0  0  0  0  0  0
  -19.6856  -25.6281   21.1256 H   0  0  0  0  0  0
  -19.6649  -27.3190   20.6789 H   0  0  0  0  0  0
  -17.4174  -26.6732   21.4026 H   0  0  0  0  0  0
  -18.0234  -26.0063   22.9011 H   0  0  0  0  0  0
  -19.7932  -30.7284   24.2237 H   0  0  0  0  0  0
  -17.5007  -31.6279   24.5172 H   0  0  0  0  0  0
  -15.5341  -30.2970   23.7671 H   0  0  0  0  0  0
  -15.8669  -28.0799   22.7093 H   0  0  0  0  0  0
  -24.5899  -30.7072   25.7802 H   0  0  0  0  0  0
  -24.8871  -32.2869   26.4911 H   0  0  0  0  0  0
  -25.8024  -30.8904   27.0258 H   0  0  0  0  0  0
  -26.3011  -29.6735   24.1302 H   0  0  0  0  0  0
  -27.4115  -29.7352   25.4808 H   0  0  0  0  0  0
  -27.8872  -30.4350   23.9535 H   0  0  0  0  0  0
  -27.2610  -33.3744   26.2012 H   0  0  0  0  0  0
  -28.3847  -32.6928   25.0361 H   0  0  0  0  0  0
  -28.0680  -31.8622   26.5513 H   0  0  0  0  0  0
  -28.2549  -38.0124   24.7601 H   0  0  0  0  0  0
  -28.1128  -36.2661   24.6206 H   0  0  0  0  0  0
  -27.2306  -37.1334   25.8861 H   0  0  0  0  0  0
  -20.9402  -29.8760   21.6899 H   0  0  0  0  0  0
  -26.0175  -38.2842   24.1489 H   0  0  0  0  0  0
  -30.9926  -20.8810   18.8574 H   0  0  0  0  0  0
  -31.7413  -16.7372   18.8630 H   0  0  0  0  0  0
  -30.4898  -25.1985   18.8889 H   0  0  0  0  0  0
  -30.4096  -25.0232   20.6315 H   0  0  0  0  0  0
  -30.8965  -22.8035   20.3025 H   0  0  0  0  0  0
  -30.4479  -22.8863   18.5935 H   0  0  0  0  0  0
  -26.9257  -23.4988   20.3076 H   0  0  0  0  0  0
  -28.1789  -23.7616   21.5018 H   0  0  0  0  0  0
  -28.1117  -25.0060   18.6780 H   0  0  0  0  0  0
  -27.1565  -18.2118   20.9031 H   0  0  0  0  0  0
  -28.0197  -18.9940   22.2336 H   0  0  0  0  0  0
  -28.1480  -17.2657   22.0113 H   0  0  0  0  0  0
  -29.1954  -21.3302   21.6451 H   0  0  0  0  0  0
  -27.7717  -20.8820   20.7616 H   0  0  0  0  0  0
  -28.8573  -15.6559   20.8508 H   0  0  0  0  0  0
  -28.4279  -22.2915   18.9811 H   0  0  0  0  0  0
  1 25  1  0  0  0
  1 30  2  0  0  0
  1 83  1  0  0  0
  2  3  1  0  0  0
  2 25  1  0  0  0
  2 86  1  0  0  0
  2 87  1  0  0  0
  3  4  1  0  0  0
  3 88  1  0  0  0
  3 89  1  0  0  0
  4  5  1  0  0  0
  4 90  1  0  0  0
  4 91  1  0  0  0
  5  6  1  0  0  0
  5 26  1  0  0  0
  5 92  1  0  0  0
  6 25  1  0  0  0
  6 93  1  0  0  0
  6 94  1  0  0  0
  7  8  2  0  0  0
  7 26  1  0  0  0
  7 29  1  0  0  0
  8  9  1  0  0  0
  8 22  1  0  0  0
  9 10  1  0  0  0
  9 27  2  0  0  0
 10 11  2  0  0  0
 10 15  1  0  0  0
 11 12  1  0  0  0
 11 95  1  0  0  0
 12 13  2  0  0  0
 12 96  1  0  0  0
 13 14  1  0  0  0
 13 31  1  0  0  0
 14 15  2  0  0  0
 14 97  1  0  0  0
 15 98  1  0  0  0
 16 17  2  0  0  0
 16 21  1  0  0  0
 16 31  1  0  0  0
 17 18  1  0  0  0
 17 99  1  0  0  0
 18 19  2  0  0  0
 18100  1  0  0  0
 19 20  1  0  0  0
 19 24  1  0  0  0
 20 21  2  0  0  0
 20101  1  0  0  0
 21 23  1  0  0  0
 22 28  1  0  0  0
 22 32  2  0  0  0
 26 27  1  0  0  0
 28102  1  0  0  0
 28103  1  0  0  0
 29104  1  0  0  0
 29105  1  0  0  0
 33 34  1  0  0  0
 33 66  1  0  0  0
 33 70  2  0  0  0
 34 36  1  0  0  0
 34 59  1  0  0  0
 34106  1  0  0  0
 35 44  2  0  0  0
 35 45  1  0  0  0
 35 68  1  0  0  0
 36 56  1  0  0  0
 36107  1  0  0  0
 37 39  1  0  0  0
 37 47  1  0  0  0
 37 66  1  0  0  0
 37108  1  0  0  0
 38 43  2  0  0  0
 38 46  1  0  0  0
 38 47  1  0  0  0
 39 64  1  0  0  0
 39 67  2  0  0  0
 40 52  1  0  0  0
 40 53  2  0  0  0
 40 58  1  0  0  0
 41109  1  0  0  0
 41110  1  0  0  0
 41111  1  0  0  0
 41 48  1  0  0  0
 42 43  1  0  0  0
 42 66  1  0  0  0
 42112  1  0  0  0
 42113  1  0  0  0
 43 44  1  0  0  0
 44114  1  0  0  0
 45 46  2  0  0  0
 45115  1  0  0  0
 46116  1  0  0  0
 47117  1  0  0  0
 47118  1  0  0  0
 48 56  1  0  0  0
 48 65  1  0  0  0
 48119  1  0  0  0
 49 50  1  0  0  0
 49 53  1  0  0  0
 49 64  1  0  0  0
 49120  1  0  0  0
 50 51  1  0  0  0
 50121  1  0  0  0
 50122  1  0  0  0
 51 52  1  0  0  0
 51123  1  0  0  0
 51124  1  0  0  0
 52125  1  0  0  0
 52126  1  0  0  0
 53 54  1  0  0  0
 54 55  2  0  0  0
 54127  1  0  0  0
 55 57  1  0  0  0
 55128  1  0  0  0
 56 69  2  0  0  0
 57 58  2  0  0  0
 57129  1  0  0  0
 58130  1  0  0  0
 59 60  1  0  0  0
 59 61  1  0  0  0
 59 62  1  0  0  0
 60131  1  0  0  0
 60132  1  0  0  0
 60133  1  0  0  0
 61134  1  0  0  0
 61135  1  0  0  0
 61136  1  0  0  0
 62137  1  0  0  0
 62138  1  0  0  0
 62139  1  0  0  0
 63 65  1  0  0  0
 63140  1  0  0  0
 63141  1  0  0  0
 63142  1  0  0  0
 64143  1  0  0  0
 65144  1  0  0  0
 68 80  1  0  0  0
 71 73  2  0  0  0
 71 76  1  0  0  0
 71145  1  0  0  0
 72 75  1  0  0  0
 72 76  2  0  0  0
 72146  1  0  0  0
 73 74  1  0  0  0
 73 82  1  0  0  0
 74 75  2  0  0  0
 74 81  1  0  0  0
 75 83  1  0  0  0
 76 85  1  0  0  0
 77 78  1  0  0  0
 77 80  1  0  0  0
 77147  1  0  0  0
 77148  1  0  0  0
 78 84  1  0  0  0
 78149  1  0  0  0
 78150  1  0  0  0
 79 80  1  0  0  0
 79 84  1  0  0  0
 79151  1  0  0  0
 79152  1  0  0  0
 80153  1  0  0  0
 81154  1  0  0  0
 81155  1  0  0  0
 81156  1  0  0  0
 82157  1  0  0  0
 82158  1  0  0  0
 82 84  1  0  0  0
 83159  1  0  0  0
 84160  1  0  0  0
M  CHG  1  84   1
M  ISO  4   1 100  68 101  80 101  83 100
M  END
> <chiral flag>
0

> <version>
0

> <s_m_source_file>
/data/baiqing/PycharmProjects/Reinvent-master-3.2/result/LINK_invent/BTK/process_docking_weight1_custom_product_contain_oxygen_bond_distance_aromatic_linkinvent_7_9_3/rearranged_h_0028.sdf

> <i_m_source_file_index>
28

> <r_mmod_Potential_Energy-OPLS-2005>
110.987411499023

> <r_mmod_Stretch_Energy-OPLS-2005>
128.481918334961

> <r_mmod_Bend_Energy-OPLS-2005>
218.18864440918

> <r_mmod_Torsional_Energy-OPLS-2005>
266.480987548828

> <r_mmod_Improper_Torsional_Energy-OPLS-2005>
5.05026531219482

> <r_mmod_Van_der_Waal_Energy-OPLS-2005>
139.998962402344

> <r_mmod_Electrostatic_Energy-OPLS-2005>
-275.583190917969

> <r_mmod_Solvation_Energy-OPLS-2005>
-449.363128662109

> <b_mmod_Minimization_Converged-OPLS-2005>
0

> <r_mmod_RMS_Derivative-OPLS-2005>
3.18712520599365

$$$$
28
                    3D
 Structure written by MMmdl.
158167  0  0  1  0            999 V2000
  -30.5986  -14.6471   20.5124 C   0  0  0  0  0  0
  -30.4437  -12.4004   19.4491 C   0  0  0  0  0  0
  -29.5085  -12.5191   18.2239 C   0  0  0  0  0  0
  -28.0312  -12.3531   18.6338 C   0  0  0  0  0  0
  -27.6548  -13.2141   19.8678 C   0  0  2  0  0  0
  -28.6986  -13.0495   20.9952 C   0  0  0  0  0  0
  -25.2563  -13.8162   20.5677 C   0  0  0  0  0  0
  -24.1820  -13.0438   20.9180 C   0  0  0  0  0  0
  -24.6387  -11.6906   20.8721 C   0  0  0  0  0  0
  -23.9060  -10.4290   21.0399 C   0  0  0  0  0  0
  -24.3612   -9.4210   21.9180 C   0  0  0  0  0  0
  -23.6285   -8.2247   22.0755 C   0  0  0  0  0  0
  -22.4268   -8.0277   21.3546 C   0  0  0  0  0  0
  -21.9900   -9.0250   20.4652 C   0  0  0  0  0  0
  -22.7230  -10.2129   20.3058 C   0  0  0  0  0  0
  -21.6855   -6.0727   22.5275 C   0  0  0  0  0  0
  -21.4013   -6.5629   23.8208 C   0  0  0  0  0  0
  -21.3661   -5.6786   24.9171 C   0  0  0  0  0  0
  -21.6045   -4.3049   24.7225 C   0  0  0  0  0  0
  -21.8819   -3.8139   23.4346 C   0  0  0  0  0  0
  -21.9199   -4.6955   22.3403 C   0  0  0  0  0  0
  -22.7848  -13.5240   21.1840 C   0  0  0  0  0  0
  -22.1668   -4.2140   21.0982 F   0  0  0  0  0  0
  -21.5639   -3.4537   25.7742 F   0  0  0  0  0  0
  -30.0150  -13.4073   20.4403 N   0  0  0  0  0  0
  -26.2990  -12.9339   20.3325 N   0  0  0  0  0  0
  -25.9313  -11.6497   20.5740 N   0  0  0  0  0  0
  -22.0490  -12.8238   22.0401 N   0  0  0  0  0  0
  -25.4286  -15.1884   20.4108 N   0  0  0  0  0  0
  -31.7442  -14.8468   20.0954 O   0  0  0  0  0  0
  -21.6641   -6.8867   21.4236 O   0  0  0  0  0  0
  -22.3537  -14.5558   20.6712 O   0  0  0  0  0  0
  -24.6266  -31.8583   23.2023 C   0  0  0  0  0  0
  -25.9123  -32.4764   23.8346 C   0  0  1  0  0  0
  -27.2277  -27.3153   20.1103 C   0  0  0  0  0  0
  -25.5946  -33.8564   24.2285 N   0  0  0  0  0  0
  -23.4191  -30.4821   21.5447 C   0  0  2  0  0  0
  -24.8634  -28.9305   20.1137 C   0  0  0  0  0  0
  -22.7472  -29.4615   22.4935 C   0  0  0  0  0  0
  -18.0288  -28.1380   22.8481 C   0  0  0  0  0  0
  -24.1491  -36.7276   23.2638 C   0  0  0  0  0  0
  -25.9598  -30.7866   21.3729 C   0  0  0  0  0  0
  -26.0310  -29.4133   20.7150 C   0  0  0  0  0  0
  -27.2116  -28.6155   20.7039 C   0  0  0  0  0  0
  -26.0305  -26.8743   19.5031 C   0  0  0  0  0  0
  -24.8642  -27.6657   19.5032 C   0  0  0  0  0  0
  -23.6342  -29.8154   20.1602 C   0  0  0  0  0  0
  -25.4114  -36.3071   24.0337 C   0  0  1  0  0  0
  -20.5886  -28.3684   23.1279 C   0  0  2  0  0  0
  -20.6775  -26.9406   22.5407 C   0  0  0  0  0  0
  -19.5761  -26.6384   21.5201 C   0  0  0  0  0  0
  -18.1937  -26.7927   22.1608 C   0  0  0  0  0  0
  -19.1540  -28.8850   23.2874 C   0  0  0  0  0  0
  -18.9465  -30.1452   23.8890 C   0  0  0  0  0  0
  -17.6466  -30.6581   24.0566 C   0  0  0  0  0  0
  -25.9057  -34.9444   23.5113 C   0  0  0  0  0  0
  -16.5356  -29.9082   23.6332 C   0  0  0  0  0  0
  -16.7277  -28.6501   23.0349 C   0  0  0  0  0  0
  -26.4517  -31.6566   25.0713 C   0  0  0  0  0  0
  -25.3767  -31.3687   26.1454 C   0  0  0  0  0  0
  -27.0364  -30.2995   24.6153 C   0  0  0  0  0  0
  -27.6083  -32.4293   25.7479 C   0  0  0  0  0  0
  -27.5582  -37.1792   24.8469 C   0  0  0  0  0  0
  -21.4184  -29.3035   22.3671 N   0  0  0  0  0  0
  -26.4288  -37.3768   23.9421 N   0  0  0  0  0  0
  -24.6871  -31.0594   22.0968 N   0  0  0  0  0  0
  -23.4199  -28.8162   23.3019 O   0  0  0  0  0  0
  -28.3834  -26.5206   20.1620 O   0  0  0  0  0  0
  -26.5605  -34.8915   22.4666 O   0  0  0  0  0  0
  -23.5431  -32.1386   23.7358 O   0  0  0  0  0  0
  -28.7835  -19.0822   19.6058 C   0  0  0  0  0  0
  -29.0960  -17.6871   19.6520 C   0  0  0  0  0  0
  -30.1638  -17.9994   21.7850 C   0  0  0  0  0  0
  -29.1226  -19.9702   20.6640 C   0  0  0  0  0  0
  -29.7713  -17.1007   20.7573 C   0  0  0  0  0  0
  -29.8514  -19.3937   21.7444 C   0  0  0  0  0  0
  -29.0013  -22.4911   20.2480 C   0  0  0  0  0  0
  -26.8710  -22.5973   22.2084 C   0  0  0  0  0  0
  -26.9660  -23.7730   21.2393 C   0  0  0  0  0  0
  -27.2225  -21.2911   21.4838 C   0  0  0  0  0  0
  -28.3886  -23.9079   20.6752 C   0  0  2  0  0  0
  -28.4675  -25.1301   19.6496 C   0  0  0  0  0  0
  -28.5169  -21.3060   20.7801 N   0  0  0  0  0  0
  -29.7844  -15.6523   20.9650 N   0  0  0  0  0  0
  -29.9548  -22.4847   19.4632 O   0  0  0  0  0  0
  -30.2771  -20.3689   23.1073 Cl  0  0  0  0  0  0
  -31.4830  -12.5389   19.1452 H   0  0  0  0  0  0
  -30.3889  -11.3996   19.8806 H   0  0  0  0  0  0
  -29.7725  -11.7757   17.4706 H   0  0  0  0  0  0
  -29.6479  -13.4931   17.7512 H   0  0  0  0  0  0
  -27.8632  -11.2982   18.8532 H   0  0  0  0  0  0
  -27.3797  -12.5959   17.7940 H   0  0  0  0  0  0
  -27.6789  -14.2523   19.5368 H   0  0  0  0  0  0
  -28.7113  -12.0200   21.3556 H   0  0  0  0  0  0
  -28.4374  -13.6579   21.8622 H   0  0  0  0  0  0
  -25.2757   -9.5692   22.4756 H   0  0  0  0  0  0
  -23.9994   -7.4641   22.7477 H   0  0  0  0  0  0
  -21.0830   -8.8765   19.8962 H   0  0  0  0  0  0
  -22.3678  -10.9666   19.6169 H   0  0  0  0  0  0
  -21.1991   -7.6134   23.9704 H   0  0  0  0  0  0
  -21.1490   -6.0518   25.9074 H   0  0  0  0  0  0
  -22.0598   -2.7601   23.2850 H   0  0  0  0  0  0
  -22.4105  -11.9898   22.4786 H   0  0  0  0  0  0
  -21.1118  -13.1279   22.2623 H   0  0  0  0  0  0
  -24.6637  -15.8436   20.5288 H   0  0  0  0  0  0
  -26.2805  -15.6301   20.0903 H   0  0  0  0  0  0
  -26.7183  -32.5437   23.1083 H   0  0  0  0  0  0
  -25.0141  -33.9698   25.0465 H   0  0  0  0  0  0
  -22.7128  -31.3028   21.4015 H   0  0  0  0  0  0
  -23.3761  -35.9601   23.3297 H   0  0  0  0  0  0
  -24.3579  -36.8893   22.2052 H   0  0  0  0  0  0
  -23.7237  -37.6476   23.6657 H   0  0  0  0  0  0
  -26.0941  -31.5497   20.6046 H   0  0  0  0  0  0
  -26.8390  -30.8326   22.0040 H   0  0  0  0  0  0
  -28.1106  -28.9833   21.1771 H   0  0  0  0  0  0
  -25.9564  -25.9039   19.0389 H   0  0  0  0  0  0
  -23.9646  -27.2853   19.0395 H   0  0  0  0  0  0
  -23.7624  -30.5927   19.4060 H   0  0  0  0  0  0
  -22.7522  -29.2505   19.8532 H   0  0  0  0  0  0
  -25.1290  -36.1918   25.0826 H   0  0  0  0  0  0
  -20.9982  -28.3266   24.1399 H   0  0  0  0  0  0
  -20.5656  -26.2291   23.3599 H   0  0  0  0  0  0
  -21.6647  -26.7429   22.1212 H   0  0  0  0  0  0
  -19.6915  -25.6294   21.1230 H   0  0  0  0  0  0
  -19.6710  -27.3196   20.6734 H   0  0  0  0  0  0
  -17.4205  -26.6678   21.4008 H   0  0  0  0  0  0
  -18.0341  -26.0059   22.8996 H   0  0  0  0  0  0
  -19.7942  -30.7269   24.2249 H   0  0  0  0  0  0
  -17.5024  -31.6260   24.5168 H   0  0  0  0  0  0
  -15.5358  -30.2984   23.7654 H   0  0  0  0  0  0
  -15.8677  -28.0820   22.7067 H   0  0  0  0  0  0
  -24.5966  -30.6998   25.7802 H   0  0  0  0  0  0
  -24.8934  -32.2839   26.4881 H   0  0  0  0  0  0
  -25.8120  -30.8888   27.0229 H   0  0  0  0  0  0
  -26.2930  -29.6720   24.1223 H   0  0  0  0  0  0
  -27.4129  -29.7266   25.4638 H   0  0  0  0  0  0
  -27.8771  -30.4287   23.9331 H   0  0  0  0  0  0
  -27.2714  -33.3605   26.2044 H   0  0  0  0  0  0
  -28.3903  -32.6818   25.0307 H   0  0  0  0  0  0
  -28.0742  -31.8420   26.5404 H   0  0  0  0  0  0
  -28.2593  -38.0094   24.7518 H   0  0  0  0  0  0
  -28.1080  -36.2623   24.6287 H   0  0  0  0  0  0
  -27.2300  -37.1437   25.8871 H   0  0  0  0  0  0
  -20.9360  -29.8742   21.6867 H   0  0  0  0  0  0
  -26.0169  -38.2840   24.1428 H   0  0  0  0  0  0
  -28.1970  -19.4533   18.7771 H   0  0  0  0  0  0
  -28.7346  -17.0525   18.8545 H   0  0  0  0  0  0
  -30.6411  -17.6070   22.6717 H   0  0  0  0  0  0
  -25.8648  -22.5329   22.6236 H   0  0  0  0  0  0
  -27.5450  -22.7503   23.0529 H   0  0  0  0  0  0
  -26.6851  -24.6923   21.7540 H   0  0  0  0  0  0
  -26.2498  -23.6427   20.4268 H   0  0  0  0  0  0
  -26.4483  -21.0633   20.7498 H   0  0  0  0  0  0
  -27.1993  -20.4733   22.2061 H   0  0  0  0  0  0
  -29.0262  -24.1954   21.5116 H   0  0  0  0  0  0
  -27.7919  -24.9584   18.8143 H   0  0  0  0  0  0
  -29.4521  -25.0869   19.1832 H   0  0  0  0  0  0
  -28.9201  -15.2883   21.3367 H   0  0  0  0  0  0
  1 25  1  0  0  0
  1 30  2  0  0  0
  1 84  1  0  0  0
  2  3  1  0  0  0
  2 25  1  0  0  0
  2 87  1  0  0  0
  2 88  1  0  0  0
  3  4  1  0  0  0
  3 89  1  0  0  0
  3 90  1  0  0  0
  4  5  1  0  0  0
  4 91  1  0  0  0
  4 92  1  0  0  0
  5  6  1  0  0  0
  5 26  1  0  0  0
  5 93  1  0  0  0
  6 25  1  0  0  0
  6 94  1  0  0  0
  6 95  1  0  0  0
  7  8  2  0  0  0
  7 26  1  0  0  0
  7 29  1  0  0  0
  8  9  1  0  0  0
  8 22  1  0  0  0
  9 10  1  0  0  0
  9 27  2  0  0  0
 10 11  2  0  0  0
 10 15  1  0  0  0
 11 12  1  0  0  0
 11 96  1  0  0  0
 12 13  2  0  0  0
 12 97  1  0  0  0
 13 14  1  0  0  0
 13 31  1  0  0  0
 14 15  2  0  0  0
 14 98  1  0  0  0
 15 99  1  0  0  0
 16 17  2  0  0  0
 16 21  1  0  0  0
 16 31  1  0  0  0
 17 18  1  0  0  0
 17100  1  0  0  0
 18 19  2  0  0  0
 18101  1  0  0  0
 19 20  1  0  0  0
 19 24  1  0  0  0
 20 21  2  0  0  0
 20102  1  0  0  0
 21 23  1  0  0  0
 22 28  1  0  0  0
 22 32  2  0  0  0
 26 27  1  0  0  0
 28103  1  0  0  0
 28104  1  0  0  0
 29105  1  0  0  0
 29106  1  0  0  0
 33 34  1  0  0  0
 33 66  1  0  0  0
 33 70  2  0  0  0
 34 36  1  0  0  0
 34 59  1  0  0  0
 34107  1  0  0  0
 35 44  2  0  0  0
 35 45  1  0  0  0
 35 68  1  0  0  0
 36 56  1  0  0  0
 36108  1  0  0  0
 37 39  1  0  0  0
 37 47  1  0  0  0
 37 66  1  0  0  0
 37109  1  0  0  0
 38 43  2  0  0  0
 38 46  1  0  0  0
 38 47  1  0  0  0
 39 64  1  0  0  0
 39 67  2  0  0  0
 40 52  1  0  0  0
 40 53  2  0  0  0
 40 58  1  0  0  0
 41110  1  0  0  0
 41111  1  0  0  0
 41112  1  0  0  0
 41 48  1  0  0  0
 42 43  1  0  0  0
 42 66  1  0  0  0
 42113  1  0  0  0
 42114  1  0  0  0
 43 44  1  0  0  0
 44115  1  0  0  0
 45 46  2  0  0  0
 45116  1  0  0  0
 46117  1  0  0  0
 47118  1  0  0  0
 47119  1  0  0  0
 48 56  1  0  0  0
 48 65  1  0  0  0
 48120  1  0  0  0
 49 50  1  0  0  0
 49 53  1  0  0  0
 49 64  1  0  0  0
 49121  1  0  0  0
 50 51  1  0  0  0
 50122  1  0  0  0
 50123  1  0  0  0
 51 52  1  0  0  0
 51124  1  0  0  0
 51125  1  0  0  0
 52126  1  0  0  0
 52127  1  0  0  0
 53 54  1  0  0  0
 54 55  2  0  0  0
 54128  1  0  0  0
 55 57  1  0  0  0
 55129  1  0  0  0
 56 69  2  0  0  0
 57 58  2  0  0  0
 57130  1  0  0  0
 58131  1  0  0  0
 59 60  1  0  0  0
 59 61  1  0  0  0
 59 62  1  0  0  0
 60132  1  0  0  0
 60133  1  0  0  0
 60134  1  0  0  0
 61135  1  0  0  0
 61136  1  0  0  0
 61137  1  0  0  0
 62138  1  0  0  0
 62139  1  0  0  0
 62140  1  0  0  0
 63 65  1  0  0  0
 63141  1  0  0  0
 63142  1  0  0  0
 63143  1  0  0  0
 64144  1  0  0  0
 65145  1  0  0  0
 68 82  1  0  0  0
 71 72  2  0  0  0
 71 74  1  0  0  0
 71146  1  0  0  0
 72 75  1  0  0  0
 72147  1  0  0  0
 73 75  2  0  0  0
 73 76  1  0  0  0
 73148  1  0  0  0
 74 76  2  0  0  0
 74 83  1  0  0  0
 75 84  1  0  0  0
 76 86  1  0  0  0
 77 81  1  0  0  0
 77 83  1  0  0  0
 77 85  2  0  0  0
 78 79  1  0  0  0
 78 80  1  0  0  0
 78149  1  0  0  0
 78150  1  0  0  0
 79 81  1  0  0  0
 79151  1  0  0  0
 79152  1  0  0  0
 80 83  1  0  0  0
 80153  1  0  0  0
 80154  1  0  0  0
 81 82  1  0  0  0
 81155  1  0  0  0
 82156  1  0  0  0
 82157  1  0  0  0
 84158  1  0  0  0
M  ISO  4   1 100  68 101  82 101  84 100
M  END
> <chiral flag>
0

> <version>
0

> <s_m_source_file>
/data/baiqing/PycharmProjects/Reinvent-master-3.2/result/LINK_invent/BTK/process_docking_weight1_custom_product_contain_oxygen_bond_distance_aromatic_linkinvent_7_9_3/rearranged_h_0028.sdf

> <i_m_source_file_index>
29

> <r_mmod_Potential_Energy-OPLS-2005>
198.220138549805

> <r_mmod_Stretch_Energy-OPLS-2005>
87.2781829833984

> <r_mmod_Bend_Energy-OPLS-2005>
152.671737670898

> <r_mmod_Torsional_Energy-OPLS-2005>
322.988677978516

> <r_mmod_Improper_Torsional_Energy-OPLS-2005>
8.06334400177002

> <r_mmod_Van_der_Waal_Energy-OPLS-2005>
138.547592163086

> <r_mmod_Electrostatic_Energy-OPLS-2005>
-333.185455322266

> <r_mmod_Solvation_Energy-OPLS-2005>
-225.986862182617

> <b_mmod_Minimization_Converged-OPLS-2005>
0

> <r_mmod_RMS_Derivative-OPLS-2005>
1.15014374256134

$$$$
29
                    3D
 Structure written by MMmdl.
166176  0  0  1  0            999 V2000
  -28.8197  -16.2382   20.8987 C   0  0  0  0  0  0
  -30.0538  -13.7866   19.8111 C   0  0  0  0  0  0
  -29.5010  -12.9482   18.5701 C   0  0  0  0  0  0
  -28.1453  -12.3076   18.8780 C   0  0  0  0  0  0
  -27.4308  -13.2602   19.8376 C   0  0  2  0  0  0
  -28.2024  -13.6282   21.0999 C   0  0  0  0  0  0
  -25.1434  -13.8025   20.5514 C   0  0  0  0  0  0
  -24.1018  -13.0227   20.9302 C   0  0  0  0  0  0
  -24.5729  -11.6727   20.8762 C   0  0  0  0  0  0
  -23.8642  -10.4142   21.0491 C   0  0  0  0  0  0
  -24.3383   -9.4146   21.9239 C   0  0  0  0  0  0
  -23.6173   -8.2131   22.0769 C   0  0  0  0  0  0
  -22.4166   -8.0130   21.3548 C   0  0  0  0  0  0
  -21.9696   -9.0046   20.4657 C   0  0  0  0  0  0
  -22.6889  -10.1970   20.3100 C   0  0  0  0  0  0
  -21.6805   -6.0644   22.5284 C   0  0  0  0  0  0
  -21.3978   -6.5593   23.8201 C   0  0  0  0  0  0
  -21.3647   -5.6775   24.9185 C   0  0  0  0  0  0
  -21.6047   -4.3034   24.7254 C   0  0  0  0  0  0
  -21.8828   -3.8095   23.4386 C   0  0  0  0  0  0
  -21.9183   -4.6887   22.3427 C   0  0  0  0  0  0
  -22.7192  -13.5102   21.2066 C   0  0  0  0  0  0
  -22.1658   -4.2082   21.1003 F   0  0  0  0  0  0
  -21.5637   -3.4530   25.7774 F   0  0  0  0  0  0
  -29.0008  -14.7209   20.6152 N   0  0  0  0  0  0
  -26.1415  -12.9060   20.2565 N   0  0  0  0  0  0
  -25.8486  -11.6255   20.5365 N   0  0  0  0  0  0
  -21.9911  -12.8129   22.0672 N   0  0  0  0  0  0
  -25.3242  -15.1795   20.4021 N   0  0  0  0  0  0
  -30.0771  -16.4413   20.6577 O   0  0  0  0  0  0
  -21.6584   -6.8724   21.4223 O   0  0  0  0  0  0
  -22.3004  -14.5462   20.6918 O   0  0  0  0  0  0
  -24.7691  -32.1019   23.2073 C   0  0  0  0  0  0
  -26.0428  -32.5814   23.8992 C   0  0  1  0  0  0
  -26.8896  -27.4250   20.0285 C   0  0  0  0  0  0
  -25.7237  -33.9412   24.3095 N   0  0  0  0  0  0
  -23.6494  -30.7908   21.5745 C   0  0  2  0  0  0
  -24.9346  -29.3280   19.9202 C   0  0  0  0  0  0
  -23.4827  -29.6678   22.5738 C   0  0  0  0  0  0
  -18.3109  -27.1937   22.9358 C   0  0  0  0  0  0
  -24.1543  -36.7505   23.2524 C   0  0  0  0  0  0
  -26.1388  -30.9236   21.4363 C   0  0  0  0  0  0
  -26.0765  -29.5919   20.6895 C   0  0  0  0  0  0
  -27.0837  -28.6072   20.7792 C   0  0  0  0  0  0
  -26.0323  -27.4119   18.9409 C   0  0  0  0  0  0
  -24.9145  -28.2458   19.0225 C   0  0  0  0  0  0
  -23.8245  -30.3411   20.0893 C   0  0  0  0  0  0
  -25.4151  -36.3520   24.0349 C   0  0  1  0  0  0
  -21.9821  -27.4951   22.5628 C   0  0  2  0  0  0
  -21.4141  -25.5292   21.0156 C   0  0  0  0  0  0
  -19.6371  -25.1273   21.1264 C   0  0  0  0  0  0
  -18.3355  -25.8693   22.0228 C   0  0  0  0  0  0
  -19.5836  -27.5315   23.6469 C   0  0  0  0  0  0
  -18.9889  -28.7623   24.4857 C   0  0  0  0  0  0
  -17.8697  -29.6668   24.3034 C   0  0  0  0  0  0
  -25.9345  -35.0008   23.5266 C   0  0  0  0  0  0
  -16.8526  -29.2770   23.4604 C   0  0  0  0  0  0
  -17.0788  -28.0132   22.8636 C   0  0  0  0  0  0
  -26.4964  -31.6939   25.1177 C   0  0  0  0  0  0
  -25.3821  -31.4029   26.1504 C   0  0  0  0  0  0
  -27.0980  -30.3422   24.6596 C   0  0  0  0  0  0
  -27.6425  -32.4340   25.8393 C   0  0  0  0  0  0
  -27.5651  -37.2049   24.8455 C   0  0  0  0  0  0
  -22.7456  -28.7753   22.1197 N   0  0  0  0  0  0
  -26.4294  -37.4218   23.9512 N   0  0  0  0  0  0
  -24.8724  -31.3766   22.0639 N   0  0  0  0  0  0
  -24.0798  -29.4202   23.6082 O   0  0  0  0  0  0
  -26.7135  -26.2535   20.6806 O   0  0  0  0  0  0
  -26.5358  -34.9302   22.4507 O   0  0  0  0  0  0
  -23.6685  -32.3592   23.7320 O   0  0  0  0  0  0
  -24.2931  -21.7098   23.3305 C   0  0  0  0  0  0
  -23.2085  -22.9450   23.6322 C   0  0  0  0  0  0
  -24.7831  -20.6971   22.1743 C   0  0  0  0  0  0
  -22.0772  -23.8698   22.9242 C   0  0  0  0  0  0
  -23.5714  -21.5087   21.4882 C   0  0  0  0  0  0
  -22.4687  -22.7336   21.8074 C   0  0  0  0  0  0
  -20.5299  -29.2663   22.5920 C   0  0  0  0  0  0
  -21.5636  -28.3311   24.5945 C   0  0  0  0  0  0
  -22.1539  -27.4966   20.2015 C   0  0  0  0  0  0
  -23.6474  -25.8731   23.1369 C   0  0  0  0  0  0
  -23.7841  -26.5172   21.2753 C   0  0  1  0  0  0
  -20.2795  -27.4267   21.3939 C   0  0  1  0  0  0
  -22.0815  -26.1911   24.3468 C   0  0  2  0  0  0
  -26.4509  -19.2227   21.7417 C   0  0  0  0  0  0
  -25.1936  -25.7511   20.7020 C   0  0  0  0  0  0
  -21.0443  -25.5228   23.1834 N   0  0  0  0  0  0
  -27.4515  -17.3697   21.2968 N   0  0  0  0  0  0
  -23.3893  -21.0460   20.2271 F   0  0  0  0  0  0
  -21.5944  -22.7575   20.7688 F   0  0  0  0  0  0
  -30.8529  -14.4201   19.4260 H   0  0  0  0  0  0
  -30.5755  -13.1224   20.5041 H   0  0  0  0  0  0
  -30.2230  -12.1995   18.2463 H   0  0  0  0  0  0
  -29.3743  -13.6326   17.7299 H   0  0  0  0  0  0
  -28.2956  -11.3396   19.3568 H   0  0  0  0  0  0
  -27.5617  -12.1341   17.9735 H   0  0  0  0  0  0
  -27.2701  -14.1430   19.2124 H   0  0  0  0  0  0
  -28.7279  -12.7883   21.5558 H   0  0  0  0  0  0
  -27.5577  -14.0315   21.8843 H   0  0  0  0  0  0
  -25.2516   -9.5733   22.4812 H   0  0  0  0  0  0
  -23.9931   -7.4543   22.7482 H   0  0  0  0  0  0
  -21.0635   -8.8496   19.8969 H   0  0  0  0  0  0
  -22.3294  -10.9520   19.6244 H   0  0  0  0  0  0
  -21.1955   -7.6103   23.9678 H   0  0  0  0  0  0
  -21.1462   -6.0518   25.9084 H   0  0  0  0  0  0
  -22.0619   -2.7556   23.2906 H   0  0  0  0  0  0
  -22.3530  -11.9755   22.4997 H   0  0  0  0  0  0
  -21.0578  -13.1207   22.3015 H   0  0  0  0  0  0
  -24.4624  -15.7154   20.4153 H   0  0  0  0  0  0
  -25.9236  -15.4625   19.6368 H   0  0  0  0  0  0
  -26.8811  -32.6387   23.2067 H   0  0  0  0  0  0
  -25.1846  -34.0567   25.1553 H   0  0  0  0  0  0
  -22.8100  -31.4886   21.6249 H   0  0  0  0  0  0
  -23.3930  -35.9712   23.3148 H   0  0  0  0  0  0
  -24.3710  -36.9124   22.1953 H   0  0  0  0  0  0
  -23.7101  -37.6646   23.6474 H   0  0  0  0  0  0
  -26.4519  -31.6939   20.7306 H   0  0  0  0  0  0
  -26.9562  -30.8300   22.1381 H   0  0  0  0  0  0
  -27.8348  -28.6649   21.5534 H   0  0  0  0  0  0
  -25.9668  -26.5522   18.2878 H   0  0  0  0  0  0
  -24.0879  -28.1047   18.3398 H   0  0  0  0  0  0
  -24.1997  -31.2191   19.5605 H   0  0  0  0  0  0
  -22.9024  -30.2353   19.5331 H   0  0  0  0  0  0
  -25.1225  -36.2413   25.0822 H   0  0  0  0  0  0
  -22.8573  -27.7176   23.0598 H   0  0  0  0  0  0
  -22.2087  -24.8437   20.7874 H   0  0  0  0  0  0
  -21.2250  -25.5288   19.9384 H   0  0  0  0  0  0
  -19.5945  -24.0726   21.3977 H   0  0  0  0  0  0
  -19.2681  -25.0918   20.1002 H   0  0  0  0  0  0
  -17.5332  -25.9982   21.2933 H   0  0  0  0  0  0
  -17.9504  -25.0873   22.6810 H   0  0  0  0  0  0
  -19.5745  -29.3706   25.1527 H   0  0  0  0  0  0
  -17.7809  -30.5746   24.8842 H   0  0  0  0  0  0
  -15.9449  -29.8484   23.3205 H   0  0  0  0  0  0
  -16.2768  -27.6352   22.2413 H   0  0  0  0  0  0
  -24.5861  -30.7828   25.7415 H   0  0  0  0  0  0
  -24.9245  -32.3227   26.5156 H   0  0  0  0  0  0
  -25.7765  -30.8747   27.0194 H   0  0  0  0  0  0
  -26.4144  -29.7368   24.0748 H   0  0  0  0  0  0
  -27.3893  -29.7326   25.5161 H   0  0  0  0  0  0
  -28.0023  -30.4873   24.0675 H   0  0  0  0  0  0
  -27.3078  -33.3579   26.3131 H   0  0  0  0  0  0
  -28.4468  -32.6962   25.1497 H   0  0  0  0  0  0
  -28.0824  -31.8216   26.6283 H   0  0  0  0  0  0
  -28.2519  -38.0505   24.7838 H   0  0  0  0  0  0
  -28.1328  -36.3089   24.5881 H   0  0  0  0  0  0
  -27.2436  -37.1206   25.8856 H   0  0  0  0  0  0
  -22.4965  -28.9811   21.1662 H   0  0  0  0  0  0
  -26.0193  -38.3243   24.1772 H   0  0  0  0  0  0
  -24.8881  -21.5397   24.2189 H   0  0  0  0  0  0
  -23.3532  -23.2904   24.6475 H   0  0  0  0  0  0
  -20.9706  -30.1298   22.0914 H   0  0  0  0  0  0
  -19.6067  -29.8386   22.5967 H   0  0  0  0  0  0
  -21.0535  -28.2705   25.5549 H   0  0  0  0  0  0
  -22.3675  -28.9398   24.9876 H   0  0  0  0  0  0
  -22.0777  -27.0762   19.1939 H   0  0  0  0  0  0
  -22.2791  -28.4723   19.8153 H   0  0  0  0  0  0
  -24.4097  -26.4758   23.6394 H   0  0  0  0  0  0
  -24.2426  -24.9828   23.2760 H   0  0  0  0  0  0
  -24.4340  -27.3595   21.4618 H   0  0  0  0  0  0
  -19.4185  -27.4555   20.7206 H   0  0  0  0  0  0
  -22.1267  -25.6324   25.2827 H   0  0  0  0  0  0
  -27.0620  -19.4842   22.6076 H   0  0  0  0  0  0
  -26.9027  -19.8007   20.9333 H   0  0  0  0  0  0
  -24.9354  -25.3149   19.7359 H   0  0  0  0  0  0
  -25.2655  -24.8379   21.2925 H   0  0  0  0  0  0
  -26.6884  -16.7000   21.3408 H   0  0  0  0  0  0
  1 25  1  0  0  0
  1 30  2  0  0  0
  1 87  1  0  0  0
  2  3  1  0  0  0
  2 25  1  0  0  0
  2 90  1  0  0  0
  2 91  1  0  0  0
  3  4  1  0  0  0
  3 92  1  0  0  0
  3 93  1  0  0  0
  4  5  1  0  0  0
  4 94  1  0  0  0
  4 95  1  0  0  0
  5  6  1  0  0  0
  5 26  1  0  0  0
  5 96  1  0  0  0
  6 25  1  0  0  0
  6 97  1  0  0  0
  6 98  1  0  0  0
  7  8  2  0  0  0
  7 26  1  0  0  0
  7 29  1  0  0  0
  8  9  1  0  0  0
  8 22  1  0  0  0
  9 10  1  0  0  0
  9 27  2  0  0  0
 10 11  2  0  0  0
 10 15  1  0  0  0
 11 12  1  0  0  0
 11 99  1  0  0  0
 12 13  2  0  0  0
 12100  1  0  0  0
 13 14  1  0  0  0
 13 31  1  0  0  0
 14 15  2  0  0  0
 14101  1  0  0  0
 15102  1  0  0  0
 16 17  2  0  0  0
 16 21  1  0  0  0
 16 31  1  0  0  0
 17 18  1  0  0  0
 17103  1  0  0  0
 18 19  2  0  0  0
 18104  1  0  0  0
 19 20  1  0  0  0
 19 24  1  0  0  0
 20 21  2  0  0  0
 20105  1  0  0  0
 21 23  1  0  0  0
 22 28  1  0  0  0
 22 32  2  0  0  0
 26 27  1  0  0  0
 28106  1  0  0  0
 28107  1  0  0  0
 29108  1  0  0  0
 29109  1  0  0  0
 33 34  1  0  0  0
 33 66  1  0  0  0
 33 70  2  0  0  0
 34 36  1  0  0  0
 34 59  1  0  0  0
 34110  1  0  0  0
 35 44  2  0  0  0
 35 45  1  0  0  0
 35 68  1  0  0  0
 36 56  1  0  0  0
 36111  1  0  0  0
 37 39  1  0  0  0
 37 47  1  0  0  0
 37 66  1  0  0  0
 37112  1  0  0  0
 38 43  2  0  0  0
 38 46  1  0  0  0
 38 47  1  0  0  0
 39 64  1  0  0  0
 39 67  2  0  0  0
 40 52  1  0  0  0
 40 53  2  0  0  0
 40 58  1  0  0  0
 41113  1  0  0  0
 41114  1  0  0  0
 41115  1  0  0  0
 41 48  1  0  0  0
 42 43  1  0  0  0
 42 66  1  0  0  0
 42116  1  0  0  0
 42117  1  0  0  0
 43 44  1  0  0  0
 44118  1  0  0  0
 45 46  2  0  0  0
 45119  1  0  0  0
 46120  1  0  0  0
 47121  1  0  0  0
 47122  1  0  0  0
 48 56  1  0  0  0
 48 65  1  0  0  0
 48123  1  0  0  0
 49 50  1  0  0  0
 49 53  1  0  0  0
 49 64  1  0  0  0
 49124  1  0  0  0
 50 51  1  0  0  0
 50125  1  0  0  0
 50126  1  0  0  0
 51 52  1  0  0  0
 51127  1  0  0  0
 51128  1  0  0  0
 52129  1  0  0  0
 52130  1  0  0  0
 53 54  1  0  0  0
 54 55  2  0  0  0
 54131  1  0  0  0
 55 57  1  0  0  0
 55132  1  0  0  0
 56 69  2  0  0  0
 57 58  2  0  0  0
 57133  1  0  0  0
 58134  1  0  0  0
 59 60  1  0  0  0
 59 61  1  0  0  0
 59 62  1  0  0  0
 60135  1  0  0  0
 60136  1  0  0  0
 60137  1  0  0  0
 61138  1  0  0  0
 61139  1  0  0  0
 61140  1  0  0  0
 62141  1  0  0  0
 62142  1  0  0  0
 62143  1  0  0  0
 63 65  1  0  0  0
 63144  1  0  0  0
 63145  1  0  0  0
 63146  1  0  0  0
 64147  1  0  0  0
 65148  1  0  0  0
 68 85  1  0  0  0
 71 72  2  0  0  0
 71 73  1  0  0  0
 71149  1  0  0  0
 72 74  1  0  0  0
 72150  1  0  0  0
 73 75  2  0  0  0
 73 84  1  0  0  0
 74 76  2  0  0  0
 74 86  1  0  0  0
 75 76  1  0  0  0
 75 88  1  0  0  0
 76 89  1  0  0  0
 77 78  1  0  0  0
 77151  1  0  0  0
 77152  1  0  0  0
 77 82  1  0  0  0
 78153  1  0  0  0
 78154  1  0  0  0
 78 83  1  0  0  0
 79 81  1  0  0  0
 79 82  1  0  0  0
 79155  1  0  0  0
 79156  1  0  0  0
 80 81  1  0  0  0
 80 83  1  0  0  0
 80157  1  0  0  0
 80158  1  0  0  0
 81 85  1  0  0  0
 81159  1  0  0  0
 82 86  1  0  0  0
 82160  1  0  0  0
 83 86  1  0  0  0
 83161  1  0  0  0
 84 87  1  0  0  0
 84162  1  0  0  0
 84163  1  0  0  0
 85164  1  0  0  0
 85165  1  0  0  0
 87166  1  0  0  0
M  ISO  4   1 100  68 101  85 101  87 100
M  END
> <chiral flag>
0

> <version>
0

> <s_m_source_file>
/data/baiqing/PycharmProjects/Reinvent-master-3.2/result/LINK_invent/BTK/process_docking_weight1_custom_product_contain_oxygen_bond_distance_aromatic_linkinvent_7_9_3/rearranged_h_0028.sdf

> <i_m_source_file_index>
30

> <r_mmod_Potential_Energy-OPLS-2005>
24779.138671875

> <r_mmod_Stretch_Energy-OPLS-2005>
12913.21484375

> <r_mmod_Bend_Energy-OPLS-2005>
2372.59521484375

> <r_mmod_Torsional_Energy-OPLS-2005>
621.791870117188

> <r_mmod_Improper_Torsional_Energy-OPLS-2005>
50.5043296813965

> <r_mmod_Van_der_Waal_Energy-OPLS-2005>
4473.46728515625

> <r_mmod_Electrostatic_Energy-OPLS-2005>
-391.499694824219

> <r_mmod_Solvation_Energy-OPLS-2005>
-217.468658447266

> <b_mmod_Minimization_Converged-OPLS-2005>
0

> <r_mmod_RMS_Derivative-OPLS-2005>
8.50543403625488

$$$$
30
                    3D
 Structure written by MMmdl.
169179  0  0  1  0            999 V2000
  -30.6408  -14.4765   20.3761 C   0  0  0  0  0  0
  -30.4366  -12.2560   19.4011 C   0  0  0  0  0  0
  -29.4807  -12.4155   18.1967 C   0  0  0  0  0  0
  -28.0027  -12.3100   18.6321 C   0  0  0  0  0  0
  -27.6549  -13.1640   19.8787 C   0  0  2  0  0  0
  -28.7277  -13.0019   20.9846 C   0  0  0  0  0  0
  -25.2624  -13.8016   20.5805 C   0  0  0  0  0  0
  -24.1830  -13.0371   20.9236 C   0  0  0  0  0  0
  -24.6328  -11.6816   20.8813 C   0  0  0  0  0  0
  -23.8971  -10.4238   21.0428 C   0  0  0  0  0  0
  -24.3544   -9.4161   21.9202 C   0  0  0  0  0  0
  -23.6232   -8.2191   22.0748 C   0  0  0  0  0  0
  -22.4220   -8.0227   21.3522 C   0  0  0  0  0  0
  -21.9853   -9.0203   20.4629 C   0  0  0  0  0  0
  -22.7160  -10.2085   20.3053 C   0  0  0  0  0  0
  -21.6820   -6.0698   22.5266 C   0  0  0  0  0  0
  -21.3995   -6.5614   23.8204 C   0  0  0  0  0  0
  -21.3668   -5.6777   24.9177 C   0  0  0  0  0  0
  -21.6058   -4.3041   24.7230 C   0  0  0  0  0  0
  -21.8818   -3.8112   23.4357 C   0  0  0  0  0  0
  -21.9181   -4.6925   22.3405 C   0  0  0  0  0  0
  -22.7856  -13.5213   21.1879 C   0  0  0  0  0  0
  -22.1640   -4.2117   21.0980 F   0  0  0  0  0  0
  -21.5649   -3.4524   25.7748 F   0  0  0  0  0  0
  -30.0511  -13.2604   20.3913 N   0  0  0  0  0  0
  -26.3021  -12.9104   20.3530 N   0  0  0  0  0  0
  -25.9255  -11.6313   20.5927 N   0  0  0  0  0  0
  -22.0434  -12.8236   22.0401 N   0  0  0  0  0  0
  -25.4381  -15.1726   20.4285 N   0  0  0  0  0  0
  -31.8552  -14.6744   20.3370 O   0  0  0  0  0  0
  -21.6597   -6.8816   21.4213 O   0  0  0  0  0  0
  -22.3583  -14.5541   20.6715 O   0  0  0  0  0  0
  -24.6110  -31.8739   23.2168 C   0  0  0  0  0  0
  -25.9039  -32.4846   23.8436 C   0  0  1  0  0  0
  -27.2491  -27.5100   20.0446 C   0  0  0  0  0  0
  -25.5898  -33.8634   24.2355 N   0  0  0  0  0  0
  -23.3956  -30.4988   21.5601 C   0  0  2  0  0  0
  -24.8439  -28.9813   20.1136 C   0  0  0  0  0  0
  -22.7382  -29.4711   22.5080 C   0  0  0  0  0  0
  -18.0276  -28.1356   22.8527 C   0  0  0  0  0  0
  -24.1478  -36.7280   23.2646 C   0  0  0  0  0  0
  -25.9231  -30.8603   21.3645 C   0  0  0  0  0  0
  -26.0074  -29.5083   20.6924 C   0  0  0  0  0  0
  -27.2185  -28.7827   20.6511 C   0  0  0  0  0  0
  -26.0679  -26.9911   19.4656 C   0  0  0  0  0  0
  -24.8643  -27.7144   19.5089 C   0  0  0  0  0  0
  -23.5972  -29.8324   20.1757 C   0  0  0  0  0  0
  -25.4106  -36.3103   24.0345 C   0  0  1  0  0  0
  -20.5855  -28.3638   23.1343 C   0  0  2  0  0  0
  -20.6744  -26.9383   22.5409 C   0  0  0  0  0  0
  -19.5728  -26.6374   21.5206 C   0  0  0  0  0  0
  -18.1915  -26.7920   22.1614 C   0  0  0  0  0  0
  -19.1522  -28.8827   23.2920 C   0  0  0  0  0  0
  -18.9440  -30.1455   23.8882 C   0  0  0  0  0  0
  -17.6438  -30.6558   24.0563 C   0  0  0  0  0  0
  -25.9049  -34.9479   23.5150 C   0  0  0  0  0  0
  -16.5334  -29.9033   23.6356 C   0  0  0  0  0  0
  -16.7272  -28.6458   23.0368 C   0  0  0  0  0  0
  -26.4486  -31.6617   25.0749 C   0  0  0  0  0  0
  -25.3749  -31.3686   26.1488 C   0  0  0  0  0  0
  -27.0376  -30.3072   24.6168 C   0  0  0  0  0  0
  -27.6069  -32.4369   25.7470 C   0  0  0  0  0  0
  -27.5583  -37.1793   24.8473 C   0  0  0  0  0  0
  -21.4121  -29.3017   22.3757 N   0  0  0  0  0  0
  -26.4286  -37.3797   23.9432 N   0  0  0  0  0  0
  -24.6601  -31.0886   22.1053 N   0  0  0  0  0  0
  -23.4163  -28.8280   23.3134 O   0  0  0  0  0  0
  -28.3854  -26.7341   20.0909 O   0  0  0  0  0  0
  -26.5588  -34.8936   22.4696 O   0  0  0  0  0  0
  -23.5304  -32.1490   23.7581 O   0  0  0  0  0  0
  -27.0484  -24.3590   22.5123 C   0  0  0  0  0  0
  -27.4066  -23.2229   20.3877 C   0  0  0  0  0  0
  -27.7357  -25.4821   22.0283 C   0  0  0  0  0  0
  -28.0781  -24.3565   19.8929 C   0  0  0  0  0  0
  -27.2644  -17.9468   19.7421 C   0  0  0  0  0  0
  -29.4886  -17.1902   21.2696 C   0  0  0  0  0  0
  -26.8015  -23.2604   21.6667 C   0  0  0  0  0  0
  -28.1001  -16.9176   19.2863 C   0  0  0  0  0  0
  -27.5198  -18.6343   20.9508 C   0  0  0  0  0  0
  -29.1763  -16.4803   20.0928 C   0  0  0  0  0  0
  -28.1534  -25.5196   20.6832 C   0  0  0  0  0  0
  -28.6995  -18.2868   21.6763 C   0  0  0  0  0  0
  -26.3403  -21.2324   23.1833 C   0  0  0  0  0  0
  -25.0223  -21.5195   20.9637 C   0  0  0  0  0  0
  -26.2078  -19.7646   22.7535 C   0  0  0  0  0  0
  -25.6982  -20.2540   20.3965 C   0  0  0  0  0  0
  -25.7856  -22.2136   22.1205 C   0  0  0  0  0  0
  -27.7991  -16.3166   17.9196 C   0  0  0  0  0  0
  -26.6182  -19.6463   21.3602 N   0  0  0  0  0  0
  -29.8661  -15.3177   19.6805 N   0  0  0  0  0  0
  -29.2751  -19.1981   23.0315 Cl  0  0  0  0  0  0
  -31.4740  -12.3804   19.0804 H   0  0  0  0  0  0
  -30.3618  -11.2572   19.8316 H   0  0  0  0  0  0
  -29.6903  -11.6365   17.4635 H   0  0  0  0  0  0
  -29.6511  -13.3628   17.6842 H   0  0  0  0  0  0
  -27.8094  -11.2610   18.8539 H   0  0  0  0  0  0
  -27.3403  -12.5669   17.8037 H   0  0  0  0  0  0
  -27.6524  -14.1919   19.5509 H   0  0  0  0  0  0
  -28.7073  -11.9934   21.4021 H   0  0  0  0  0  0
  -28.5368  -13.6821   21.8154 H   0  0  0  0  0  0
  -25.2660   -9.5665   22.4825 H   0  0  0  0  0  0
  -23.9935   -7.4588   22.7488 H   0  0  0  0  0  0
  -21.0775   -8.8712   19.8943 H   0  0  0  0  0  0
  -22.3594  -10.9644   19.6192 H   0  0  0  0  0  0
  -21.1962   -7.6123   23.9693 H   0  0  0  0  0  0
  -21.1506   -6.0515   25.9087 H   0  0  0  0  0  0
  -22.0590   -2.7572   23.2850 H   0  0  0  0  0  0
  -22.3986  -11.9842   22.4753 H   0  0  0  0  0  0
  -21.1073  -13.1336   22.2628 H   0  0  0  0  0  0
  -24.6769  -15.8276   20.5647 H   0  0  0  0  0  0
  -26.3117  -15.6205   20.1874 H   0  0  0  0  0  0
  -26.7118  -32.5572   23.1211 H   0  0  0  0  0  0
  -25.0026  -33.9818   25.0476 H   0  0  0  0  0  0
  -22.6832  -31.3146   21.4257 H   0  0  0  0  0  0
  -23.3757  -35.9598   23.3317 H   0  0  0  0  0  0
  -24.3570  -36.8881   22.2059 H   0  0  0  0  0  0
  -23.7226  -37.6475   23.6666 H   0  0  0  0  0  0
  -26.0519  -31.6500   20.6227 H   0  0  0  0  0  0
  -26.7983  -30.8847   22.0000 H   0  0  0  0  0  0
  -28.1207  -29.1931   21.0835 H   0  0  0  0  0  0
  -26.0712  -26.0133   19.0064 H   0  0  0  0  0  0
  -23.9646  -27.2893   19.0846 H   0  0  0  0  0  0
  -23.6816  -30.6057   19.4109 H   0  0  0  0  0  0
  -22.7260  -29.2355   19.8996 H   0  0  0  0  0  0
  -25.1302  -36.1939   25.0842 H   0  0  0  0  0  0
  -20.9981  -28.3173   24.1442 H   0  0  0  0  0  0
  -20.5629  -26.2257   23.3587 H   0  0  0  0  0  0
  -21.6624  -26.7401   22.1213 H   0  0  0  0  0  0
  -19.6863  -25.6278   21.1237 H   0  0  0  0  0  0
  -19.6666  -27.3176   20.6741 H   0  0  0  0  0  0
  -17.4202  -26.6756   21.3988 H   0  0  0  0  0  0
  -18.0264  -26.0007   22.8947 H   0  0  0  0  0  0
  -19.7910  -30.7323   24.2183 H   0  0  0  0  0  0
  -17.4968  -31.6250   24.5131 H   0  0  0  0  0  0
  -15.5328  -30.2905   23.7692 H   0  0  0  0  0  0
  -15.8685  -28.0767   22.7063 H   0  0  0  0  0  0
  -24.5903  -30.7099   25.7761 H   0  0  0  0  0  0
  -24.8953  -32.2810   26.5026 H   0  0  0  0  0  0
  -25.8059  -30.8733   27.0196 H   0  0  0  0  0  0
  -26.2963  -29.6745   24.1279 H   0  0  0  0  0  0
  -27.4206  -29.7417   25.4673 H   0  0  0  0  0  0
  -27.8758  -30.4394   23.9330 H   0  0  0  0  0  0
  -27.2700  -33.3658   26.2089 H   0  0  0  0  0  0
  -28.3805  -32.6965   25.0229 H   0  0  0  0  0  0
  -28.0844  -31.8486   26.5320 H   0  0  0  0  0  0
  -28.2602  -38.0093   24.7548 H   0  0  0  0  0  0
  -28.1082  -36.2633   24.6256 H   0  0  0  0  0  0
  -27.2317  -37.1373   25.8880 H   0  0  0  0  0  0
  -20.9278  -29.8677   21.6919 H   0  0  0  0  0  0
  -26.0159  -38.2868   24.1434 H   0  0  0  0  0  0
  -26.6181  -24.3961   23.5032 H   0  0  0  0  0  0
  -27.2818  -22.3767   19.7312 H   0  0  0  0  0  0
  -27.7997  -26.3691   22.6433 H   0  0  0  0  0  0
  -28.4037  -24.3674   18.8627 H   0  0  0  0  0  0
  -26.4134  -18.1945   19.1275 H   0  0  0  0  0  0
  -30.3448  -16.9140   21.8685 H   0  0  0  0  0  0
  -27.3857  -21.4635   23.3979 H   0  0  0  0  0  0
  -25.8098  -21.3745   24.1269 H   0  0  0  0  0  0
  -24.0586  -21.2060   21.3674 H   0  0  0  0  0  0
  -24.7717  -22.2234   20.1684 H   0  0  0  0  0  0
  -25.1597  -19.4663   22.8236 H   0  0  0  0  0  0
  -26.7464  -19.1000   23.4263 H   0  0  0  0  0  0
  -26.2309  -20.4977   19.4772 H   0  0  0  0  0  0
  -24.9209  -19.5357   20.1253 H   0  0  0  0  0  0
  -25.0212  -22.8047   22.6284 H   0  0  0  0  0  0
  -27.4995  -17.1083   17.2303 H   0  0  0  0  0  0
  -26.9765  -15.6024   17.9693 H   0  0  0  0  0  0
  -28.6669  -15.8296   17.4773 H   0  0  0  0  0  0
  -29.3559  -14.8082   18.9761 H   0  0  0  0  0  0
  1 25  1  0  0  0
  1 30  2  0  0  0
  1 90  1  0  0  0
  2  3  1  0  0  0
  2 25  1  0  0  0
  2 92  1  0  0  0
  2 93  1  0  0  0
  3  4  1  0  0  0
  3 94  1  0  0  0
  3 95  1  0  0  0
  4  5  1  0  0  0
  4 96  1  0  0  0
  4 97  1  0  0  0
  5  6  1  0  0  0
  5 26  1  0  0  0
  5 98  1  0  0  0
  6 25  1  0  0  0
  6 99  1  0  0  0
  6100  1  0  0  0
  7  8  2  0  0  0
  7 26  1  0  0  0
  7 29  1  0  0  0
  8  9  1  0  0  0
  8 22  1  0  0  0
  9 10  1  0  0  0
  9 27  2  0  0  0
 10 11  2  0  0  0
 10 15  1  0  0  0
 11 12  1  0  0  0
 11101  1  0  0  0
 12 13  2  0  0  0
 12102  1  0  0  0
 13 14  1  0  0  0
 13 31  1  0  0  0
 14 15  2  0  0  0
 14103  1  0  0  0
 15104  1  0  0  0
 16 17  2  0  0  0
 16 21  1  0  0  0
 16 31  1  0  0  0
 17 18  1  0  0  0
 17105  1  0  0  0
 18 19  2  0  0  0
 18106  1  0  0  0
 19 20  1  0  0  0
 19 24  1  0  0  0
 20 21  2  0  0  0
 20107  1  0  0  0
 21 23  1  0  0  0
 22 28  1  0  0  0
 22 32  2  0  0  0
 26 27  1  0  0  0
 28108  1  0  0  0
 28109  1  0  0  0
 29110  1  0  0  0
 29111  1  0  0  0
 33 34  1  0  0  0
 33 66  1  0  0  0
 33 70  2  0  0  0
 34 36  1  0  0  0
 34 59  1  0  0  0
 34112  1  0  0  0
 35 44  2  0  0  0
 35 45  1  0  0  0
 35 68  1  0  0  0
 36 56  1  0  0  0
 36113  1  0  0  0
 37 39  1  0  0  0
 37 47  1  0  0  0
 37 66  1  0  0  0
 37114  1  0  0  0
 38 43  2  0  0  0
 38 46  1  0  0  0
 38 47  1  0  0  0
 39 64  1  0  0  0
 39 67  2  0  0  0
 40 52  1  0  0  0
 40 53  2  0  0  0
 40 58  1  0  0  0
 41115  1  0  0  0
 41116  1  0  0  0
 41117  1  0  0  0
 41 48  1  0  0  0
 42 43  1  0  0  0
 42 66  1  0  0  0
 42118  1  0  0  0
 42119  1  0  0  0
 43 44  1  0  0  0
 44120  1  0  0  0
 45 46  2  0  0  0
 45121  1  0  0  0
 46122  1  0  0  0
 47123  1  0  0  0
 47124  1  0  0  0
 48 56  1  0  0  0
 48 65  1  0  0  0
 48125  1  0  0  0
 49 50  1  0  0  0
 49 53  1  0  0  0
 49 64  1  0  0  0
 49126  1  0  0  0
 50 51  1  0  0  0
 50127  1  0  0  0
 50128  1  0  0  0
 51 52  1  0  0  0
 51129  1  0  0  0
 51130  1  0  0  0
 52131  1  0  0  0
 52132  1  0  0  0
 53 54  1  0  0  0
 54 55  2  0  0  0
 54133  1  0  0  0
 55 57  1  0  0  0
 55134  1  0  0  0
 56 69  2  0  0  0
 57 58  2  0  0  0
 57135  1  0  0  0
 58136  1  0  0  0
 59 60  1  0  0  0
 59 61  1  0  0  0
 59 62  1  0  0  0
 60137  1  0  0  0
 60138  1  0  0  0
 60139  1  0  0  0
 61140  1  0  0  0
 61141  1  0  0  0
 61142  1  0  0  0
 62143  1  0  0  0
 62144  1  0  0  0
 62145  1  0  0  0
 63 65  1  0  0  0
 63146  1  0  0  0
 63147  1  0  0  0
 63148  1  0  0  0
 64149  1  0  0  0
 65150  1  0  0  0
 68 81  1  0  0  0
 71 73  2  0  0  0
 71 77  1  0  0  0
 71151  1  0  0  0
 72 74  1  0  0  0
 72 77  2  0  0  0
 72152  1  0  0  0
 73 81  1  0  0  0
 73153  1  0  0  0
 74 81  2  0  0  0
 74154  1  0  0  0
 75 78  2  0  0  0
 75 79  1  0  0  0
 75155  1  0  0  0
 76 80  2  0  0  0
 76 82  1  0  0  0
 76156  1  0  0  0
 77 87  1  0  0  0
 78 80  1  0  0  0
 78 88  1  0  0  0
 79 82  2  0  0  0
 79 89  1  0  0  0
 80 90  1  0  0  0
 82 91  1  0  0  0
 83 85  1  0  0  0
 83 87  1  0  0  0
 83157  1  0  0  0
 83158  1  0  0  0
 84 86  1  0  0  0
 84 87  1  0  0  0
 84159  1  0  0  0
 84160  1  0  0  0
 85 89  1  0  0  0
 85161  1  0  0  0
 85162  1  0  0  0
 86 89  1  0  0  0
 86163  1  0  0  0
 86164  1  0  0  0
 87165  1  0  0  0
 88166  1  0  0  0
 88167  1  0  0  0
 88168  1  0  0  0
 90169  1  0  0  0
M  ISO  4   1 100  68 101  81 101  90 100
M  END
> <chiral flag>
0

> <version>
0

> <s_m_source_file>
/data/baiqing/PycharmProjects/Reinvent-master-3.2/result/LINK_invent/BTK/process_docking_weight1_custom_product_contain_oxygen_bond_distance_aromatic_linkinvent_7_9_3/rearranged_h_0028.sdf

> <i_m_source_file_index>
31

> <r_mmod_Potential_Energy-OPLS-2005>
206.350051879883

> <r_mmod_Stretch_Energy-OPLS-2005>
34.8086013793945

> <r_mmod_Bend_Energy-OPLS-2005>
126.951805114746

> <r_mmod_Torsional_Energy-OPLS-2005>
367.768249511719

> <r_mmod_Improper_Torsional_Energy-OPLS-2005>
33.3581047058105

> <r_mmod_Van_der_Waal_Energy-OPLS-2005>
190.489898681641

> <r_mmod_Electrostatic_Energy-OPLS-2005>
-372.331268310547

> <r_mmod_Solvation_Energy-OPLS-2005>
-206.24658203125

> <b_mmod_Minimization_Converged-OPLS-2005>
0

> <r_mmod_RMS_Derivative-OPLS-2005>
3.97643971443176

$$$$
31
                    3D
 Structure written by MMmdl.
159168  0  0  1  0            999 V2000
  -30.6985  -14.5881   20.4864 C   0  0  0  0  0  0
  -30.4153  -12.3608   19.4506 C   0  0  0  0  0  0
  -29.4965  -12.4880   18.2189 C   0  0  0  0  0  0
  -28.0203  -12.3425   18.6348 C   0  0  0  0  0  0
  -27.6470  -13.2247   19.8574 C   0  0  2  0  0  0
  -28.6949  -13.1187   20.9872 C   0  0  0  0  0  0
  -25.2541  -13.8195   20.5712 C   0  0  0  0  0  0
  -24.1812  -13.0447   20.9193 C   0  0  0  0  0  0
  -24.6392  -11.6920   20.8746 C   0  0  0  0  0  0
  -23.9068  -10.4297   21.0407 C   0  0  0  0  0  0
  -24.3621   -9.4210   21.9183 C   0  0  0  0  0  0
  -23.6296   -8.2245   22.0751 C   0  0  0  0  0  0
  -22.4277   -8.0282   21.3543 C   0  0  0  0  0  0
  -21.9913   -9.0256   20.4645 C   0  0  0  0  0  0
  -22.7241  -10.2136   20.3055 C   0  0  0  0  0  0
  -21.6853   -6.0737   22.5278 C   0  0  0  0  0  0
  -21.4015   -6.5640   23.8212 C   0  0  0  0  0  0
  -21.3660   -5.6791   24.9173 C   0  0  0  0  0  0
  -21.6045   -4.3054   24.7222 C   0  0  0  0  0  0
  -21.8819   -3.8146   23.4343 C   0  0  0  0  0  0
  -21.9193   -4.6965   22.3401 C   0  0  0  0  0  0
  -22.7833  -13.5233   21.1854 C   0  0  0  0  0  0
  -22.1661   -4.2152   21.0978 F   0  0  0  0  0  0
  -21.5629   -3.4537   25.7735 F   0  0  0  0  0  0
  -30.0086  -13.4110   20.4026 N   0  0  0  0  0  0
  -26.2970  -12.9390   20.3339 N   0  0  0  0  0  0
  -25.9326  -11.6535   20.5779 N   0  0  0  0  0  0
  -22.0479  -12.8221   22.0411 N   0  0  0  0  0  0
  -25.4270  -15.1915   20.4150 N   0  0  0  0  0  0
  -31.8921  -14.6490   20.1757 O   0  0  0  0  0  0
  -21.6641   -6.8880   21.4240 O   0  0  0  0  0  0
  -22.3514  -14.5538   20.6703 O   0  0  0  0  0  0
  -24.6247  -31.8637   23.2082 C   0  0  0  0  0  0
  -25.9108  -32.4799   23.8391 C   0  0  1  0  0  0
  -27.2111  -27.3409   20.1019 C   0  0  0  0  0  0
  -25.5935  -33.8600   24.2313 N   0  0  0  0  0  0
  -23.4156  -30.4929   21.5514 C   0  0  2  0  0  0
  -24.8579  -28.9622   20.1085 C   0  0  0  0  0  0
  -22.7467  -29.4650   22.4952 C   0  0  0  0  0  0
  -18.0284  -28.1385   22.8487 C   0  0  0  0  0  0
  -24.1489  -36.7300   23.2636 C   0  0  0  0  0  0
  -25.9579  -30.8004   21.3789 C   0  0  0  0  0  0
  -26.0292  -29.4329   20.7155 C   0  0  0  0  0  0
  -27.2093  -28.6328   20.7080 C   0  0  0  0  0  0
  -26.0157  -26.9344   19.4562 C   0  0  0  0  0  0
  -24.8521  -27.7165   19.4716 C   0  0  0  0  0  0
  -23.6269  -29.8391   20.1630 C   0  0  0  0  0  0
  -25.4111  -36.3095   24.0333 C   0  0  1  0  0  0
  -20.5885  -28.3688   23.1286 C   0  0  2  0  0  0
  -20.6777  -26.9414   22.5406 C   0  0  0  0  0  0
  -19.5749  -26.6385   21.5212 C   0  0  0  0  0  0
  -18.1931  -26.7928   22.1625 C   0  0  0  0  0  0
  -19.1537  -28.8853   23.2883 C   0  0  0  0  0  0
  -18.9460  -30.1456   23.8897 C   0  0  0  0  0  0
  -17.6460  -30.6587   24.0564 C   0  0  0  0  0  0
  -25.9048  -34.9463   23.5117 C   0  0  0  0  0  0
  -16.5351  -29.9085   23.6331 C   0  0  0  0  0  0
  -16.7272  -28.6504   23.0351 C   0  0  0  0  0  0
  -26.4495  -31.6597   25.0748 C   0  0  0  0  0  0
  -25.3734  -31.3725   26.1479 C   0  0  0  0  0  0
  -27.0332  -30.3022   24.6189 C   0  0  0  0  0  0
  -27.6059  -32.4327   25.7514 C   0  0  0  0  0  0
  -27.5583  -37.1804   24.8461 C   0  0  0  0  0  0
  -21.4184  -29.3049   22.3688 N   0  0  0  0  0  0
  -26.4290  -37.3789   23.9411 N   0  0  0  0  0  0
  -24.6849  -31.0674   22.1028 N   0  0  0  0  0  0
  -23.4202  -28.8175   23.3010 O   0  0  0  0  0  0
  -28.3121  -26.4723   20.1716 O   0  0  0  0  0  0
  -26.5608  -34.8920   22.4678 O   0  0  0  0  0  0
  -23.5416  -32.1427   23.7422 O   0  0  0  0  0  0
  -30.6967  -21.6832   20.8755 C   0  0  0  0  0  0
  -31.1867  -23.0095   20.8904 C   0  0  0  0  0  0
  -28.5092  -22.5502   20.2986 C   0  0  0  0  0  0
  -28.9868  -23.9017   20.3061 C   0  0  0  0  0  0
  -29.3422  -21.4222   20.5746 C   0  0  0  0  0  0
  -30.3494  -24.1112   20.6048 C   0  0  0  0  0  0
  -28.9212  -17.8167   19.5054 C   0  0  0  0  0  0
  -29.7136  -18.0709   21.7961 C   0  0  0  0  0  0
  -29.7242  -16.4876   19.3752 C   0  0  0  0  0  0
  -30.4887  -16.7148   21.6690 C   0  0  0  0  0  0
  -29.5824  -18.8351   20.4588 C   0  0  0  0  0  0
  -28.0116  -25.0499   19.9230 C   0  0  0  0  0  0
  -29.9904  -15.7581   20.6429 N   0  0  0  0  0  0
  -28.8051  -20.1016   20.5516 N   0  0  0  0  0  0
  -30.8714  -25.3609   20.6122 F   0  0  0  0  0  0
  -31.4611  -12.4452   19.1499 H   0  0  0  0  0  0
  -30.3149  -11.3757   19.9089 H   0  0  0  0  0  0
  -29.7517  -11.7293   17.4778 H   0  0  0  0  0  0
  -29.6523  -13.4534   17.7348 H   0  0  0  0  0  0
  -27.8507  -11.2918   18.8724 H   0  0  0  0  0  0
  -27.3664  -12.5708   17.7925 H   0  0  0  0  0  0
  -27.6526  -14.2545   19.5028 H   0  0  0  0  0  0
  -28.6930  -12.1215   21.4294 H   0  0  0  0  0  0
  -28.4617  -13.8160   21.7938 H   0  0  0  0  0  0
  -25.2766   -9.5686   22.4758 H   0  0  0  0  0  0
  -24.0007   -7.4635   22.7469 H   0  0  0  0  0  0
  -21.0844   -8.8774   19.8950 H   0  0  0  0  0  0
  -22.3699  -10.9675   19.6164 H   0  0  0  0  0  0
  -21.2006   -7.6148   23.9718 H   0  0  0  0  0  0
  -21.1483   -6.0519   25.9078 H   0  0  0  0  0  0
  -22.0598   -2.7608   23.2841 H   0  0  0  0  0  0
  -22.4097  -11.9883   22.4798 H   0  0  0  0  0  0
  -21.1098  -13.1243   22.2620 H   0  0  0  0  0  0
  -24.6688  -15.8536   20.5382 H   0  0  0  0  0  0
  -26.2962  -15.6295   20.1371 H   0  0  0  0  0  0
  -26.7176  -32.5472   23.1140 H   0  0  0  0  0  0
  -25.0095  -33.9753   25.0466 H   0  0  0  0  0  0
  -22.7083  -31.3138   21.4159 H   0  0  0  0  0  0
  -23.3750  -35.9634   23.3304 H   0  0  0  0  0  0
  -24.3584  -36.8909   22.2049 H   0  0  0  0  0  0
  -23.7240  -37.6505   23.6648 H   0  0  0  0  0  0
  -26.0904  -31.5679   20.6150 H   0  0  0  0  0  0
  -26.8385  -30.8430   22.0079 H   0  0  0  0  0  0
  -28.1040  -28.9850   21.2019 H   0  0  0  0  0  0
  -25.9308  -25.9924   18.9370 H   0  0  0  0  0  0
  -23.9564  -27.3529   18.9867 H   0  0  0  0  0  0
  -23.7446  -30.6212   19.4121 H   0  0  0  0  0  0
  -22.7463  -29.2706   19.8584 H   0  0  0  0  0  0
  -25.1287  -36.1953   25.0826 H   0  0  0  0  0  0
  -20.9976  -28.3256   24.1406 H   0  0  0  0  0  0
  -20.5687  -26.2296   23.3602 H   0  0  0  0  0  0
  -21.6644  -26.7452   22.1191 H   0  0  0  0  0  0
  -19.6911  -25.6296   21.1242 H   0  0  0  0  0  0
  -19.6685  -27.3196   20.6743 H   0  0  0  0  0  0
  -17.4199  -26.6675   21.4030 H   0  0  0  0  0  0
  -18.0333  -26.0071   22.9022 H   0  0  0  0  0  0
  -19.7935  -30.7277   24.2264 H   0  0  0  0  0  0
  -17.5012  -31.6268   24.5164 H   0  0  0  0  0  0
  -15.5352  -30.2987   23.7657 H   0  0  0  0  0  0
  -15.8671  -28.0826   22.7063 H   0  0  0  0  0  0
  -24.5913  -30.7068   25.7811 H   0  0  0  0  0  0
  -24.8922  -32.2887   26.4912 H   0  0  0  0  0  0
  -25.8067  -30.8901   27.0250 H   0  0  0  0  0  0
  -26.2903  -29.6782   24.1208 H   0  0  0  0  0  0
  -27.4025  -29.7267   25.4688 H   0  0  0  0  0  0
  -27.8777  -30.4310   23.9416 H   0  0  0  0  0  0
  -27.2673  -33.3622   26.2102 H   0  0  0  0  0  0
  -28.3863  -32.6895   25.0338 H   0  0  0  0  0  0
  -28.0736  -31.8448   26.5421 H   0  0  0  0  0  0
  -28.2589  -38.0114   24.7530 H   0  0  0  0  0  0
  -28.1091  -36.2647   24.6257 H   0  0  0  0  0  0
  -27.2307  -37.1413   25.8865 H   0  0  0  0  0  0
  -20.9353  -29.8787   21.6917 H   0  0  0  0  0  0
  -26.0174  -38.2862   24.1425 H   0  0  0  0  0  0
  -31.3779  -20.8775   21.1065 H   0  0  0  0  0  0
  -32.2269  -23.1858   21.1209 H   0  0  0  0  0  0
  -27.4692  -22.3824   20.0580 H   0  0  0  0  0  0
  -27.9091  -17.5882   19.8441 H   0  0  0  0  0  0
  -28.8135  -18.2602   18.5144 H   0  0  0  0  0  0
  -30.2174  -18.7021   22.5294 H   0  0  0  0  0  0
  -28.7212  -17.8723   22.2045 H   0  0  0  0  0  0
  -30.6776  -16.7113   18.8914 H   0  0  0  0  0  0
  -29.1944  -15.8281   18.6861 H   0  0  0  0  0  0
  -30.4822  -16.2153   22.6393 H   0  0  0  0  0  0
  -31.5359  -16.9420   21.4582 H   0  0  0  0  0  0
  -30.5787  -19.0593   20.0746 H   0  0  0  0  0  0
  -27.0870  -24.7942   20.4438 H   0  0  0  0  0  0
  -27.8288  -24.9269   18.8546 H   0  0  0  0  0  0
  -27.8124  -20.0215   20.3470 H   0  0  0  0  0  0
  1 25  1  0  0  0
  1 30  2  0  0  0
  1 83  1  0  0  0
  2  3  1  0  0  0
  2 25  1  0  0  0
  2 86  1  0  0  0
  2 87  1  0  0  0
  3  4  1  0  0  0
  3 88  1  0  0  0
  3 89  1  0  0  0
  4  5  1  0  0  0
  4 90  1  0  0  0
  4 91  1  0  0  0
  5  6  1  0  0  0
  5 26  1  0  0  0
  5 92  1  0  0  0
  6 25  1  0  0  0
  6 93  1  0  0  0
  6 94  1  0  0  0
  7  8  2  0  0  0
  7 26  1  0  0  0
  7 29  1  0  0  0
  8  9  1  0  0  0
  8 22  1  0  0  0
  9 10  1  0  0  0
  9 27  2  0  0  0
 10 11  2  0  0  0
 10 15  1  0  0  0
 11 12  1  0  0  0
 11 95  1  0  0  0
 12 13  2  0  0  0
 12 96  1  0  0  0
 13 14  1  0  0  0
 13 31  1  0  0  0
 14 15  2  0  0  0
 14 97  1  0  0  0
 15 98  1  0  0  0
 16 17  2  0  0  0
 16 21  1  0  0  0
 16 31  1  0  0  0
 17 18  1  0  0  0
 17 99  1  0  0  0
 18 19  2  0  0  0
 18100  1  0  0  0
 19 20  1  0  0  0
 19 24  1  0  0  0
 20 21  2  0  0  0
 20101  1  0  0  0
 21 23  1  0  0  0
 22 28  1  0  0  0
 22 32  2  0  0  0
 26 27  1  0  0  0
 28102  1  0  0  0
 28103  1  0  0  0
 29104  1  0  0  0
 29105  1  0  0  0
 33 34  1  0  0  0
 33 66  1  0  0  0
 33 70  2  0  0  0
 34 36  1  0  0  0
 34 59  1  0  0  0
 34106  1  0  0  0
 35 44  2  0  0  0
 35 45  1  0  0  0
 35 68  1  0  0  0
 36 56  1  0  0  0
 36107  1  0  0  0
 37 39  1  0  0  0
 37 47  1  0  0  0
 37 66  1  0  0  0
 37108  1  0  0  0
 38 43  2  0  0  0
 38 46  1  0  0  0
 38 47  1  0  0  0
 39 64  1  0  0  0
 39 67  2  0  0  0
 40 52  1  0  0  0
 40 53  2  0  0  0
 40 58  1  0  0  0
 41109  1  0  0  0
 41110  1  0  0  0
 41111  1  0  0  0
 41 48  1  0  0  0
 42 43  1  0  0  0
 42 66  1  0  0  0
 42112  1  0  0  0
 42113  1  0  0  0
 43 44  1  0  0  0
 44114  1  0  0  0
 45 46  2  0  0  0
 45115  1  0  0  0
 46116  1  0  0  0
 47117  1  0  0  0
 47118  1  0  0  0
 48 56  1  0  0  0
 48 65  1  0  0  0
 48119  1  0  0  0
 49 50  1  0  0  0
 49 53  1  0  0  0
 49 64  1  0  0  0
 49120  1  0  0  0
 50 51  1  0  0  0
 50121  1  0  0  0
 50122  1  0  0  0
 51 52  1  0  0  0
 51123  1  0  0  0
 51124  1  0  0  0
 52125  1  0  0  0
 52126  1  0  0  0
 53 54  1  0  0  0
 54 55  2  0  0  0
 54127  1  0  0  0
 55 57  1  0  0  0
 55128  1  0  0  0
 56 69  2  0  0  0
 57 58  2  0  0  0
 57129  1  0  0  0
 58130  1  0  0  0
 59 60  1  0  0  0
 59 61  1  0  0  0
 59 62  1  0  0  0
 60131  1  0  0  0
 60132  1  0  0  0
 60133  1  0  0  0
 61134  1  0  0  0
 61135  1  0  0  0
 61136  1  0  0  0
 62137  1  0  0  0
 62138  1  0  0  0
 62139  1  0  0  0
 63 65  1  0  0  0
 63140  1  0  0  0
 63141  1  0  0  0
 63142  1  0  0  0
 64143  1  0  0  0
 65144  1  0  0  0
 68 82  1  0  0  0
 71 72  2  0  0  0
 71 75  1  0  0  0
 71145  1  0  0  0
 72 76  1  0  0  0
 72146  1  0  0  0
 73 74  1  0  0  0
 73 75  2  0  0  0
 73147  1  0  0  0
 74 76  2  0  0  0
 74 82  1  0  0  0
 75 84  1  0  0  0
 76 85  1  0  0  0
 77 79  1  0  0  0
 77 81  1  0  0  0
 77148  1  0  0  0
 77149  1  0  0  0
 78 80  1  0  0  0
 78 81  1  0  0  0
 78150  1  0  0  0
 78151  1  0  0  0
 79 83  1  0  0  0
 79152  1  0  0  0
 79153  1  0  0  0
 80 83  1  0  0  0
 80154  1  0  0  0
 80155  1  0  0  0
 81 84  1  0  0  0
 81156  1  0  0  0
 82157  1  0  0  0
 82158  1  0  0  0
 84159  1  0  0  0
M  ISO  4   1 100  68 101  82 101  83 100
M  END
> <chiral flag>
0

> <version>
0

> <s_m_source_file>
/data/baiqing/PycharmProjects/Reinvent-master-3.2/result/LINK_invent/BTK/process_docking_weight1_custom_product_contain_oxygen_bond_distance_aromatic_linkinvent_7_9_3/rearranged_h_0028.sdf

> <i_m_source_file_index>
32

> <r_mmod_Potential_Energy-OPLS-2005>
226.795440673828

> <r_mmod_Stretch_Energy-OPLS-2005>
64.7571487426758

> <r_mmod_Bend_Energy-OPLS-2005>
149.485153198242

> <r_mmod_Torsional_Energy-OPLS-2005>
320.177642822266

> <r_mmod_Improper_Torsional_Energy-OPLS-2005>
12.0906324386597

> <r_mmod_Van_der_Waal_Energy-OPLS-2005>
154.534210205078

> <r_mmod_Electrostatic_Energy-OPLS-2005>
-316.606597900391

> <r_mmod_Solvation_Energy-OPLS-2005>
-202.97151184082

> <b_mmod_Minimization_Converged-OPLS-2005>
0

> <r_mmod_RMS_Derivative-OPLS-2005>
0.298322021961212

$$$$
32
                    3D
 Structure written by MMmdl.
161170  0  0  1  0            999 V2000
  -30.5971  -14.8667   20.4075 C   0  0  0  0  0  0
  -30.4219  -12.5542   19.4722 C   0  0  0  0  0  0
  -29.4924  -12.5321   18.2383 C   0  0  0  0  0  0
  -28.0347  -12.3114   18.6743 C   0  0  0  0  0  0
  -27.6251  -13.2413   19.8407 C   0  0  2  0  0  0
  -28.6695  -13.2555   20.9720 C   0  0  0  0  0  0
  -25.2513  -13.8231   20.5814 C   0  0  0  0  0  0
  -24.1798  -13.0439   20.9314 C   0  0  0  0  0  0
  -24.6414  -11.6931   20.8810 C   0  0  0  0  0  0
  -23.9082  -10.4295   21.0457 C   0  0  0  0  0  0
  -24.3644   -9.4198   21.9212 C   0  0  0  0  0  0
  -23.6304   -8.2225   22.0762 C   0  0  0  0  0  0
  -22.4296   -8.0289   21.3525 C   0  0  0  0  0  0
  -21.9941   -9.0283   20.4641 C   0  0  0  0  0  0
  -22.7276  -10.2160   20.3069 C   0  0  0  0  0  0
  -21.6849   -6.0739   22.5275 C   0  0  0  0  0  0
  -21.4020   -6.5641   23.8210 C   0  0  0  0  0  0
  -21.3656   -5.6807   24.9174 C   0  0  0  0  0  0
  -21.6051   -4.3069   24.7249 C   0  0  0  0  0  0
  -21.8805   -3.8150   23.4370 C   0  0  0  0  0  0
  -21.9185   -4.6957   22.3415 C   0  0  0  0  0  0
  -22.7816  -13.5204   21.1967 C   0  0  0  0  0  0
  -22.1654   -4.2123   21.0996 F   0  0  0  0  0  0
  -21.5649   -3.4565   25.7771 F   0  0  0  0  0  0
  -29.9469  -13.6448   20.3663 N   0  0  0  0  0  0
  -26.2880  -12.9419   20.3302 N   0  0  0  0  0  0
  -25.9325  -11.6565   20.5781 N   0  0  0  0  0  0
  -22.0511  -12.8115   22.0521 N   0  0  0  0  0  0
  -25.4293  -15.1928   20.4318 N   0  0  0  0  0  0
  -31.8099  -14.8749   20.1833 O   0  0  0  0  0  0
  -21.6652   -6.8891   21.4231 O   0  0  0  0  0  0
  -22.3468  -14.5485   20.6834 O   0  0  0  0  0  0
  -24.6369  -31.8474   23.1937 C   0  0  0  0  0  0
  -25.9173  -32.4696   23.8267 C   0  0  1  0  0  0
  -27.2133  -27.1999   20.0911 C   0  0  0  0  0  0
  -25.5948  -33.8522   24.2174 N   0  0  0  0  0  0
  -23.4314  -30.4699   21.5419 C   0  0  2  0  0  0
  -24.8689  -28.8952   20.1034 C   0  0  0  0  0  0
  -22.7519  -29.4602   22.4966 C   0  0  0  0  0  0
  -18.0305  -28.1414   22.8408 C   0  0  0  0  0  0
  -24.1511  -36.7285   23.2647 C   0  0  0  0  0  0
  -25.9774  -30.7352   21.3758 C   0  0  0  0  0  0
  -26.0449  -29.3523   20.7103 C   0  0  0  0  0  0
  -27.2130  -28.5171   20.6872 C   0  0  0  0  0  0
  -26.0172  -26.8202   19.4506 C   0  0  0  0  0  0
  -24.8644  -27.6421   19.4615 C   0  0  0  0  0  0
  -23.6453  -29.7984   20.1599 C   0  0  0  0  0  0
  -25.4144  -36.3035   24.0292 C   0  0  1  0  0  0
  -20.5883  -28.3781   23.1304 C   0  0  2  0  0  0
  -20.6846  -26.9500   22.5473 C   0  0  0  0  0  0
  -19.5878  -26.6459   21.5229 C   0  0  0  0  0  0
  -18.2040  -26.7934   22.1606 C   0  0  0  0  0  0
  -19.1531  -28.8920   23.2820 C   0  0  0  0  0  0
  -18.9456  -30.1509   23.8848 C   0  0  0  0  0  0
  -17.6457  -30.6610   24.0545 C   0  0  0  0  0  0
  -25.9080  -34.9408   23.5046 C   0  0  0  0  0  0
  -16.5381  -29.9106   23.6267 C   0  0  0  0  0  0
  -16.7273  -28.6523   23.0251 C   0  0  0  0  0  0
  -26.4545  -31.6530   25.0666 C   0  0  0  0  0  0
  -25.3773  -31.3662   26.1388 C   0  0  0  0  0  0
  -27.0421  -30.2960   24.6146 C   0  0  0  0  0  0
  -27.6103  -32.4263   25.7426 C   0  0  0  0  0  0
  -27.5577  -37.1795   24.8458 C   0  0  0  0  0  0
  -21.4217  -29.3123   22.3727 N   0  0  0  0  0  0
  -26.4306  -37.3738   23.9380 N   0  0  0  0  0  0
  -24.7019  -31.0366   22.0929 N   0  0  0  0  0  0
  -23.4206  -28.8155   23.3079 O   0  0  0  0  0  0
  -28.3470  -26.3412   20.1342 O   0  0  0  0  0  0
  -26.5697  -34.8929   22.4642 O   0  0  0  0  0  0
  -23.5520  -32.1351   23.7202 O   0  0  0  0  0  0
  -27.1374  -17.8372   23.0169 C   0  0  0  0  0  0
  -28.9317  -16.3311   22.4728 C   0  0  0  0  0  0
  -27.4210  -18.5994   21.8745 C   0  0  0  0  0  0
  -29.1445  -16.9512   21.2154 C   0  0  0  0  0  0
  -28.5359  -18.3070   21.0262 C   0  0  0  0  0  0
  -27.9411  -16.7533   23.3598 C   0  0  0  0  0  0
  -28.9960  -22.7259   18.6748 C   0  0  0  0  0  0
  -28.4807  -24.1908   18.4486 C   0  0  0  0  0  0
  -28.1449  -23.5537   20.7593 C   0  0  0  0  0  0
  -28.3121  -22.1606   19.9388 C   0  0  2  0  0  0
  -28.5086  -24.8373   19.8526 C   0  0  2  0  0  0
  -26.4222  -19.7057   21.5755 C   0  0  0  0  0  0
  -29.0129  -20.8070   20.5904 C   0  0  0  0  0  0
  -29.9211  -16.0997   20.2779 N   0  0  0  0  0  0
  -28.8643  -19.3608   20.1074 O   0  0  0  0  0  0
  -27.6543  -15.8796   24.8193 Cl  0  0  0  0  0  0
  -30.4212  -11.5990   19.9939 H   0  0  0  0  0  0
  -31.4495  -12.7060   19.1367 H   0  0  0  0  0  0
  -29.8021  -11.7518   17.5412 H   0  0  0  0  0  0
  -29.5616  -13.4796   17.7011 H   0  0  0  0  0  0
  -27.9401  -11.2681   18.9774 H   0  0  0  0  0  0
  -27.3580  -12.4469   17.8297 H   0  0  0  0  0  0
  -27.5949  -14.2495   19.4252 H   0  0  0  0  0  0
  -28.3498  -13.9657   21.7300 H   0  0  0  0  0  0
  -28.7511  -12.2895   21.4712 H   0  0  0  0  0  0
  -25.2802   -9.5643   22.4795 H   0  0  0  0  0  0
  -23.9993   -7.4601   22.7466 H   0  0  0  0  0  0
  -21.0884   -8.8846   19.8921 H   0  0  0  0  0  0
  -22.3782  -10.9738   19.6185 H   0  0  0  0  0  0
  -21.2012   -7.6160   23.9697 H   0  0  0  0  0  0
  -21.1498   -6.0564   25.9076 H   0  0  0  0  0  0
  -22.0580   -2.7611   23.2908 H   0  0  0  0  0  0
  -22.4189  -11.9738   22.4806 H   0  0  0  0  0  0
  -21.1149  -13.1102   22.2852 H   0  0  0  0  0  0
  -24.6931  -15.8649   20.6121 H   0  0  0  0  0  0
  -26.3048  -15.6220   20.1590 H   0  0  0  0  0  0
  -26.7199  -32.5297   23.0963 H   0  0  0  0  0  0
  -24.9912  -33.9625   25.0191 H   0  0  0  0  0  0
  -22.7303  -31.2937   21.3980 H   0  0  0  0  0  0
  -23.3740  -35.9651   23.3318 H   0  0  0  0  0  0
  -24.3576  -36.8932   22.2057 H   0  0  0  0  0  0
  -23.7315  -37.6509   23.6690 H   0  0  0  0  0  0
  -26.1188  -31.4939   20.6041 H   0  0  0  0  0  0
  -26.8546  -30.7842   22.0101 H   0  0  0  0  0  0
  -28.1179  -28.8702   21.1574 H   0  0  0  0  0  0
  -25.9657  -25.8742   18.9334 H   0  0  0  0  0  0
  -23.9664  -27.3017   18.9655 H   0  0  0  0  0  0
  -23.7717  -30.5799   19.4093 H   0  0  0  0  0  0
  -22.7520  -29.2467   19.8574 H   0  0  0  0  0  0
  -25.1342  -36.1856   25.0777 H   0  0  0  0  0  0
  -20.9928  -28.3461   24.1452 H   0  0  0  0  0  0
  -20.5787  -26.2384   23.3682 H   0  0  0  0  0  0
  -21.6747  -26.7673   22.1304 H   0  0  0  0  0  0
  -19.7198  -25.6417   21.1224 H   0  0  0  0  0  0
  -19.6834  -27.3331   20.6810 H   0  0  0  0  0  0
  -17.4315  -26.6554   21.4016 H   0  0  0  0  0  0
  -18.0524  -26.0113   22.9039 H   0  0  0  0  0  0
  -19.7894  -30.7363   24.2249 H   0  0  0  0  0  0
  -17.5006  -31.6258   24.5198 H   0  0  0  0  0  0
  -15.5380  -30.2999   23.7582 H   0  0  0  0  0  0
  -15.8676  -28.0876   22.6901 H   0  0  0  0  0  0
  -24.5959  -30.7000   25.7698 H   0  0  0  0  0  0
  -24.8971  -32.2830   26.4815 H   0  0  0  0  0  0
  -25.8122  -30.8827   27.0143 H   0  0  0  0  0  0
  -26.2995  -29.6629   24.1281 H   0  0  0  0  0  0
  -27.4254  -29.7285   25.4632 H   0  0  0  0  0  0
  -27.8794  -30.4260   23.9290 H   0  0  0  0  0  0
  -27.2720  -33.3569   26.1999 H   0  0  0  0  0  0
  -28.3913  -32.6805   25.0232 H   0  0  0  0  0  0
  -28.0766  -31.8370   26.5336 H   0  0  0  0  0  0
  -28.2606  -38.0082   24.7466 H   0  0  0  0  0  0
  -28.1069  -36.2607   24.6328 H   0  0  0  0  0  0
  -27.2285  -37.1480   25.8866 H   0  0  0  0  0  0
  -20.9392  -29.8845   21.6941 H   0  0  0  0  0  0
  -26.0172  -38.2809   24.1384 H   0  0  0  0  0  0
  -26.3056  -18.0983   23.6565 H   0  0  0  0  0  0
  -29.4965  -15.4687   22.7804 H   0  0  0  0  0  0
  -30.0704  -22.7713   18.8612 H   0  0  0  0  0  0
  -28.8780  -22.0746   17.8089 H   0  0  0  0  0  0
  -27.4747  -24.1789   18.0315 H   0  0  0  0  0  0
  -29.1166  -24.7077   17.7306 H   0  0  0  0  0  0
  -28.7686  -23.5357   21.6537 H   0  0  0  0  0  0
  -27.1205  -23.6390   21.1224 H   0  0  0  0  0  0
  -27.2973  -21.8858   19.6495 H   0  0  0  0  0  0
  -29.5915  -24.8546   19.9953 H   0  0  0  0  0  0
  -26.4879  -20.0575   20.5503 H   0  0  0  0  0  0
  -26.5624  -20.5484   22.2553 H   0  0  0  0  0  0
  -25.4081  -19.3236   21.7009 H   0  0  0  0  0  0
  -28.8294  -20.8448   21.6645 H   0  0  0  0  0  0
  -30.0876  -20.9669   20.5262 H   0  0  0  0  0  0
  -30.3768  -16.6719   19.5806 H   0  0  0  0  0  0
  1 25  1  0  0  0
  1 30  2  0  0  0
  1 84  1  0  0  0
  2  3  1  0  0  0
  2 25  1  0  0  0
  2 87  1  0  0  0
  2 88  1  0  0  0
  3  4  1  0  0  0
  3 89  1  0  0  0
  3 90  1  0  0  0
  4  5  1  0  0  0
  4 91  1  0  0  0
  4 92  1  0  0  0
  5  6  1  0  0  0
  5 26  1  0  0  0
  5 93  1  0  0  0
  6 25  1  0  0  0
  6 94  1  0  0  0
  6 95  1  0  0  0
  7  8  2  0  0  0
  7 26  1  0  0  0
  7 29  1  0  0  0
  8  9  1  0  0  0
  8 22  1  0  0  0
  9 10  1  0  0  0
  9 27  2  0  0  0
 10 11  2  0  0  0
 10 15  1  0  0  0
 11 12  1  0  0  0
 11 96  1  0  0  0
 12 13  2  0  0  0
 12 97  1  0  0  0
 13 14  1  0  0  0
 13 31  1  0  0  0
 14 15  2  0  0  0
 14 98  1  0  0  0
 15 99  1  0  0  0
 16 17  2  0  0  0
 16 21  1  0  0  0
 16 31  1  0  0  0
 17 18  1  0  0  0
 17100  1  0  0  0
 18 19  2  0  0  0
 18101  1  0  0  0
 19 20  1  0  0  0
 19 24  1  0  0  0
 20 21  2  0  0  0
 20102  1  0  0  0
 21 23  1  0  0  0
 22 28  1  0  0  0
 22 32  2  0  0  0
 26 27  1  0  0  0
 28103  1  0  0  0
 28104  1  0  0  0
 29105  1  0  0  0
 29106  1  0  0  0
 33 34  1  0  0  0
 33 66  1  0  0  0
 33 70  2  0  0  0
 34 36  1  0  0  0
 34 59  1  0  0  0
 34107  1  0  0  0
 35 44  2  0  0  0
 35 45  1  0  0  0
 35 68  1  0  0  0
 36 56  1  0  0  0
 36108  1  0  0  0
 37 39  1  0  0  0
 37 47  1  0  0  0
 37 66  1  0  0  0
 37109  1  0  0  0
 38 43  2  0  0  0
 38 46  1  0  0  0
 38 47  1  0  0  0
 39 64  1  0  0  0
 39 67  2  0  0  0
 40 52  1  0  0  0
 40 53  2  0  0  0
 40 58  1  0  0  0
 41110  1  0  0  0
 41111  1  0  0  0
 41112  1  0  0  0
 41 48  1  0  0  0
 42 43  1  0  0  0
 42 66  1  0  0  0
 42113  1  0  0  0
 42114  1  0  0  0
 43 44  1  0  0  0
 44115  1  0  0  0
 45 46  2  0  0  0
 45116  1  0  0  0
 46117  1  0  0  0
 47118  1  0  0  0
 47119  1  0  0  0
 48 56  1  0  0  0
 48 65  1  0  0  0
 48120  1  0  0  0
 49 50  1  0  0  0
 49 53  1  0  0  0
 49 64  1  0  0  0
 49121  1  0  0  0
 50 51  1  0  0  0
 50122  1  0  0  0
 50123  1  0  0  0
 51 52  1  0  0  0
 51124  1  0  0  0
 51125  1  0  0  0
 52126  1  0  0  0
 52127  1  0  0  0
 53 54  1  0  0  0
 54 55  2  0  0  0
 54128  1  0  0  0
 55 57  1  0  0  0
 55129  1  0  0  0
 56 69  2  0  0  0
 57 58  2  0  0  0
 57130  1  0  0  0
 58131  1  0  0  0
 59 60  1  0  0  0
 59 61  1  0  0  0
 59 62  1  0  0  0
 60132  1  0  0  0
 60133  1  0  0  0
 60134  1  0  0  0
 61135  1  0  0  0
 61136  1  0  0  0
 61137  1  0  0  0
 62138  1  0  0  0
 62139  1  0  0  0
 62140  1  0  0  0
 63 65  1  0  0  0
 63141  1  0  0  0
 63142  1  0  0  0
 63143  1  0  0  0
 64144  1  0  0  0
 65145  1  0  0  0
 68 81  1  0  0  0
 71 73  2  0  0  0
 71 76  1  0  0  0
 71146  1  0  0  0
 72 74  1  0  0  0
 72 76  2  0  0  0
 72147  1  0  0  0
 73 75  1  0  0  0
 73 82  1  0  0  0
 74 75  2  0  0  0
 74 84  1  0  0  0
 75 85  1  0  0  0
 76 86  1  0  0  0
 77 78  1  0  0  0
 77 80  1  0  0  0
 77148  1  0  0  0
 77149  1  0  0  0
 78 81  1  0  0  0
 78150  1  0  0  0
 78151  1  0  0  0
 79 80  1  0  0  0
 79 81  1  0  0  0
 79152  1  0  0  0
 79153  1  0  0  0
 80 83  1  0  0  0
 80154  1  0  0  0
 81155  1  0  0  0
 82156  1  0  0  0
 82157  1  0  0  0
 82158  1  0  0  0
 83 85  1  0  0  0
 83159  1  0  0  0
 83160  1  0  0  0
 84161  1  0  0  0
M  ISO  4   1 100  68 101  81 101  84 100
M  END
> <chiral flag>
0

> <version>
0

> <s_m_source_file>
/data/baiqing/PycharmProjects/Reinvent-master-3.2/result/LINK_invent/BTK/process_docking_weight1_custom_product_contain_oxygen_bond_distance_aromatic_linkinvent_7_9_3/rearranged_h_0028.sdf

> <i_m_source_file_index>
33

> <r_mmod_Potential_Energy-OPLS-2005>
565.712829589844

> <r_mmod_Stretch_Energy-OPLS-2005>
183.820129394531

> <r_mmod_Bend_Energy-OPLS-2005>
355.420562744141

> <r_mmod_Torsional_Energy-OPLS-2005>
345.793884277344

> <r_mmod_Improper_Torsional_Energy-OPLS-2005>
14.0877552032471

> <r_mmod_Van_der_Waal_Energy-OPLS-2005>
135.28044128418

> <r_mmod_Electrostatic_Energy-OPLS-2005>
-407.905487060547

> <r_mmod_Solvation_Energy-OPLS-2005>
-194.379028320312

> <b_mmod_Minimization_Converged-OPLS-2005>
0

> <r_mmod_RMS_Derivative-OPLS-2005>
7.05229568481445

$$$$
33
                    3D
 Structure written by MMmdl.
194205  0  0  1  0            999 V2000
  -30.6622  -14.5656   20.5346 C   0  0  0  0  0  0
  -30.4386  -12.3604   19.4395 C   0  0  0  0  0  0
  -29.5118  -12.5189   18.2147 C   0  0  0  0  0  0
  -28.0323  -12.3614   18.6240 C   0  0  0  0  0  0
  -27.6625  -13.2128   19.8676 C   0  0  2  0  0  0
  -28.7037  -13.0306   20.9947 C   0  0  0  0  0  0
  -25.2599  -13.8158   20.5726 C   0  0  0  0  0  0
  -24.1826  -13.0455   20.9195 C   0  0  0  0  0  0
  -24.6396  -11.6917   20.8733 C   0  0  0  0  0  0
  -23.9059  -10.4310   21.0425 C   0  0  0  0  0  0
  -24.3588   -9.4212   21.9189 C   0  0  0  0  0  0
  -23.6262   -8.2266   22.0748 C   0  0  0  0  0  0
  -22.4245   -8.0322   21.3567 C   0  0  0  0  0  0
  -21.9897   -9.0291   20.4661 C   0  0  0  0  0  0
  -22.7236  -10.2159   20.3077 C   0  0  0  0  0  0
  -21.6849   -6.0762   22.5305 C   0  0  0  0  0  0
  -21.4014   -6.5654   23.8247 C   0  0  0  0  0  0
  -21.3638   -5.6781   24.9199 C   0  0  0  0  0  0
  -21.6035   -4.3055   24.7218 C   0  0  0  0  0  0
  -21.8797   -3.8160   23.4335 C   0  0  0  0  0  0
  -21.9179   -4.6986   22.3405 C   0  0  0  0  0  0
  -22.7837  -13.5287   21.1838 C   0  0  0  0  0  0
  -22.1651   -4.2192   21.0978 F   0  0  0  0  0  0
  -21.5601   -3.4521   25.7721 F   0  0  0  0  0  0
  -30.0332  -13.3545   20.4446 N   0  0  0  0  0  0
  -26.3025  -12.9348   20.3320 N   0  0  0  0  0  0
  -25.9330  -11.6486   20.5685 N   0  0  0  0  0  0
  -22.0412  -12.8336   22.0387 N   0  0  0  0  0  0
  -25.4294  -15.1898   20.4222 N   0  0  0  0  0  0
  -31.7883  -14.7548   20.0720 O   0  0  0  0  0  0
  -21.6614   -6.8919   21.4290 O   0  0  0  0  0  0
  -22.3551  -14.5585   20.6661 O   0  0  0  0  0  0
  -24.6191  -31.8643   23.2075 C   0  0  0  0  0  0
  -25.9059  -32.4812   23.8395 C   0  0  1  0  0  0
  -27.2489  -27.4125   20.0967 C   0  0  0  0  0  0
  -25.5895  -33.8610   24.2315 N   0  0  0  0  0  0
  -23.4101  -30.4837   21.5480 C   0  0  2  0  0  0
  -24.8634  -28.9472   20.1099 C   0  0  0  0  0  0
  -22.7450  -29.4614   22.4987 C   0  0  0  0  0  0
  -18.0279  -28.1383   22.8499 C   0  0  0  0  0  0
  -24.1487  -36.7303   23.2634 C   0  0  0  0  0  0
  -25.9397  -30.8194   21.3695 C   0  0  0  0  0  0
  -26.0191  -29.4494   20.7193 C   0  0  0  0  0  0
  -27.2112  -28.6822   20.7245 C   0  0  0  0  0  0
  -26.0764  -26.9272   19.4803 C   0  0  0  0  0  0
  -24.8862  -27.6845   19.4886 C   0  0  0  0  0  0
  -23.6241  -29.8161   20.1612 C   0  0  0  0  0  0
  -25.4104  -36.3093   24.0333 C   0  0  1  0  0  0
  -20.5873  -28.3668   23.1318 C   0  0  2  0  0  0
  -20.6771  -26.9397   22.5433 C   0  0  0  0  0  0
  -19.5736  -26.6388   21.5228 C   0  0  0  0  0  0
  -18.1913  -26.7937   22.1628 C   0  0  0  0  0  0
  -19.1534  -28.8838   23.2911 C   0  0  0  0  0  0
  -18.9464  -30.1446   23.8923 C   0  0  0  0  0  0
  -17.6461  -30.6576   24.0569 C   0  0  0  0  0  0
  -25.9036  -34.9462   23.5121 C   0  0  0  0  0  0
  -16.5350  -29.9083   23.6326 C   0  0  0  0  0  0
  -16.7269  -28.6501   23.0353 C   0  0  0  0  0  0
  -26.4479  -31.6602   25.0737 C   0  0  0  0  0  0
  -25.3740  -31.3726   26.1493 C   0  0  0  0  0  0
  -27.0299  -30.3038   24.6109 C   0  0  0  0  0  0
  -27.6058  -32.4329   25.7482 C   0  0  0  0  0  0
  -27.5577  -37.1798   24.8460 C   0  0  0  0  0  0
  -21.4171  -29.3015   22.3721 N   0  0  0  0  0  0
  -26.4281  -37.3783   23.9410 N   0  0  0  0  0  0
  -24.6732  -31.0717   22.0992 N   0  0  0  0  0  0
  -23.4211  -28.8176   23.3055 O   0  0  0  0  0  0
  -28.3887  -26.6246   20.1482 O   0  0  0  0  0  0
  -26.5599  -34.8909   22.4685 O   0  0  0  0  0  0
  -23.5368  -32.1410   23.7447 O   0  0  0  0  0  0
  -29.9500  -19.2123   22.0475 C   0  0  0  0  0  0
  -30.2583  -17.6830   19.7530 C   0  0  0  0  0  0
  -30.1494  -19.9109   20.8338 C   0  0  0  0  0  0
  -29.8976  -17.7987   22.1361 C   0  0  0  0  0  0
  -30.3200  -19.1134   19.6574 C   0  0  0  0  0  0
  -30.0721  -17.0015   20.9825 C   0  0  0  0  0  0
  -27.1686  -22.1191   12.8407 C   0  0  0  0  0  0
  -28.3845  -22.9518   13.2728 C   0  0  0  0  0  0
  -31.3853  -23.2754   17.8431 C   0  0  0  0  0  0
  -30.7684  -24.6720   17.9987 C   0  0  0  0  0  0
  -27.3990  -20.7082   13.3994 C   0  0  0  0  0  0
  -29.2523  -22.0225   14.1306 C   0  0  0  0  0  0
  -31.0296  -18.6962   16.2644 C   0  0  0  0  0  0
  -31.6426  -19.0720   17.6187 C   0  0  0  0  0  0
  -29.4123  -19.8470   17.5243 C   0  0  0  0  0  0
  -31.5134  -22.5872   19.2074 C   0  0  0  0  0  0
  -29.5431  -23.7592   20.0631 C   0  0  0  0  0  0
  -29.4285  -24.6576   18.7749 C   0  0  1  0  0  0
  -28.3147  -20.8989   14.6135 C   0  0  0  0  0  0
  -30.0006  -19.8113   16.1094 C   0  0  2  0  0  0
  -29.6391  -17.1516   23.4827 C   0  0  0  0  0  0
  -30.1822  -21.4758   20.9788 C   0  0  0  0  0  0
  -28.9318  -26.1519   18.9089 C   0  0  0  0  0  0
  -30.5709  -19.7044   18.4055 N   0  0  0  0  0  0
  -29.9220  -15.5652   21.0775 N   0  0  0  0  0  0
  -30.1644  -22.4007   19.7975 N   0  3  2  0  0  0
  -29.0056  -19.6447   15.0239 N   0  3  0  0  0  0
  -31.4823  -12.4787   19.1419 H   0  0  0  0  0  0
  -30.3604  -11.3561   19.8595 H   0  0  0  0  0  0
  -29.7624  -11.7809   17.4510 H   0  0  0  0  0  0
  -29.6685  -13.4962   17.7549 H   0  0  0  0  0  0
  -27.8574  -11.3053   18.8355 H   0  0  0  0  0  0
  -27.3838  -12.6212   17.7875 H   0  0  0  0  0  0
  -27.6876  -14.2525   19.5439 H   0  0  0  0  0  0
  -28.6966  -12.0028   21.3596 H   0  0  0  0  0  0
  -28.4488  -13.6476   21.8570 H   0  0  0  0  0  0
  -25.2737   -9.5640   22.4760 H   0  0  0  0  0  0
  -23.9964   -7.4621   22.7416 H   0  0  0  0  0  0
  -21.0851   -8.8823   19.8943 H   0  0  0  0  0  0
  -22.3728  -10.9700   19.6167 H   0  0  0  0  0  0
  -21.2053   -7.6166   23.9778 H   0  0  0  0  0  0
  -21.1457   -6.0508   25.9103 H   0  0  0  0  0  0
  -22.0593   -2.7633   23.2824 H   0  0  0  0  0  0
  -22.3961  -12.0059   22.4928 H   0  0  0  0  0  0
  -21.1007  -13.1430   22.2473 H   0  0  0  0  0  0
  -24.6607  -15.8419   20.5403 H   0  0  0  0  0  0
  -26.2880  -15.6415   20.1333 H   0  0  0  0  0  0
  -26.7142  -32.5529   23.1169 H   0  0  0  0  0  0
  -25.0066  -33.9773   25.0475 H   0  0  0  0  0  0
  -22.6977  -31.2990   21.4079 H   0  0  0  0  0  0
  -23.3743  -35.9645   23.3299 H   0  0  0  0  0  0
  -24.3578  -36.8920   22.2047 H   0  0  0  0  0  0
  -23.7245  -37.6505   23.6657 H   0  0  0  0  0  0
  -26.0548  -31.5826   20.6000 H   0  0  0  0  0  0
  -26.8254  -30.8762   21.9888 H   0  0  0  0  0  0
  -28.0995  -29.0562   21.2171 H   0  0  0  0  0  0
  -26.0766  -25.9536   19.0112 H   0  0  0  0  0  0
  -23.9992  -27.2892   19.0144 H   0  0  0  0  0  0
  -23.7323  -30.5928   19.4036 H   0  0  0  0  0  0
  -22.7488  -29.2362   19.8649 H   0  0  0  0  0  0
  -25.1277  -36.1947   25.0824 H   0  0  0  0  0  0
  -20.9939  -28.3232   24.1443 H   0  0  0  0  0  0
  -20.5674  -26.2264   23.3626 H   0  0  0  0  0  0
  -21.6647  -26.7439   22.1218 H   0  0  0  0  0  0
  -19.6899  -25.6301   21.1239 H   0  0  0  0  0  0
  -19.6673  -27.3221   20.6771 H   0  0  0  0  0  0
  -17.4191  -26.6706   21.4026 H   0  0  0  0  0  0
  -18.0286  -26.0077   22.9006 H   0  0  0  0  0  0
  -19.7933  -30.7279   24.2305 H   0  0  0  0  0  0
  -17.5005  -31.6258   24.5165 H   0  0  0  0  0  0
  -15.5354  -30.3000   23.7631 H   0  0  0  0  0  0
  -15.8667  -28.0834   22.7058 H   0  0  0  0  0  0
  -24.5921  -30.7049   25.7849 H   0  0  0  0  0  0
  -24.8933  -32.2896   26.4918 H   0  0  0  0  0  0
  -25.8109  -30.8928   27.0264 H   0  0  0  0  0  0
  -26.2837  -29.6807   24.1165 H   0  0  0  0  0  0
  -27.4071  -29.7261   25.4556 H   0  0  0  0  0  0
  -27.8680  -30.4356   23.9259 H   0  0  0  0  0  0
  -27.2691  -33.3653   26.2028 H   0  0  0  0  0  0
  -28.3877  -32.6846   25.0301 H   0  0  0  0  0  0
  -28.0714  -31.8475   26.5420 H   0  0  0  0  0  0
  -28.2587  -38.0098   24.7504 H   0  0  0  0  0  0
  -28.1072  -36.2629   24.6281 H   0  0  0  0  0  0
  -27.2303  -37.1448   25.8863 H   0  0  0  0  0  0
  -20.9346  -29.8748   21.6945 H   0  0  0  0  0  0
  -26.0166  -38.2857   24.1417 H   0  0  0  0  0  0
  -29.8357  -19.7904   22.9536 H   0  0  0  0  0  0
  -30.3459  -17.0848   18.8579 H   0  0  0  0  0  0
  -27.0588  -22.0964   11.7550 H   0  0  0  0  0  0
  -26.2552  -22.5553   13.2533 H   0  0  0  0  0  0
  -28.0619  -23.8199   13.8516 H   0  0  0  0  0  0
  -28.9414  -23.3289   12.4132 H   0  0  0  0  0  0
  -32.3625  -23.3511   17.3677 H   0  0  0  0  0  0
  -30.7719  -22.6704   17.1801 H   0  0  0  0  0  0
  -30.6248  -25.1231   17.0137 H   0  0  0  0  0  0
  -31.4852  -25.3089   18.5199 H   0  0  0  0  0  0
  -27.9035  -20.1065   12.6406 H   0  0  0  0  0  0
  -26.4657  -20.2058   13.6496 H   0  0  0  0  0  0
  -29.7255  -22.5677   14.9472 H   0  0  0  0  0  0
  -30.0468  -21.6038   13.5099 H   0  0  0  0  0  0
  -30.5554  -17.7145   16.3228 H   0  0  0  0  0  0
  -31.7744  -18.6687   15.4695 H   0  0  0  0  0  0
  -32.4305  -19.8111   17.4688 H   0  0  0  0  0  0
  -32.1207  -18.2144   18.0938 H   0  0  0  0  0  0
  -28.7173  -19.0188   17.6741 H   0  0  0  0  0  0
  -28.8724  -20.7759   17.7091 H   0  0  0  0  0  0
  -32.1301  -23.1949   19.8735 H   0  0  0  0  0  0
  -32.0479  -21.6435   19.0989 H   0  0  0  0  0  0
  -28.5486  -23.6388   20.4968 H   0  0  0  0  0  0
  -30.1391  -24.2850   20.8088 H   0  0  0  0  0  0
  -28.6986  -24.1513   18.1404 H   0  0  0  0  0  0
  -27.7164  -21.2708   15.4490 H   0  0  0  0  0  0
  -30.5802  -20.7167   15.9352 H   0  0  0  0  0  0
  -29.6987  -17.8769   24.2941 H   0  0  0  0  0  0
  -30.3688  -16.3660   23.6838 H   0  0  0  0  0  0
  -28.6402  -16.7158   23.5044 H   0  0  0  0  0  0
  -31.0363  -21.7423   21.6052 H   0  0  0  0  0  0
  -29.3078  -21.7237   21.5811 H   0  0  0  0  0  0
  -28.2728  -26.3797   18.0686 H   0  0  0  0  0  0
  -29.7818  -26.8166   18.7522 H   0  0  0  0  0  0
  -29.1017  -15.2496   21.5727 H   0  0  0  0  0  0
  -29.5969  -21.9352   19.1070 H   0  0  0  0  0  0
  -29.4766  -19.2702   14.2152 H   0  0  0  0  0  0
  -28.3127  -18.9676   15.3067 H   0  0  0  0  0  0
  1 25  1  0  0  0
  1 30  2  0  0  0
  1 95  1  0  0  0
  2  3  1  0  0  0
  2 25  1  0  0  0
  2 98  1  0  0  0
  2 99  1  0  0  0
  3  4  1  0  0  0
  3100  1  0  0  0
  3101  1  0  0  0
  4  5  1  0  0  0
  4102  1  0  0  0
  4103  1  0  0  0
  5  6  1  0  0  0
  5 26  1  0  0  0
  5104  1  0  0  0
  6 25  1  0  0  0
  6105  1  0  0  0
  6106  1  0  0  0
  7  8  2  0  0  0
  7 26  1  0  0  0
  7 29  1  0  0  0
  8  9  1  0  0  0
  8 22  1  0  0  0
  9 10  1  0  0  0
  9 27  2  0  0  0
 10 11  2  0  0  0
 10 15  1  0  0  0
 11 12  1  0  0  0
 11107  1  0  0  0
 12 13  2  0  0  0
 12108  1  0  0  0
 13 14  1  0  0  0
 13 31  1  0  0  0
 14 15  2  0  0  0
 14109  1  0  0  0
 15110  1  0  0  0
 16 17  2  0  0  0
 16 21  1  0  0  0
 16 31  1  0  0  0
 17 18  1  0  0  0
 17111  1  0  0  0
 18 19  2  0  0  0
 18112  1  0  0  0
 19 20  1  0  0  0
 19 24  1  0  0  0
 20 21  2  0  0  0
 20113  1  0  0  0
 21 23  1  0  0  0
 22 28  1  0  0  0
 22 32  2  0  0  0
 26 27  1  0  0  0
 28114  1  0  0  0
 28115  1  0  0  0
 29116  1  0  0  0
 29117  1  0  0  0
 33 34  1  0  0  0
 33 66  1  0  0  0
 33 70  2  0  0  0
 34 36  1  0  0  0
 34 59  1  0  0  0
 34118  1  0  0  0
 35 44  2  0  0  0
 35 45  1  0  0  0
 35 68  1  0  0  0
 36 56  1  0  0  0
 36119  1  0  0  0
 37 39  1  0  0  0
 37 47  1  0  0  0
 37 66  1  0  0  0
 37120  1  0  0  0
 38 43  2  0  0  0
 38 46  1  0  0  0
 38 47  1  0  0  0
 39 64  1  0  0  0
 39 67  2  0  0  0
 40 52  1  0  0  0
 40 53  2  0  0  0
 40 58  1  0  0  0
 41121  1  0  0  0
 41122  1  0  0  0
 41123  1  0  0  0
 41 48  1  0  0  0
 42 43  1  0  0  0
 42 66  1  0  0  0
 42124  1  0  0  0
 42125  1  0  0  0
 43 44  1  0  0  0
 44126  1  0  0  0
 45 46  2  0  0  0
 45127  1  0  0  0
 46128  1  0  0  0
 47129  1  0  0  0
 47130  1  0  0  0
 48 56  1  0  0  0
 48 65  1  0  0  0
 48131  1  0  0  0
 49 50  1  0  0  0
 49 53  1  0  0  0
 49 64  1  0  0  0
 49132  1  0  0  0
 50 51  1  0  0  0
 50133  1  0  0  0
 50134  1  0  0  0
 51 52  1  0  0  0
 51135  1  0  0  0
 51136  1  0  0  0
 52137  1  0  0  0
 52138  1  0  0  0
 53 54  1  0  0  0
 54 55  2  0  0  0
 54139  1  0  0  0
 55 57  1  0  0  0
 55140  1  0  0  0
 56 69  2  0  0  0
 57 58  2  0  0  0
 57141  1  0  0  0
 58142  1  0  0  0
 59 60  1  0  0  0
 59 61  1  0  0  0
 59 62  1  0  0  0
 60143  1  0  0  0
 60144  1  0  0  0
 60145  1  0  0  0
 61146  1  0  0  0
 61147  1  0  0  0
 61148  1  0  0  0
 62149  1  0  0  0
 62150  1  0  0  0
 62151  1  0  0  0
 63 65  1  0  0  0
 63152  1  0  0  0
 63153  1  0  0  0
 63154  1  0  0  0
 64155  1  0  0  0
 65156  1  0  0  0
 68 93  1  0  0  0
 71 73  2  0  0  0
 71 74  1  0  0  0
 71157  1  0  0  0
 72 75  2  0  0  0
 72 76  1  0  0  0
 72158  1  0  0  0
 73 75  1  0  0  0
 73 92  1  0  0  0
 74 76  2  0  0  0
 74 91  1  0  0  0
 75 94  1  0  0  0
 76 95  1  0  0  0
 77 78  1  0  0  0
 77 81  1  0  0  0
 77159  1  0  0  0
 77160  1  0  0  0
 78 82  1  0  0  0
 78161  1  0  0  0
 78162  1  0  0  0
 79 80  1  0  0  0
 79 86  1  0  0  0
 79163  1  0  0  0
 79164  1  0  0  0
 80 88  1  0  0  0
 80165  1  0  0  0
 80166  1  0  0  0
 81 89  1  0  0  0
 81167  1  0  0  0
 81168  1  0  0  0
 82 89  1  0  0  0
 82169  1  0  0  0
 82170  1  0  0  0
 83 84  1  0  0  0
 83 90  1  0  0  0
 83171  1  0  0  0
 83172  1  0  0  0
 84 94  1  0  0  0
 84173  1  0  0  0
 84174  1  0  0  0
 85 90  1  0  0  0
 85 94  1  0  0  0
 85175  1  0  0  0
 85176  1  0  0  0
 86 96  1  0  0  0
 86177  1  0  0  0
 86178  1  0  0  0
 87 88  1  0  0  0
 87 96  1  0  0  0
 87179  1  0  0  0
 87180  1  0  0  0
 88 93  1  0  0  0
 88181  1  0  0  0
 89 97  1  0  0  0
 89182  1  0  0  0
 90 97  1  0  0  0
 90183  1  0  0  0
 91184  1  0  0  0
 91185  1  0  0  0
 91186  1  0  0  0
 92187  1  0  0  0
 92188  1  0  0  0
 92 96  1  0  0  0
 93189  1  0  0  0
 93190  1  0  0  0
 95191  1  0  0  0
 96192  1  0  0  0
 97193  1  0  0  0
 97194  1  0  0  0
M  CHG  2  96   1  97   1
M  ISO  4   1 100  68 101  93 101  95 100
M  END
> <chiral flag>
0

> <version>
0

> <s_m_source_file>
/data/baiqing/PycharmProjects/Reinvent-master-3.2/result/LINK_invent/BTK/process_docking_weight1_custom_product_contain_oxygen_bond_distance_aromatic_linkinvent_7_9_3/rearranged_h_0028.sdf

> <i_m_source_file_index>
34

> <r_mmod_Potential_Energy-OPLS-2005>
2.34768176078796

> <r_mmod_Stretch_Energy-OPLS-2005>
61.4806327819824

> <r_mmod_Bend_Energy-OPLS-2005>
218.022033691406

> <r_mmod_Torsional_Energy-OPLS-2005>
422.899566650391

> <r_mmod_Improper_Torsional_Energy-OPLS-2005>
8.69305896759033

> <r_mmod_Van_der_Waal_Energy-OPLS-2005>
143.523696899414

> <r_mmod_Electrostatic_Energy-OPLS-2005>
2.98625326156616

> <r_mmod_Solvation_Energy-OPLS-2005>
-879.384216308594

> <b_mmod_Minimization_Converged-OPLS-2005>
0

> <r_mmod_RMS_Derivative-OPLS-2005>
5.13889932632446

$$$$
34
                    3D
 Structure written by MMmdl.
155164  0  0  1  0            999 V2000
  -30.5632  -14.7466   20.4733 C   0  0  0  0  0  0
  -30.4315  -12.4537   19.4593 C   0  0  0  0  0  0
  -29.5160  -12.5245   18.2173 C   0  0  0  0  0  0
  -28.0333  -12.3554   18.6152 C   0  0  0  0  0  0
  -27.6339  -13.2290   19.8392 C   0  0  2  0  0  0
  -28.6770  -13.1426   20.9715 C   0  0  0  0  0  0
  -25.2466  -13.8154   20.5624 C   0  0  0  0  0  0
  -24.1796  -13.0402   20.9171 C   0  0  0  0  0  0
  -24.6384  -11.6877   20.8695 C   0  0  0  0  0  0
  -23.9043  -10.4263   21.0370 C   0  0  0  0  0  0
  -24.3607   -9.4192   21.9157 C   0  0  0  0  0  0
  -23.6297   -8.2230   22.0738 C   0  0  0  0  0  0
  -22.4279   -8.0254   21.3548 C   0  0  0  0  0  0
  -21.9889   -9.0210   20.4643 C   0  0  0  0  0  0
  -22.7201  -10.2093   20.3043 C   0  0  0  0  0  0
  -21.6860   -6.0719   22.5285 C   0  0  0  0  0  0
  -21.4016   -6.5619   23.8219 C   0  0  0  0  0  0
  -21.3683   -5.6778   24.9181 C   0  0  0  0  0  0
  -21.6044   -4.3037   24.7227 C   0  0  0  0  0  0
  -21.8813   -3.8124   23.4349 C   0  0  0  0  0  0
  -21.9196   -4.6950   22.3404 C   0  0  0  0  0  0
  -22.7828  -13.5186   21.1861 C   0  0  0  0  0  0
  -22.1660   -4.2141   21.0983 F   0  0  0  0  0  0
  -21.5642   -3.4512   25.7734 F   0  0  0  0  0  0
  -29.9723  -13.5074   20.3885 N   0  0  0  0  0  0
  -26.2892  -12.9362   20.3178 N   0  0  0  0  0  0
  -25.9309  -11.6503   20.5686 N   0  0  0  0  0  0
  -22.0461  -12.8230   22.0440 N   0  0  0  0  0  0
  -25.4022  -15.1908   20.4039 N   0  0  0  0  0  0
  -31.7737  -14.8745   20.2657 O   0  0  0  0  0  0
  -21.6652   -6.8852   21.4246 O   0  0  0  0  0  0
  -22.3513  -14.5479   20.6670 O   0  0  0  0  0  0
  -24.6267  -31.8550   23.1974 C   0  0  0  0  0  0
  -25.9111  -32.4752   23.8307 C   0  0  1  0  0  0
  -27.2287  -27.2676   20.1628 C   0  0  0  0  0  0
  -25.5900  -33.8561   24.2213 N   0  0  0  0  0  0
  -23.4248  -30.4722   21.5392 C   0  0  2  0  0  0
  -24.8792  -28.9147   20.1138 C   0  0  0  0  0  0
  -22.7478  -29.4571   22.4911 C   0  0  0  0  0  0
  -18.0280  -28.1370   22.8495 C   0  0  0  0  0  0
  -24.1481  -36.7277   23.2646 C   0  0  0  0  0  0
  -25.9695  -30.7690   21.3817 C   0  0  0  0  0  0
  -26.0452  -29.3920   20.7266 C   0  0  0  0  0  0
  -27.2240  -28.5825   20.7340 C   0  0  0  0  0  0
  -26.0415  -26.8448   19.5301 C   0  0  0  0  0  0
  -24.8813  -27.6485   19.5039 C   0  0  0  0  0  0
  -23.6468  -29.7992   20.1576 C   0  0  0  0  0  0
  -25.4122  -36.3065   24.0309 C   0  0  1  0  0  0
  -20.5884  -28.3669   23.1290 C   0  0  2  0  0  0
  -20.6766  -26.9385   22.5430 C   0  0  0  0  0  0
  -19.5740  -26.6362   21.5237 C   0  0  0  0  0  0
  -18.1918  -26.7913   22.1640 C   0  0  0  0  0  0
  -19.1534  -28.8841   23.2885 C   0  0  0  0  0  0
  -18.9457  -30.1448   23.8893 C   0  0  0  0  0  0
  -17.6459  -30.6583   24.0563 C   0  0  0  0  0  0
  -25.9064  -34.9443   23.5073 C   0  0  0  0  0  0
  -16.5348  -29.9080   23.6331 C   0  0  0  0  0  0
  -16.7268  -28.6493   23.0358 C   0  0  0  0  0  0
  -26.4478  -31.6605   25.0716 C   0  0  0  0  0  0
  -25.3685  -31.3824   26.1430 C   0  0  0  0  0  0
  -27.0335  -30.2993   24.6283 C   0  0  0  0  0  0
  -27.5991  -32.4387   25.7508 C   0  0  0  0  0  0
  -27.5574  -37.1794   24.8452 C   0  0  0  0  0  0
  -21.4182  -29.3018   22.3677 N   0  0  0  0  0  0
  -26.4284  -37.3769   23.9397 N   0  0  0  0  0  0
  -24.6919  -31.0504   22.0946 N   0  0  0  0  0  0
  -23.4179  -28.8133   23.3017 O   0  0  0  0  0  0
  -28.3393  -26.3979   20.1873 O   0  0  0  0  0  0
  -26.5656  -34.8917   22.4655 O   0  0  0  0  0  0
  -23.5418  -32.1387   23.7252 O   0  0  0  0  0  0
  -29.2027  -19.7158   22.2591 C   0  0  0  0  0  0
  -29.4249  -18.5339   22.9994 C   0  0  0  0  0  0
  -29.5363  -18.4411   20.2264 C   0  0  0  0  0  0
  -29.3009  -19.7413   20.8528 C   0  0  0  0  0  0
  -29.7243  -17.1971   20.9637 C   0  0  0  0  0  0
  -29.6834  -17.2983   22.3708 C   0  0  0  0  0  0
  -29.4862  -23.1318   21.6730 C   0  0  0  0  0  0
  -29.1689  -24.6391   21.7900 C   0  0  0  0  0  0
  -28.4197  -23.6944   19.7452 C   0  0  0  0  0  0
  -28.1795  -24.9763   20.6618 C   0  0  2  0  0  0
  -29.1085  -21.1105   20.0304 C   0  0  0  0  0  0
  -28.9408  -22.5479   20.5827 N   0  0  0  0  0  0
  -29.7072  -15.8343   20.3823 N   0  0  0  0  0  0
  -30.2064  -22.5784   22.5050 O   0  0  0  0  0  0
  -29.8158  -16.1848   23.1313 F   0  0  0  0  0  0
  -31.4752  -12.5857   19.1731 H   0  0  0  0  0  0
  -30.3623  -11.4696   19.9254 H   0  0  0  0  0  0
  -29.8007  -11.7637   17.4896 H   0  0  0  0  0  0
  -29.6589  -13.4848   17.7207 H   0  0  0  0  0  0
  -27.8733  -11.3014   18.8419 H   0  0  0  0  0  0
  -27.3910  -12.5854   17.7611 H   0  0  0  0  0  0
  -27.6223  -14.2580   19.4825 H   0  0  0  0  0  0
  -28.7151  -12.1356   21.3878 H   0  0  0  0  0  0
  -28.4123  -13.8118   21.7926 H   0  0  0  0  0  0
  -25.2754   -9.5700   22.4718 H   0  0  0  0  0  0
  -24.0017   -7.4633   22.7469 H   0  0  0  0  0  0
  -21.0810   -8.8712   19.8969 H   0  0  0  0  0  0
  -22.3629  -10.9626   19.6152 H   0  0  0  0  0  0
  -21.1997   -7.6128   23.9723 H   0  0  0  0  0  0
  -21.1529   -6.0504   25.9095 H   0  0  0  0  0  0
  -22.0574   -2.7593   23.2845 H   0  0  0  0  0  0
  -22.4079  -11.9946   22.4932 H   0  0  0  0  0  0
  -21.1076  -13.1292   22.2587 H   0  0  0  0  0  0
  -24.6023  -15.8097   20.4821 H   0  0  0  0  0  0
  -26.2331  -15.6631   20.0732 H   0  0  0  0  0  0
  -26.7170  -32.5407   23.1044 H   0  0  0  0  0  0
  -24.9979  -33.9699   25.0308 H   0  0  0  0  0  0
  -22.7196  -31.2926   21.3888 H   0  0  0  0  0  0
  -23.3745  -35.9604   23.3311 H   0  0  0  0  0  0
  -24.3558  -36.8916   22.2058 H   0  0  0  0  0  0
  -23.7235  -37.6470   23.6693 H   0  0  0  0  0  0
  -26.1165  -31.5305   20.6156 H   0  0  0  0  0  0
  -26.8420  -30.8121   22.0223 H   0  0  0  0  0  0
  -28.1180  -28.9425   21.2239 H   0  0  0  0  0  0
  -26.0040  -25.8692   19.0676 H   0  0  0  0  0  0
  -23.9868  -27.2745   19.0258 H   0  0  0  0  0  0
  -23.7687  -30.5735   19.3984 H   0  0  0  0  0  0
  -22.7689  -29.2250   19.8558 H   0  0  0  0  0  0
  -25.1318  -36.1893   25.0799 H   0  0  0  0  0  0
  -20.9967  -28.3245   24.1417 H   0  0  0  0  0  0
  -20.5667  -26.2278   23.3632 H   0  0  0  0  0  0
  -21.6633  -26.7413   22.1227 H   0  0  0  0  0  0
  -19.6905  -25.6272   21.1272 H   0  0  0  0  0  0
  -19.6694  -27.3178   20.6771 H   0  0  0  0  0  0
  -17.4196  -26.6662   21.4031 H   0  0  0  0  0  0
  -18.0305  -26.0052   22.9027 H   0  0  0  0  0  0
  -19.7936  -30.7262   24.2252 H   0  0  0  0  0  0
  -17.5018  -31.6271   24.5146 H   0  0  0  0  0  0
  -15.5347  -30.2989   23.7658 H   0  0  0  0  0  0
  -15.8659  -28.0820   22.7077 H   0  0  0  0  0  0
  -24.5728  -30.7354   25.7722 H   0  0  0  0  0  0
  -24.9059  -32.3063   26.4917 H   0  0  0  0  0  0
  -25.7935  -30.8873   27.0170 H   0  0  0  0  0  0
  -26.2966  -29.6740   24.1223 H   0  0  0  0  0  0
  -27.3870  -29.7262   25.4869 H   0  0  0  0  0  0
  -27.8904  -30.4212   23.9652 H   0  0  0  0  0  0
  -27.2504  -33.3618   26.2153 H   0  0  0  0  0  0
  -28.3762  -32.7090   25.0349 H   0  0  0  0  0  0
  -28.0719  -31.8515   26.5389 H   0  0  0  0  0  0
  -28.2582  -38.0097   24.7498 H   0  0  0  0  0  0
  -28.1073  -36.2628   24.6273 H   0  0  0  0  0  0
  -27.2293  -37.1442   25.8853 H   0  0  0  0  0  0
  -20.9350  -29.8720   21.6887 H   0  0  0  0  0  0
  -26.0152  -38.2829   24.1416 H   0  0  0  0  0  0
  -28.9419  -20.6019   22.8117 H   0  0  0  0  0  0
  -29.3539  -18.5706   24.0768 H   0  0  0  0  0  0
  -29.5450  -18.3916   19.1470 H   0  0  0  0  0  0
  -30.0981  -25.1951   21.6649 H   0  0  0  0  0  0
  -28.7655  -24.8851   22.7741 H   0  0  0  0  0  0
  -29.1785  -23.9247   18.9954 H   0  0  0  0  0  0
  -27.5144  -23.4139   19.2054 H   0  0  0  0  0  0
  -27.1819  -24.8748   21.0967 H   0  0  0  0  0  0
  -28.2407  -20.9276   19.3961 H   0  0  0  0  0  0
  -29.9528  -21.1602   19.3436 H   0  0  0  0  0  0
  -28.7751  -15.5381   20.1428 H   0  0  0  0  0  0
  1 25  1  0  0  0
  1 30  2  0  0  0
  1 83  1  0  0  0
  2  3  1  0  0  0
  2 25  1  0  0  0
  2 86  1  0  0  0
  2 87  1  0  0  0
  3  4  1  0  0  0
  3 88  1  0  0  0
  3 89  1  0  0  0
  4  5  1  0  0  0
  4 90  1  0  0  0
  4 91  1  0  0  0
  5  6  1  0  0  0
  5 26  1  0  0  0
  5 92  1  0  0  0
  6 25  1  0  0  0
  6 93  1  0  0  0
  6 94  1  0  0  0
  7  8  2  0  0  0
  7 26  1  0  0  0
  7 29  1  0  0  0
  8  9  1  0  0  0
  8 22  1  0  0  0
  9 10  1  0  0  0
  9 27  2  0  0  0
 10 11  2  0  0  0
 10 15  1  0  0  0
 11 12  1  0  0  0
 11 95  1  0  0  0
 12 13  2  0  0  0
 12 96  1  0  0  0
 13 14  1  0  0  0
 13 31  1  0  0  0
 14 15  2  0  0  0
 14 97  1  0  0  0
 15 98  1  0  0  0
 16 17  2  0  0  0
 16 21  1  0  0  0
 16 31  1  0  0  0
 17 18  1  0  0  0
 17 99  1  0  0  0
 18 19  2  0  0  0
 18100  1  0  0  0
 19 20  1  0  0  0
 19 24  1  0  0  0
 20 21  2  0  0  0
 20101  1  0  0  0
 21 23  1  0  0  0
 22 28  1  0  0  0
 22 32  2  0  0  0
 26 27  1  0  0  0
 28102  1  0  0  0
 28103  1  0  0  0
 29104  1  0  0  0
 29105  1  0  0  0
 33 34  1  0  0  0
 33 66  1  0  0  0
 33 70  2  0  0  0
 34 36  1  0  0  0
 34 59  1  0  0  0
 34106  1  0  0  0
 35 44  2  0  0  0
 35 45  1  0  0  0
 35 68  1  0  0  0
 36 56  1  0  0  0
 36107  1  0  0  0
 37 39  1  0  0  0
 37 47  1  0  0  0
 37 66  1  0  0  0
 37108  1  0  0  0
 38 43  2  0  0  0
 38 46  1  0  0  0
 38 47  1  0  0  0
 39 64  1  0  0  0
 39 67  2  0  0  0
 40 52  1  0  0  0
 40 53  2  0  0  0
 40 58  1  0  0  0
 41109  1  0  0  0
 41110  1  0  0  0
 41111  1  0  0  0
 41 48  1  0  0  0
 42 43  1  0  0  0
 42 66  1  0  0  0
 42112  1  0  0  0
 42113  1  0  0  0
 43 44  1  0  0  0
 44114  1  0  0  0
 45 46  2  0  0  0
 45115  1  0  0  0
 46116  1  0  0  0
 47117  1  0  0  0
 47118  1  0  0  0
 48 56  1  0  0  0
 48 65  1  0  0  0
 48119  1  0  0  0
 49 50  1  0  0  0
 49 53  1  0  0  0
 49 64  1  0  0  0
 49120  1  0  0  0
 50 51  1  0  0  0
 50121  1  0  0  0
 50122  1  0  0  0
 51 52  1  0  0  0
 51123  1  0  0  0
 51124  1  0  0  0
 52125  1  0  0  0
 52126  1  0  0  0
 53 54  1  0  0  0
 54 55  2  0  0  0
 54127  1  0  0  0
 55 57  1  0  0  0
 55128  1  0  0  0
 56 69  2  0  0  0
 57 58  2  0  0  0
 57129  1  0  0  0
 58130  1  0  0  0
 59 60  1  0  0  0
 59 61  1  0  0  0
 59 62  1  0  0  0
 60131  1  0  0  0
 60132  1  0  0  0
 60133  1  0  0  0
 61134  1  0  0  0
 61135  1  0  0  0
 61136  1  0  0  0
 62137  1  0  0  0
 62138  1  0  0  0
 62139  1  0  0  0
 63 65  1  0  0  0
 63140  1  0  0  0
 63141  1  0  0  0
 63142  1  0  0  0
 64143  1  0  0  0
 65144  1  0  0  0
 68 80  1  0  0  0
 71 72  2  0  0  0
 71 74  1  0  0  0
 71145  1  0  0  0
 72 76  1  0  0  0
 72146  1  0  0  0
 73 74  2  0  0  0
 73 75  1  0  0  0
 73147  1  0  0  0
 74 81  1  0  0  0
 75 76  2  0  0  0
 75 83  1  0  0  0
 76 85  1  0  0  0
 77 78  1  0  0  0
 77 82  1  0  0  0
 77 84  2  0  0  0
 78 80  1  0  0  0
 78148  1  0  0  0
 78149  1  0  0  0
 79 80  1  0  0  0
 79 82  1  0  0  0
 79150  1  0  0  0
 79151  1  0  0  0
 80152  1  0  0  0
 81 82  1  0  0  0
 81153  1  0  0  0
 81154  1  0  0  0
 83155  1  0  0  0
M  ISO  4   1 100  68 101  80 101  83 100
M  END
> <chiral flag>
0

> <version>
0

> <s_m_source_file>
/data/baiqing/PycharmProjects/Reinvent-master-3.2/result/LINK_invent/BTK/process_docking_weight1_custom_product_contain_oxygen_bond_distance_aromatic_linkinvent_7_9_3/rearranged_h_0028.sdf

> <i_m_source_file_index>
35

> <r_mmod_Potential_Energy-OPLS-2005>
188.37077331543

> <r_mmod_Stretch_Energy-OPLS-2005>
122.102752685547

> <r_mmod_Bend_Energy-OPLS-2005>
207.166122436523

> <r_mmod_Torsional_Energy-OPLS-2005>
287.529113769531

> <r_mmod_Improper_Torsional_Energy-OPLS-2005>
15.2787370681763

> <r_mmod_Van_der_Waal_Energy-OPLS-2005>
128.314331054688

> <r_mmod_Electrostatic_Energy-OPLS-2005>
-422.018859863281

> <r_mmod_Solvation_Energy-OPLS-2005>
-237.20246887207

> <b_mmod_Minimization_Converged-OPLS-2005>
0

> <r_mmod_RMS_Derivative-OPLS-2005>
3.53077387809753

$$$$
35
                    3D
 Structure written by MMmdl.
155164  0  0  1  0            999 V2000
  -30.6559  -14.6377   20.5029 C   0  0  0  0  0  0
  -30.4240  -12.3984   19.4458 C   0  0  0  0  0  0
  -29.4950  -12.4980   18.2167 C   0  0  0  0  0  0
  -28.0191  -12.3410   18.6348 C   0  0  0  0  0  0
  -27.6459  -13.2240   19.8560 C   0  0  2  0  0  0
  -28.6935  -13.1099   20.9847 C   0  0  0  0  0  0
  -25.2537  -13.8191   20.5710 C   0  0  0  0  0  0
  -24.1808  -13.0425   20.9208 C   0  0  0  0  0  0
  -24.6394  -11.6910   20.8769 C   0  0  0  0  0  0
  -23.9058  -10.4282   21.0426 C   0  0  0  0  0  0
  -24.3615   -9.4203   21.9188 C   0  0  0  0  0  0
  -23.6305   -8.2234   22.0748 C   0  0  0  0  0  0
  -22.4290   -8.0274   21.3538 C   0  0  0  0  0  0
  -21.9923   -9.0244   20.4634 C   0  0  0  0  0  0
  -22.7248  -10.2126   20.3060 C   0  0  0  0  0  0
  -21.6855   -6.0746   22.5284 C   0  0  0  0  0  0
  -21.4014   -6.5635   23.8215 C   0  0  0  0  0  0
  -21.3662   -5.6796   24.9178 C   0  0  0  0  0  0
  -21.6041   -4.3061   24.7229 C   0  0  0  0  0  0
  -21.8811   -3.8150   23.4347 C   0  0  0  0  0  0
  -21.9196   -4.6974   22.3417 C   0  0  0  0  0  0
  -22.7842  -13.5225   21.1868 C   0  0  0  0  0  0
  -22.1659   -4.2161   21.0999 F   0  0  0  0  0  0
  -21.5636   -3.4546   25.7738 F   0  0  0  0  0  0
  -30.0005  -13.4403   20.4025 N   0  0  0  0  0  0
  -26.2956  -12.9369   20.3335 N   0  0  0  0  0  0
  -25.9326  -11.6511   20.5771 N   0  0  0  0  0  0
  -22.0503  -12.8181   22.0432 N   0  0  0  0  0  0
  -25.4195  -15.1907   20.4110 N   0  0  0  0  0  0
  -31.8395  -14.7387   20.1697 O   0  0  0  0  0  0
  -21.6641   -6.8882   21.4238 O   0  0  0  0  0  0
  -22.3509  -14.5531   20.6759 O   0  0  0  0  0  0
  -24.6282  -31.8594   23.2044 C   0  0  0  0  0  0
  -25.9141  -32.4778   23.8358 C   0  0  1  0  0  0
  -27.2044  -27.2950   20.0905 C   0  0  0  0  0  0
  -25.5971  -33.8586   24.2284 N   0  0  0  0  0  0
  -23.4208  -30.4918   21.5458 C   0  0  2  0  0  0
  -24.8592  -28.9502   20.1108 C   0  0  0  0  0  0
  -22.7467  -29.4655   22.4882 C   0  0  0  0  0  0
  -18.0284  -28.1377   22.8501 C   0  0  0  0  0  0
  -24.1479  -36.7252   23.2656 C   0  0  0  0  0  0
  -25.9660  -30.7820   21.3785 C   0  0  0  0  0  0
  -26.0343  -29.4103   20.7145 C   0  0  0  0  0  0
  -27.2088  -28.5953   20.6961 C   0  0  0  0  0  0
  -25.9894  -26.8937   19.4811 C   0  0  0  0  0  0
  -24.8388  -27.6969   19.4922 C   0  0  0  0  0  0
  -23.6364  -29.8398   20.1580 C   0  0  0  0  0  0
  -25.4114  -36.3071   24.0324 C   0  0  1  0  0  0
  -20.5894  -28.3692   23.1258 C   0  0  2  0  0  0
  -20.6781  -26.9401   22.5400 C   0  0  0  0  0  0
  -19.5743  -26.6376   21.5210 C   0  0  0  0  0  0
  -18.1927  -26.7913   22.1634 C   0  0  0  0  0  0
  -19.1556  -28.8851   23.2871 C   0  0  0  0  0  0
  -18.9500  -30.1468   23.8877 C   0  0  0  0  0  0
  -17.6503  -30.6596   24.0586 C   0  0  0  0  0  0
  -25.9053  -34.9450   23.5083 C   0  0  0  0  0  0
  -16.5382  -29.9104   23.6357 C   0  0  0  0  0  0
  -16.7274  -28.6519   23.0349 C   0  0  0  0  0  0
  -26.4508  -31.6596   25.0743 C   0  0  0  0  0  0
  -25.3748  -31.3760   26.1485 C   0  0  0  0  0  0
  -27.0357  -30.3021   24.6208 C   0  0  0  0  0  0
  -27.6063  -32.4337   25.7506 C   0  0  0  0  0  0
  -27.5541  -37.1807   24.8490 C   0  0  0  0  0  0
  -21.4185  -29.3077   22.3648 N   0  0  0  0  0  0
  -26.4278  -37.3771   23.9410 N   0  0  0  0  0  0
  -24.6920  -31.0605   22.1002 N   0  0  0  0  0  0
  -23.4196  -28.8143   23.2910 O   0  0  0  0  0  0
  -28.3361  -26.4546   20.1299 O   0  0  0  0  0  0
  -26.5609  -34.8920   22.4636 O   0  0  0  0  0  0
  -23.5445  -32.1387   23.7345 O   0  0  0  0  0  0
  -30.1360  -18.9594   19.4109 C   0  0  0  0  0  0
  -29.8818  -20.3128   19.0333 C   0  0  0  0  0  0
  -29.0345  -20.7789   21.2320 C   0  0  0  0  0  0
  -29.8832  -18.4808   20.7234 C   0  0  0  0  0  0
  -29.3721  -21.2934   19.9465 C   0  0  0  0  0  0
  -29.2797  -19.4233   21.6157 C   0  0  0  0  0  0
  -29.7295  -23.3860   18.5372 C   0  0  0  0  0  0
  -29.4522  -24.8929   18.5476 C   0  0  0  0  0  0
  -28.5734  -23.7841   20.4714 C   0  0  0  0  0  0
  -28.3429  -25.0658   19.5750 C   0  0  1  0  0  0
  -30.4734  -17.0993   21.2140 C   0  0  0  0  0  0
  -29.2137  -22.7361   19.6127 N   0  0  0  0  0  0
  -29.9236  -15.7529   20.8237 N   0  0  0  0  0  0
  -30.3719  -22.8880   17.6075 O   0  0  0  0  0  0
  -28.8659  -18.9702   23.2356 Cl  0  0  0  0  0  0
  -31.4664  -12.5116   19.1402 H   0  0  0  0  0  0
  -30.3499  -11.4103   19.9042 H   0  0  0  0  0  0
  -29.7559  -11.7351   17.4814 H   0  0  0  0  0  0
  -29.6346  -13.4604   17.7230 H   0  0  0  0  0  0
  -27.8564  -11.2892   18.8739 H   0  0  0  0  0  0
  -27.3615  -12.5640   17.7935 H   0  0  0  0  0  0
  -27.6533  -14.2551   19.5016 H   0  0  0  0  0  0
  -28.7081  -12.1009   21.3982 H   0  0  0  0  0  0
  -28.4459  -13.7731   21.8157 H   0  0  0  0  0  0
  -25.2762   -9.5690   22.4764 H   0  0  0  0  0  0
  -24.0021   -7.4627   22.7463 H   0  0  0  0  0  0
  -21.0860   -8.8754   19.8939 H   0  0  0  0  0  0
  -22.3702  -10.9665   19.6171 H   0  0  0  0  0  0
  -21.1986   -7.6130   23.9722 H   0  0  0  0  0  0
  -21.1497   -6.0526   25.9087 H   0  0  0  0  0  0
  -22.0590   -2.7613   23.2852 H   0  0  0  0  0  0
  -22.4134  -11.9827   22.4781 H   0  0  0  0  0  0
  -21.1124  -13.1176   22.2680 H   0  0  0  0  0  0
  -24.6450  -15.8390   20.5111 H   0  0  0  0  0  0
  -26.2655  -15.6356   20.0754 H   0  0  0  0  0  0
  -26.7188  -32.5432   23.1080 H   0  0  0  0  0  0
  -25.0239  -33.9759   25.0506 H   0  0  0  0  0  0
  -22.7187  -31.3167   21.4043 H   0  0  0  0  0  0
  -23.3748  -35.9587   23.3393 H   0  0  0  0  0  0
  -24.3526  -36.8779   22.2050 H   0  0  0  0  0  0
  -23.7245  -37.6491   23.6601 H   0  0  0  0  0  0
  -26.1027  -31.5473   20.6125 H   0  0  0  0  0  0
  -26.8454  -30.8256   22.0095 H   0  0  0  0  0  0
  -28.1131  -28.9462   21.1731 H   0  0  0  0  0  0
  -25.8469  -25.9487   18.9890 H   0  0  0  0  0  0
  -23.9314  -27.3344   19.0301 H   0  0  0  0  0  0
  -23.7753  -30.6264   19.4136 H   0  0  0  0  0  0
  -22.7518  -29.2880   19.8358 H   0  0  0  0  0  0
  -25.1284  -36.1927   25.0810 H   0  0  0  0  0  0
  -21.0016  -28.3280   24.1360 H   0  0  0  0  0  0
  -20.5700  -26.2303   23.3604 H   0  0  0  0  0  0
  -21.6640  -26.7415   22.1182 H   0  0  0  0  0  0
  -19.6919  -25.6291   21.1236 H   0  0  0  0  0  0
  -19.6688  -27.3217   20.6759 H   0  0  0  0  0  0
  -17.4189  -26.6709   21.4024 H   0  0  0  0  0  0
  -18.0310  -26.0013   22.8995 H   0  0  0  0  0  0
  -19.7994  -30.7306   24.2201 H   0  0  0  0  0  0
  -17.5070  -31.6274   24.5202 H   0  0  0  0  0  0
  -15.5399  -30.3027   23.7667 H   0  0  0  0  0  0
  -15.8657  -28.0862   22.7031 H   0  0  0  0  0  0
  -24.5922  -30.7076   25.7866 H   0  0  0  0  0  0
  -24.8960  -32.2952   26.4902 H   0  0  0  0  0  0
  -25.8108  -30.8997   27.0276 H   0  0  0  0  0  0
  -26.2952  -29.6777   24.1224 H   0  0  0  0  0  0
  -27.4050  -29.7268   25.4718 H   0  0  0  0  0  0
  -27.8792  -30.4300   23.9414 H   0  0  0  0  0  0
  -27.2671  -33.3667   26.2007 H   0  0  0  0  0  0
  -28.3919  -32.6854   25.0362 H   0  0  0  0  0  0
  -28.0650  -31.8512   26.5500 H   0  0  0  0  0  0
  -28.2632  -38.0036   24.7438 H   0  0  0  0  0  0
  -28.0944  -36.2559   24.6419 H   0  0  0  0  0  0
  -27.2229  -37.1582   25.8894 H   0  0  0  0  0  0
  -20.9337  -29.8865   21.6938 H   0  0  0  0  0  0
  -26.0144  -38.2833   24.1446 H   0  0  0  0  0  0
  -30.5972  -18.3006   18.6856 H   0  0  0  0  0  0
  -30.1397  -20.5681   18.0135 H   0  0  0  0  0  0
  -28.6136  -21.4379   21.9799 H   0  0  0  0  0  0
  -29.1584  -25.2611   17.5641 H   0  0  0  0  0  0
  -30.3587  -25.4174   18.8561 H   0  0  0  0  0  0
  -27.6334  -23.4247   20.8885 H   0  0  0  0  0  0
  -29.2416  -24.0131   21.3031 H   0  0  0  0  0  0
  -27.4436  -24.8380   19.0187 H   0  0  0  0  0  0
  -30.4922  -17.1006   22.3036 H   0  0  0  0  0  0
  -31.5314  -17.1319   20.9471 H   0  0  0  0  0  0
  -28.9386  -15.6067   20.9865 H   0  0  0  0  0  0
  1 25  1  0  0  0
  1 30  2  0  0  0
  1 83  1  0  0  0
  2  3  1  0  0  0
  2 25  1  0  0  0
  2 86  1  0  0  0
  2 87  1  0  0  0
  3  4  1  0  0  0
  3 88  1  0  0  0
  3 89  1  0  0  0
  4  5  1  0  0  0
  4 90  1  0  0  0
  4 91  1  0  0  0
  5  6  1  0  0  0
  5 26  1  0  0  0
  5 92  1  0  0  0
  6 25  1  0  0  0
  6 93  1  0  0  0
  6 94  1  0  0  0
  7  8  2  0  0  0
  7 26  1  0  0  0
  7 29  1  0  0  0
  8  9  1  0  0  0
  8 22  1  0  0  0
  9 10  1  0  0  0
  9 27  2  0  0  0
 10 11  2  0  0  0
 10 15  1  0  0  0
 11 12  1  0  0  0
 11 95  1  0  0  0
 12 13  2  0  0  0
 12 96  1  0  0  0
 13 14  1  0  0  0
 13 31  1  0  0  0
 14 15  2  0  0  0
 14 97  1  0  0  0
 15 98  1  0  0  0
 16 17  2  0  0  0
 16 21  1  0  0  0
 16 31  1  0  0  0
 17 18  1  0  0  0
 17 99  1  0  0  0
 18 19  2  0  0  0
 18100  1  0  0  0
 19 20  1  0  0  0
 19 24  1  0  0  0
 20 21  2  0  0  0
 20101  1  0  0  0
 21 23  1  0  0  0
 22 28  1  0  0  0
 22 32  2  0  0  0
 26 27  1  0  0  0
 28102  1  0  0  0
 28103  1  0  0  0
 29104  1  0  0  0
 29105  1  0  0  0
 33 34  1  0  0  0
 33 66  1  0  0  0
 33 70  2  0  0  0
 34 36  1  0  0  0
 34 59  1  0  0  0
 34106  1  0  0  0
 35 44  2  0  0  0
 35 45  1  0  0  0
 35 68  1  0  0  0
 36 56  1  0  0  0
 36107  1  0  0  0
 37 39  1  0  0  0
 37 47  1  0  0  0
 37 66  1  0  0  0
 37108  1  0  0  0
 38 43  2  0  0  0
 38 46  1  0  0  0
 38 47  1  0  0  0
 39 64  1  0  0  0
 39 67  2  0  0  0
 40 52  1  0  0  0
 40 53  2  0  0  0
 40 58  1  0  0  0
 41109  1  0  0  0
 41110  1  0  0  0
 41111  1  0  0  0
 41 48  1  0  0  0
 42 43  1  0  0  0
 42 66  1  0  0  0
 42112  1  0  0  0
 42113  1  0  0  0
 43 44  1  0  0  0
 44114  1  0  0  0
 45 46  2  0  0  0
 45115  1  0  0  0
 46116  1  0  0  0
 47117  1  0  0  0
 47118  1  0  0  0
 48 56  1  0  0  0
 48 65  1  0  0  0
 48119  1  0  0  0
 49 50  1  0  0  0
 49 53  1  0  0  0
 49 64  1  0  0  0
 49120  1  0  0  0
 50 51  1  0  0  0
 50121  1  0  0  0
 50122  1  0  0  0
 51 52  1  0  0  0
 51123  1  0  0  0
 51124  1  0  0  0
 52125  1  0  0  0
 52126  1  0  0  0
 53 54  1  0  0  0
 54 55  2  0  0  0
 54127  1  0  0  0
 55 57  1  0  0  0
 55128  1  0  0  0
 56 69  2  0  0  0
 57 58  2  0  0  0
 57129  1  0  0  0
 58130  1  0  0  0
 59 60  1  0  0  0
 59 61  1  0  0  0
 59 62  1  0  0  0
 60131  1  0  0  0
 60132  1  0  0  0
 60133  1  0  0  0
 61134  1  0  0  0
 61135  1  0  0  0
 61136  1  0  0  0
 62137  1  0  0  0
 62138  1  0  0  0
 62139  1  0  0  0
 63 65  1  0  0  0
 63140  1  0  0  0
 63141  1  0  0  0
 63142  1  0  0  0
 64143  1  0  0  0
 65144  1  0  0  0
 68 80  1  0  0  0
 71 72  2  0  0  0
 71 74  1  0  0  0
 71145  1  0  0  0
 72 75  1  0  0  0
 72146  1  0  0  0
 73 75  2  0  0  0
 73 76  1  0  0  0
 73147  1  0  0  0
 74 76  2  0  0  0
 74 81  1  0  0  0
 75 82  1  0  0  0
 76 85  1  0  0  0
 77 78  1  0  0  0
 77 82  1  0  0  0
 77 84  2  0  0  0
 78 80  1  0  0  0
 78148  1  0  0  0
 78149  1  0  0  0
 79 80  1  0  0  0
 79 82  1  0  0  0
 79150  1  0  0  0
 79151  1  0  0  0
 80152  1  0  0  0
 81 83  1  0  0  0
 81153  1  0  0  0
 81154  1  0  0  0
 83155  1  0  0  0
M  ISO  4   1 100  68 101  80 101  83 100
M  END
> <chiral flag>
0

> <version>
0

> <s_m_source_file>
/data/baiqing/PycharmProjects/Reinvent-master-3.2/result/LINK_invent/BTK/process_docking_weight1_custom_product_contain_oxygen_bond_distance_aromatic_linkinvent_7_9_3/rearranged_h_0028.sdf

> <i_m_source_file_index>
36

> <r_mmod_Potential_Energy-OPLS-2005>
121.490531921387

> <r_mmod_Stretch_Energy-OPLS-2005>
91.2201919555664

> <r_mmod_Bend_Energy-OPLS-2005>
186.483627319336

> <r_mmod_Torsional_Energy-OPLS-2005>
248.005126953125

> <r_mmod_Improper_Torsional_Energy-OPLS-2005>
5.28175258636475

> <r_mmod_Van_der_Waal_Energy-OPLS-2005>
151.893676757812

> <r_mmod_Electrostatic_Energy-OPLS-2005>
-395.032409667969

> <r_mmod_Solvation_Energy-OPLS-2005>
-220.132537841797

> <b_mmod_Minimization_Converged-OPLS-2005>
0

> <r_mmod_RMS_Derivative-OPLS-2005>
3.89581251144409

$$$$
36
                    3D
 Structure written by MMmdl.
155164  0  0  1  0            999 V2000
  -30.5655  -14.7548   20.4719 C   0  0  0  0  0  0
  -30.4389  -12.4619   19.4550 C   0  0  0  0  0  0
  -29.5209  -12.5183   18.2155 C   0  0  0  0  0  0
  -28.0383  -12.3464   18.6161 C   0  0  0  0  0  0
  -27.6374  -13.2262   19.8359 C   0  0  2  0  0  0
  -28.6820  -13.1488   20.9676 C   0  0  0  0  0  0
  -25.2532  -13.8151   20.5680 C   0  0  0  0  0  0
  -24.1834  -13.0408   20.9159 C   0  0  0  0  0  0
  -24.6402  -11.6871   20.8672 C   0  0  0  0  0  0
  -23.9059  -10.4275   21.0352 C   0  0  0  0  0  0
  -24.3622   -9.4206   21.9162 C   0  0  0  0  0  0
  -23.6313   -8.2230   22.0751 C   0  0  0  0  0  0
  -22.4288   -8.0260   21.3541 C   0  0  0  0  0  0
  -21.9891   -9.0213   20.4643 C   0  0  0  0  0  0
  -22.7204  -10.2102   20.3041 C   0  0  0  0  0  0
  -21.6868   -6.0730   22.5291 C   0  0  0  0  0  0
  -21.4011   -6.5632   23.8222 C   0  0  0  0  0  0
  -21.3674   -5.6782   24.9183 C   0  0  0  0  0  0
  -21.6050   -4.3049   24.7228 C   0  0  0  0  0  0
  -21.8819   -3.8146   23.4346 C   0  0  0  0  0  0
  -21.9201   -4.6959   22.3401 C   0  0  0  0  0  0
  -22.7864  -13.5200   21.1840 C   0  0  0  0  0  0
  -22.1675   -4.2161   21.0984 F   0  0  0  0  0  0
  -21.5633   -3.4513   25.7724 F   0  0  0  0  0  0
  -29.9754  -13.5165   20.3801 N   0  0  0  0  0  0
  -26.2938  -12.9342   20.3170 N   0  0  0  0  0  0
  -25.9336  -11.6491   20.5651 N   0  0  0  0  0  0
  -22.0492  -12.8243   22.0398 N   0  0  0  0  0  0
  -25.4140  -15.1903   20.4226 N   0  0  0  0  0  0
  -31.7782  -14.8837   20.2763 O   0  0  0  0  0  0
  -21.6662   -6.8861   21.4248 O   0  0  0  0  0  0
  -22.3559  -14.5499   20.6656 O   0  0  0  0  0  0
  -24.6256  -31.8548   23.1965 C   0  0  0  0  0  0
  -25.9091  -32.4765   23.8307 C   0  0  1  0  0  0
  -27.2363  -27.2670   20.1754 C   0  0  0  0  0  0
  -25.5887  -33.8565   24.2230 N   0  0  0  0  0  0
  -23.4252  -30.4705   21.5382 C   0  0  2  0  0  0
  -24.8830  -28.9101   20.1182 C   0  0  0  0  0  0
  -22.7467  -29.4567   22.4903 C   0  0  0  0  0  0
  -18.0271  -28.1365   22.8496 C   0  0  0  0  0  0
  -24.1488  -36.7281   23.2645 C   0  0  0  0  0  0
  -25.9685  -30.7713   21.3804 C   0  0  0  0  0  0
  -26.0475  -29.3921   20.7300 C   0  0  0  0  0  0
  -27.2280  -28.5838   20.7430 C   0  0  0  0  0  0
  -26.0497  -26.8379   19.5466 C   0  0  0  0  0  0
  -24.8882  -27.6400   19.5170 C   0  0  0  0  0  0
  -23.6514  -29.7965   20.1565 C   0  0  0  0  0  0
  -25.4125  -36.3075   24.0317 C   0  0  1  0  0  0
  -20.5875  -28.3668   23.1290 C   0  0  2  0  0  0
  -20.6768  -26.9387   22.5426 C   0  0  0  0  0  0
  -19.5741  -26.6362   21.5234 C   0  0  0  0  0  0
  -18.1914  -26.7906   22.1637 C   0  0  0  0  0  0
  -19.1526  -28.8836   23.2889 C   0  0  0  0  0  0
  -18.9452  -30.1443   23.8892 C   0  0  0  0  0  0
  -17.6452  -30.6575   24.0557 C   0  0  0  0  0  0
  -25.9062  -34.9446   23.5090 C   0  0  0  0  0  0
  -16.5342  -29.9071   23.6331 C   0  0  0  0  0  0
  -16.7263  -28.6487   23.0362 C   0  0  0  0  0  0
  -26.4469  -31.6587   25.0693 C   0  0  0  0  0  0
  -25.3680  -31.3787   26.1409 C   0  0  0  0  0  0
  -27.0321  -30.2980   24.6232 C   0  0  0  0  0  0
  -27.5998  -32.4347   25.7475 C   0  0  0  0  0  0
  -27.5581  -37.1796   24.8452 C   0  0  0  0  0  0
  -21.4174  -29.3011   22.3674 N   0  0  0  0  0  0
  -26.4296  -37.3771   23.9398 N   0  0  0  0  0  0
  -24.6909  -31.0501   22.0956 N   0  0  0  0  0  0
  -23.4174  -28.8126   23.3008 O   0  0  0  0  0  0
  -28.3543  -26.4057   20.1970 O   0  0  0  0  0  0
  -26.5653  -34.8921   22.4671 O   0  0  0  0  0  0
  -23.5404  -32.1383   23.7243 O   0  0  0  0  0  0
  -29.5129  -17.2917   22.3675 C   0  0  0  0  0  0
  -29.1634  -18.5133   22.9806 C   0  0  0  0  0  0
  -29.5425  -18.4523   20.2337 C   0  0  0  0  0  0
  -29.2139  -19.7394   20.8475 C   0  0  0  0  0  0
  -29.6806  -17.2010   20.9701 C   0  0  0  0  0  0
  -28.9728  -19.6982   22.2409 C   0  0  0  0  0  0
  -29.6231  -23.1229   21.5606 C   0  0  0  0  0  0
  -29.3520  -24.6375   21.7047 C   0  0  0  0  0  0
  -28.3037  -23.6901   19.7932 C   0  0  0  0  0  0
  -28.2288  -24.9926   20.7105 C   0  0  2  0  0  0
  -29.0309  -21.1030   20.0143 C   0  0  0  0  0  0
  -28.9200  -22.5449   20.5648 N   0  0  0  0  0  0
  -29.7083  -15.8420   20.3758 N   0  0  0  0  0  0
  -30.4459  -22.5520   22.2810 O   0  0  0  0  0  0
  -28.4953  -20.7804   22.8969 F   0  0  0  0  0  0
  -31.4832  -12.6018   19.1672 H   0  0  0  0  0  0
  -30.3799  -11.4809   19.9303 H   0  0  0  0  0  0
  -29.8093  -11.7532   17.4938 H   0  0  0  0  0  0
  -29.6584  -13.4769   17.7104 H   0  0  0  0  0  0
  -27.8868  -11.2927   18.8519 H   0  0  0  0  0  0
  -27.3969  -12.5637   17.7619 H   0  0  0  0  0  0
  -27.6228  -14.2519   19.4705 H   0  0  0  0  0  0
  -28.7279  -12.1427   21.3846 H   0  0  0  0  0  0
  -28.4154  -13.8162   21.7899 H   0  0  0  0  0  0
  -25.2772   -9.5721   22.4720 H   0  0  0  0  0  0
  -24.0042   -7.4646   22.7482 H   0  0  0  0  0  0
  -21.0815   -8.8714   19.8970 H   0  0  0  0  0  0
  -22.3641  -10.9629   19.6155 H   0  0  0  0  0  0
  -21.1989   -7.6138   23.9728 H   0  0  0  0  0  0
  -21.1511   -6.0508   25.9091 H   0  0  0  0  0  0
  -22.0588   -2.7604   23.2833 H   0  0  0  0  0  0
  -22.4091  -11.9945   22.4890 H   0  0  0  0  0  0
  -21.1090  -13.1303   22.2511 H   0  0  0  0  0  0
  -24.6332  -15.8205   20.5715 H   0  0  0  0  0  0
  -26.2604  -15.6702   20.1486 H   0  0  0  0  0  0
  -26.7149  -32.5442   23.1043 H   0  0  0  0  0  0
  -24.9956  -33.9710   25.0319 H   0  0  0  0  0  0
  -22.7198  -31.2900   21.3842 H   0  0  0  0  0  0
  -23.3761  -35.9601   23.3307 H   0  0  0  0  0  0
  -24.3567  -36.8917   22.2061 H   0  0  0  0  0  0
  -23.7231  -37.6470   23.6687 H   0  0  0  0  0  0
  -26.1083  -31.5308   20.6100 H   0  0  0  0  0  0
  -26.8434  -30.8219   22.0175 H   0  0  0  0  0  0
  -28.1201  -28.9464   21.2356 H   0  0  0  0  0  0
  -26.0164  -25.8576   19.0925 H   0  0  0  0  0  0
  -23.9930  -27.2575   19.0469 H   0  0  0  0  0  0
  -23.7823  -30.5714   19.3997 H   0  0  0  0  0  0
  -22.7731  -29.2252   19.8500 H   0  0  0  0  0  0
  -25.1322  -36.1914   25.0806 H   0  0  0  0  0  0
  -20.9968  -28.3246   24.1414 H   0  0  0  0  0  0
  -20.5676  -26.2270   23.3631 H   0  0  0  0  0  0
  -21.6638  -26.7416   22.1218 H   0  0  0  0  0  0
  -19.6910  -25.6273   21.1265 H   0  0  0  0  0  0
  -19.6696  -27.3186   20.6777 H   0  0  0  0  0  0
  -17.4203  -26.6661   21.4026 H   0  0  0  0  0  0
  -18.0300  -26.0038   22.9018 H   0  0  0  0  0  0
  -19.7933  -30.7260   24.2256 H   0  0  0  0  0  0
  -17.5009  -31.6268   24.5134 H   0  0  0  0  0  0
  -15.5343  -30.2980   23.7647 H   0  0  0  0  0  0
  -15.8659  -28.0809   22.7081 H   0  0  0  0  0  0
  -24.5743  -30.7298   25.7689 H   0  0  0  0  0  0
  -24.9033  -32.3018   26.4888 H   0  0  0  0  0  0
  -25.7935  -30.8839   27.0150 H   0  0  0  0  0  0
  -26.2943  -29.6720   24.1207 H   0  0  0  0  0  0
  -27.3907  -29.7249   25.4792 H   0  0  0  0  0  0
  -27.8854  -30.4205   23.9561 H   0  0  0  0  0  0
  -27.2544  -33.3589   26.2119 H   0  0  0  0  0  0
  -28.3770  -32.7018   25.0303 H   0  0  0  0  0  0
  -28.0727  -31.8462   26.5349 H   0  0  0  0  0  0
  -28.2591  -38.0099   24.7510 H   0  0  0  0  0  0
  -28.1086  -36.2629   24.6272 H   0  0  0  0  0  0
  -27.2299  -37.1438   25.8854 H   0  0  0  0  0  0
  -20.9334  -29.8723   21.6893 H   0  0  0  0  0  0
  -26.0172  -38.2842   24.1404 H   0  0  0  0  0  0
  -29.5605  -16.4069   22.9843 H   0  0  0  0  0  0
  -28.9782  -18.5416   24.0450 H   0  0  0  0  0  0
  -29.6554  -18.4132   19.1592 H   0  0  0  0  0  0
  -30.2673  -25.1729   21.4556 H   0  0  0  0  0  0
  -29.0859  -24.8898   22.7321 H   0  0  0  0  0  0
  -28.9456  -23.8853   18.9312 H   0  0  0  0  0  0
  -27.3198  -23.4217   19.4067 H   0  0  0  0  0  0
  -27.2984  -24.9352   21.2763 H   0  0  0  0  0  0
  -28.1320  -20.9369   19.4205 H   0  0  0  0  0  0
  -29.8472  -21.1267   19.2919 H   0  0  0  0  0  0
  -28.7982  -15.5460   20.0604 H   0  0  0  0  0  0
  1 25  1  0  0  0
  1 30  2  0  0  0
  1 83  1  0  0  0
  2  3  1  0  0  0
  2 25  1  0  0  0
  2 86  1  0  0  0
  2 87  1  0  0  0
  3  4  1  0  0  0
  3 88  1  0  0  0
  3 89  1  0  0  0
  4  5  1  0  0  0
  4 90  1  0  0  0
  4 91  1  0  0  0
  5  6  1  0  0  0
  5 26  1  0  0  0
  5 92  1  0  0  0
  6 25  1  0  0  0
  6 93  1  0  0  0
  6 94  1  0  0  0
  7  8  2  0  0  0
  7 26  1  0  0  0
  7 29  1  0  0  0
  8  9  1  0  0  0
  8 22  1  0  0  0
  9 10  1  0  0  0
  9 27  2  0  0  0
 10 11  2  0  0  0
 10 15  1  0  0  0
 11 12  1  0  0  0
 11 95  1  0  0  0
 12 13  2  0  0  0
 12 96  1  0  0  0
 13 14  1  0  0  0
 13 31  1  0  0  0
 14 15  2  0  0  0
 14 97  1  0  0  0
 15 98  1  0  0  0
 16 17  2  0  0  0
 16 21  1  0  0  0
 16 31  1  0  0  0
 17 18  1  0  0  0
 17 99  1  0  0  0
 18 19  2  0  0  0
 18100  1  0  0  0
 19 20  1  0  0  0
 19 24  1  0  0  0
 20 21  2  0  0  0
 20101  1  0  0  0
 21 23  1  0  0  0
 22 28  1  0  0  0
 22 32  2  0  0  0
 26 27  1  0  0  0
 28102  1  0  0  0
 28103  1  0  0  0
 29104  1  0  0  0
 29105  1  0  0  0
 33 34  1  0  0  0
 33 66  1  0  0  0
 33 70  2  0  0  0
 34 36  1  0  0  0
 34 59  1  0  0  0
 34106  1  0  0  0
 35 44  2  0  0  0
 35 45  1  0  0  0
 35 68  1  0  0  0
 36 56  1  0  0  0
 36107  1  0  0  0
 37 39  1  0  0  0
 37 47  1  0  0  0
 37 66  1  0  0  0
 37108  1  0  0  0
 38 43  2  0  0  0
 38 46  1  0  0  0
 38 47  1  0  0  0
 39 64  1  0  0  0
 39 67  2  0  0  0
 40 52  1  0  0  0
 40 53  2  0  0  0
 40 58  1  0  0  0
 41109  1  0  0  0
 41110  1  0  0  0
 41111  1  0  0  0
 41 48  1  0  0  0
 42 43  1  0  0  0
 42 66  1  0  0  0
 42112  1  0  0  0
 42113  1  0  0  0
 43 44  1  0  0  0
 44114  1  0  0  0
 45 46  2  0  0  0
 45115  1  0  0  0
 46116  1  0  0  0
 47117  1  0  0  0
 47118  1  0  0  0
 48 56  1  0  0  0
 48 65  1  0  0  0
 48119  1  0  0  0
 49 50  1  0  0  0
 49 53  1  0  0  0
 49 64  1  0  0  0
 49120  1  0  0  0
 50 51  1  0  0  0
 50121  1  0  0  0
 50122  1  0  0  0
 51 52  1  0  0  0
 51123  1  0  0  0
 51124  1  0  0  0
 52125  1  0  0  0
 52126  1  0  0  0
 53 54  1  0  0  0
 54 55  2  0  0  0
 54127  1  0  0  0
 55 57  1  0  0  0
 55128  1  0  0  0
 56 69  2  0  0  0
 57 58  2  0  0  0
 57129  1  0  0  0
 58130  1  0  0  0
 59 60  1  0  0  0
 59 61  1  0  0  0
 59 62  1  0  0  0
 60131  1  0  0  0
 60132  1  0  0  0
 60133  1  0  0  0
 61134  1  0  0  0
 61135  1  0  0  0
 61136  1  0  0  0
 62137  1  0  0  0
 62138  1  0  0  0
 62139  1  0  0  0
 63 65  1  0  0  0
 63140  1  0  0  0
 63141  1  0  0  0
 63142  1  0  0  0
 64143  1  0  0  0
 65144  1  0  0  0
 68 80  1  0  0  0
 71 72  2  0  0  0
 71 75  1  0  0  0
 71145  1  0  0  0
 72 76  1  0  0  0
 72146  1  0  0  0
 73 74  1  0  0  0
 73 75  2  0  0  0
 73147  1  0  0  0
 74 76  2  0  0  0
 74 81  1  0  0  0
 75 83  1  0  0  0
 76 85  1  0  0  0
 77 78  1  0  0  0
 77 82  1  0  0  0
 77 84  2  0  0  0
 78 80  1  0  0  0
 78148  1  0  0  0
 78149  1  0  0  0
 79 80  1  0  0  0
 79 82  1  0  0  0
 79150  1  0  0  0
 79151  1  0  0  0
 80152  1  0  0  0
 81 82  1  0  0  0
 81153  1  0  0  0
 81154  1  0  0  0
 83155  1  0  0  0
M  ISO  4   1 100  68 101  80 101  83 100
M  END
> <chiral flag>
0

> <version>
0

> <s_m_source_file>
/data/baiqing/PycharmProjects/Reinvent-master-3.2/result/LINK_invent/BTK/process_docking_weight1_custom_product_contain_oxygen_bond_distance_aromatic_linkinvent_7_9_3/rearranged_h_0028.sdf

> <i_m_source_file_index>
37

> <r_mmod_Potential_Energy-OPLS-2005>
224.367263793945

> <r_mmod_Stretch_Energy-OPLS-2005>
123.292533874512

> <r_mmod_Bend_Energy-OPLS-2005>
207.697616577148

> <r_mmod_Torsional_Energy-OPLS-2005>
294.477966308594

> <r_mmod_Improper_Torsional_Energy-OPLS-2005>
15.2245769500732

> <r_mmod_Van_der_Waal_Energy-OPLS-2005>
125.389579772949

> <r_mmod_Electrostatic_Energy-OPLS-2005>
-392.299682617188

> <r_mmod_Solvation_Energy-OPLS-2005>
-239.280029296875

> <b_mmod_Minimization_Converged-OPLS-2005>
0

> <r_mmod_RMS_Derivative-OPLS-2005>
3.80999255180359

$$$$
37
                    3D
 Structure written by MMmdl.
164173  0  0  1  0            999 V2000
  -30.6208  -14.7291   20.4794 C   0  0  0  0  0  0
  -30.4443  -12.4566   19.4496 C   0  0  0  0  0  0
  -29.5091  -12.5122   18.2210 C   0  0  0  0  0  0
  -28.0365  -12.3311   18.6413 C   0  0  0  0  0  0
  -27.6432  -13.2266   19.8450 C   0  0  2  0  0  0
  -28.6947  -13.1606   20.9728 C   0  0  0  0  0  0
  -25.2548  -13.8189   20.5704 C   0  0  0  0  0  0
  -24.1829  -13.0444   20.9193 C   0  0  0  0  0  0
  -24.6421  -11.6919   20.8753 C   0  0  0  0  0  0
  -23.9093  -10.4293   21.0386 C   0  0  0  0  0  0
  -24.3630   -9.4234   21.9196 C   0  0  0  0  0  0
  -23.6296   -8.2282   22.0791 C   0  0  0  0  0  0
  -22.4288   -8.0307   21.3561 C   0  0  0  0  0  0
  -21.9930   -9.0276   20.4643 C   0  0  0  0  0  0
  -22.7283  -10.2147   20.3019 C   0  0  0  0  0  0
  -21.6866   -6.0709   22.5263 C   0  0  0  0  0  0
  -21.4009   -6.5609   23.8191 C   0  0  0  0  0  0
  -21.3659   -5.6774   24.9166 C   0  0  0  0  0  0
  -21.6051   -4.3026   24.7216 C   0  0  0  0  0  0
  -21.8814   -3.8113   23.4328 C   0  0  0  0  0  0
  -21.9200   -4.6929   22.3393 C   0  0  0  0  0  0
  -22.7824  -13.5248   21.1804 C   0  0  0  0  0  0
  -22.1672   -4.2117   21.0964 F   0  0  0  0  0  0
  -21.5655   -3.4511   25.7719 F   0  0  0  0  0  0
  -29.9921  -13.5124   20.3774 N   0  0  0  0  0  0
  -26.2962  -12.9385   20.3283 N   0  0  0  0  0  0
  -25.9356  -11.6525   20.5790 N   0  0  0  0  0  0
  -22.0410  -12.8295   22.0350 N   0  0  0  0  0  0
  -25.4253  -15.1917   20.4193 N   0  0  0  0  0  0
  -31.8298  -14.8296   20.2546 O   0  0  0  0  0  0
  -21.6658   -6.8885   21.4239 O   0  0  0  0  0  0
  -22.3527  -14.5524   20.6575 O   0  0  0  0  0  0
  -24.6282  -31.8567   23.1989 C   0  0  0  0  0  0
  -25.9104  -32.4770   23.8349 C   0  0  1  0  0  0
  -27.2306  -27.2808   20.1423 C   0  0  0  0  0  0
  -25.5893  -33.8577   24.2258 N   0  0  0  0  0  0
  -23.4248  -30.4768   21.5433 C   0  0  2  0  0  0
  -24.8778  -28.9201   20.1178 C   0  0  0  0  0  0
  -22.7483  -29.4610   22.4941 C   0  0  0  0  0  0
  -18.0291  -28.1382   22.8484 C   0  0  0  0  0  0
  -24.1500  -36.7292   23.2638 C   0  0  0  0  0  0
  -25.9682  -30.7808   21.3718 C   0  0  0  0  0  0
  -26.0476  -29.4023   20.7188 C   0  0  0  0  0  0
  -27.2295  -28.5961   20.7136 C   0  0  0  0  0  0
  -26.0417  -26.8586   19.5137 C   0  0  0  0  0  0
  -24.8774  -27.6561   19.5054 C   0  0  0  0  0  0
  -23.6453  -29.8044   20.1625 C   0  0  0  0  0  0
  -25.4118  -36.3076   24.0327 C   0  0  1  0  0  0
  -20.5891  -28.3684   23.1283 C   0  0  2  0  0  0
  -20.6776  -26.9405   22.5425 C   0  0  0  0  0  0
  -19.5763  -26.6380   21.5217 C   0  0  0  0  0  0
  -18.1934  -26.7926   22.1633 C   0  0  0  0  0  0
  -19.1540  -28.8851   23.2886 C   0  0  0  0  0  0
  -18.9469  -30.1442   23.8913 C   0  0  0  0  0  0
  -17.6468  -30.6586   24.0551 C   0  0  0  0  0  0
  -25.9056  -34.9444   23.5107 C   0  0  0  0  0  0
  -16.5355  -29.9083   23.6316 C   0  0  0  0  0  0
  -16.7278  -28.6497   23.0349 C   0  0  0  0  0  0
  -26.4481  -31.6586   25.0721 C   0  0  0  0  0  0
  -25.3690  -31.3745   26.1425 C   0  0  0  0  0  0
  -27.0299  -30.3004   24.6166 C   0  0  0  0  0  0
  -27.6048  -32.4287   25.7494 C   0  0  0  0  0  0
  -27.5586  -37.1805   24.8458 C   0  0  0  0  0  0
  -21.4198  -29.3039   22.3684 N   0  0  0  0  0  0
  -26.4290  -37.3771   23.9408 N   0  0  0  0  0  0
  -24.6925  -31.0550   22.0953 N   0  0  0  0  0  0
  -23.4198  -28.8143   23.3032 O   0  0  0  0  0  0
  -28.3415  -26.4124   20.1449 O   0  0  0  0  0  0
  -26.5654  -34.8910   22.4694 O   0  0  0  0  0  0
  -23.5435  -32.1390   23.7281 O   0  0  0  0  0  0
  -30.3991  -17.3360   22.3635 C   0  0  0  0  0  0
  -30.4006  -18.5901   22.9970 C   0  0  0  0  0  0
  -29.6402  -18.4372   20.3142 C   0  0  0  0  0  0
  -30.0018  -17.2128   21.0189 C   0  0  0  0  0  0
  -29.6404  -19.7626   20.9511 C   0  0  0  0  0  0
  -30.0195  -19.7699   22.3242 C   0  0  0  0  0  0
  -28.2527  -18.6635   16.9037 C   0  0  0  0  0  0
  -29.6884  -19.1786   16.7787 C   0  0  0  0  0  0
  -28.0324  -18.6163   18.4158 C   0  0  0  0  0  0
  -30.4010  -18.6050   18.0075 C   0  0  0  0  0  0
  -28.8009  -23.7005   20.0199 C   0  0  0  0  0  0
  -28.9612  -22.3502   20.9060 C   0  0  0  0  0  0
  -28.1940  -25.0342   20.7203 C   0  0  0  0  0  0
  -29.3408  -18.2733   18.9506 N   0  0  0  0  0  0
  -29.8142  -15.8492   20.4817 N   0  0  0  0  0  0
  -29.3171  -21.0135   20.2641 N   0  0  0  0  0  0
  -30.0512  -20.9178   23.0414 F   0  0  0  0  0  0
  -31.4800  -12.6001   19.1345 H   0  0  0  0  0  0
  -30.3985  -11.4789   19.9313 H   0  0  0  0  0  0
  -29.7842  -11.7442   17.4973 H   0  0  0  0  0  0
  -29.6374  -13.4683   17.7128 H   0  0  0  0  0  0
  -27.9024  -11.2832   18.9048 H   0  0  0  0  0  0
  -27.3721  -12.5230   17.7972 H   0  0  0  0  0  0
  -27.6318  -14.2451   19.4625 H   0  0  0  0  0  0
  -28.7348  -12.1634   21.4110 H   0  0  0  0  0  0
  -28.4381  -13.8470   21.7810 H   0  0  0  0  0  0
  -25.2755   -9.5750   22.4797 H   0  0  0  0  0  0
  -23.9980   -7.4709   22.7578 H   0  0  0  0  0  0
  -21.0849   -8.8837   19.8954 H   0  0  0  0  0  0
  -22.3785  -10.9703   19.6121 H   0  0  0  0  0  0
  -21.1983   -7.6108   23.9685 H   0  0  0  0  0  0
  -21.1495   -6.0484   25.9074 H   0  0  0  0  0  0
  -22.0584   -2.7557   23.2846 H   0  0  0  0  0  0
  -22.4019  -12.0014   22.4877 H   0  0  0  0  0  0
  -21.0982  -13.1310   22.2416 H   0  0  0  0  0  0
  -24.6720  -15.8505   20.5811 H   0  0  0  0  0  0
  -26.2805  -15.6387   20.1188 H   0  0  0  0  0  0
  -26.7167  -32.5456   23.1098 H   0  0  0  0  0  0
  -24.9936  -33.9749   25.0325 H   0  0  0  0  0  0
  -22.7220  -31.2994   21.3953 H   0  0  0  0  0  0
  -23.3758  -35.9637   23.3289 H   0  0  0  0  0  0
  -24.3575  -36.8927   22.2057 H   0  0  0  0  0  0
  -23.7281  -37.6495   23.6666 H   0  0  0  0  0  0
  -26.0973  -31.5407   20.5998 H   0  0  0  0  0  0
  -26.8485  -30.8386   21.9995 H   0  0  0  0  0  0
  -28.1283  -28.9674   21.1823 H   0  0  0  0  0  0
  -26.0074  -25.8905   19.0331 H   0  0  0  0  0  0
  -23.9812  -27.2827   19.0291 H   0  0  0  0  0  0
  -23.7675  -30.5813   19.4081 H   0  0  0  0  0  0
  -22.7658  -29.2359   19.8549 H   0  0  0  0  0  0
  -25.1311  -36.1912   25.0821 H   0  0  0  0  0  0
  -20.9984  -28.3242   24.1400 H   0  0  0  0  0  0
  -20.5651  -26.2296   23.3630 H   0  0  0  0  0  0
  -21.6649  -26.7421   22.1235 H   0  0  0  0  0  0
  -19.6926  -25.6286   21.1248 H   0  0  0  0  0  0
  -19.6695  -27.3186   20.6742 H   0  0  0  0  0  0
  -17.4204  -26.6652   21.4031 H   0  0  0  0  0  0
  -18.0345  -26.0071   22.9045 H   0  0  0  0  0  0
  -19.7939  -30.7247   24.2304 H   0  0  0  0  0  0
  -17.5023  -31.6275   24.5148 H   0  0  0  0  0  0
  -15.5350  -30.3002   23.7630 H   0  0  0  0  0  0
  -15.8674  -28.0811   22.7074 H   0  0  0  0  0  0
  -24.5876  -30.7085   25.7746 H   0  0  0  0  0  0
  -24.8866  -32.2920   26.4796 H   0  0  0  0  0  0
  -25.7973  -30.8959   27.0242 H   0  0  0  0  0  0
  -26.2885  -29.6788   24.1127 H   0  0  0  0  0  0
  -27.3939  -29.7206   25.4663 H   0  0  0  0  0  0
  -27.8779  -30.4292   23.9434 H   0  0  0  0  0  0
  -27.2671  -33.3587   26.2083 H   0  0  0  0  0  0
  -28.3850  -32.6830   25.0301 H   0  0  0  0  0  0
  -28.0715  -31.8391   26.5400 H   0  0  0  0  0  0
  -28.2586  -38.0117   24.7490 H   0  0  0  0  0  0
  -28.1100  -36.2640   24.6284 H   0  0  0  0  0  0
  -27.2308  -37.1457   25.8864 H   0  0  0  0  0  0
  -20.9370  -29.8745   21.6877 H   0  0  0  0  0  0
  -26.0163  -38.2846   24.1393 H   0  0  0  0  0  0
  -30.6610  -16.4590   22.9399 H   0  0  0  0  0  0
  -30.6896  -18.6511   24.0364 H   0  0  0  0  0  0
  -28.1843  -17.6571   16.4832 H   0  0  0  0  0  0
  -27.5237  -19.2924   16.3896 H   0  0  0  0  0  0
  -29.6896  -20.2686   16.8278 H   0  0  0  0  0  0
  -30.1696  -18.8922   15.8421 H   0  0  0  0  0  0
  -27.2879  -17.8630   18.6823 H   0  0  0  0  0  0
  -27.6821  -19.5813   18.7854 H   0  0  0  0  0  0
  -31.1319  -19.3047   18.4177 H   0  0  0  0  0  0
  -30.9302  -17.6850   17.7515 H   0  0  0  0  0  0
  -28.1915  -23.4789   19.1443 H   0  0  0  0  0  0
  -29.7867  -23.9524   19.6308 H   0  0  0  0  0  0
  -28.0410  -22.1967   21.4700 H   0  0  0  0  0  0
  -29.7274  -22.5940   21.6396 H   0  0  0  0  0  0
  -28.6565  -25.1063   21.7047 H   0  0  0  0  0  0
  -27.1452  -24.8407   20.9418 H   0  0  0  0  0  0
  -28.8764  -15.6713   20.1613 H   0  0  0  0  0  0
  -29.1341  -20.9030   19.2726 H   0  0  0  0  0  0
  1 25  1  0  0  0
  1 30  2  0  0  0
  1 85  1  0  0  0
  2  3  1  0  0  0
  2 25  1  0  0  0
  2 88  1  0  0  0
  2 89  1  0  0  0
  3  4  1  0  0  0
  3 90  1  0  0  0
  3 91  1  0  0  0
  4  5  1  0  0  0
  4 92  1  0  0  0
  4 93  1  0  0  0
  5  6  1  0  0  0
  5 26  1  0  0  0
  5 94  1  0  0  0
  6 25  1  0  0  0
  6 95  1  0  0  0
  6 96  1  0  0  0
  7  8  2  0  0  0
  7 26  1  0  0  0
  7 29  1  0  0  0
  8  9  1  0  0  0
  8 22  1  0  0  0
  9 10  1  0  0  0
  9 27  2  0  0  0
 10 11  2  0  0  0
 10 15  1  0  0  0
 11 12  1  0  0  0
 11 97  1  0  0  0
 12 13  2  0  0  0
 12 98  1  0  0  0
 13 14  1  0  0  0
 13 31  1  0  0  0
 14 15  2  0  0  0
 14 99  1  0  0  0
 15100  1  0  0  0
 16 17  2  0  0  0
 16 21  1  0  0  0
 16 31  1  0  0  0
 17 18  1  0  0  0
 17101  1  0  0  0
 18 19  2  0  0  0
 18102  1  0  0  0
 19 20  1  0  0  0
 19 24  1  0  0  0
 20 21  2  0  0  0
 20103  1  0  0  0
 21 23  1  0  0  0
 22 28  1  0  0  0
 22 32  2  0  0  0
 26 27  1  0  0  0
 28104  1  0  0  0
 28105  1  0  0  0
 29106  1  0  0  0
 29107  1  0  0  0
 33 34  1  0  0  0
 33 66  1  0  0  0
 33 70  2  0  0  0
 34 36  1  0  0  0
 34 59  1  0  0  0
 34108  1  0  0  0
 35 44  2  0  0  0
 35 45  1  0  0  0
 35 68  1  0  0  0
 36 56  1  0  0  0
 36109  1  0  0  0
 37 39  1  0  0  0
 37 47  1  0  0  0
 37 66  1  0  0  0
 37110  1  0  0  0
 38 43  2  0  0  0
 38 46  1  0  0  0
 38 47  1  0  0  0
 39 64  1  0  0  0
 39 67  2  0  0  0
 40 52  1  0  0  0
 40 53  2  0  0  0
 40 58  1  0  0  0
 41111  1  0  0  0
 41112  1  0  0  0
 41113  1  0  0  0
 41 48  1  0  0  0
 42 43  1  0  0  0
 42 66  1  0  0  0
 42114  1  0  0  0
 42115  1  0  0  0
 43 44  1  0  0  0
 44116  1  0  0  0
 45 46  2  0  0  0
 45117  1  0  0  0
 46118  1  0  0  0
 47119  1  0  0  0
 47120  1  0  0  0
 48 56  1  0  0  0
 48 65  1  0  0  0
 48121  1  0  0  0
 49 50  1  0  0  0
 49 53  1  0  0  0
 49 64  1  0  0  0
 49122  1  0  0  0
 50 51  1  0  0  0
 50123  1  0  0  0
 50124  1  0  0  0
 51 52  1  0  0  0
 51125  1  0  0  0
 51126  1  0  0  0
 52127  1  0  0  0
 52128  1  0  0  0
 53 54  1  0  0  0
 54 55  2  0  0  0
 54129  1  0  0  0
 55 57  1  0  0  0
 55130  1  0  0  0
 56 69  2  0  0  0
 57 58  2  0  0  0
 57131  1  0  0  0
 58132  1  0  0  0
 59 60  1  0  0  0
 59 61  1  0  0  0
 59 62  1  0  0  0
 60133  1  0  0  0
 60134  1  0  0  0
 60135  1  0  0  0
 61136  1  0  0  0
 61137  1  0  0  0
 61138  1  0  0  0
 62139  1  0  0  0
 62140  1  0  0  0
 62141  1  0  0  0
 63 65  1  0  0  0
 63142  1  0  0  0
 63143  1  0  0  0
 63144  1  0  0  0
 64145  1  0  0  0
 65146  1  0  0  0
 68 83  1  0  0  0
 71 72  2  0  0  0
 71 74  1  0  0  0
 71147  1  0  0  0
 72 76  1  0  0  0
 72148  1  0  0  0
 73 74  2  0  0  0
 73 75  1  0  0  0
 73 84  1  0  0  0
 74 85  1  0  0  0
 75 76  2  0  0  0
 75 86  1  0  0  0
 76 87  1  0  0  0
 77 78  1  0  0  0
 77 79  1  0  0  0
 77149  1  0  0  0
 77150  1  0  0  0
 78 80  1  0  0  0
 78151  1  0  0  0
 78152  1  0  0  0
 79 84  1  0  0  0
 79153  1  0  0  0
 79154  1  0  0  0
 80 84  1  0  0  0
 80155  1  0  0  0
 80156  1  0  0  0
 81 82  1  0  0  0
 81 83  1  0  0  0
 81157  1  0  0  0
 81158  1  0  0  0
 82 86  1  0  0  0
 82159  1  0  0  0
 82160  1  0  0  0
 83161  1  0  0  0
 83162  1  0  0  0
 85163  1  0  0  0
 86164  1  0  0  0
M  ISO  4   1 100  68 101  83 101  85 100
M  END
> <chiral flag>
0

> <version>
0

> <s_m_source_file>
/data/baiqing/PycharmProjects/Reinvent-master-3.2/result/LINK_invent/BTK/process_docking_weight1_custom_product_contain_oxygen_bond_distance_aromatic_linkinvent_7_9_3/rearranged_h_0028.sdf

> <i_m_source_file_index>
38

> <r_mmod_Potential_Energy-OPLS-2005>
316.130340576172

> <r_mmod_Stretch_Energy-OPLS-2005>
121.706871032715

> <r_mmod_Bend_Energy-OPLS-2005>
204.202331542969

> <r_mmod_Torsional_Energy-OPLS-2005>
341.9072265625

> <r_mmod_Improper_Torsional_Energy-OPLS-2005>
13.6173429489136

> <r_mmod_Van_der_Waal_Energy-OPLS-2005>
128.237030029297

> <r_mmod_Electrostatic_Energy-OPLS-2005>
-357.999786376953

> <r_mmod_Solvation_Energy-OPLS-2005>
-213.617370605469

> <b_mmod_Minimization_Converged-OPLS-2005>
0

> <r_mmod_RMS_Derivative-OPLS-2005>
3.82402729988098

$$$$
38
                    3D
 Structure written by MMmdl.
162171  0  0  1  0            999 V2000
  -30.5548  -15.0352   20.4321 C   0  0  0  0  0  0
  -30.4246  -12.6585   19.5074 C   0  0  0  0  0  0
  -29.5190  -12.5562   18.2607 C   0  0  0  0  0  0
  -28.0584  -12.3188   18.6817 C   0  0  0  0  0  0
  -27.6174  -13.2645   19.8293 C   0  0  2  0  0  0
  -28.6556  -13.3546   20.9672 C   0  0  0  0  0  0
  -25.2396  -13.8231   20.5708 C   0  0  0  0  0  0
  -24.1741  -13.0430   20.9220 C   0  0  0  0  0  0
  -24.6389  -11.6925   20.8733 C   0  0  0  0  0  0
  -23.9074  -10.4288   21.0388 C   0  0  0  0  0  0
  -24.3619   -9.4207   21.9167 C   0  0  0  0  0  0
  -23.6298   -8.2239   22.0750 C   0  0  0  0  0  0
  -22.4277   -8.0274   21.3546 C   0  0  0  0  0  0
  -21.9911   -9.0241   20.4641 C   0  0  0  0  0  0
  -22.7240  -10.2120   20.3047 C   0  0  0  0  0  0
  -21.6857   -6.0722   22.5273 C   0  0  0  0  0  0
  -21.4016   -6.5627   23.8203 C   0  0  0  0  0  0
  -21.3664   -5.6790   24.9169 C   0  0  0  0  0  0
  -21.6052   -4.3047   24.7220 C   0  0  0  0  0  0
  -21.8817   -3.8134   23.4337 C   0  0  0  0  0  0
  -21.9185   -4.6952   22.3394 C   0  0  0  0  0  0
  -22.7764  -13.5199   21.1872 C   0  0  0  0  0  0
  -22.1663   -4.2132   21.0973 F   0  0  0  0  0  0
  -21.5626   -3.4539   25.7731 F   0  0  0  0  0  0
  -29.9153  -13.7879   20.3519 N   0  0  0  0  0  0
  -26.2827  -12.9491   20.3206 N   0  0  0  0  0  0
  -25.9325  -11.6609   20.5714 N   0  0  0  0  0  0
  -22.0416  -12.8193   22.0441 N   0  0  0  0  0  0
  -25.4046  -15.1967   20.4150 N   0  0  0  0  0  0
  -31.7644  -15.0021   20.1782 O   0  0  0  0  0  0
  -21.6651   -6.8870   21.4237 O   0  0  0  0  0  0
  -22.3439  -14.5492   20.6694 O   0  0  0  0  0  0
  -24.6486  -31.8358   23.1818 C   0  0  0  0  0  0
  -25.9245  -32.4636   23.8219 C   0  0  1  0  0  0
  -27.2209  -27.0747   20.1645 C   0  0  0  0  0  0
  -25.5995  -33.8457   24.2143 N   0  0  0  0  0  0
  -23.4551  -30.4519   21.5259 C   0  0  2  0  0  0
  -24.9062  -28.8628   20.1038 C   0  0  0  0  0  0
  -22.7598  -29.4506   22.4827 C   0  0  0  0  0  0
  -18.0315  -28.1395   22.8485 C   0  0  0  0  0  0
  -24.1494  -36.7214   23.2643 C   0  0  0  0  0  0
  -26.0121  -30.6895   21.3880 C   0  0  0  0  0  0
  -26.0804  -29.2948   20.7300 C   0  0  0  0  0  0
  -27.2328  -28.4152   20.7447 C   0  0  0  0  0  0
  -26.0204  -26.7534   19.4953 C   0  0  0  0  0  0
  -24.8919  -27.6080   19.4712 C   0  0  0  0  0  0
  -23.6843  -29.7729   20.1460 C   0  0  0  0  0  0
  -25.4127  -36.2988   24.0310 C   0  0  1  0  0  0
  -20.5931  -28.3727   23.1223 C   0  0  2  0  0  0
  -20.6798  -26.9422   22.5407 C   0  0  0  0  0  0
  -19.5771  -26.6377   21.5216 C   0  0  0  0  0  0
  -18.1949  -26.7937   22.1619 C   0  0  0  0  0  0
  -19.1576  -28.8880   23.2847 C   0  0  0  0  0  0
  -18.9494  -30.1480   23.8863 C   0  0  0  0  0  0
  -17.6488  -30.6593   24.0553 C   0  0  0  0  0  0
  -25.9104  -34.9376   23.5032 C   0  0  0  0  0  0
  -16.5377  -29.9083   23.6342 C   0  0  0  0  0  0
  -16.7299  -28.6498   23.0367 C   0  0  0  0  0  0
  -26.4571  -31.6529   25.0680 C   0  0  0  0  0  0
  -25.3764  -31.3741   26.1379 C   0  0  0  0  0  0
  -27.0452  -30.2912   24.6307 C   0  0  0  0  0  0
  -27.6082  -32.4311   25.7474 C   0  0  0  0  0  0
  -27.5570  -37.1744   24.8462 C   0  0  0  0  0  0
  -21.4280  -29.3035   22.3575 N   0  0  0  0  0  0
  -26.4258  -37.3727   23.9436 N   0  0  0  0  0  0
  -24.7246  -31.0174   22.0863 N   0  0  0  0  0  0
  -23.4206  -28.8078   23.3026 O   0  0  0  0  0  0
  -28.2734  -26.0792   20.3046 O   0  0  0  0  0  0
  -26.5679  -34.8895   22.4607 O   0  0  0  0  0  0
  -23.5599  -32.1258   23.7027 O   0  0  0  0  0  0
  -32.7002  -18.3254   21.8664 C   0  0  0  0  0  0
  -31.5954  -17.4767   21.7624 C   0  0  0  0  0  0
  -32.7725  -19.4214   21.0132 C   0  0  0  0  0  0
  -30.3598  -19.1930   20.4531 C   0  0  0  0  0  0
  -30.5048  -17.7100   20.8786 C   0  0  0  0  0  0
  -31.6396  -19.8185   20.2912 C   0  0  0  0  0  0
  -26.9113  -20.8649   20.8197 C   0  0  0  0  0  0
  -27.0133  -22.3224   20.2586 C   0  0  0  0  0  0
  -27.8788  -19.8161   20.1939 C   0  0  0  0  0  0
  -29.4471  -21.7882   20.0163 C   0  0  0  0  0  0
  -28.3835  -23.0206   20.4820 C   0  0  2  0  0  0
  -28.6193  -23.2569   21.9855 C   0  0  0  0  0  0
  -28.3631  -24.5958   19.7545 C   0  0  0  0  0  0
  -29.2666  -20.2349   20.3117 N   0  0  0  0  0  0
  -29.8829  -16.3191   20.5624 N   0  0  0  0  0  0
  -31.8229  -20.8630   19.4454 F   0  0  0  0  0  0
  -31.4596  -12.8033   19.1959 H   0  0  0  0  0  0
  -30.4192  -11.7232   20.0682 H   0  0  0  0  0  0
  -29.8648  -11.7548   17.6068 H   0  0  0  0  0  0
  -29.5905  -13.4772   17.6798 H   0  0  0  0  0  0
  -27.9798  -11.2822   19.0086 H   0  0  0  0  0  0
  -27.3913  -12.4226   17.8252 H   0  0  0  0  0  0
  -27.5630  -14.2558   19.3784 H   0  0  0  0  0  0
  -28.7633  -12.4005   21.4856 H   0  0  0  0  0  0
  -28.3345  -14.0824   21.7135 H   0  0  0  0  0  0
  -25.2766   -9.5686   22.4737 H   0  0  0  0  0  0
  -24.0005   -7.4632   22.7478 H   0  0  0  0  0  0
  -21.0833   -8.8749   19.8961 H   0  0  0  0  0  0
  -22.3689  -10.9643   19.6143 H   0  0  0  0  0  0
  -21.2037   -7.6141   23.9702 H   0  0  0  0  0  0
  -21.1489   -6.0523   25.9071 H   0  0  0  0  0  0
  -22.0600   -2.7596   23.2843 H   0  0  0  0  0  0
  -22.4058  -11.9887   22.4876 H   0  0  0  0  0  0
  -21.1013  -13.1183   22.2614 H   0  0  0  0  0  0
  -24.6335  -15.8468   20.5244 H   0  0  0  0  0  0
  -26.2504  -15.6358   20.0748 H   0  0  0  0  0  0
  -26.7308  -32.5209   23.0946 H   0  0  0  0  0  0
  -25.0201  -33.9583   25.0330 H   0  0  0  0  0  0
  -22.7599  -31.2790   21.3667 H   0  0  0  0  0  0
  -23.3771  -35.9526   23.3260 H   0  0  0  0  0  0
  -24.3600  -36.8891   22.2068 H   0  0  0  0  0  0
  -23.7232  -37.6389   23.6714 H   0  0  0  0  0  0
  -26.1791  -31.4408   20.6145 H   0  0  0  0  0  0
  -26.8795  -30.7386   22.0350 H   0  0  0  0  0  0
  -28.1217  -28.7394   21.2662 H   0  0  0  0  0  0
  -25.9108  -25.7866   19.0297 H   0  0  0  0  0  0
  -23.9937  -27.2657   18.9751 H   0  0  0  0  0  0
  -23.8293  -30.5449   19.3891 H   0  0  0  0  0  0
  -22.7946  -29.2231   19.8310 H   0  0  0  0  0  0
  -25.1314  -36.1780   25.0793 H   0  0  0  0  0  0
  -21.0042  -28.3329   24.1342 H   0  0  0  0  0  0
  -20.5690  -26.2356   23.3646 H   0  0  0  0  0  0
  -21.6663  -26.7421   22.1210 H   0  0  0  0  0  0
  -19.6934  -25.6284   21.1261 H   0  0  0  0  0  0
  -19.6699  -27.3177   20.6734 H   0  0  0  0  0  0
  -17.4231  -26.6712   21.4003 H   0  0  0  0  0  0
  -18.0320  -26.0065   22.8999 H   0  0  0  0  0  0
  -19.7969  -30.7309   24.2198 H   0  0  0  0  0  0
  -17.5041  -31.6263   24.5175 H   0  0  0  0  0  0
  -15.5380  -30.2975   23.7679 H   0  0  0  0  0  0
  -15.8702  -28.0805   22.7097 H   0  0  0  0  0  0
  -24.5989  -30.7020   25.7738 H   0  0  0  0  0  0
  -24.8917  -32.2934   26.4665 H   0  0  0  0  0  0
  -25.8079  -30.9043   27.0226 H   0  0  0  0  0  0
  -26.3082  -29.6608   24.1316 H   0  0  0  0  0  0
  -27.4066  -29.7232   25.4893 H   0  0  0  0  0  0
  -27.8997  -30.4136   23.9646 H   0  0  0  0  0  0
  -27.2661  -33.3663   26.1914 H   0  0  0  0  0  0
  -28.3969  -32.6769   25.0353 H   0  0  0  0  0  0
  -28.0659  -31.8519   26.5503 H   0  0  0  0  0  0
  -28.2530  -38.0093   24.7567 H   0  0  0  0  0  0
  -28.1111  -36.2626   24.6190 H   0  0  0  0  0  0
  -27.2310  -37.1268   25.8866 H   0  0  0  0  0  0
  -20.9517  -29.8712   21.6707 H   0  0  0  0  0  0
  -26.0097  -38.2769   24.1491 H   0  0  0  0  0  0
  -33.5420  -18.0565   22.4887 H   0  0  0  0  0  0
  -31.6756  -16.5490   22.3092 H   0  0  0  0  0  0
  -33.6852  -19.9956   20.9415 H   0  0  0  0  0  0
  -25.8903  -20.5106   20.6713 H   0  0  0  0  0  0
  -27.0486  -20.8786   21.9006 H   0  0  0  0  0  0
  -26.2214  -22.9350   20.6913 H   0  0  0  0  0  0
  -26.8080  -22.2852   19.1876 H   0  0  0  0  0  0
  -27.6488  -19.6741   19.1370 H   0  0  0  0  0  0
  -27.7383  -18.8467   20.6752 H   0  0  0  0  0  0
  -30.3897  -22.1144   20.4537 H   0  0  0  0  0  0
  -29.5749  -21.8687   18.9355 H   0  0  0  0  0  0
  -28.6777  -22.3236   22.5452 H   0  0  0  0  0  0
  -27.8214  -23.8573   22.4237 H   0  0  0  0  0  0
  -29.5585  -23.7831   22.1546 H   0  0  0  0  0  0
  -27.6998  -24.5423   18.8932 H   0  0  0  0  0  0
  -29.3435  -24.6306   19.2780 H   0  0  0  0  0  0
  -28.8766  -16.2919   20.4938 H   0  0  0  0  0  0
  1 25  1  0  0  0
  1 30  2  0  0  0
  1 85  1  0  0  0
  2  3  1  0  0  0
  2 25  1  0  0  0
  2 87  1  0  0  0
  2 88  1  0  0  0
  3  4  1  0  0  0
  3 89  1  0  0  0
  3 90  1  0  0  0
  4  5  1  0  0  0
  4 91  1  0  0  0
  4 92  1  0  0  0
  5  6  1  0  0  0
  5 26  1  0  0  0
  5 93  1  0  0  0
  6 25  1  0  0  0
  6 94  1  0  0  0
  6 95  1  0  0  0
  7  8  2  0  0  0
  7 26  1  0  0  0
  7 29  1  0  0  0
  8  9  1  0  0  0
  8 22  1  0  0  0
  9 10  1  0  0  0
  9 27  2  0  0  0
 10 11  2  0  0  0
 10 15  1  0  0  0
 11 12  1  0  0  0
 11 96  1  0  0  0
 12 13  2  0  0  0
 12 97  1  0  0  0
 13 14  1  0  0  0
 13 31  1  0  0  0
 14 15  2  0  0  0
 14 98  1  0  0  0
 15 99  1  0  0  0
 16 17  2  0  0  0
 16 21  1  0  0  0
 16 31  1  0  0  0
 17 18  1  0  0  0
 17100  1  0  0  0
 18 19  2  0  0  0
 18101  1  0  0  0
 19 20  1  0  0  0
 19 24  1  0  0  0
 20 21  2  0  0  0
 20102  1  0  0  0
 21 23  1  0  0  0
 22 28  1  0  0  0
 22 32  2  0  0  0
 26 27  1  0  0  0
 28103  1  0  0  0
 28104  1  0  0  0
 29105  1  0  0  0
 29106  1  0  0  0
 33 34  1  0  0  0
 33 66  1  0  0  0
 33 70  2  0  0  0
 34 36  1  0  0  0
 34 59  1  0  0  0
 34107  1  0  0  0
 35 44  2  0  0  0
 35 45  1  0  0  0
 35 68  1  0  0  0
 36 56  1  0  0  0
 36108  1  0  0  0
 37 39  1  0  0  0
 37 47  1  0  0  0
 37 66  1  0  0  0
 37109  1  0  0  0
 38 43  2  0  0  0
 38 46  1  0  0  0
 38 47  1  0  0  0
 39 64  1  0  0  0
 39 67  2  0  0  0
 40 52  1  0  0  0
 40 53  2  0  0  0
 40 58  1  0  0  0
 41110  1  0  0  0
 41111  1  0  0  0
 41112  1  0  0  0
 41 48  1  0  0  0
 42 43  1  0  0  0
 42 66  1  0  0  0
 42113  1  0  0  0
 42114  1  0  0  0
 43 44  1  0  0  0
 44115  1  0  0  0
 45 46  2  0  0  0
 45116  1  0  0  0
 46117  1  0  0  0
 47118  1  0  0  0
 47119  1  0  0  0
 48 56  1  0  0  0
 48 65  1  0  0  0
 48120  1  0  0  0
 49 50  1  0  0  0
 49 53  1  0  0  0
 49 64  1  0  0  0
 49121  1  0  0  0
 50 51  1  0  0  0
 50122  1  0  0  0
 50123  1  0  0  0
 51 52  1  0  0  0
 51124  1  0  0  0
 51125  1  0  0  0
 52126  1  0  0  0
 52127  1  0  0  0
 53 54  1  0  0  0
 54 55  2  0  0  0
 54128  1  0  0  0
 55 57  1  0  0  0
 55129  1  0  0  0
 56 69  2  0  0  0
 57 58  2  0  0  0
 57130  1  0  0  0
 58131  1  0  0  0
 59 60  1  0  0  0
 59 61  1  0  0  0
 59 62  1  0  0  0
 60132  1  0  0  0
 60133  1  0  0  0
 60134  1  0  0  0
 61135  1  0  0  0
 61136  1  0  0  0
 61137  1  0  0  0
 62138  1  0  0  0
 62139  1  0  0  0
 62140  1  0  0  0
 63 65  1  0  0  0
 63141  1  0  0  0
 63142  1  0  0  0
 63143  1  0  0  0
 64144  1  0  0  0
 65145  1  0  0  0
 68 83  1  0  0  0
 71 72  2  0  0  0
 71 73  1  0  0  0
 71146  1  0  0  0
 72 75  1  0  0  0
 72147  1  0  0  0
 73 76  2  0  0  0
 73148  1  0  0  0
 74 75  2  0  0  0
 74 76  1  0  0  0
 74 84  1  0  0  0
 75 85  1  0  0  0
 76 86  1  0  0  0
 77 78  1  0  0  0
 77 79  1  0  0  0
 77149  1  0  0  0
 77150  1  0  0  0
 78 81  1  0  0  0
 78151  1  0  0  0
 78152  1  0  0  0
 79 84  1  0  0  0
 79153  1  0  0  0
 79154  1  0  0  0
 80 81  1  0  0  0
 80 84  1  0  0  0
 80155  1  0  0  0
 80156  1  0  0  0
 81 82  1  0  0  0
 81 83  1  0  0  0
 82157  1  0  0  0
 82158  1  0  0  0
 82159  1  0  0  0
 83160  1  0  0  0
 83161  1  0  0  0
 85162  1  0  0  0
M  ISO  4   1 100  68 101  83 101  85 100
M  END
> <chiral flag>
0

> <version>
0

> <s_m_source_file>
/data/baiqing/PycharmProjects/Reinvent-master-3.2/result/LINK_invent/BTK/process_docking_weight1_custom_product_contain_oxygen_bond_distance_aromatic_linkinvent_7_9_3/rearranged_h_0028.sdf

> <i_m_source_file_index>
39

> <r_mmod_Potential_Energy-OPLS-2005>
1008.66149902344

> <r_mmod_Stretch_Energy-OPLS-2005>
370.559173583984

> <r_mmod_Bend_Energy-OPLS-2005>
404.427856445312

> <r_mmod_Torsional_Energy-OPLS-2005>
382.528045654297

> <r_mmod_Improper_Torsional_Energy-OPLS-2005>
6.86306619644165

> <r_mmod_Van_der_Waal_Energy-OPLS-2005>
156.111526489258

> <r_mmod_Electrostatic_Energy-OPLS-2005>
-349.872985839844

> <r_mmod_Solvation_Energy-OPLS-2005>
-216.213836669922

> <b_mmod_Minimization_Converged-OPLS-2005>
0

> <r_mmod_RMS_Derivative-OPLS-2005>
2.6209979057312

$$$$
39
                    3D
 Structure written by MMmdl.
163172  0  0  1  0            999 V2000
  -30.6791  -14.6142   20.5015 C   0  0  0  0  0  0
  -30.4196  -12.3814   19.4513 C   0  0  0  0  0  0
  -29.4994  -12.4986   18.2190 C   0  0  0  0  0  0
  -28.0238  -12.3430   18.6335 C   0  0  0  0  0  0
  -27.6471  -13.2255   19.8547 C   0  0  2  0  0  0
  -28.6921  -13.1131   20.9865 C   0  0  0  0  0  0
  -25.2531  -13.8195   20.5675 C   0  0  0  0  0  0
  -24.1814  -13.0447   20.9192 C   0  0  0  0  0  0
  -24.6398  -11.6924   20.8743 C   0  0  0  0  0  0
  -23.9074  -10.4301   21.0408 C   0  0  0  0  0  0
  -24.3622   -9.4216   21.9186 C   0  0  0  0  0  0
  -23.6295   -8.2254   22.0758 C   0  0  0  0  0  0
  -22.4277   -8.0290   21.3550 C   0  0  0  0  0  0
  -21.9917   -9.0264   20.4645 C   0  0  0  0  0  0
  -22.7251  -10.2140   20.3056 C   0  0  0  0  0  0
  -21.6854   -6.0741   22.5280 C   0  0  0  0  0  0
  -21.4011   -6.5642   23.8214 C   0  0  0  0  0  0
  -21.3655   -5.6795   24.9176 C   0  0  0  0  0  0
  -21.6044   -4.3059   24.7227 C   0  0  0  0  0  0
  -21.8820   -3.8151   23.4349 C   0  0  0  0  0  0
  -21.9192   -4.6967   22.3405 C   0  0  0  0  0  0
  -22.7836  -13.5232   21.1854 C   0  0  0  0  0  0
  -22.1661   -4.2153   21.0982 F   0  0  0  0  0  0
  -21.5629   -3.4543   25.7741 F   0  0  0  0  0  0
  -30.0053  -13.4264   20.4094 N   0  0  0  0  0  0
  -26.2962  -12.9397   20.3291 N   0  0  0  0  0  0
  -25.9326  -11.6542   20.5751 N   0  0  0  0  0  0
  -22.0471  -12.8222   22.0404 N   0  0  0  0  0  0
  -25.4228  -15.1919   20.4085 N   0  0  0  0  0  0
  -31.8562  -14.6987   20.1438 O   0  0  0  0  0  0
  -21.6643   -6.8887   21.4245 O   0  0  0  0  0  0
  -22.3523  -14.5540   20.6706 O   0  0  0  0  0  0
  -24.6275  -31.8618   23.2058 C   0  0  0  0  0  0
  -25.9132  -32.4785   23.8370 C   0  0  1  0  0  0
  -27.2087  -27.3201   20.1087 C   0  0  0  0  0  0
  -25.5948  -33.8581   24.2302 N   0  0  0  0  0  0
  -23.4186  -30.4907   21.5491 C   0  0  2  0  0  0
  -24.8605  -28.9545   20.1069 C   0  0  0  0  0  0
  -22.7476  -29.4650   22.4939 C   0  0  0  0  0  0
  -18.0290  -28.1373   22.8494 C   0  0  0  0  0  0
  -24.1487  -36.7288   23.2639 C   0  0  0  0  0  0
  -25.9610  -30.7930   21.3766 C   0  0  0  0  0  0
  -26.0316  -29.4227   20.7158 C   0  0  0  0  0  0
  -27.2092  -28.6159   20.7116 C   0  0  0  0  0  0
  -26.0157  -26.9209   19.4567 C   0  0  0  0  0  0
  -24.8533  -27.7083   19.4699 C   0  0  0  0  0  0
  -23.6303  -29.8346   20.1612 C   0  0  0  0  0  0
  -25.4111  -36.3084   24.0336 C   0  0  1  0  0  0
  -20.5893  -28.3689   23.1279 C   0  0  2  0  0  0
  -20.6783  -26.9414   22.5408 C   0  0  0  0  0  0
  -19.5754  -26.6381   21.5214 C   0  0  0  0  0  0
  -18.1930  -26.7918   22.1624 C   0  0  0  0  0  0
  -19.1544  -28.8845   23.2878 C   0  0  0  0  0  0
  -18.9467  -30.1443   23.8904 C   0  0  0  0  0  0
  -17.6470  -30.6581   24.0565 C   0  0  0  0  0  0
  -25.9054  -34.9452   23.5117 C   0  0  0  0  0  0
  -16.5361  -29.9083   23.6330 C   0  0  0  0  0  0
  -16.7280  -28.6493   23.0370 C   0  0  0  0  0  0
  -26.4515  -31.6583   25.0730 C   0  0  0  0  0  0
  -25.3747  -31.3702   26.1452 C   0  0  0  0  0  0
  -27.0377  -30.3020   24.6167 C   0  0  0  0  0  0
  -27.6063  -32.4324   25.7507 C   0  0  0  0  0  0
  -27.5575  -37.1804   24.8471 C   0  0  0  0  0  0
  -21.4193  -29.3050   22.3677 N   0  0  0  0  0  0
  -26.4287  -37.3779   23.9414 N   0  0  0  0  0  0
  -24.6882  -31.0638   22.1009 N   0  0  0  0  0  0
  -23.4205  -28.8175   23.3001 O   0  0  0  0  0  0
  -28.3060  -26.4425   20.1837 O   0  0  0  0  0  0
  -26.5607  -34.8918   22.4675 O   0  0  0  0  0  0
  -23.5446  -32.1420   23.7394 O   0  0  0  0  0  0
  -29.7561  -20.8323   21.2913 C   0  0  0  0  0  0
  -28.6190  -20.1078   19.2836 C   0  0  0  0  0  0
  -30.1572  -19.4761   21.5263 C   0  0  0  0  0  0
  -29.8254  -18.4445   20.6239 C   0  0  0  0  0  0
  -28.9848  -21.1782   20.1498 C   0  0  0  0  0  0
  -29.0373  -18.7626   19.4976 C   0  0  0  0  0  0
  -30.9747  -18.9002   22.6193 C   0  0  0  0  0  0
  -31.4898  -19.5140   23.7151 C   0  0  0  0  0  0
  -31.1497  -17.4049   22.3359 C   0  0  0  0  0  0
  -30.5796  -17.1229   20.9328 C   0  0  1  0  0  0
  -32.3321  -18.7819   24.7503 C   0  0  0  0  0  0
  -31.2952  -20.9792   24.0596 C   0  0  0  0  0  0
  -28.9847  -23.8238   20.3782 C   0  0  0  0  0  0
  -28.0325  -25.0117   19.9177 C   0  0  0  0  0  0
  -28.5489  -22.5047   19.8244 N   0  0  0  0  0  0
  -29.9789  -15.7461   20.8265 N   0  0  0  0  0  0
  -28.7129  -17.7995   18.6010 F   0  0  0  0  0  0
  -31.4643  -12.4765   19.1509 H   0  0  0  0  0  0
  -30.3301  -11.3941   19.9064 H   0  0  0  0  0  0
  -29.7612  -11.7421   17.4779 H   0  0  0  0  0  0
  -29.6478  -13.4659   17.7356 H   0  0  0  0  0  0
  -27.8608  -11.2915   18.8723 H   0  0  0  0  0  0
  -27.3703  -12.5662   17.7895 H   0  0  0  0  0  0
  -27.6585  -14.2563   19.4998 H   0  0  0  0  0  0
  -28.6974  -12.1070   21.4084 H   0  0  0  0  0  0
  -28.4478  -13.7874   21.8090 H   0  0  0  0  0  0
  -25.2763   -9.5691   22.4766 H   0  0  0  0  0  0
  -24.0000   -7.4645   22.7481 H   0  0  0  0  0  0
  -21.0850   -8.8788   19.8948 H   0  0  0  0  0  0
  -22.3715  -10.9682   19.6164 H   0  0  0  0  0  0
  -21.2002   -7.6149   23.9718 H   0  0  0  0  0  0
  -21.1473   -6.0525   25.9077 H   0  0  0  0  0  0
  -22.0602   -2.7613   23.2852 H   0  0  0  0  0  0
  -22.4077  -11.9882   22.4797 H   0  0  0  0  0  0
  -21.1082  -13.1246   22.2590 H   0  0  0  0  0  0
  -24.6518  -15.8436   20.5073 H   0  0  0  0  0  0
  -26.2703  -15.6320   20.0726 H   0  0  0  0  0  0
  -26.7197  -32.5465   23.1114 H   0  0  0  0  0  0
  -25.0125  -33.9720   25.0469 H   0  0  0  0  0  0
  -22.7131  -31.3127   21.4112 H   0  0  0  0  0  0
  -23.3751  -35.9616   23.3296 H   0  0  0  0  0  0
  -24.3578  -36.8918   22.2054 H   0  0  0  0  0  0
  -23.7229  -37.6484   23.6664 H   0  0  0  0  0  0
  -26.0903  -31.5576   20.6094 H   0  0  0  0  0  0
  -26.8430  -30.8405   22.0035 H   0  0  0  0  0  0
  -28.1041  -28.9646   21.2082 H   0  0  0  0  0  0
  -25.9357  -25.9794   18.9348 H   0  0  0  0  0  0
  -23.9571  -27.3478   18.9829 H   0  0  0  0  0  0
  -23.7491  -30.6163   19.4097 H   0  0  0  0  0  0
  -22.7491  -29.2661   19.8576 H   0  0  0  0  0  0
  -25.1281  -36.1940   25.0825 H   0  0  0  0  0  0
  -20.9987  -28.3274   24.1400 H   0  0  0  0  0  0
  -20.5706  -26.2302   23.3609 H   0  0  0  0  0  0
  -21.6645  -26.7459   22.1183 H   0  0  0  0  0  0
  -19.6924  -25.6296   21.1237 H   0  0  0  0  0  0
  -19.6679  -27.3199   20.6746 H   0  0  0  0  0  0
  -17.4205  -26.6687   21.4019 H   0  0  0  0  0  0
  -18.0310  -26.0043   22.8999 H   0  0  0  0  0  0
  -19.7946  -30.7245   24.2284 H   0  0  0  0  0  0
  -17.5030  -31.6267   24.5156 H   0  0  0  0  0  0
  -15.5364  -30.2989   23.7638 H   0  0  0  0  0  0
  -15.8680  -28.0807   22.7094 H   0  0  0  0  0  0
  -24.5938  -30.7038   25.7769 H   0  0  0  0  0  0
  -24.8921  -32.2861   26.4870 H   0  0  0  0  0  0
  -25.8067  -30.8883   27.0232 H   0  0  0  0  0  0
  -26.2959  -29.6746   24.1215 H   0  0  0  0  0  0
  -27.4129  -29.7287   25.4650 H   0  0  0  0  0  0
  -27.8795  -30.4320   23.9363 H   0  0  0  0  0  0
  -27.2676  -33.3651   26.2026 H   0  0  0  0  0  0
  -28.3906  -32.6838   25.0354 H   0  0  0  0  0  0
  -28.0687  -31.8484   26.5475 H   0  0  0  0  0  0
  -28.2586  -38.0104   24.7517 H   0  0  0  0  0  0
  -28.1072  -36.2634   24.6295 H   0  0  0  0  0  0
  -27.2289  -37.1458   25.8872 H   0  0  0  0  0  0
  -20.9371  -29.8783   21.6896 H   0  0  0  0  0  0
  -26.0172  -38.2855   24.1408 H   0  0  0  0  0  0
  -30.0422  -21.6237   21.9608 H   0  0  0  0  0  0
  -28.0258  -20.3141   18.4048 H   0  0  0  0  0  0
  -30.5713  -16.8646   23.0875 H   0  0  0  0  0  0
  -32.1875  -17.0813   22.4150 H   0  0  0  0  0  0
  -31.4132  -17.1645   20.2286 H   0  0  0  0  0  0
  -32.4888  -17.7281   24.5296 H   0  0  0  0  0  0
  -31.8557  -18.8392   25.7295 H   0  0  0  0  0  0
  -33.3146  -19.2497   24.8253 H   0  0  0  0  0  0
  -30.2351  -21.2306   24.0974 H   0  0  0  0  0  0
  -31.7997  -21.6165   23.3333 H   0  0  0  0  0  0
  -31.7086  -21.2155   25.0411 H   0  0  0  0  0  0
  -29.0168  -23.7765   21.4676 H   0  0  0  0  0  0
  -30.0033  -24.0228   20.0424 H   0  0  0  0  0  0
  -27.0686  -24.7608   20.3640 H   0  0  0  0  0  0
  -27.9111  -24.9234   18.8370 H   0  0  0  0  0  0
  -27.9867  -22.5833   18.9800 H   0  0  0  0  0  0
  -28.9983  -15.6446   21.0368 H   0  0  0  0  0  0
  1 25  1  0  0  0
  1 30  2  0  0  0
  1 86  1  0  0  0
  2  3  1  0  0  0
  2 25  1  0  0  0
  2 88  1  0  0  0
  2 89  1  0  0  0
  3  4  1  0  0  0
  3 90  1  0  0  0
  3 91  1  0  0  0
  4  5  1  0  0  0
  4 92  1  0  0  0
  4 93  1  0  0  0
  5  6  1  0  0  0
  5 26  1  0  0  0
  5 94  1  0  0  0
  6 25  1  0  0  0
  6 95  1  0  0  0
  6 96  1  0  0  0
  7  8  2  0  0  0
  7 26  1  0  0  0
  7 29  1  0  0  0
  8  9  1  0  0  0
  8 22  1  0  0  0
  9 10  1  0  0  0
  9 27  2  0  0  0
 10 11  2  0  0  0
 10 15  1  0  0  0
 11 12  1  0  0  0
 11 97  1  0  0  0
 12 13  2  0  0  0
 12 98  1  0  0  0
 13 14  1  0  0  0
 13 31  1  0  0  0
 14 15  2  0  0  0
 14 99  1  0  0  0
 15100  1  0  0  0
 16 17  2  0  0  0
 16 21  1  0  0  0
 16 31  1  0  0  0
 17 18  1  0  0  0
 17101  1  0  0  0
 18 19  2  0  0  0
 18102  1  0  0  0
 19 20  1  0  0  0
 19 24  1  0  0  0
 20 21  2  0  0  0
 20103  1  0  0  0
 21 23  1  0  0  0
 22 28  1  0  0  0
 22 32  2  0  0  0
 26 27  1  0  0  0
 28104  1  0  0  0
 28105  1  0  0  0
 29106  1  0  0  0
 29107  1  0  0  0
 33 34  1  0  0  0
 33 66  1  0  0  0
 33 70  2  0  0  0
 34 36  1  0  0  0
 34 59  1  0  0  0
 34108  1  0  0  0
 35 44  2  0  0  0
 35 45  1  0  0  0
 35 68  1  0  0  0
 36 56  1  0  0  0
 36109  1  0  0  0
 37 39  1  0  0  0
 37 47  1  0  0  0
 37 66  1  0  0  0
 37110  1  0  0  0
 38 43  2  0  0  0
 38 46  1  0  0  0
 38 47  1  0  0  0
 39 64  1  0  0  0
 39 67  2  0  0  0
 40 52  1  0  0  0
 40 53  2  0  0  0
 40 58  1  0  0  0
 41111  1  0  0  0
 41112  1  0  0  0
 41113  1  0  0  0
 41 48  1  0  0  0
 42 43  1  0  0  0
 42 66  1  0  0  0
 42114  1  0  0  0
 42115  1  0  0  0
 43 44  1  0  0  0
 44116  1  0  0  0
 45 46  2  0  0  0
 45117  1  0  0  0
 46118  1  0  0  0
 47119  1  0  0  0
 47120  1  0  0  0
 48 56  1  0  0  0
 48 65  1  0  0  0
 48121  1  0  0  0
 49 50  1  0  0  0
 49 53  1  0  0  0
 49 64  1  0  0  0
 49122  1  0  0  0
 50 51  1  0  0  0
 50123  1  0  0  0
 50124  1  0  0  0
 51 52  1  0  0  0
 51125  1  0  0  0
 51126  1  0  0  0
 52127  1  0  0  0
 52128  1  0  0  0
 53 54  1  0  0  0
 54 55  2  0  0  0
 54129  1  0  0  0
 55 57  1  0  0  0
 55130  1  0  0  0
 56 69  2  0  0  0
 57 58  2  0  0  0
 57131  1  0  0  0
 58132  1  0  0  0
 59 60  1  0  0  0
 59 61  1  0  0  0
 59 62  1  0  0  0
 60133  1  0  0  0
 60134  1  0  0  0
 60135  1  0  0  0
 61136  1  0  0  0
 61137  1  0  0  0
 61138  1  0  0  0
 62139  1  0  0  0
 62140  1  0  0  0
 62141  1  0  0  0
 63 65  1  0  0  0
 63142  1  0  0  0
 63143  1  0  0  0
 63144  1  0  0  0
 64145  1  0  0  0
 65146  1  0  0  0
 68 84  1  0  0  0
 71 73  2  0  0  0
 71 75  1  0  0  0
 71147  1  0  0  0
 72 75  2  0  0  0
 72 76  1  0  0  0
 72148  1  0  0  0
 73 74  1  0  0  0
 73 77  1  0  0  0
 74 76  2  0  0  0
 74 80  1  0  0  0
 75 85  1  0  0  0
 76 87  1  0  0  0
 77 78  2  0  0  0
 77 79  1  0  0  0
 78 81  1  0  0  0
 78 82  1  0  0  0
 79 80  1  0  0  0
 79149  1  0  0  0
 79150  1  0  0  0
 80 86  1  0  0  0
 80151  1  0  0  0
 81152  1  0  0  0
 81153  1  0  0  0
 81154  1  0  0  0
 82155  1  0  0  0
 82156  1  0  0  0
 82157  1  0  0  0
 83 84  1  0  0  0
 83 85  1  0  0  0
 83158  1  0  0  0
 83159  1  0  0  0
 84160  1  0  0  0
 84161  1  0  0  0
 85162  1  0  0  0
 86163  1  0  0  0
M  ISO  4   1 100  68 101  84 101  86 100
M  END
> <chiral flag>
0

> <version>
0

> <s_m_source_file>
/data/baiqing/PycharmProjects/Reinvent-master-3.2/result/LINK_invent/BTK/process_docking_weight1_custom_product_contain_oxygen_bond_distance_aromatic_linkinvent_7_9_3/rearranged_h_0028.sdf

> <i_m_source_file_index>
40

> <r_mmod_Potential_Energy-OPLS-2005>
126.624641418457

> <r_mmod_Stretch_Energy-OPLS-2005>
72.8874206542969

> <r_mmod_Bend_Energy-OPLS-2005>
214.447784423828

> <r_mmod_Torsional_Energy-OPLS-2005>
203.421676635742

> <r_mmod_Improper_Torsional_Energy-OPLS-2005>
5.13820552825928

> <r_mmod_Van_der_Waal_Energy-OPLS-2005>
154.507629394531

> <r_mmod_Electrostatic_Energy-OPLS-2005>
-363.928833007812

> <r_mmod_Solvation_Energy-OPLS-2005>
-209.655303955078

> <b_mmod_Minimization_Converged-OPLS-2005>
0

> <r_mmod_RMS_Derivative-OPLS-2005>
1.15320539474487

$$$$
40
                    3D
 Structure written by MMmdl.
156165  0  0  1  0            999 V2000
  -30.6475  -14.7898   20.4471 C   0  0  0  0  0  0
  -30.4426  -12.4825   19.5070 C   0  0  0  0  0  0
  -29.5345  -12.5331   18.2597 C   0  0  0  0  0  0
  -28.0556  -12.3527   18.6528 C   0  0  0  0  0  0
  -27.6498  -13.2478   19.8568 C   0  0  2  0  0  0
  -28.6974  -13.2197   20.9985 C   0  0  0  0  0  0
  -25.2531  -13.8230   20.5739 C   0  0  0  0  0  0
  -24.1848  -13.0436   20.9234 C   0  0  0  0  0  0
  -24.6461  -11.6927   20.8724 C   0  0  0  0  0  0
  -23.9112  -10.4301   21.0395 C   0  0  0  0  0  0
  -24.3634   -9.4260   21.9193 C   0  0  0  0  0  0
  -23.6294   -8.2295   22.0757 C   0  0  0  0  0  0
  -22.4280   -8.0281   21.3549 C   0  0  0  0  0  0
  -21.9907   -9.0264   20.4641 C   0  0  0  0  0  0
  -22.7246  -10.2137   20.3078 C   0  0  0  0  0  0
  -21.6871   -6.0731   22.5281 C   0  0  0  0  0  0
  -21.4014   -6.5632   23.8227 C   0  0  0  0  0  0
  -21.3663   -5.6798   24.9184 C   0  0  0  0  0  0
  -21.6064   -4.3068   24.7253 C   0  0  0  0  0  0
  -21.8808   -3.8153   23.4373 C   0  0  0  0  0  0
  -21.9204   -4.6968   22.3414 C   0  0  0  0  0  0
  -22.7865  -13.5234   21.1854 C   0  0  0  0  0  0
  -22.1672   -4.2156   21.0994 F   0  0  0  0  0  0
  -21.5633   -3.4538   25.7769 F   0  0  0  0  0  0
  -30.0034  -13.5642   20.4244 N   0  0  0  0  0  0
  -26.3012  -12.9472   20.3333 N   0  0  0  0  0  0
  -25.9397  -11.6589   20.5735 N   0  0  0  0  0  0
  -22.0514  -12.8221   22.0409 N   0  0  0  0  0  0
  -25.4174  -15.1961   20.4105 N   0  0  0  0  0  0
  -31.8181  -14.8592   20.0665 O   0  0  0  0  0  0
  -21.6658   -6.8865   21.4241 O   0  0  0  0  0  0
  -22.3550  -14.5540   20.6684 O   0  0  0  0  0  0
  -24.6296  -31.8549   23.2016 C   0  0  0  0  0  0
  -25.9146  -32.4737   23.8345 C   0  0  1  0  0  0
  -27.2003  -27.2508   20.1365 C   0  0  0  0  0  0
  -25.5953  -33.8542   24.2264 N   0  0  0  0  0  0
  -23.4198  -30.4775   21.5479 C   0  0  2  0  0  0
  -24.8609  -28.9242   20.1059 C   0  0  0  0  0  0
  -22.7453  -29.4618   22.4987 C   0  0  0  0  0  0
  -18.0296  -28.1413   22.8491 C   0  0  0  0  0  0
  -24.1492  -36.7288   23.2630 C   0  0  0  0  0  0
  -25.9599  -30.7662   21.3759 C   0  0  0  0  0  0
  -26.0295  -29.3839   20.7281 C   0  0  0  0  0  0
  -27.1932  -28.5529   20.7458 C   0  0  0  0  0  0
  -26.0249  -26.8804   19.4473 C   0  0  0  0  0  0
  -24.8646  -27.6824   19.4534 C   0  0  0  0  0  0
  -23.6310  -29.8098   20.1620 C   0  0  0  0  0  0
  -25.4110  -36.3048   24.0308 C   0  0  1  0  0  0
  -20.5889  -28.3702   23.1311 C   0  0  2  0  0  0
  -20.6824  -26.9445   22.5425 C   0  0  0  0  0  0
  -19.5805  -26.6405   21.5225 C   0  0  0  0  0  0
  -18.1955  -26.7951   22.1604 C   0  0  0  0  0  0
  -19.1542  -28.8877   23.2875 C   0  0  0  0  0  0
  -18.9467  -30.1483   23.8875 C   0  0  0  0  0  0
  -17.6473  -30.6609   24.0569 C   0  0  0  0  0  0
  -25.9057  -34.9428   23.5082 C   0  0  0  0  0  0
  -16.5354  -29.9090   23.6366 C   0  0  0  0  0  0
  -16.7274  -28.6527   23.0348 C   0  0  0  0  0  0
  -26.4543  -31.6539   25.0703 C   0  0  0  0  0  0
  -25.3792  -31.3682   26.1438 C   0  0  0  0  0  0
  -27.0391  -30.2970   24.6154 C   0  0  0  0  0  0
  -27.6095  -32.4260   25.7488 C   0  0  0  0  0  0
  -27.5589  -37.1772   24.8439 C   0  0  0  0  0  0
  -21.4174  -29.3011   22.3672 N   0  0  0  0  0  0
  -26.4260  -37.3764   23.9426 N   0  0  0  0  0  0
  -24.6904  -31.0519   22.0989 N   0  0  0  0  0  0
  -23.4157  -28.8193   23.3118 O   0  0  0  0  0  0
  -28.2914  -26.3565   20.2426 O   0  0  0  0  0  0
  -26.5631  -34.8885   22.4654 O   0  0  0  0  0  0
  -23.5461  -32.1388   23.7334 O   0  0  0  0  0  0
  -31.3074  -19.0036   21.5185 C   0  0  0  0  0  0
  -31.5958  -20.3027   21.9946 C   0  0  0  0  0  0
  -29.4165  -19.9430   20.3197 C   0  0  0  0  0  0
  -30.2118  -18.7671   20.6609 C   0  0  0  0  0  0
  -29.6958  -21.3058   20.7736 C   0  0  0  0  0  0
  -30.8171  -21.4292   21.6407 C   0  0  0  0  0  0
  -27.0567  -24.0532   20.6509 C   0  0  0  0  0  0
  -27.4950  -22.5497   20.6476 C   0  0  0  0  0  0
  -29.3748  -23.9299   20.4003 C   0  0  0  0  0  0
  -28.1773  -24.8773   19.9631 C   0  0  2  0  0  0
  -30.0947  -17.3251   19.9629 C   0  0  0  0  0  0
  -28.9298  -22.4936   20.3857 N   0  0  0  0  0  0
  -29.9275  -15.9623   20.6647 N   0  0  0  0  0  0
  -31.1693  -22.6330   22.1587 F   0  0  0  0  0  0
  -31.4870  -12.5962   19.2066 H   0  0  0  0  0  0
  -30.3699  -11.5104   20.0021 H   0  0  0  0  0  0
  -29.8289  -11.7581   17.5562 H   0  0  0  0  0  0
  -29.6626  -13.4847   17.7362 H   0  0  0  0  0  0
  -27.9070  -11.3012   18.8986 H   0  0  0  0  0  0
  -27.4162  -12.5636   17.7980 H   0  0  0  0  0  0
  -27.6254  -14.2654   19.4672 H   0  0  0  0  0  0
  -28.7401  -12.2416   21.4822 H   0  0  0  0  0  0
  -28.4202  -13.9273   21.7798 H   0  0  0  0  0  0
  -25.2820   -9.5737   22.4746 H   0  0  0  0  0  0
  -24.0042   -7.4698   22.7422 H   0  0  0  0  0  0
  -21.0881   -8.8726   19.8921 H   0  0  0  0  0  0
  -22.3695  -10.9643   19.6158 H   0  0  0  0  0  0
  -21.1981   -7.6134   23.9716 H   0  0  0  0  0  0
  -21.1490   -6.0540   25.9079 H   0  0  0  0  0  0
  -22.0579   -2.7614   23.2898 H   0  0  0  0  0  0
  -22.4135  -11.9895   22.4830 H   0  0  0  0  0  0
  -21.1099  -13.1189   22.2516 H   0  0  0  0  0  0
  -24.6416  -15.8405   20.5039 H   0  0  0  0  0  0
  -26.2629  -15.6430   20.0799 H   0  0  0  0  0  0
  -26.7190  -32.5406   23.1058 H   0  0  0  0  0  0
  -25.0088  -33.9704   25.0406 H   0  0  0  0  0  0
  -22.7135  -31.2981   21.4065 H   0  0  0  0  0  0
  -23.3749  -35.9623   23.3222 H   0  0  0  0  0  0
  -24.3609  -36.8997   22.2060 H   0  0  0  0  0  0
  -23.7232  -37.6452   23.6720 H   0  0  0  0  0  0
  -26.0714  -31.5180   20.5932 H   0  0  0  0  0  0
  -26.8481  -30.8364   21.9932 H   0  0  0  0  0  0
  -28.0749  -28.8801   21.2771 H   0  0  0  0  0  0
  -25.9785  -25.9504   18.9026 H   0  0  0  0  0  0
  -23.9733  -27.3394   18.9424 H   0  0  0  0  0  0
  -23.7313  -30.5823   19.3969 H   0  0  0  0  0  0
  -22.7494  -29.2327   19.8746 H   0  0  0  0  0  0
  -25.1289  -36.1869   25.0796 H   0  0  0  0  0  0
  -20.9954  -28.3293   24.1438 H   0  0  0  0  0  0
  -20.5821  -26.2293   23.3602 H   0  0  0  0  0  0
  -21.6683  -26.7550   22.1167 H   0  0  0  0  0  0
  -19.6988  -25.6311   21.1270 H   0  0  0  0  0  0
  -19.6769  -27.3214   20.6750 H   0  0  0  0  0  0
  -17.4252  -26.6696   21.3974 H   0  0  0  0  0  0
  -18.0337  -26.0084   22.8988 H   0  0  0  0  0  0
  -19.7936  -30.7325   24.2194 H   0  0  0  0  0  0
  -17.5018  -31.6292   24.5155 H   0  0  0  0  0  0
  -15.5354  -30.2984   23.7729 H   0  0  0  0  0  0
  -15.8659  -28.0849   22.7062 H   0  0  0  0  0  0
  -24.5903  -30.7111   25.7749 H   0  0  0  0  0  0
  -24.9080  -32.2865   26.4946 H   0  0  0  0  0  0
  -25.8128  -30.8764   27.0147 H   0  0  0  0  0  0
  -26.2961  -29.6671   24.1236 H   0  0  0  0  0  0
  -27.4148  -29.7258   25.4643 H   0  0  0  0  0  0
  -27.8799  -30.4234   23.9327 H   0  0  0  0  0  0
  -27.2693  -33.3511   26.2130 H   0  0  0  0  0  0
  -28.3896  -32.6872   25.0334 H   0  0  0  0  0  0
  -28.0765  -31.8333   26.5351 H   0  0  0  0  0  0
  -28.2511  -38.0155   24.7594 H   0  0  0  0  0  0
  -28.1174  -36.2697   24.6117 H   0  0  0  0  0  0
  -27.2340  -37.1230   25.8839 H   0  0  0  0  0  0
  -20.9374  -29.8609   21.6763 H   0  0  0  0  0  0
  -26.0130  -38.2808   24.1513 H   0  0  0  0  0  0
  -31.9811  -18.1930   21.7669 H   0  0  0  0  0  0
  -32.4636  -20.4593   22.6202 H   0  0  0  0  0  0
  -28.5917  -19.8049   19.6361 H   0  0  0  0  0  0
  -26.9372  -24.3869   21.6816 H   0  0  0  0  0  0
  -26.0909  -24.1684   20.1645 H   0  0  0  0  0  0
  -26.9583  -22.0051   19.8693 H   0  0  0  0  0  0
  -27.2536  -22.0713   21.6019 H   0  0  0  0  0  0
  -29.6489  -24.2220   21.4148 H   0  0  0  0  0  0
  -30.2455  -24.0795   19.7630 H   0  0  0  0  0  0
  -28.0568  -24.7771   18.8811 H   0  0  0  0  0  0
  -30.9926  -17.2451   19.3461 H   0  0  0  0  0  0
  -29.2912  -17.4034   19.2276 H   0  0  0  0  0  0
  -29.0124  -15.8105   21.0613 H   0  0  0  0  0  0
  1 25  1  0  0  0
  1 30  2  0  0  0
  1 83  1  0  0  0
  2  3  1  0  0  0
  2 25  1  0  0  0
  2 85  1  0  0  0
  2 86  1  0  0  0
  3  4  1  0  0  0
  3 87  1  0  0  0
  3 88  1  0  0  0
  4  5  1  0  0  0
  4 89  1  0  0  0
  4 90  1  0  0  0
  5  6  1  0  0  0
  5 26  1  0  0  0
  5 91  1  0  0  0
  6 25  1  0  0  0
  6 92  1  0  0  0
  6 93  1  0  0  0
  7  8  2  0  0  0
  7 26  1  0  0  0
  7 29  1  0  0  0
  8  9  1  0  0  0
  8 22  1  0  0  0
  9 10  1  0  0  0
  9 27  2  0  0  0
 10 11  2  0  0  0
 10 15  1  0  0  0
 11 12  1  0  0  0
 11 94  1  0  0  0
 12 13  2  0  0  0
 12 95  1  0  0  0
 13 14  1  0  0  0
 13 31  1  0  0  0
 14 15  2  0  0  0
 14 96  1  0  0  0
 15 97  1  0  0  0
 16 17  2  0  0  0
 16 21  1  0  0  0
 16 31  1  0  0  0
 17 18  1  0  0  0
 17 98  1  0  0  0
 18 19  2  0  0  0
 18 99  1  0  0  0
 19 20  1  0  0  0
 19 24  1  0  0  0
 20 21  2  0  0  0
 20100  1  0  0  0
 21 23  1  0  0  0
 22 28  1  0  0  0
 22 32  2  0  0  0
 26 27  1  0  0  0
 28101  1  0  0  0
 28102  1  0  0  0
 29103  1  0  0  0
 29104  1  0  0  0
 33 34  1  0  0  0
 33 66  1  0  0  0
 33 70  2  0  0  0
 34 36  1  0  0  0
 34 59  1  0  0  0
 34105  1  0  0  0
 35 44  2  0  0  0
 35 45  1  0  0  0
 35 68  1  0  0  0
 36 56  1  0  0  0
 36106  1  0  0  0
 37 39  1  0  0  0
 37 47  1  0  0  0
 37 66  1  0  0  0
 37107  1  0  0  0
 38 43  2  0  0  0
 38 46  1  0  0  0
 38 47  1  0  0  0
 39 64  1  0  0  0
 39 67  2  0  0  0
 40 52  1  0  0  0
 40 53  2  0  0  0
 40 58  1  0  0  0
 41108  1  0  0  0
 41109  1  0  0  0
 41110  1  0  0  0
 41 48  1  0  0  0
 42 43  1  0  0  0
 42 66  1  0  0  0
 42111  1  0  0  0
 42112  1  0  0  0
 43 44  1  0  0  0
 44113  1  0  0  0
 45 46  2  0  0  0
 45114  1  0  0  0
 46115  1  0  0  0
 47116  1  0  0  0
 47117  1  0  0  0
 48 56  1  0  0  0
 48 65  1  0  0  0
 48118  1  0  0  0
 49 50  1  0  0  0
 49 53  1  0  0  0
 49 64  1  0  0  0
 49119  1  0  0  0
 50 51  1  0  0  0
 50120  1  0  0  0
 50121  1  0  0  0
 51 52  1  0  0  0
 51122  1  0  0  0
 51123  1  0  0  0
 52124  1  0  0  0
 52125  1  0  0  0
 53 54  1  0  0  0
 54 55  2  0  0  0
 54126  1  0  0  0
 55 57  1  0  0  0
 55127  1  0  0  0
 56 69  2  0  0  0
 57 58  2  0  0  0
 57128  1  0  0  0
 58129  1  0  0  0
 59 60  1  0  0  0
 59 61  1  0  0  0
 59 62  1  0  0  0
 60130  1  0  0  0
 60131  1  0  0  0
 60132  1  0  0  0
 61133  1  0  0  0
 61134  1  0  0  0
 61135  1  0  0  0
 62136  1  0  0  0
 62137  1  0  0  0
 62138  1  0  0  0
 63 65  1  0  0  0
 63139  1  0  0  0
 63140  1  0  0  0
 63141  1  0  0  0
 64142  1  0  0  0
 65143  1  0  0  0
 68 80  1  0  0  0
 71 72  2  0  0  0
 71 74  1  0  0  0
 71144  1  0  0  0
 72 76  1  0  0  0
 72145  1  0  0  0
 73 74  2  0  0  0
 73 75  1  0  0  0
 73146  1  0  0  0
 74 81  1  0  0  0
 75 76  2  0  0  0
 75 82  1  0  0  0
 76 84  1  0  0  0
 77 78  1  0  0  0
 77 80  1  0  0  0
 77147  1  0  0  0
 77148  1  0  0  0
 78 82  1  0  0  0
 78149  1  0  0  0
 78150  1  0  0  0
 79 80  1  0  0  0
 79 82  1  0  0  0
 79151  1  0  0  0
 79152  1  0  0  0
 80153  1  0  0  0
 81 83  1  0  0  0
 81154  1  0  0  0
 81155  1  0  0  0
 83156  1  0  0  0
M  ISO  4   1 100  68 101  80 101  83 100
M  END
> <chiral flag>
0

> <version>
0

> <s_m_source_file>
/data/baiqing/PycharmProjects/Reinvent-master-3.2/result/LINK_invent/BTK/process_docking_weight1_custom_product_contain_oxygen_bond_distance_aromatic_linkinvent_7_9_3/rearranged_h_0028.sdf

> <i_m_source_file_index>
41

> <r_mmod_Potential_Energy-OPLS-2005>
275.83203125

> <r_mmod_Stretch_Energy-OPLS-2005>
127.906959533691

> <r_mmod_Bend_Energy-OPLS-2005>
221.308441162109

> <r_mmod_Torsional_Energy-OPLS-2005>
275.346740722656

> <r_mmod_Improper_Torsional_Energy-OPLS-2005>
10.8699569702148

> <r_mmod_Van_der_Waal_Energy-OPLS-2005>
134.544250488281

> <r_mmod_Electrostatic_Energy-OPLS-2005>
-367.258026123047

> <r_mmod_Solvation_Energy-OPLS-2005>
-228.064117431641

> <b_mmod_Minimization_Converged-OPLS-2005>
0

> <r_mmod_RMS_Derivative-OPLS-2005>
6.15685606002808

$$$$
41
                    3D
 Structure written by MMmdl.
152161  0  0  1  0            999 V2000
  -30.5095  -14.9364   20.4235 C   0  0  0  0  0  0
  -30.4475  -12.5745   19.5048 C   0  0  0  0  0  0
  -29.5265  -12.5363   18.2613 C   0  0  0  0  0  0
  -28.0571  -12.3240   18.6733 C   0  0  0  0  0  0
  -27.6367  -13.2436   19.8494 C   0  0  2  0  0  0
  -28.6772  -13.2367   20.9907 C   0  0  0  0  0  0
  -25.2487  -13.8209   20.5709 C   0  0  0  0  0  0
  -24.1791  -13.0439   20.9216 C   0  0  0  0  0  0
  -24.6399  -11.6921   20.8747 C   0  0  0  0  0  0
  -23.9079  -10.4293   21.0405 C   0  0  0  0  0  0
  -24.3627   -9.4208   21.9184 C   0  0  0  0  0  0
  -23.6299   -8.2244   22.0754 C   0  0  0  0  0  0
  -22.4280   -8.0283   21.3544 C   0  0  0  0  0  0
  -21.9918   -9.0257   20.4646 C   0  0  0  0  0  0
  -22.7250  -10.2135   20.3055 C   0  0  0  0  0  0
  -21.6854   -6.0738   22.5279 C   0  0  0  0  0  0
  -21.4015   -6.5641   23.8213 C   0  0  0  0  0  0
  -21.3659   -5.6793   24.9175 C   0  0  0  0  0  0
  -21.6044   -4.3056   24.7225 C   0  0  0  0  0  0
  -21.8819   -3.8148   23.4346 C   0  0  0  0  0  0
  -21.9193   -4.6965   22.3402 C   0  0  0  0  0  0
  -22.7811  -13.5214   21.1874 C   0  0  0  0  0  0
  -22.1661   -4.2151   21.0980 F   0  0  0  0  0  0
  -21.5628   -3.4539   25.7737 F   0  0  0  0  0  0
  -29.9607  -13.6550   20.4097 N   0  0  0  0  0  0
  -26.2915  -12.9432   20.3274 N   0  0  0  0  0  0
  -25.9334  -11.6564   20.5745 N   0  0  0  0  0  0
  -22.0462  -12.8200   22.0430 N   0  0  0  0  0  0
  -25.4167  -15.1936   20.4136 N   0  0  0  0  0  0
  -31.6863  -15.0575   20.0637 O   0  0  0  0  0  0
  -21.6642   -6.8881   21.4241 O   0  0  0  0  0  0
  -22.3493  -14.5519   20.6720 O   0  0  0  0  0  0
  -24.6422  -31.8424   23.1855 C   0  0  0  0  0  0
  -25.9194  -32.4685   23.8250 C   0  0  1  0  0  0
  -27.2264  -27.1381   20.1491 C   0  0  0  0  0  0
  -25.5942  -33.8492   24.2170 N   0  0  0  0  0  0
  -23.4461  -30.4589   21.5303 C   0  0  2  0  0  0
  -24.8967  -28.8803   20.1062 C   0  0  0  0  0  0
  -22.7560  -29.4534   22.4853 C   0  0  0  0  0  0
  -18.0302  -28.1396   22.8479 C   0  0  0  0  0  0
  -24.1491  -36.7251   23.2645 C   0  0  0  0  0  0
  -25.9995  -30.7160   21.3829 C   0  0  0  0  0  0
  -26.0699  -29.3262   20.7257 C   0  0  0  0  0  0
  -27.2304  -28.4687   20.7320 C   0  0  0  0  0  0
  -26.0270  -26.7848   19.4945 C   0  0  0  0  0  0
  -24.8877  -27.6237   19.4766 C   0  0  0  0  0  0
  -23.6720  -29.7821   20.1504 C   0  0  0  0  0  0
  -25.4124  -36.3026   24.0315 C   0  0  1  0  0  0
  -20.5914  -28.3718   23.1240 C   0  0  2  0  0  0
  -20.6784  -26.9422   22.5409 C   0  0  0  0  0  0
  -19.5760  -26.6380   21.5215 C   0  0  0  0  0  0
  -18.1941  -26.7934   22.1624 C   0  0  0  0  0  0
  -19.1559  -28.8876   23.2852 C   0  0  0  0  0  0
  -18.9477  -30.1472   23.8877 C   0  0  0  0  0  0
  -17.6474  -30.6593   24.0561 C   0  0  0  0  0  0
  -25.9074  -34.9403   23.5055 C   0  0  0  0  0  0
  -16.5365  -29.9088   23.6336 C   0  0  0  0  0  0
  -16.7287  -28.6506   23.0357 C   0  0  0  0  0  0
  -26.4520  -31.6561   25.0697 C   0  0  0  0  0  0
  -25.3707  -31.3753   26.1395 C   0  0  0  0  0  0
  -27.0391  -30.2960   24.6279 C   0  0  0  0  0  0
  -27.6046  -32.4334   25.7485 C   0  0  0  0  0  0
  -27.5573  -37.1783   24.8467 C   0  0  0  0  0  0
  -21.4253  -29.3041   22.3608 N   0  0  0  0  0  0
  -26.4286  -37.3741   23.9407 N   0  0  0  0  0  0
  -24.7156  -31.0279   22.0883 N   0  0  0  0  0  0
  -23.4204  -28.8094   23.3014 O   0  0  0  0  0  0
  -28.3104  -26.1959   20.2622 O   0  0  0  0  0  0
  -26.5666  -34.8905   22.4638 O   0  0  0  0  0  0
  -23.5543  -32.1300   23.7080 O   0  0  0  0  0  0
  -28.9463  -19.9122   21.3317 C   0  0  0  0  0  0
  -29.9847  -18.2923   19.3315 C   0  0  0  0  0  0
  -29.2839  -20.6477   20.1435 C   0  0  0  0  0  0
  -29.6711  -17.5733   20.5293 C   0  0  0  0  0  0
  -29.1153  -18.4732   21.5082 C   0  0  0  0  0  0
  -29.7792  -19.7228   19.1341 C   0  0  0  0  0  0
  -30.1543  -22.9512   19.4201 C   0  0  0  0  0  0
  -29.8362  -24.4629   19.2877 C   0  0  0  0  0  0
  -28.2117  -23.2717   20.5164 C   0  0  0  0  0  0
  -28.3918  -24.7249   19.7476 C   0  0  1  0  0  0
  -29.1753  -22.1903   19.9679 N   0  0  0  0  0  0
  -29.6864  -16.0483   20.7346 N   0  0  0  0  0  0
  -31.2671  -22.5331   19.0864 O   0  0  0  0  0  0
  -28.7102  -17.9350   22.6833 F   0  0  0  0  0  0
  -30.0638  -20.2739   17.5187 Cl  0  0  0  0  0  0
  -31.4815  -12.7380   19.1972 H   0  0  0  0  0  0
  -30.4415  -11.6127   20.0202 H   0  0  0  0  0  0
  -29.8425  -11.7456   17.5796 H   0  0  0  0  0  0
  -29.6194  -13.4725   17.7086 H   0  0  0  0  0  0
  -27.9460  -11.2795   18.9666 H   0  0  0  0  0  0
  -27.3964  -12.4721   17.8184 H   0  0  0  0  0  0
  -27.6109  -14.2536   19.4395 H   0  0  0  0  0  0
  -28.7564  -12.2467   21.4422 H   0  0  0  0  0  0
  -28.3748  -13.9129   21.7915 H   0  0  0  0  0  0
  -25.2771   -9.5683   22.4761 H   0  0  0  0  0  0
  -24.0006   -7.4636   22.7474 H   0  0  0  0  0  0
  -21.0849   -8.8779   19.8952 H   0  0  0  0  0  0
  -22.3709  -10.9675   19.6165 H   0  0  0  0  0  0
  -21.2008   -7.6149   23.9717 H   0  0  0  0  0  0
  -21.1481   -6.0523   25.9077 H   0  0  0  0  0  0
  -22.0598   -2.7610   23.2845 H   0  0  0  0  0  0
  -22.4086  -11.9864   22.4816 H   0  0  0  0  0  0
  -21.1078  -13.1218   22.2637 H   0  0  0  0  0  0
  -24.6473  -15.8450   20.5246 H   0  0  0  0  0  0
  -26.2605  -15.6345   20.0711 H   0  0  0  0  0  0
  -26.7257  -32.5288   23.0975 H   0  0  0  0  0  0
  -25.0064  -33.9604   25.0301 H   0  0  0  0  0  0
  -22.7487  -31.2844   21.3732 H   0  0  0  0  0  0
  -23.3757  -35.9580   23.3299 H   0  0  0  0  0  0
  -24.3572  -36.8890   22.2060 H   0  0  0  0  0  0
  -23.7245  -37.6444   23.6688 H   0  0  0  0  0  0
  -26.1541  -31.4697   20.6096 H   0  0  0  0  0  0
  -26.8702  -30.7672   22.0251 H   0  0  0  0  0  0
  -28.1238  -28.8038   21.2398 H   0  0  0  0  0  0
  -25.9338  -25.8176   19.0247 H   0  0  0  0  0  0
  -23.9889  -27.2755   18.9864 H   0  0  0  0  0  0
  -23.8057  -30.5539   19.3916 H   0  0  0  0  0  0
  -22.7872  -29.2216   19.8432 H   0  0  0  0  0  0
  -25.1316  -36.1850   25.0808 H   0  0  0  0  0  0
  -21.0008  -28.3310   24.1361 H   0  0  0  0  0  0
  -20.5675  -26.2333   23.3628 H   0  0  0  0  0  0
  -21.6651  -26.7425   22.1209 H   0  0  0  0  0  0
  -19.6922  -25.6285   21.1257 H   0  0  0  0  0  0
  -19.6699  -27.3181   20.6738 H   0  0  0  0  0  0
  -17.4211  -26.6682   21.4027 H   0  0  0  0  0  0
  -18.0337  -26.0081   22.9025 H   0  0  0  0  0  0
  -19.7953  -30.7294   24.2236 H   0  0  0  0  0  0
  -17.5029  -31.6272   24.5166 H   0  0  0  0  0  0
  -15.5365  -30.2984   23.7673 H   0  0  0  0  0  0
  -15.8686  -28.0819   22.7084 H   0  0  0  0  0  0
  -24.5894  -30.7091   25.7718 H   0  0  0  0  0  0
  -24.8888  -32.2936   26.4760 H   0  0  0  0  0  0
  -25.7991  -30.8967   27.0211 H   0  0  0  0  0  0
  -26.3009  -29.6675   24.1284 H   0  0  0  0  0  0
  -27.4006  -29.7265   25.4852 H   0  0  0  0  0  0
  -27.8912  -30.4200   23.9594 H   0  0  0  0  0  0
  -27.2633  -33.3655   26.2002 H   0  0  0  0  0  0
  -28.3889  -32.6861   25.0338 H   0  0  0  0  0  0
  -28.0679  -31.8500   26.5452 H   0  0  0  0  0  0
  -28.2588  -38.0082   24.7504 H   0  0  0  0  0  0
  -28.1070  -36.2608   24.6307 H   0  0  0  0  0  0
  -27.2288  -37.1445   25.8870 H   0  0  0  0  0  0
  -20.9464  -29.8744   21.6778 H   0  0  0  0  0  0
  -26.0150  -38.2808   24.1406 H   0  0  0  0  0  0
  -28.5409  -20.4662   22.1650 H   0  0  0  0  0  0
  -30.3423  -17.7208   18.4878 H   0  0  0  0  0  0
  -29.9962  -24.8025   18.2646 H   0  0  0  0  0  0
  -30.5363  -25.0027   19.9253 H   0  0  0  0  0  0
  -27.1808  -22.9254   20.4421 H   0  0  0  0  0  0
  -28.4218  -23.3959   21.5796 H   0  0  0  0  0  0
  -27.7798  -24.6732   18.8476 H   0  0  0  0  0  0
  -28.8575  -15.7351   21.2172 H   0  0  0  0  0  0
  1 25  1  0  0  0
  1 30  2  0  0  0
  1 82  1  0  0  0
  2  3  1  0  0  0
  2 25  1  0  0  0
  2 86  1  0  0  0
  2 87  1  0  0  0
  3  4  1  0  0  0
  3 88  1  0  0  0
  3 89  1  0  0  0
  4  5  1  0  0  0
  4 90  1  0  0  0
  4 91  1  0  0  0
  5  6  1  0  0  0
  5 26  1  0  0  0
  5 92  1  0  0  0
  6 25  1  0  0  0
  6 93  1  0  0  0
  6 94  1  0  0  0
  7  8  2  0  0  0
  7 26  1  0  0  0
  7 29  1  0  0  0
  8  9  1  0  0  0
  8 22  1  0  0  0
  9 10  1  0  0  0
  9 27  2  0  0  0
 10 11  2  0  0  0
 10 15  1  0  0  0
 11 12  1  0  0  0
 11 95  1  0  0  0
 12 13  2  0  0  0
 12 96  1  0  0  0
 13 14  1  0  0  0
 13 31  1  0  0  0
 14 15  2  0  0  0
 14 97  1  0  0  0
 15 98  1  0  0  0
 16 17  2  0  0  0
 16 21  1  0  0  0
 16 31  1  0  0  0
 17 18  1  0  0  0
 17 99  1  0  0  0
 18 19  2  0  0  0
 18100  1  0  0  0
 19 20  1  0  0  0
 19 24  1  0  0  0
 20 21  2  0  0  0
 20101  1  0  0  0
 21 23  1  0  0  0
 22 28  1  0  0  0
 22 32  2  0  0  0
 26 27  1  0  0  0
 28102  1  0  0  0
 28103  1  0  0  0
 29104  1  0  0  0
 29105  1  0  0  0
 33 34  1  0  0  0
 33 66  1  0  0  0
 33 70  2  0  0  0
 34 36  1  0  0  0
 34 59  1  0  0  0
 34106  1  0  0  0
 35 44  2  0  0  0
 35 45  1  0  0  0
 35 68  1  0  0  0
 36 56  1  0  0  0
 36107  1  0  0  0
 37 39  1  0  0  0
 37 47  1  0  0  0
 37 66  1  0  0  0
 37108  1  0  0  0
 38 43  2  0  0  0
 38 46  1  0  0  0
 38 47  1  0  0  0
 39 64  1  0  0  0
 39 67  2  0  0  0
 40 52  1  0  0  0
 40 53  2  0  0  0
 40 58  1  0  0  0
 41109  1  0  0  0
 41110  1  0  0  0
 41111  1  0  0  0
 41 48  1  0  0  0
 42 43  1  0  0  0
 42 66  1  0  0  0
 42112  1  0  0  0
 42113  1  0  0  0
 43 44  1  0  0  0
 44114  1  0  0  0
 45 46  2  0  0  0
 45115  1  0  0  0
 46116  1  0  0  0
 47117  1  0  0  0
 47118  1  0  0  0
 48 56  1  0  0  0
 48 65  1  0  0  0
 48119  1  0  0  0
 49 50  1  0  0  0
 49 53  1  0  0  0
 49 64  1  0  0  0
 49120  1  0  0  0
 50 51  1  0  0  0
 50121  1  0  0  0
 50122  1  0  0  0
 51 52  1  0  0  0
 51123  1  0  0  0
 51124  1  0  0  0
 52125  1  0  0  0
 52126  1  0  0  0
 53 54  1  0  0  0
 54 55  2  0  0  0
 54127  1  0  0  0
 55 57  1  0  0  0
 55128  1  0  0  0
 56 69  2  0  0  0
 57 58  2  0  0  0
 57129  1  0  0  0
 58130  1  0  0  0
 59 60  1  0  0  0
 59 61  1  0  0  0
 59 62  1  0  0  0
 60131  1  0  0  0
 60132  1  0  0  0
 60133  1  0  0  0
 61134  1  0  0  0
 61135  1  0  0  0
 61136  1  0  0  0
 62137  1  0  0  0
 62138  1  0  0  0
 62139  1  0  0  0
 63 65  1  0  0  0
 63140  1  0  0  0
 63141  1  0  0  0
 63142  1  0  0  0
 64143  1  0  0  0
 65144  1  0  0  0
 68 80  1  0  0  0
 71 73  2  0  0  0
 71 75  1  0  0  0
 71145  1  0  0  0
 72 74  1  0  0  0
 72 76  2  0  0  0
 72146  1  0  0  0
 73 76  1  0  0  0
 73 81  1  0  0  0
 74 75  2  0  0  0
 74 82  1  0  0  0
 75 84  1  0  0  0
 76 85  1  0  0  0
 77 78  1  0  0  0
 77 81  1  0  0  0
 77 83  2  0  0  0
 78 80  1  0  0  0
 78147  1  0  0  0
 78148  1  0  0  0
 79 80  1  0  0  0
 79 81  1  0  0  0
 79149  1  0  0  0
 79150  1  0  0  0
 80151  1  0  0  0
 82152  1  0  0  0
M  ISO  4   1 100  68 101  80 101  82 100
M  END
> <chiral flag>
0

> <version>
0

> <s_m_source_file>
/data/baiqing/PycharmProjects/Reinvent-master-3.2/result/LINK_invent/BTK/process_docking_weight1_custom_product_contain_oxygen_bond_distance_aromatic_linkinvent_7_9_3/rearranged_h_0028.sdf

> <i_m_source_file_index>
42

> <r_mmod_Potential_Energy-OPLS-2005>
488.042175292969

> <r_mmod_Stretch_Energy-OPLS-2005>
229.094680786133

> <r_mmod_Bend_Energy-OPLS-2005>
304.764404296875

> <r_mmod_Torsional_Energy-OPLS-2005>
281.392791748047

> <r_mmod_Improper_Torsional_Energy-OPLS-2005>
4.61141443252563

> <r_mmod_Van_der_Waal_Energy-OPLS-2005>
129.125106811523

> <r_mmod_Electrostatic_Energy-OPLS-2005>
-418.05908203125

> <r_mmod_Solvation_Energy-OPLS-2005>
-228.025604248047

> <b_mmod_Minimization_Converged-OPLS-2005>
0

> <r_mmod_RMS_Derivative-OPLS-2005>
0.181003540754318

$$$$
42
                    3D
 Structure written by MMmdl.
158167  0  0  1  0            999 V2000
  -30.5884  -14.8907   20.4173 C   0  0  0  0  0  0
  -30.4268  -12.5470   19.4967 C   0  0  0  0  0  0
  -29.5156  -12.5203   18.2500 C   0  0  0  0  0  0
  -28.0470  -12.3202   18.6670 C   0  0  0  0  0  0
  -27.6293  -13.2491   19.8378 C   0  0  2  0  0  0
  -28.6716  -13.2713   20.9763 C   0  0  0  0  0  0
  -25.2456  -13.8227   20.5709 C   0  0  0  0  0  0
  -24.1773  -13.0451   20.9231 C   0  0  0  0  0  0
  -24.6386  -11.6936   20.8758 C   0  0  0  0  0  0
  -23.9072  -10.4302   21.0418 C   0  0  0  0  0  0
  -24.3626   -9.4215   21.9193 C   0  0  0  0  0  0
  -23.6297   -8.2251   22.0759 C   0  0  0  0  0  0
  -22.4277   -8.0289   21.3551 C   0  0  0  0  0  0
  -21.9917   -9.0265   20.4652 C   0  0  0  0  0  0
  -22.7247  -10.2142   20.3061 C   0  0  0  0  0  0
  -21.6854   -6.0743   22.5284 C   0  0  0  0  0  0
  -21.4019   -6.5644   23.8220 C   0  0  0  0  0  0
  -21.3658   -5.6794   24.9180 C   0  0  0  0  0  0
  -21.6039   -4.3057   24.7226 C   0  0  0  0  0  0
  -21.8818   -3.8151   23.4347 C   0  0  0  0  0  0
  -21.9190   -4.6971   22.3406 C   0  0  0  0  0  0
  -22.7790  -13.5222   21.1882 C   0  0  0  0  0  0
  -22.1658   -4.2158   21.0982 F   0  0  0  0  0  0
  -21.5626   -3.4538   25.7739 F   0  0  0  0  0  0
  -29.9544  -13.6544   20.3755 N   0  0  0  0  0  0
  -26.2882  -12.9462   20.3244 N   0  0  0  0  0  0
  -25.9318  -11.6591   20.5739 N   0  0  0  0  0  0
  -22.0426  -12.8220   22.0437 N   0  0  0  0  0  0
  -25.4110  -15.1953   20.4109 N   0  0  0  0  0  0
  -31.7937  -14.8921   20.1533 O   0  0  0  0  0  0
  -21.6639   -6.8887   21.4245 O   0  0  0  0  0  0
  -22.3476  -14.5522   20.6716 O   0  0  0  0  0  0
  -24.6396  -31.8463   23.1897 C   0  0  0  0  0  0
  -25.9190  -32.4700   23.8273 C   0  0  1  0  0  0
  -27.2171  -27.1704   20.1514 C   0  0  0  0  0  0
  -25.5953  -33.8505   24.2198 N   0  0  0  0  0  0
  -23.4405  -30.4656   21.5342 C   0  0  2  0  0  0
  -24.8893  -28.8938   20.1110 C   0  0  0  0  0  0
  -22.7539  -29.4560   22.4871 C   0  0  0  0  0  0
  -18.0300  -28.1386   22.8476 C   0  0  0  0  0  0
  -24.1493  -36.7257   23.2641 C   0  0  0  0  0  0
  -25.9926  -30.7317   21.3818 C   0  0  0  0  0  0
  -26.0641  -29.3449   20.7256 C   0  0  0  0  0  0
  -27.2303  -28.4990   20.7271 C   0  0  0  0  0  0
  -26.0199  -26.8089   19.4982 C   0  0  0  0  0  0
  -24.8778  -27.6384   19.4824 C   0  0  0  0  0  0
  -23.6639  -29.7919   20.1539 C   0  0  0  0  0  0
  -25.4122  -36.3033   24.0317 C   0  0  1  0  0  0
  -20.5909  -28.3710   23.1244 C   0  0  2  0  0  0
  -20.6786  -26.9416   22.5405 C   0  0  0  0  0  0
  -19.5763  -26.6376   21.5208 C   0  0  0  0  0  0
  -18.1942  -26.7926   22.1617 C   0  0  0  0  0  0
  -19.1556  -28.8864   23.2851 C   0  0  0  0  0  0
  -18.9473  -30.1463   23.8874 C   0  0  0  0  0  0
  -17.6471  -30.6586   24.0552 C   0  0  0  0  0  0
  -25.9069  -34.9409   23.5062 C   0  0  0  0  0  0
  -16.5362  -29.9078   23.6334 C   0  0  0  0  0  0
  -16.7285  -28.6494   23.0356 C   0  0  0  0  0  0
  -26.4530  -31.6559   25.0700 C   0  0  0  0  0  0
  -25.3731  -31.3742   26.1407 C   0  0  0  0  0  0
  -27.0395  -30.2961   24.6258 C   0  0  0  0  0  0
  -27.6055  -32.4327   25.7490 C   0  0  0  0  0  0
  -27.5576  -37.1782   24.8464 C   0  0  0  0  0  0
  -21.4236  -29.3044   22.3619 N   0  0  0  0  0  0
  -26.4288  -37.3741   23.9404 N   0  0  0  0  0  0
  -24.7104  -31.0355   22.0907 N   0  0  0  0  0  0
  -23.4201  -28.8109   23.3007 O   0  0  0  0  0  0
  -28.2950  -26.2285   20.2015 O   0  0  0  0  0  0
  -26.5648  -34.8903   22.4637 O   0  0  0  0  0  0
  -23.5528  -32.1322   23.7149 O   0  0  0  0  0  0
  -31.2407  -20.3156   20.1955 C   0  0  0  0  0  0
  -31.6154  -17.8923   20.2712 C   0  0  0  0  0  0
  -29.3585  -18.7917   20.4582 C   0  0  0  0  0  0
  -29.8412  -20.2002   20.3485 C   0  0  0  0  0  0
  -30.2416  -17.5857   20.4228 C   0  0  0  0  0  0
  -32.0986  -19.2060   20.1570 C   0  0  0  0  0  0
  -28.4480  -22.1338   19.3462 C   0  0  0  0  0  0
  -28.4267  -23.7252   19.1133 C   0  0  0  0  0  0
  -28.7995  -23.9940   21.5408 C   0  0  0  0  0  0
  -29.6425  -22.6420   21.3158 C   0  0  0  0  0  0
  -28.0912  -24.6965   20.3211 C   0  0  1  0  0  0
  -27.8717  -18.5573   20.6378 C   0  0  0  0  0  0
  -29.1338  -21.5632   20.3965 N   0  0  0  0  0  0
  -29.8520  -16.1044   20.5383 N   0  0  0  0  0  0
  -27.8455  -21.4290   18.5301 O   0  0  0  0  0  0
  -33.4294  -19.4095   20.0082 F   0  0  0  0  0  0
  -31.4666  -12.6710   19.1908 H   0  0  0  0  0  0
  -30.3877  -11.5936   20.0254 H   0  0  0  0  0  0
  -29.8251  -11.7263   17.5694 H   0  0  0  0  0  0
  -29.6183  -13.4556   17.6974 H   0  0  0  0  0  0
  -27.9336  -11.2781   18.9677 H   0  0  0  0  0  0
  -27.3848  -12.4647   17.8124 H   0  0  0  0  0  0
  -27.5957  -14.2533   19.4142 H   0  0  0  0  0  0
  -28.7422  -12.2993   21.4667 H   0  0  0  0  0  0
  -28.3821  -13.9873   21.7469 H   0  0  0  0  0  0
  -25.2773   -9.5693   22.4767 H   0  0  0  0  0  0
  -24.0011   -7.4639   22.7477 H   0  0  0  0  0  0
  -21.0850   -8.8781   19.8952 H   0  0  0  0  0  0
  -22.3710  -10.9682   19.6164 H   0  0  0  0  0  0
  -21.2018   -7.6153   23.9727 H   0  0  0  0  0  0
  -21.1477   -6.0524   25.9083 H   0  0  0  0  0  0
  -22.0596   -2.7615   23.2843 H   0  0  0  0  0  0
  -22.4030  -11.9894   22.4853 H   0  0  0  0  0  0
  -21.1038  -13.1251   22.2614 H   0  0  0  0  0  0
  -24.6368  -15.8420   20.5154 H   0  0  0  0  0  0
  -26.2439  -15.6335   20.0415 H   0  0  0  0  0  0
  -26.7249  -32.5321   23.0996 H   0  0  0  0  0  0
  -25.0099  -33.9621   25.0347 H   0  0  0  0  0  0
  -22.7413  -31.2903   21.3802 H   0  0  0  0  0  0
  -23.3757  -35.9587   23.3292 H   0  0  0  0  0  0
  -24.3577  -36.8899   22.2057 H   0  0  0  0  0  0
  -23.7253  -37.6451   23.6686 H   0  0  0  0  0  0
  -26.1435  -31.4878   20.6101 H   0  0  0  0  0  0
  -26.8649  -30.7817   22.0219 H   0  0  0  0  0  0
  -28.1286  -28.8398   21.2230 H   0  0  0  0  0  0
  -25.9492  -25.8504   19.0056 H   0  0  0  0  0  0
  -23.9813  -27.2898   18.9887 H   0  0  0  0  0  0
  -23.7952  -30.5637   19.3946 H   0  0  0  0  0  0
  -22.7799  -29.2296   19.8481 H   0  0  0  0  0  0
  -25.1312  -36.1857   25.0809 H   0  0  0  0  0  0
  -21.0001  -28.3299   24.1365 H   0  0  0  0  0  0
  -20.5678  -26.2317   23.3617 H   0  0  0  0  0  0
  -21.6652  -26.7425   22.1205 H   0  0  0  0  0  0
  -19.6924  -25.6282   21.1248 H   0  0  0  0  0  0
  -19.6704  -27.3175   20.6727 H   0  0  0  0  0  0
  -17.4212  -26.6673   21.4018 H   0  0  0  0  0  0
  -18.0338  -26.0071   22.9015 H   0  0  0  0  0  0
  -19.7951  -30.7281   24.2233 H   0  0  0  0  0  0
  -17.5028  -31.6267   24.5150 H   0  0  0  0  0  0
  -15.5363  -30.2970   23.7673 H   0  0  0  0  0  0
  -15.8685  -28.0803   22.7089 H   0  0  0  0  0  0
  -24.5907  -30.7087   25.7735 H   0  0  0  0  0  0
  -24.8928  -32.2925   26.4792 H   0  0  0  0  0  0
  -25.8033  -30.8943   27.0207 H   0  0  0  0  0  0
  -26.3004  -29.6676   24.1274 H   0  0  0  0  0  0
  -27.4033  -29.7260   25.4817 H   0  0  0  0  0  0
  -27.8899  -30.4200   23.9547 H   0  0  0  0  0  0
  -27.2637  -33.3637   26.2021 H   0  0  0  0  0  0
  -28.3896  -32.6873   25.0346 H   0  0  0  0  0  0
  -28.0692  -31.8487   26.5449 H   0  0  0  0  0  0
  -28.2584  -38.0085   24.7506 H   0  0  0  0  0  0
  -28.1080  -36.2614   24.6297 H   0  0  0  0  0  0
  -27.2289  -37.1433   25.8865 H   0  0  0  0  0  0
  -20.9435  -29.8755   21.6805 H   0  0  0  0  0  0
  -26.0155  -38.2809   24.1406 H   0  0  0  0  0  0
  -31.7019  -21.2855   20.0913 H   0  0  0  0  0  0
  -32.3704  -17.1272   20.2372 H   0  0  0  0  0  0
  -27.7447  -23.9434   18.2916 H   0  0  0  0  0  0
  -29.4167  -23.9846   18.7391 H   0  0  0  0  0  0
  -29.4551  -24.7211   22.0205 H   0  0  0  0  0  0
  -28.0330  -23.7856   22.2884 H   0  0  0  0  0  0
  -29.8330  -22.1862   22.2878 H   0  0  0  0  0  0
  -30.6201  -22.9527   20.9474 H   0  0  0  0  0  0
  -27.0265  -24.5562   20.5083 H   0  0  0  0  0  0
  -27.3272  -19.4923   20.7696 H   0  0  0  0  0  0
  -27.6884  -17.9384   21.5164 H   0  0  0  0  0  0
  -27.4615  -18.0477   19.7659 H   0  0  0  0  0  0
  -28.8685  -15.9444   20.6930 H   0  0  0  0  0  0
  1 25  1  0  0  0
  1 30  2  0  0  0
  1 84  1  0  0  0
  2  3  1  0  0  0
  2 25  1  0  0  0
  2 87  1  0  0  0
  2 88  1  0  0  0
  3  4  1  0  0  0
  3 89  1  0  0  0
  3 90  1  0  0  0
  4  5  1  0  0  0
  4 91  1  0  0  0
  4 92  1  0  0  0
  5  6  1  0  0  0
  5 26  1  0  0  0
  5 93  1  0  0  0
  6 25  1  0  0  0
  6 94  1  0  0  0
  6 95  1  0  0  0
  7  8  2  0  0  0
  7 26  1  0  0  0
  7 29  1  0  0  0
  8  9  1  0  0  0
  8 22  1  0  0  0
  9 10  1  0  0  0
  9 27  2  0  0  0
 10 11  2  0  0  0
 10 15  1  0  0  0
 11 12  1  0  0  0
 11 96  1  0  0  0
 12 13  2  0  0  0
 12 97  1  0  0  0
 13 14  1  0  0  0
 13 31  1  0  0  0
 14 15  2  0  0  0
 14 98  1  0  0  0
 15 99  1  0  0  0
 16 17  2  0  0  0
 16 21  1  0  0  0
 16 31  1  0  0  0
 17 18  1  0  0  0
 17100  1  0  0  0
 18 19  2  0  0  0
 18101  1  0  0  0
 19 20  1  0  0  0
 19 24  1  0  0  0
 20 21  2  0  0  0
 20102  1  0  0  0
 21 23  1  0  0  0
 22 28  1  0  0  0
 22 32  2  0  0  0
 26 27  1  0  0  0
 28103  1  0  0  0
 28104  1  0  0  0
 29105  1  0  0  0
 29106  1  0  0  0
 33 34  1  0  0  0
 33 66  1  0  0  0
 33 70  2  0  0  0
 34 36  1  0  0  0
 34 59  1  0  0  0
 34107  1  0  0  0
 35 44  2  0  0  0
 35 45  1  0  0  0
 35 68  1  0  0  0
 36 56  1  0  0  0
 36108  1  0  0  0
 37 39  1  0  0  0
 37 47  1  0  0  0
 37 66  1  0  0  0
 37109  1  0  0  0
 38 43  2  0  0  0
 38 46  1  0  0  0
 38 47  1  0  0  0
 39 64  1  0  0  0
 39 67  2  0  0  0
 40 52  1  0  0  0
 40 53  2  0  0  0
 40 58  1  0  0  0
 41110  1  0  0  0
 41111  1  0  0  0
 41112  1  0  0  0
 41 48  1  0  0  0
 42 43  1  0  0  0
 42 66  1  0  0  0
 42113  1  0  0  0
 42114  1  0  0  0
 43 44  1  0  0  0
 44115  1  0  0  0
 45 46  2  0  0  0
 45116  1  0  0  0
 46117  1  0  0  0
 47118  1  0  0  0
 47119  1  0  0  0
 48 56  1  0  0  0
 48 65  1  0  0  0
 48120  1  0  0  0
 49 50  1  0  0  0
 49 53  1  0  0  0
 49 64  1  0  0  0
 49121  1  0  0  0
 50 51  1  0  0  0
 50122  1  0  0  0
 50123  1  0  0  0
 51 52  1  0  0  0
 51124  1  0  0  0
 51125  1  0  0  0
 52126  1  0  0  0
 52127  1  0  0  0
 53 54  1  0  0  0
 54 55  2  0  0  0
 54128  1  0  0  0
 55 57  1  0  0  0
 55129  1  0  0  0
 56 69  2  0  0  0
 57 58  2  0  0  0
 57130  1  0  0  0
 58131  1  0  0  0
 59 60  1  0  0  0
 59 61  1  0  0  0
 59 62  1  0  0  0
 60132  1  0  0  0
 60133  1  0  0  0
 60134  1  0  0  0
 61135  1  0  0  0
 61136  1  0  0  0
 61137  1  0  0  0
 62138  1  0  0  0
 62139  1  0  0  0
 62140  1  0  0  0
 63 65  1  0  0  0
 63141  1  0  0  0
 63142  1  0  0  0
 63143  1  0  0  0
 64144  1  0  0  0
 65145  1  0  0  0
 68 81  1  0  0  0
 71 74  2  0  0  0
 71 76  1  0  0  0
 71146  1  0  0  0
 72 75  1  0  0  0
 72 76  2  0  0  0
 72147  1  0  0  0
 73 74  1  0  0  0
 73 75  2  0  0  0
 73 82  1  0  0  0
 74 83  1  0  0  0
 75 84  1  0  0  0
 76 86  1  0  0  0
 77 78  1  0  0  0
 77 83  1  0  0  0
 77 85  2  0  0  0
 78 81  1  0  0  0
 78148  1  0  0  0
 78149  1  0  0  0
 79 80  1  0  0  0
 79 81  1  0  0  0
 79150  1  0  0  0
 79151  1  0  0  0
 80 83  1  0  0  0
 80152  1  0  0  0
 80153  1  0  0  0
 81154  1  0  0  0
 82155  1  0  0  0
 82156  1  0  0  0
 82157  1  0  0  0
 84158  1  0  0  0
M  ISO  4   1 100  68 101  81 101  84 100
M  END
> <chiral flag>
0

> <version>
0

> <s_m_source_file>
/data/baiqing/PycharmProjects/Reinvent-master-3.2/result/LINK_invent/BTK/process_docking_weight1_custom_product_contain_oxygen_bond_distance_aromatic_linkinvent_7_9_3/rearranged_h_0028.sdf

> <i_m_source_file_index>
43

> <r_mmod_Potential_Energy-OPLS-2005>
483.53271484375

> <r_mmod_Stretch_Energy-OPLS-2005>
217.546951293945

> <r_mmod_Bend_Energy-OPLS-2005>
236.18293762207

> <r_mmod_Torsional_Energy-OPLS-2005>
307.673400878906

> <r_mmod_Improper_Torsional_Energy-OPLS-2005>
6.35151147842407

> <r_mmod_Van_der_Waal_Energy-OPLS-2005>
146.553314208984

> <r_mmod_Electrostatic_Energy-OPLS-2005>
-367.572570800781

> <r_mmod_Solvation_Energy-OPLS-2005>
-217.776641845703

> <b_mmod_Minimization_Converged-OPLS-2005>
0

> <r_mmod_RMS_Derivative-OPLS-2005>
0.816819608211517

$$$$
43
                    3D
 Structure written by MMmdl.
178188  0  0  1  0            999 V2000
  -30.6919  -14.6258   20.4606 C   0  0  0  0  0  0
  -30.3986  -12.4041   19.4313 C   0  0  0  0  0  0
  -29.4717  -12.4903   18.2020 C   0  0  0  0  0  0
  -28.0063  -12.3360   18.6327 C   0  0  0  0  0  0
  -27.6376  -13.2266   19.8461 C   0  0  2  0  0  0
  -28.6854  -13.1331   20.9753 C   0  0  0  0  0  0
  -25.2572  -13.8265   20.5734 C   0  0  0  0  0  0
  -24.1828  -13.0505   20.9216 C   0  0  0  0  0  0
  -24.6358  -11.6939   20.8769 C   0  0  0  0  0  0
  -23.9031  -10.4333   21.0445 C   0  0  0  0  0  0
  -24.3623   -9.4222   21.9196 C   0  0  0  0  0  0
  -23.6320   -8.2234   22.0719 C   0  0  0  0  0  0
  -22.4281   -8.0295   21.3516 C   0  0  0  0  0  0
  -21.9918   -9.0263   20.4617 C   0  0  0  0  0  0
  -22.7217  -10.2161   20.3059 C   0  0  0  0  0  0
  -21.6861   -6.0738   22.5297 C   0  0  0  0  0  0
  -21.3981   -6.5633   23.8228 C   0  0  0  0  0  0
  -21.3658   -5.6798   24.9203 C   0  0  0  0  0  0
  -21.6047   -4.3054   24.7261 C   0  0  0  0  0  0
  -21.8829   -3.8150   23.4380 C   0  0  0  0  0  0
  -21.9190   -4.6971   22.3432 C   0  0  0  0  0  0
  -22.7822  -13.5260   21.1880 C   0  0  0  0  0  0
  -22.1689   -4.2155   21.1023 F   0  0  0  0  0  0
  -21.5654   -3.4547   25.7773 F   0  0  0  0  0  0
  -29.9877  -13.4587   20.3819 N   0  0  0  0  0  0
  -26.2942  -12.9411   20.3343 N   0  0  0  0  0  0
  -25.9306  -11.6561   20.5777 N   0  0  0  0  0  0
  -22.0461  -12.8205   22.0430 N   0  0  0  0  0  0
  -25.4360  -15.1955   20.4071 N   0  0  0  0  0  0
  -31.8226  -14.7189   19.9969 O   0  0  0  0  0  0
  -21.6622   -6.8875   21.4223 O   0  0  0  0  0  0
  -22.3462  -14.5508   20.6666 O   0  0  0  0  0  0
  -24.6332  -31.8551   23.2102 C   0  0  0  0  0  0
  -25.9141  -32.4773   23.8432 C   0  0  1  0  0  0
  -27.2395  -27.3536   19.9795 C   0  0  0  0  0  0
  -25.5974  -33.8606   24.2278 N   0  0  0  0  0  0
  -23.4385  -30.4714   21.5430 C   0  0  2  0  0  0
  -24.8696  -28.9563   20.0989 C   0  0  0  0  0  0
  -22.7567  -29.4537   22.4901 C   0  0  0  0  0  0
  -18.0140  -28.1548   22.8377 C   0  0  0  0  0  0
  -24.1475  -36.7246   23.2624 C   0  0  0  0  0  0
  -25.9767  -30.8012   21.3603 C   0  0  0  0  0  0
  -26.0523  -29.4367   20.6777 C   0  0  0  0  0  0
  -27.2429  -28.6435   20.6052 C   0  0  0  0  0  0
  -26.0011  -26.9111   19.4739 C   0  0  0  0  0  0
  -24.8416  -27.6922   19.5049 C   0  0  0  0  0  0
  -23.6422  -29.8318   20.1566 C   0  0  0  0  0  0
  -25.4143  -36.3060   24.0271 C   0  0  1  0  0  0
  -20.5813  -28.3933   23.1349 C   0  0  2  0  0  0
  -20.6788  -26.9672   22.5486 C   0  0  0  0  0  0
  -19.5791  -26.6754   21.5144 C   0  0  0  0  0  0
  -18.1854  -26.8111   22.1476 C   0  0  0  0  0  0
  -19.1425  -28.9066   23.2792 C   0  0  0  0  0  0
  -18.9239  -30.1571   23.8936 C   0  0  0  0  0  0
  -17.6224  -30.6603   24.0789 C   0  0  0  0  0  0
  -25.9118  -34.9449   23.5066 C   0  0  0  0  0  0
  -16.5190  -29.9087   23.6498 C   0  0  0  0  0  0
  -16.7080  -28.6618   23.0411 C   0  0  0  0  0  0
  -26.4581  -31.6628   25.0802 C   0  0  0  0  0  0
  -25.3800  -31.3838   26.1501 C   0  0  0  0  0  0
  -27.0367  -30.2985   24.6293 C   0  0  0  0  0  0
  -27.6064  -32.4506   25.7531 C   0  0  0  0  0  0
  -27.5562  -37.1781   24.8476 C   0  0  0  0  0  0
  -21.4256  -29.3239   22.3710 N   0  0  0  0  0  0
  -26.4308  -37.3743   23.9404 N   0  0  0  0  0  0
  -24.6990  -31.0573   22.0994 N   0  0  0  0  0  0
  -23.4184  -28.7918   23.2906 O   0  0  0  0  0  0
  -28.3564  -26.5033   19.9202 O   0  0  0  0  0  0
  -26.5668  -34.8849   22.4634 O   0  0  0  0  0  0
  -23.5456  -32.1314   23.7430 O   0  0  0  0  0  0
  -29.4652  -17.7792   19.6697 C   0  0  0  0  0  0
  -28.4751  -17.2199   21.8216 C   0  0  0  0  0  0
  -28.7445  -19.0345   19.6637 C   0  0  0  0  0  0
  -27.7949  -18.4575   21.8608 C   0  0  0  0  0  0
  -29.3008  -16.8248   20.7504 C   0  0  0  0  0  0
  -27.8316  -19.2876   20.7148 C   0  0  0  0  0  0
  -26.9010  -21.7132   23.4103 C   0  0  0  0  0  0
  -27.9625  -21.1208   24.3462 C   0  0  0  0  0  0
  -25.6548  -20.7848   23.3415 C   0  0  0  0  0  0
  -26.6740  -22.7461   17.0323 C   0  0  0  0  0  0
  -26.8116  -23.9666   17.9451 C   0  0  0  0  0  0
  -28.4892  -19.8097   23.7157 C   0  0  0  0  0  0
  -26.0222  -19.2775   23.4625 C   0  0  0  0  0  0
  -26.9990  -21.4419   17.7954 C   0  0  0  0  0  0
  -28.7664  -22.8289   19.1317 C   0  0  0  0  0  0
  -28.2600  -24.1291   18.3794 C   0  0  1  0  0  0
  -29.0836  -20.2412   18.6882 C   0  0  0  0  0  0
  -28.6669  -25.6649   18.7302 C   0  0  0  0  0  0
  -27.4232  -18.9741   23.1275 N   0  0  0  0  0  0
  -30.1741  -15.7134   21.1033 N   0  0  0  0  0  0
  -28.1830  -21.4765   18.7130 N   0  3  2  0  0  0
  -27.0859  -20.4111   20.6920 F   0  0  0  0  0  0
  -31.4467  -12.4986   19.1341 H   0  0  0  0  0  0
  -30.3115  -11.4335   19.9274 H   0  0  0  0  0  0
  -29.7362  -11.7143   17.4860 H   0  0  0  0  0  0
  -29.6111  -13.4528   17.7034 H   0  0  0  0  0  0
  -27.8577  -11.2815   18.8830 H   0  0  0  0  0  0
  -27.3404  -12.5575   17.8029 H   0  0  0  0  0  0
  -27.6500  -14.2549   19.4827 H   0  0  0  0  0  0
  -28.7152  -12.1214   21.3904 H   0  0  0  0  0  0
  -28.4204  -13.7991   21.8017 H   0  0  0  0  0  0
  -25.2725   -9.5703   22.4847 H   0  0  0  0  0  0
  -24.0010   -7.4580   22.7411 H   0  0  0  0  0  0
  -21.0867   -8.8804   19.8931 H   0  0  0  0  0  0
  -22.3656  -10.9741   19.6270 H   0  0  0  0  0  0
  -21.1927   -7.6139   23.9735 H   0  0  0  0  0  0
  -21.1469   -6.0528   25.9106 H   0  0  0  0  0  0
  -22.0580   -2.7607   23.2909 H   0  0  0  0  0  0
  -22.4008  -11.9848   22.4852 H   0  0  0  0  0  0
  -21.1094  -13.1292   22.2606 H   0  0  0  0  0  0
  -24.6916  -15.8711   20.4859 H   0  0  0  0  0  0
  -26.3091  -15.6105   20.1174 H   0  0  0  0  0  0
  -26.7215  -32.5422   23.1169 H   0  0  0  0  0  0
  -25.0181  -33.9874   25.0442 H   0  0  0  0  0  0
  -22.7244  -31.2902   21.4180 H   0  0  0  0  0  0
  -23.3759  -35.9555   23.3347 H   0  0  0  0  0  0
  -24.3554  -36.8815   22.2030 H   0  0  0  0  0  0
  -23.7224  -37.6443   23.6630 H   0  0  0  0  0  0
  -26.1368  -31.6017   20.6393 H   0  0  0  0  0  0
  -26.8547  -30.8147   21.9966 H   0  0  0  0  0  0
  -28.1749  -29.0171   20.9978 H   0  0  0  0  0  0
  -25.8623  -25.9209   19.0967 H   0  0  0  0  0  0
  -23.9197  -27.2917   19.1021 H   0  0  0  0  0  0
  -23.7847  -30.6288   19.4229 H   0  0  0  0  0  0
  -22.7508  -29.2830   19.8403 H   0  0  0  0  0  0
  -25.1308  -36.1940   25.0756 H   0  0  0  0  0  0
  -20.9817  -28.3657   24.1512 H   0  0  0  0  0  0
  -20.5770  -26.2679   23.3736 H   0  0  0  0  0  0
  -21.6707  -26.7781   22.1362 H   0  0  0  0  0  0
  -19.6738  -27.3796   20.6807 H   0  0  0  0  0  0
  -19.6985  -25.6721   21.1010 H   0  0  0  0  0  0
  -17.4030  -26.6872   21.4037 H   0  0  0  0  0  0
  -18.0138  -26.0195   22.8765 H   0  0  0  0  0  0
  -19.7586  -30.7340   24.2722 H   0  0  0  0  0  0
  -17.4692  -31.5965   24.5938 H   0  0  0  0  0  0
  -15.5135  -30.2832   23.8169 H   0  0  0  0  0  0
  -15.8420  -28.1050   22.7159 H   0  0  0  0  0  0
  -24.5941  -30.7196   25.7877 H   0  0  0  0  0  0
  -24.9028  -32.3009   26.4889 H   0  0  0  0  0  0
  -25.8111  -30.9050   27.0279 H   0  0  0  0  0  0
  -26.2914  -29.6800   24.1179 H   0  0  0  0  0  0
  -27.3824  -29.7221   25.4904 H   0  0  0  0  0  0
  -27.8911  -30.4190   23.9632 H   0  0  0  0  0  0
  -27.2549  -33.3790   26.2016 H   0  0  0  0  0  0
  -28.3828  -32.7148   25.0377 H   0  0  0  0  0  0
  -28.0708  -31.8756   26.5497 H   0  0  0  0  0  0
  -28.2560  -38.0074   24.7462 H   0  0  0  0  0  0
  -28.1062  -36.2592   24.6390 H   0  0  0  0  0  0
  -27.2246  -37.1483   25.8863 H   0  0  0  0  0  0
  -20.9488  -29.9278   21.7163 H   0  0  0  0  0  0
  -26.0164  -38.2771   24.1562 H   0  0  0  0  0  0
  -30.2159  -17.5952   18.9046 H   0  0  0  0  0  0
  -28.4897  -16.6166   22.7151 H   0  0  0  0  0  0
  -27.3583  -21.8361   22.4231 H   0  0  0  0  0  0
  -26.6466  -22.7258   23.6978 H   0  0  0  0  0  0
  -27.5110  -20.9042   25.3264 H   0  0  0  0  0  0
  -28.7877  -21.8148   24.5375 H   0  0  0  0  0  0
  -25.0607  -20.9932   22.4457 H   0  0  0  0  0  0
  -24.9782  -21.0492   24.1624 H   0  0  0  0  0  0
  -27.2971  -22.8706   16.1382 H   0  0  0  0  0  0
  -25.6481  -22.6882   16.6515 H   0  0  0  0  0  0
  -26.1817  -23.8744   18.8289 H   0  0  0  0  0  0
  -26.4959  -24.8416   17.3799 H   0  0  0  0  0  0
  -29.0487  -19.2367   24.4592 H   0  0  0  0  0  0
  -29.2321  -20.0308   22.9390 H   0  0  0  0  0  0
  -25.3566  -18.6526   22.8483 H   0  0  0  0  0  0
  -25.8765  -18.9613   24.5004 H   0  0  0  0  0  0
  -27.0650  -20.6167   17.0808 H   0  0  0  0  0  0
  -26.1261  -21.2069   18.4119 H   0  0  0  0  0  0
  -28.5631  -22.9345   20.1944 H   0  0  0  0  0  0
  -29.8464  -22.7877   19.0290 H   0  0  0  0  0  0
  -28.7984  -24.0099   17.4374 H   0  0  0  0  0  0
  -29.1990  -19.8778   17.6595 H   0  0  0  0  0  0
  -30.0737  -20.5625   19.0180 H   0  0  0  0  0  0
  -28.3408  -26.2639   17.8770 H   0  0  0  0  0  0
  -29.7534  -25.7294   18.6316 H   0  0  0  0  0  0
  -30.9707  -16.1135   21.5770 H   0  0  0  0  0  0
  -27.6902  -21.2572   19.5714 H   0  0  0  0  0  0
  1 25  1  0  0  0
  1 30  2  0  0  0
  1 90  1  0  0  0
  2  3  1  0  0  0
  2 25  1  0  0  0
  2 93  1  0  0  0
  2 94  1  0  0  0
  3  4  1  0  0  0
  3 95  1  0  0  0
  3 96  1  0  0  0
  4  5  1  0  0  0
  4 97  1  0  0  0
  4 98  1  0  0  0
  5  6  1  0  0  0
  5 26  1  0  0  0
  5 99  1  0  0  0
  6 25  1  0  0  0
  6100  1  0  0  0
  6101  1  0  0  0
  7  8  2  0  0  0
  7 26  1  0  0  0
  7 29  1  0  0  0
  8  9  1  0  0  0
  8 22  1  0  0  0
  9 10  1  0  0  0
  9 27  2  0  0  0
 10 11  2  0  0  0
 10 15  1  0  0  0
 11 12  1  0  0  0
 11102  1  0  0  0
 12 13  2  0  0  0
 12103  1  0  0  0
 13 14  1  0  0  0
 13 31  1  0  0  0
 14 15  2  0  0  0
 14104  1  0  0  0
 15105  1  0  0  0
 16 17  2  0  0  0
 16 21  1  0  0  0
 16 31  1  0  0  0
 17 18  1  0  0  0
 17106  1  0  0  0
 18 19  2  0  0  0
 18107  1  0  0  0
 19 20  1  0  0  0
 19 24  1  0  0  0
 20 21  2  0  0  0
 20108  1  0  0  0
 21 23  1  0  0  0
 22 28  1  0  0  0
 22 32  2  0  0  0
 26 27  1  0  0  0
 28109  1  0  0  0
 28110  1  0  0  0
 29111  1  0  0  0
 29112  1  0  0  0
 33 34  1  0  0  0
 33 66  1  0  0  0
 33 70  2  0  0  0
 34 36  1  0  0  0
 34 59  1  0  0  0
 34113  1  0  0  0
 35 44  2  0  0  0
 35 45  1  0  0  0
 35 68  1  0  0  0
 36 56  1  0  0  0
 36114  1  0  0  0
 37 39  1  0  0  0
 37 47  1  0  0  0
 37 66  1  0  0  0
 37115  1  0  0  0
 38 43  2  0  0  0
 38 46  1  0  0  0
 38 47  1  0  0  0
 39 64  1  0  0  0
 39 67  2  0  0  0
 40 52  1  0  0  0
 40 53  2  0  0  0
 40 58  1  0  0  0
 41116  1  0  0  0
 41117  1  0  0  0
 41118  1  0  0  0
 41 48  1  0  0  0
 42 43  1  0  0  0
 42 66  1  0  0  0
 42119  1  0  0  0
 42120  1  0  0  0
 43 44  1  0  0  0
 44121  1  0  0  0
 45 46  2  0  0  0
 45122  1  0  0  0
 46123  1  0  0  0
 47124  1  0  0  0
 47125  1  0  0  0
 48 56  1  0  0  0
 48 65  1  0  0  0
 48126  1  0  0  0
 49 50  1  0  0  0
 49 53  1  0  0  0
 49 64  1  0  0  0
 49127  1  0  0  0
 50 51  1  0  0  0
 50128  1  0  0  0
 50129  1  0  0  0
 51 52  1  0  0  0
 51130  1  0  0  0
 51131  1  0  0  0
 52132  1  0  0  0
 52133  1  0  0  0
 53 54  1  0  0  0
 54 55  2  0  0  0
 54134  1  0  0  0
 55 57  1  0  0  0
 55135  1  0  0  0
 56 69  2  0  0  0
 57 58  2  0  0  0
 57136  1  0  0  0
 58137  1  0  0  0
 59 60  1  0  0  0
 59 61  1  0  0  0
 59 62  1  0  0  0
 60138  1  0  0  0
 60139  1  0  0  0
 60140  1  0  0  0
 61141  1  0  0  0
 61142  1  0  0  0
 61143  1  0  0  0
 62144  1  0  0  0
 62145  1  0  0  0
 62146  1  0  0  0
 63 65  1  0  0  0
 63147  1  0  0  0
 63148  1  0  0  0
 63149  1  0  0  0
 64150  1  0  0  0
 65151  1  0  0  0
 68 88  1  0  0  0
 71 73  2  0  0  0
 71 75  1  0  0  0
 71152  1  0  0  0
 72 74  1  0  0  0
 72 75  2  0  0  0
 72153  1  0  0  0
 73 76  1  0  0  0
 73 87  1  0  0  0
 74 76  2  0  0  0
 74 89  1  0  0  0
 75 90  1  0  0  0
 76 92  1  0  0  0
 77 78  1  0  0  0
 77 79  1  0  0  0
 77154  1  0  0  0
 77155  1  0  0  0
 78 82  1  0  0  0
 78156  1  0  0  0
 78157  1  0  0  0
 79 83  1  0  0  0
 79158  1  0  0  0
 79159  1  0  0  0
 80 81  1  0  0  0
 80 84  1  0  0  0
 80160  1  0  0  0
 80161  1  0  0  0
 81 86  1  0  0  0
 81162  1  0  0  0
 81163  1  0  0  0
 82 89  1  0  0  0
 82164  1  0  0  0
 82165  1  0  0  0
 83 89  1  0  0  0
 83166  1  0  0  0
 83167  1  0  0  0
 84 91  1  0  0  0
 84168  1  0  0  0
 84169  1  0  0  0
 85 86  1  0  0  0
 85 91  1  0  0  0
 85170  1  0  0  0
 85171  1  0  0  0
 86 88  1  0  0  0
 86172  1  0  0  0
 87173  1  0  0  0
 87174  1  0  0  0
 87 91  1  0  0  0
 88175  1  0  0  0
 88176  1  0  0  0
 90177  1  0  0  0
 91178  1  0  0  0
M  CHG  1  91   1
M  ISO  4   1 100  68 101  88 101  90 100
M  END
> <chiral flag>
0

> <version>
0

> <s_m_source_file>
/data/baiqing/PycharmProjects/Reinvent-master-3.2/result/LINK_invent/BTK/process_docking_weight1_custom_product_contain_oxygen_bond_distance_aromatic_linkinvent_7_9_3/rearranged_h_0028.sdf

> <i_m_source_file_index>
44

> <r_mmod_Potential_Energy-OPLS-2005>
353.350341796875

> <r_mmod_Stretch_Energy-OPLS-2005>
106.61018371582

> <r_mmod_Bend_Energy-OPLS-2005>
291.385833740234

> <r_mmod_Torsional_Energy-OPLS-2005>
451.312713623047

> <r_mmod_Improper_Torsional_Energy-OPLS-2005>
17.6686515808105

> <r_mmod_Van_der_Waal_Energy-OPLS-2005>
159.294296264648

> <r_mmod_Electrostatic_Energy-OPLS-2005>
-284.363098144531

> <r_mmod_Solvation_Energy-OPLS-2005>
-440.497131347656

> <b_mmod_Minimization_Converged-OPLS-2005>
0

> <r_mmod_RMS_Derivative-OPLS-2005>
17.9884815216064

$$$$
44
                    3D
 Structure written by MMmdl.
153162  0  0  1  0            999 V2000
  -30.4057  -15.1736   20.3888 C   0  0  0  0  0  0
  -30.4579  -12.7397   19.5134 C   0  0  0  0  0  0
  -29.5383  -12.5674   18.2763 C   0  0  0  0  0  0
  -28.0793  -12.3052   18.6970 C   0  0  0  0  0  0
  -27.6232  -13.2565   19.8305 C   0  0  2  0  0  0
  -28.6624  -13.3532   20.9680 C   0  0  0  0  0  0
  -25.2428  -13.8203   20.5664 C   0  0  0  0  0  0
  -24.1776  -13.0428   20.9257 C   0  0  0  0  0  0
  -24.6409  -11.6921   20.8777 C   0  0  0  0  0  0
  -23.9091  -10.4292   21.0426 C   0  0  0  0  0  0
  -24.3636   -9.4200   21.9194 C   0  0  0  0  0  0
  -23.6299   -8.2240   22.0768 C   0  0  0  0  0  0
  -22.4281   -8.0288   21.3556 C   0  0  0  0  0  0
  -21.9925   -9.0265   20.4654 C   0  0  0  0  0  0
  -22.7267  -10.2137   20.3064 C   0  0  0  0  0  0
  -21.6857   -6.0741   22.5276 C   0  0  0  0  0  0
  -21.4013   -6.5645   23.8207 C   0  0  0  0  0  0
  -21.3659   -5.6797   24.9171 C   0  0  0  0  0  0
  -21.6038   -4.3060   24.7221 C   0  0  0  0  0  0
  -21.8821   -3.8154   23.4344 C   0  0  0  0  0  0
  -21.9193   -4.6967   22.3400 C   0  0  0  0  0  0
  -22.7796  -13.5200   21.1901 C   0  0  0  0  0  0
  -22.1660   -4.2148   21.0978 F   0  0  0  0  0  0
  -21.5622   -3.4550   25.7741 F   0  0  0  0  0  0
  -29.9104  -13.8486   20.3637 N   0  0  0  0  0  0
  -26.2857  -12.9447   20.3196 N   0  0  0  0  0  0
  -25.9337  -11.6577   20.5723 N   0  0  0  0  0  0
  -22.0446  -12.8190   22.0456 N   0  0  0  0  0  0
  -25.4034  -15.1913   20.3930 N   0  0  0  0  0  0
  -31.6130  -15.2856   20.1328 O   0  0  0  0  0  0
  -21.6642   -6.8889   21.4244 O   0  0  0  0  0  0
  -22.3484  -14.5505   20.6740 O   0  0  0  0  0  0
  -24.6569  -31.8289   23.1739 C   0  0  0  0  0  0
  -25.9277  -32.4613   23.8192 C   0  0  1  0  0  0
  -27.2268  -26.9890   20.1798 C   0  0  0  0  0  0
  -25.5967  -33.8426   24.2098 N   0  0  0  0  0  0
  -23.4697  -30.4411   21.5217 C   0  0  2  0  0  0
  -24.9229  -28.8330   20.1162 C   0  0  0  0  0  0
  -22.7630  -29.4482   22.4805 C   0  0  0  0  0  0
  -18.0324  -28.1404   22.8469 C   0  0  0  0  0  0
  -24.1491  -36.7215   23.2647 C   0  0  0  0  0  0
  -26.0346  -30.6560   21.3935 C   0  0  0  0  0  0
  -26.1055  -29.2510   20.7391 C   0  0  0  0  0  0
  -27.2548  -28.3504   20.7426 C   0  0  0  0  0  0
  -26.0136  -26.7022   19.5179 C   0  0  0  0  0  0
  -24.8984  -27.5774   19.4866 C   0  0  0  0  0  0
  -23.7057  -29.7539   20.1492 C   0  0  0  0  0  0
  -25.4130  -36.2978   24.0302 C   0  0  1  0  0  0
  -20.5942  -28.3761   23.1208 C   0  0  2  0  0  0
  -20.6819  -26.9444   22.5407 C   0  0  0  0  0  0
  -19.5793  -26.6376   21.5224 C   0  0  0  0  0  0
  -18.1969  -26.7937   22.1621 C   0  0  0  0  0  0
  -19.1575  -28.8898   23.2832 C   0  0  0  0  0  0
  -18.9480  -30.1490   23.8864 C   0  0  0  0  0  0
  -17.6473  -30.6598   24.0560 C   0  0  0  0  0  0
  -25.9096  -34.9361   23.5017 C   0  0  0  0  0  0
  -16.5365  -29.9081   23.6342 C   0  0  0  0  0  0
  -16.7303  -28.6502   23.0361 C   0  0  0  0  0  0
  -26.4551  -31.6543   25.0699 C   0  0  0  0  0  0
  -25.3694  -31.3774   26.1366 C   0  0  0  0  0  0
  -27.0447  -30.2918   24.6391 C   0  0  0  0  0  0
  -27.6050  -32.4345   25.7503 C   0  0  0  0  0  0
  -27.5568  -37.1760   24.8464 C   0  0  0  0  0  0
  -21.4306  -29.3059   22.3549 N   0  0  0  0  0  0
  -26.4277  -37.3708   23.9408 N   0  0  0  0  0  0
  -24.7414  -31.0010   22.0838 N   0  0  0  0  0  0
  -23.4191  -28.8059   23.3042 O   0  0  0  0  0  0
  -28.2659  -25.9404   20.2249 O   0  0  0  0  0  0
  -26.5701  -34.8892   22.4610 O   0  0  0  0  0  0
  -23.5655  -32.1226   23.6876 O   0  0  0  0  0  0
  -27.7565  -17.8913   21.0897 C   0  0  0  0  0  0
  -29.5533  -19.2678   20.2837 C   0  0  0  0  0  0
  -26.9925  -19.0678   21.2411 C   0  0  0  0  0  0
  -28.7892  -20.6087   20.4339 C   0  0  0  0  0  0
  -29.0782  -17.8422   20.5967 C   0  0  0  0  0  0
  -27.4845  -20.3527   20.9250 C   0  0  0  0  0  0
  -28.9266  -23.2796   21.2243 C   0  0  0  0  0  0
  -28.3031  -23.1220   19.2792 C   0  0  0  0  0  0
  -28.0526  -24.3278   20.3418 C   0  0  0  0  0  0
  -25.5679  -18.9509   21.7548 C   0  0  0  0  0  0
  -29.0714  -22.1658   20.1923 N   0  0  0  0  0  0
  -29.4648  -16.2826   20.5294 N   0  0  0  0  0  0
  -26.6418  -21.4001   21.1097 F   0  0  0  0  0  0
  -30.5217  -11.8114   20.0831 H   0  0  0  0  0  0
  -31.4760  -12.9581   19.1878 H   0  0  0  0  0  0
  -29.8979  -11.7550   17.6432 H   0  0  0  0  0  0
  -29.5817  -13.4722   17.6690 H   0  0  0  0  0  0
  -28.0139  -11.2718   19.0402 H   0  0  0  0  0  0
  -27.4116  -12.3828   17.8383 H   0  0  0  0  0  0
  -27.5605  -14.2410   19.3658 H   0  0  0  0  0  0
  -28.8055  -12.3882   21.4556 H   0  0  0  0  0  0
  -28.3197  -14.0397   21.7437 H   0  0  0  0  0  0
  -25.2782   -9.5664   22.4769 H   0  0  0  0  0  0
  -24.0002   -7.4622   22.7485 H   0  0  0  0  0  0
  -21.0858   -8.8787   19.8951 H   0  0  0  0  0  0
  -22.3733  -10.9679   19.6170 H   0  0  0  0  0  0
  -21.2010   -7.6152   23.9709 H   0  0  0  0  0  0
  -21.1476   -6.0531   25.9071 H   0  0  0  0  0  0
  -22.0602   -2.7616   23.2844 H   0  0  0  0  0  0
  -22.4070  -11.9842   22.4820 H   0  0  0  0  0  0
  -21.1062  -13.1206   22.2666 H   0  0  0  0  0  0
  -24.5962  -15.8045   20.4261 H   0  0  0  0  0  0
  -26.1696  -15.5843   19.8641 H   0  0  0  0  0  0
  -26.7350  -32.5169   23.0922 H   0  0  0  0  0  0
  -25.0060  -33.9515   25.0211 H   0  0  0  0  0  0
  -22.7808  -31.2707   21.3524 H   0  0  0  0  0  0
  -23.3763  -35.9534   23.3278 H   0  0  0  0  0  0
  -24.3571  -36.8893   22.2067 H   0  0  0  0  0  0
  -23.7242  -37.6392   23.6722 H   0  0  0  0  0  0
  -26.2061  -31.4009   20.6153 H   0  0  0  0  0  0
  -26.8981  -30.7128   22.0450 H   0  0  0  0  0  0
  -28.1566  -28.6728   21.2442 H   0  0  0  0  0  0
  -25.9061  -25.7413   19.0347 H   0  0  0  0  0  0
  -23.9982  -27.2511   18.9845 H   0  0  0  0  0  0
  -23.8550  -30.5201   19.3876 H   0  0  0  0  0  0
  -22.8171  -29.2025   19.8369 H   0  0  0  0  0  0
  -25.1330  -36.1774   25.0793 H   0  0  0  0  0  0
  -21.0027  -28.3380   24.1339 H   0  0  0  0  0  0
  -20.5708  -26.2384   23.3653 H   0  0  0  0  0  0
  -21.6693  -26.7443   22.1230 H   0  0  0  0  0  0
  -19.6966  -25.6271   21.1283 H   0  0  0  0  0  0
  -19.6722  -27.3173   20.6738 H   0  0  0  0  0  0
  -17.4248  -26.6679   21.4010 H   0  0  0  0  0  0
  -18.0363  -26.0093   22.9032 H   0  0  0  0  0  0
  -19.7951  -30.7327   24.2218 H   0  0  0  0  0  0
  -17.5017  -31.6274   24.5162 H   0  0  0  0  0  0
  -15.5362  -30.2968   23.7684 H   0  0  0  0  0  0
  -15.8711  -28.0808   22.7091 H   0  0  0  0  0  0
  -24.5894  -30.7105   25.7676 H   0  0  0  0  0  0
  -24.8867  -32.2971   26.4677 H   0  0  0  0  0  0
  -25.7939  -30.9019   27.0218 H   0  0  0  0  0  0
  -26.3104  -29.6602   24.1378 H   0  0  0  0  0  0
  -27.3987  -29.7266   25.5027 H   0  0  0  0  0  0
  -27.9041  -30.4121   23.9791 H   0  0  0  0  0  0
  -27.2619  -33.3685   26.1966 H   0  0  0  0  0  0
  -28.3921  -32.6843   25.0376 H   0  0  0  0  0  0
  -28.0652  -31.8550   26.5517 H   0  0  0  0  0  0
  -28.2565  -38.0074   24.7516 H   0  0  0  0  0  0
  -28.1086  -36.2602   24.6288 H   0  0  0  0  0  0
  -27.2287  -37.1401   25.8867 H   0  0  0  0  0  0
  -20.9561  -29.8731   21.6665 H   0  0  0  0  0  0
  -26.0125  -38.2765   24.1418 H   0  0  0  0  0  0
  -27.2737  -16.9656   21.3678 H   0  0  0  0  0  0
  -30.5580  -19.3474   19.8945 H   0  0  0  0  0  0
  -28.4037  -22.9546   22.1249 H   0  0  0  0  0  0
  -29.9015  -23.6878   21.4937 H   0  0  0  0  0  0
  -28.9197  -23.4363   18.4362 H   0  0  0  0  0  0
  -27.3699  -22.6911   18.9137 H   0  0  0  0  0  0
  -27.0228  -24.2243   20.6861 H   0  0  0  0  0  0
  -25.3143  -17.9272   22.0322 H   0  0  0  0  0  0
  -24.8639  -19.2754   20.9878 H   0  0  0  0  0  0
  -25.4260  -19.5800   22.6338 H   0  0  0  0  0  0
  -28.6128  -15.7762   20.7105 H   0  0  0  0  0  0
  1 25  1  0  0  0
  1 30  2  0  0  0
  1 82  1  0  0  0
  2  3  1  0  0  0
  2 25  1  0  0  0
  2 84  1  0  0  0
  2 85  1  0  0  0
  3  4  1  0  0  0
  3 86  1  0  0  0
  3 87  1  0  0  0
  4  5  1  0  0  0
  4 88  1  0  0  0
  4 89  1  0  0  0
  5  6  1  0  0  0
  5 26  1  0  0  0
  5 90  1  0  0  0
  6 25  1  0  0  0
  6 91  1  0  0  0
  6 92  1  0  0  0
  7  8  2  0  0  0
  7 26  1  0  0  0
  7 29  1  0  0  0
  8  9  1  0  0  0
  8 22  1  0  0  0
  9 10  1  0  0  0
  9 27  2  0  0  0
 10 11  2  0  0  0
 10 15  1  0  0  0
 11 12  1  0  0  0
 11 93  1  0  0  0
 12 13  2  0  0  0
 12 94  1  0  0  0
 13 14  1  0  0  0
 13 31  1  0  0  0
 14 15  2  0  0  0
 14 95  1  0  0  0
 15 96  1  0  0  0
 16 17  2  0  0  0
 16 21  1  0  0  0
 16 31  1  0  0  0
 17 18  1  0  0  0
 17 97  1  0  0  0
 18 19  2  0  0  0
 18 98  1  0  0  0
 19 20  1  0  0  0
 19 24  1  0  0  0
 20 21  2  0  0  0
 20 99  1  0  0  0
 21 23  1  0  0  0
 22 28  1  0  0  0
 22 32  2  0  0  0
 26 27  1  0  0  0
 28100  1  0  0  0
 28101  1  0  0  0
 29102  1  0  0  0
 29103  1  0  0  0
 33 34  1  0  0  0
 33 66  1  0  0  0
 33 70  2  0  0  0
 34 36  1  0  0  0
 34 59  1  0  0  0
 34104  1  0  0  0
 35 44  2  0  0  0
 35 45  1  0  0  0
 35 68  1  0  0  0
 36 56  1  0  0  0
 36105  1  0  0  0
 37 39  1  0  0  0
 37 47  1  0  0  0
 37 66  1  0  0  0
 37106  1  0  0  0
 38 43  2  0  0  0
 38 46  1  0  0  0
 38 47  1  0  0  0
 39 64  1  0  0  0
 39 67  2  0  0  0
 40 52  1  0  0  0
 40 53  2  0  0  0
 40 58  1  0  0  0
 41107  1  0  0  0
 41108  1  0  0  0
 41109  1  0  0  0
 41 48  1  0  0  0
 42 43  1  0  0  0
 42 66  1  0  0  0
 42110  1  0  0  0
 42111  1  0  0  0
 43 44  1  0  0  0
 44112  1  0  0  0
 45 46  2  0  0  0
 45113  1  0  0  0
 46114  1  0  0  0
 47115  1  0  0  0
 47116  1  0  0  0
 48 56  1  0  0  0
 48 65  1  0  0  0
 48117  1  0  0  0
 49 50  1  0  0  0
 49 53  1  0  0  0
 49 64  1  0  0  0
 49118  1  0  0  0
 50 51  1  0  0  0
 50119  1  0  0  0
 50120  1  0  0  0
 51 52  1  0  0  0
 51121  1  0  0  0
 51122  1  0  0  0
 52123  1  0  0  0
 52124  1  0  0  0
 53 54  1  0  0  0
 54 55  2  0  0  0
 54125  1  0  0  0
 55 57  1  0  0  0
 55126  1  0  0  0
 56 69  2  0  0  0
 57 58  2  0  0  0
 57127  1  0  0  0
 58128  1  0  0  0
 59 60  1  0  0  0
 59 61  1  0  0  0
 59 62  1  0  0  0
 60129  1  0  0  0
 60130  1  0  0  0
 60131  1  0  0  0
 61132  1  0  0  0
 61133  1  0  0  0
 61134  1  0  0  0
 62135  1  0  0  0
 62136  1  0  0  0
 62137  1  0  0  0
 63 65  1  0  0  0
 63138  1  0  0  0
 63139  1  0  0  0
 63140  1  0  0  0
 64141  1  0  0  0
 65142  1  0  0  0
 68 79  1  0  0  0
 71 73  2  0  0  0
 71 75  1  0  0  0
 71143  1  0  0  0
 72 74  1  0  0  0
 72 75  2  0  0  0
 72144  1  0  0  0
 73 76  1  0  0  0
 73 80  1  0  0  0
 74 76  2  0  0  0
 74 81  1  0  0  0
 75 82  1  0  0  0
 76 83  1  0  0  0
 77 79  1  0  0  0
 77 81  1  0  0  0
 77145  1  0  0  0
 77146  1  0  0  0
 78 79  1  0  0  0
 78 81  1  0  0  0
 78147  1  0  0  0
 78148  1  0  0  0
 79149  1  0  0  0
 80150  1  0  0  0
 80151  1  0  0  0
 80152  1  0  0  0
 82153  1  0  0  0
M  ISO  4   1 100  68 101  79 101  82 100
M  END
> <chiral flag>
0

> <version>
0

> <s_m_source_file>
/data/baiqing/PycharmProjects/Reinvent-master-3.2/result/LINK_invent/BTK/process_docking_weight1_custom_product_contain_oxygen_bond_distance_aromatic_linkinvent_7_9_3/rearranged_h_0028.sdf

> <i_m_source_file_index>
45

> <r_mmod_Potential_Energy-OPLS-2005>
1190.43591308594

> <r_mmod_Stretch_Energy-OPLS-2005>
434.196990966797

> <r_mmod_Bend_Energy-OPLS-2005>
523.08740234375

> <r_mmod_Torsional_Energy-OPLS-2005>
276.841552734375

> <r_mmod_Improper_Torsional_Energy-OPLS-2005>
12.4664421081543

> <r_mmod_Van_der_Waal_Energy-OPLS-2005>
121.666648864746

> <r_mmod_Electrostatic_Energy-OPLS-2005>
-314.473205566406

> <r_mmod_Solvation_Energy-OPLS-2005>
-233.755615234375

> <b_mmod_Minimization_Converged-OPLS-2005>
0

> <r_mmod_RMS_Derivative-OPLS-2005>
1.30104184150696

$$$$
45
                    3D
 Structure written by MMmdl.
156165  0  0  1  0            999 V2000
  -30.5740  -14.8394   20.4553 C   0  0  0  0  0  0
  -30.4410  -12.5208   19.4809 C   0  0  0  0  0  0
  -29.5170  -12.5158   18.2424 C   0  0  0  0  0  0
  -28.0471  -12.3182   18.6600 C   0  0  0  0  0  0
  -27.6361  -13.2355   19.8414 C   0  0  2  0  0  0
  -28.6801  -13.2159   20.9782 C   0  0  0  0  0  0
  -25.2490  -13.8200   20.5681 C   0  0  0  0  0  0
  -24.1796  -13.0438   20.9212 C   0  0  0  0  0  0
  -24.6400  -11.6915   20.8765 C   0  0  0  0  0  0
  -23.9085  -10.4290   21.0421 C   0  0  0  0  0  0
  -24.3633   -9.4203   21.9195 C   0  0  0  0  0  0
  -23.6302   -8.2245   22.0763 C   0  0  0  0  0  0
  -22.4284   -8.0288   21.3551 C   0  0  0  0  0  0
  -21.9927   -9.0265   20.4653 C   0  0  0  0  0  0
  -22.7264  -10.2137   20.3061 C   0  0  0  0  0  0
  -21.6848   -6.0744   22.5283 C   0  0  0  0  0  0
  -21.4016   -6.5648   23.8217 C   0  0  0  0  0  0
  -21.3655   -5.6799   24.9177 C   0  0  0  0  0  0
  -21.6039   -4.3062   24.7229 C   0  0  0  0  0  0
  -21.8819   -3.8154   23.4350 C   0  0  0  0  0  0
  -21.9196   -4.6972   22.3405 C   0  0  0  0  0  0
  -22.7819  -13.5216   21.1879 C   0  0  0  0  0  0
  -22.1660   -4.2157   21.0982 F   0  0  0  0  0  0
  -21.5627   -3.4542   25.7742 F   0  0  0  0  0  0
  -29.9663  -13.5989   20.3842 N   0  0  0  0  0  0
  -26.2912  -12.9403   20.3246 N   0  0  0  0  0  0
  -25.9325  -11.6545   20.5752 N   0  0  0  0  0  0
  -22.0464  -12.8204   22.0428 N   0  0  0  0  0  0
  -25.4171  -15.1927   20.4077 N   0  0  0  0  0  0
  -31.7782  -14.9240   20.1981 O   0  0  0  0  0  0
  -21.6638   -6.8887   21.4244 O   0  0  0  0  0  0
  -22.3512  -14.5524   20.6724 O   0  0  0  0  0  0
  -24.6360  -31.8494   23.1901 C   0  0  0  0  0  0
  -25.9155  -32.4725   23.8282 C   0  0  1  0  0  0
  -27.2266  -27.2085   20.1565 C   0  0  0  0  0  0
  -25.5921  -33.8530   24.2196 N   0  0  0  0  0  0
  -23.4373  -30.4669   21.5346 C   0  0  2  0  0  0
  -24.8878  -28.8998   20.1123 C   0  0  0  0  0  0
  -22.7531  -29.4564   22.4879 C   0  0  0  0  0  0
  -18.0298  -28.1396   22.8473 C   0  0  0  0  0  0
  -24.1490  -36.7284   23.2644 C   0  0  0  0  0  0
  -25.9853  -30.7492   21.3750 C   0  0  0  0  0  0
  -26.0603  -29.3647   20.7225 C   0  0  0  0  0  0
  -27.2342  -28.5348   20.7227 C   0  0  0  0  0  0
  -26.0297  -26.8155   19.5222 C   0  0  0  0  0  0
  -24.8807  -27.6369   19.4965 C   0  0  0  0  0  0
  -23.6602  -29.7944   20.1534 C   0  0  0  0  0  0
  -25.4119  -36.3046   24.0320 C   0  0  1  0  0  0
  -20.5907  -28.3709   23.1251 C   0  0  2  0  0  0
  -20.6795  -26.9417   22.5408 C   0  0  0  0  0  0
  -19.5769  -26.6382   21.5217 C   0  0  0  0  0  0
  -18.1943  -26.7940   22.1617 C   0  0  0  0  0  0
  -19.1551  -28.8868   23.2853 C   0  0  0  0  0  0
  -18.9479  -30.1471   23.8864 C   0  0  0  0  0  0
  -17.6477  -30.6590   24.0558 C   0  0  0  0  0  0
  -25.9070  -34.9427   23.5070 C   0  0  0  0  0  0
  -16.5362  -29.9082   23.6344 C   0  0  0  0  0  0
  -16.7283  -28.6511   23.0348 C   0  0  0  0  0  0
  -26.4501  -31.6580   25.0696 C   0  0  0  0  0  0
  -25.3693  -31.3763   26.1396 C   0  0  0  0  0  0
  -27.0364  -30.2986   24.6213 C   0  0  0  0  0  0
  -27.6029  -32.4338   25.7476 C   0  0  0  0  0  0
  -27.5572  -37.1792   24.8460 C   0  0  0  0  0  0
  -21.4229  -29.3039   22.3623 N   0  0  0  0  0  0
  -26.4285  -37.3749   23.9404 N   0  0  0  0  0  0
  -24.7052  -31.0418   22.0900 N   0  0  0  0  0  0
  -23.4194  -28.8109   23.3009 O   0  0  0  0  0  0
  -28.3243  -26.3026   20.1714 O   0  0  0  0  0  0
  -26.5657  -34.8913   22.4649 O   0  0  0  0  0  0
  -23.5493  -32.1338   23.7157 O   0  0  0  0  0  0
  -29.3321  -18.6290   20.2997 C   0  0  0  0  0  0
  -31.3209  -17.7914   21.3606 C   0  0  0  0  0  0
  -29.7564  -20.0242   20.5108 C   0  0  0  0  0  0
  -30.1223  -17.4554   20.7046 C   0  0  0  0  0  0
  -31.0030  -20.1235   21.1771 C   0  0  0  0  0  0
  -29.4193  -23.8927   20.7643 C   0  0  0  0  0  0
  -27.7341  -23.6323   19.7333 C   0  0  0  0  0  0
  -28.1660  -24.8503   20.6270 C   0  0  2  0  0  0
  -31.6773  -21.4570   21.4419 C   0  0  0  0  0  0
  -29.0657  -21.3534   19.8474 C   0  0  0  0  0  0
  -31.7272  -19.0581   21.5982 N   0  0  0  0  0  0
  -29.7736  -15.9932   20.5480 N   0  0  0  0  0  0
  -28.5692  -22.6695   20.5472 N   0  3  1  0  0  0
  -31.4784  -12.6689   19.1739 H   0  0  0  0  0  0
  -30.4144  -11.5554   19.9889 H   0  0  0  0  0  0
  -29.8178  -11.7301   17.5469 H   0  0  0  0  0  0
  -29.6216  -13.4595   17.7040 H   0  0  0  0  0  0
  -27.9265  -11.2732   18.9484 H   0  0  0  0  0  0
  -27.3850  -12.4762   17.8082 H   0  0  0  0  0  0
  -27.6145  -14.2469   19.4344 H   0  0  0  0  0  0
  -28.7419  -12.2286   21.4385 H   0  0  0  0  0  0
  -28.3994  -13.9109   21.7723 H   0  0  0  0  0  0
  -25.2773   -9.5671   22.4775 H   0  0  0  0  0  0
  -24.0004   -7.4631   22.7481 H   0  0  0  0  0  0
  -21.0860   -8.8796   19.8952 H   0  0  0  0  0  0
  -22.3738  -10.9683   19.6174 H   0  0  0  0  0  0
  -21.2003   -7.6155   23.9724 H   0  0  0  0  0  0
  -21.1474   -6.0527   25.9081 H   0  0  0  0  0  0
  -22.0598   -2.7616   23.2850 H   0  0  0  0  0  0
  -22.4074  -11.9853   22.4798 H   0  0  0  0  0  0
  -21.1085  -13.1235   22.2637 H   0  0  0  0  0  0
  -24.6433  -15.8411   20.5038 H   0  0  0  0  0  0
  -26.2544  -15.6305   20.0476 H   0  0  0  0  0  0
  -26.7224  -32.5354   23.1022 H   0  0  0  0  0  0
  -25.0020  -33.9652   25.0303 H   0  0  0  0  0  0
  -22.7375  -31.2910   21.3807 H   0  0  0  0  0  0
  -23.3745  -35.9626   23.3300 H   0  0  0  0  0  0
  -24.3579  -36.8922   22.2058 H   0  0  0  0  0  0
  -23.7266  -37.6489   23.6692 H   0  0  0  0  0  0
  -26.1258  -31.5054   20.6013 H   0  0  0  0  0  0
  -26.8619  -30.8042   22.0091 H   0  0  0  0  0  0
  -28.1349  -28.8901   21.2038 H   0  0  0  0  0  0
  -25.9746  -25.8475   19.0462 H   0  0  0  0  0  0
  -23.9849  -27.2762   19.0087 H   0  0  0  0  0  0
  -23.7907  -30.5683   19.3958 H   0  0  0  0  0  0
  -22.7775  -29.2306   19.8470 H   0  0  0  0  0  0
  -25.1303  -36.1881   25.0816 H   0  0  0  0  0  0
  -20.9996  -28.3309   24.1374 H   0  0  0  0  0  0
  -20.5734  -26.2312   23.3624 H   0  0  0  0  0  0
  -21.6662  -26.7471   22.1176 H   0  0  0  0  0  0
  -19.6955  -25.6291   21.1254 H   0  0  0  0  0  0
  -19.6721  -27.3197   20.6748 H   0  0  0  0  0  0
  -17.4226  -26.6685   21.4002 H   0  0  0  0  0  0
  -18.0317  -26.0092   22.9018 H   0  0  0  0  0  0
  -19.7960  -30.7289   24.2212 H   0  0  0  0  0  0
  -17.5039  -31.6270   24.5161 H   0  0  0  0  0  0
  -15.5362  -30.2971   23.7703 H   0  0  0  0  0  0
  -15.8686  -28.0831   22.7062 H   0  0  0  0  0  0
  -24.5871  -30.7115   25.7717 H   0  0  0  0  0  0
  -24.8886  -32.2951   26.4759 H   0  0  0  0  0  0
  -25.7974  -30.8975   27.0208 H   0  0  0  0  0  0
  -26.2969  -29.6707   24.1228 H   0  0  0  0  0  0
  -27.4021  -29.7269   25.4756 H   0  0  0  0  0  0
  -27.8852  -30.4254   23.9488 H   0  0  0  0  0  0
  -27.2628  -33.3661   26.1993 H   0  0  0  0  0  0
  -28.3869  -32.6861   25.0327 H   0  0  0  0  0  0
  -28.0668  -31.8512   26.5438 H   0  0  0  0  0  0
  -28.2567  -38.0099   24.7491 H   0  0  0  0  0  0
  -28.1080  -36.2627   24.6299 H   0  0  0  0  0  0
  -27.2290  -37.1453   25.8859 H   0  0  0  0  0  0
  -20.9436  -29.8729   21.6789 H   0  0  0  0  0  0
  -26.0157  -38.2817   24.1410 H   0  0  0  0  0  0
  -28.4036  -18.4550   19.7751 H   0  0  0  0  0  0
  -31.9761  -17.0244   21.7448 H   0  0  0  0  0  0
  -29.8884  -23.9296   21.7479 H   0  0  0  0  0  0
  -30.1637  -24.0412   19.9799 H   0  0  0  0  0  0
  -28.0785  -23.7202   18.6992 H   0  0  0  0  0  0
  -26.6685  -23.4049   19.7642 H   0  0  0  0  0  0
  -27.6030  -24.8474   21.5623 H   0  0  0  0  0  0
  -31.1448  -22.0050   22.2172 H   0  0  0  0  0  0
  -31.7256  -22.0620   20.5366 H   0  0  0  0  0  0
  -32.7025  -21.3220   21.7881 H   0  0  0  0  0  0
  -28.1831  -20.9700   19.3349 H   0  0  0  0  0  0
  -29.7281  -21.6677   19.0404 H   0  0  0  0  0  0
  -28.7853  -15.7920   20.5225 H   0  0  0  0  0  0
  -28.0625  -22.4422   21.3886 H   0  0  0  0  0  0
  1 25  1  0  0  0
  1 30  2  0  0  0
  1 82  1  0  0  0
  2  3  1  0  0  0
  2 25  1  0  0  0
  2 84  1  0  0  0
  2 85  1  0  0  0
  3  4  1  0  0  0
  3 86  1  0  0  0
  3 87  1  0  0  0
  4  5  1  0  0  0
  4 88  1  0  0  0
  4 89  1  0  0  0
  5  6  1  0  0  0
  5 26  1  0  0  0
  5 90  1  0  0  0
  6 25  1  0  0  0
  6 91  1  0  0  0
  6 92  1  0  0  0
  7  8  2  0  0  0
  7 26  1  0  0  0
  7 29  1  0  0  0
  8  9  1  0  0  0
  8 22  1  0  0  0
  9 10  1  0  0  0
  9 27  2  0  0  0
 10 11  2  0  0  0
 10 15  1  0  0  0
 11 12  1  0  0  0
 11 93  1  0  0  0
 12 13  2  0  0  0
 12 94  1  0  0  0
 13 14  1  0  0  0
 13 31  1  0  0  0
 14 15  2  0  0  0
 14 95  1  0  0  0
 15 96  1  0  0  0
 16 17  2  0  0  0
 16 21  1  0  0  0
 16 31  1  0  0  0
 17 18  1  0  0  0
 17 97  1  0  0  0
 18 19  2  0  0  0
 18 98  1  0  0  0
 19 20  1  0  0  0
 19 24  1  0  0  0
 20 21  2  0  0  0
 20 99  1  0  0  0
 21 23  1  0  0  0
 22 28  1  0  0  0
 22 32  2  0  0  0
 26 27  1  0  0  0
 28100  1  0  0  0
 28101  1  0  0  0
 29102  1  0  0  0
 29103  1  0  0  0
 33 34  1  0  0  0
 33 66  1  0  0  0
 33 70  2  0  0  0
 34 36  1  0  0  0
 34 59  1  0  0  0
 34104  1  0  0  0
 35 44  2  0  0  0
 35 45  1  0  0  0
 35 68  1  0  0  0
 36 56  1  0  0  0
 36105  1  0  0  0
 37 39  1  0  0  0
 37 47  1  0  0  0
 37 66  1  0  0  0
 37106  1  0  0  0
 38 43  2  0  0  0
 38 46  1  0  0  0
 38 47  1  0  0  0
 39 64  1  0  0  0
 39 67  2  0  0  0
 40 52  1  0  0  0
 40 53  2  0  0  0
 40 58  1  0  0  0
 41107  1  0  0  0
 41108  1  0  0  0
 41109  1  0  0  0
 41 48  1  0  0  0
 42 43  1  0  0  0
 42 66  1  0  0  0
 42110  1  0  0  0
 42111  1  0  0  0
 43 44  1  0  0  0
 44112  1  0  0  0
 45 46  2  0  0  0
 45113  1  0  0  0
 46114  1  0  0  0
 47115  1  0  0  0
 47116  1  0  0  0
 48 56  1  0  0  0
 48 65  1  0  0  0
 48117  1  0  0  0
 49 50  1  0  0  0
 49 53  1  0  0  0
 49 64  1  0  0  0
 49118  1  0  0  0
 50 51  1  0  0  0
 50119  1  0  0  0
 50120  1  0  0  0
 51 52  1  0  0  0
 51121  1  0  0  0
 51122  1  0  0  0
 52123  1  0  0  0
 52124  1  0  0  0
 53 54  1  0  0  0
 54 55  2  0  0  0
 54125  1  0  0  0
 55 57  1  0  0  0
 55126  1  0  0  0
 56 69  2  0  0  0
 57 58  2  0  0  0
 57127  1  0  0  0
 58128  1  0  0  0
 59 60  1  0  0  0
 59 61  1  0  0  0
 59 62  1  0  0  0
 60129  1  0  0  0
 60130  1  0  0  0
 60131  1  0  0  0
 61132  1  0  0  0
 61133  1  0  0  0
 61134  1  0  0  0
 62135  1  0  0  0
 62136  1  0  0  0
 62137  1  0  0  0
 63 65  1  0  0  0
 63138  1  0  0  0
 63139  1  0  0  0
 63140  1  0  0  0
 64141  1  0  0  0
 65142  1  0  0  0
 68 78  1  0  0  0
 71 73  2  0  0  0
 71 74  1  0  0  0
 71143  1  0  0  0
 72 74  2  0  0  0
 72 81  1  0  0  0
 72144  1  0  0  0
 73 75  1  0  0  0
 73 80  1  0  0  0
 74 82  1  0  0  0
 75 79  1  0  0  0
 75 81  2  0  0  0
 76 78  1  0  0  0
 76 83  1  0  0  0
 76145  1  0  0  0
 76146  1  0  0  0
 77 78  1  0  0  0
 77 83  1  0  0  0
 77147  1  0  0  0
 77148  1  0  0  0
 78149  1  0  0  0
 79150  1  0  0  0
 79151  1  0  0  0
 79152  1  0  0  0
 80153  1  0  0  0
 80154  1  0  0  0
 80 83  1  0  0  0
 82155  1  0  0  0
 83156  1  0  0  0
M  CHG  1  83   1
M  ISO  4   1 100  68 101  78 101  82 100
M  END
> <chiral flag>
0

> <version>
0

> <s_m_source_file>
/data/baiqing/PycharmProjects/Reinvent-master-3.2/result/LINK_invent/BTK/process_docking_weight1_custom_product_contain_oxygen_bond_distance_aromatic_linkinvent_7_9_3/rearranged_h_0028.sdf

> <i_m_source_file_index>
46

> <r_mmod_Potential_Energy-OPLS-2005>
-52.5060348510742

> <r_mmod_Stretch_Energy-OPLS-2005>
170.338592529297

> <r_mmod_Bend_Energy-OPLS-2005>
240.076904296875

> <r_mmod_Torsional_Energy-OPLS-2005>
239.736785888672

> <r_mmod_Improper_Torsional_Energy-OPLS-2005>
7.62249135971069

> <r_mmod_Van_der_Waal_Energy-OPLS-2005>
132.867614746094

> <r_mmod_Electrostatic_Energy-OPLS-2005>
-462.132293701172

> <r_mmod_Solvation_Energy-OPLS-2005>
-506.452239990234

> <b_mmod_Minimization_Converged-OPLS-2005>
0

> <r_mmod_RMS_Derivative-OPLS-2005>
1.96877479553223

$$$$
46
                    3D
 Structure written by MMmdl.
159168  0  0  1  0            999 V2000
  -30.6838  -14.6251   20.4802 C   0  0  0  0  0  0
  -30.4136  -12.3824   19.4641 C   0  0  0  0  0  0
  -29.4990  -12.4948   18.2268 C   0  0  0  0  0  0
  -28.0227  -12.3436   18.6382 C   0  0  0  0  0  0
  -27.6444  -13.2309   19.8557 C   0  0  2  0  0  0
  -28.6888  -13.1375   20.9906 C   0  0  0  0  0  0
  -25.2514  -13.8206   20.5703 C   0  0  0  0  0  0
  -24.1801  -13.0447   20.9207 C   0  0  0  0  0  0
  -24.6394  -11.6928   20.8752 C   0  0  0  0  0  0
  -23.9074  -10.4298   21.0409 C   0  0  0  0  0  0
  -24.3626   -9.4212   21.9186 C   0  0  0  0  0  0
  -23.6301   -8.2247   22.0752 C   0  0  0  0  0  0
  -22.4283   -8.0283   21.3543 C   0  0  0  0  0  0
  -21.9922   -9.0258   20.4645 C   0  0  0  0  0  0
  -22.7249  -10.2138   20.3057 C   0  0  0  0  0  0
  -21.6855   -6.0739   22.5280 C   0  0  0  0  0  0
  -21.4016   -6.5641   23.8214 C   0  0  0  0  0  0
  -21.3659   -5.6792   24.9174 C   0  0  0  0  0  0
  -21.6043   -4.3055   24.7225 C   0  0  0  0  0  0
  -21.8817   -3.8149   23.4345 C   0  0  0  0  0  0
  -21.9195   -4.6967   22.3402 C   0  0  0  0  0  0
  -22.7822  -13.5227   21.1870 C   0  0  0  0  0  0
  -22.1662   -4.2153   21.0980 F   0  0  0  0  0  0
  -21.5630   -3.4538   25.7736 F   0  0  0  0  0  0
  -30.0018  -13.4396   20.4110 N   0  0  0  0  0  0
  -26.2947  -12.9418   20.3315 N   0  0  0  0  0  0
  -25.9327  -11.6556   20.5770 N   0  0  0  0  0  0
  -22.0477  -12.8206   22.0420 N   0  0  0  0  0  0
  -25.4200  -15.1929   20.4111 N   0  0  0  0  0  0
  -31.8682  -14.6843   20.1434 O   0  0  0  0  0  0
  -21.6644   -6.8883   21.4241 O   0  0  0  0  0  0
  -22.3503  -14.5535   20.6721 O   0  0  0  0  0  0
  -24.6245  -31.8612   23.2038 C   0  0  0  0  0  0
  -25.9103  -32.4781   23.8362 C   0  0  1  0  0  0
  -27.2171  -27.3325   20.1248 C   0  0  0  0  0  0
  -25.5926  -33.8581   24.2289 N   0  0  0  0  0  0
  -23.4171  -30.4855   21.5465 C   0  0  2  0  0  0
  -24.8632  -28.9435   20.1113 C   0  0  0  0  0  0
  -22.7465  -29.4633   22.4947 C   0  0  0  0  0  0
  -18.0281  -28.1392   22.8490 C   0  0  0  0  0  0
  -24.1494  -36.7295   23.2641 C   0  0  0  0  0  0
  -25.9567  -30.7974   21.3728 C   0  0  0  0  0  0
  -26.0313  -29.4257   20.7168 C   0  0  0  0  0  0
  -27.2147  -28.6316   20.7131 C   0  0  0  0  0  0
  -26.0348  -26.9054   19.4824 C   0  0  0  0  0  0
  -24.8661  -27.6881   19.4842 C   0  0  0  0  0  0
  -23.6303  -29.8215   20.1614 C   0  0  0  0  0  0
  -25.4116  -36.3085   24.0333 C   0  0  1  0  0  0
  -20.5878  -28.3691   23.1290 C   0  0  2  0  0  0
  -20.6774  -26.9416   22.5414 C   0  0  0  0  0  0
  -19.5749  -26.6390   21.5218 C   0  0  0  0  0  0
  -18.1926  -26.7937   22.1624 C   0  0  0  0  0  0
  -19.1533  -28.8857   23.2887 C   0  0  0  0  0  0
  -18.9459  -30.1460   23.8901 C   0  0  0  0  0  0
  -17.6460  -30.6594   24.0565 C   0  0  0  0  0  0
  -25.9050  -34.9452   23.5110 C   0  0  0  0  0  0
  -16.5350  -29.9094   23.6336 C   0  0  0  0  0  0
  -16.7268  -28.6513   23.0353 C   0  0  0  0  0  0
  -26.4493  -31.6580   25.0723 C   0  0  0  0  0  0
  -25.3728  -31.3704   26.1445 C   0  0  0  0  0  0
  -27.0340  -30.3008   24.6168 C   0  0  0  0  0  0
  -27.6059  -32.4311   25.7486 C   0  0  0  0  0  0
  -27.5580  -37.1804   24.8466 C   0  0  0  0  0  0
  -21.4179  -29.3046   22.3688 N   0  0  0  0  0  0
  -26.4291  -37.3779   23.9410 N   0  0  0  0  0  0
  -24.6850  -31.0638   22.0984 N   0  0  0  0  0  0
  -23.4192  -28.8175   23.3026 O   0  0  0  0  0  0
  -28.3207  -26.4738   20.1578 O   0  0  0  0  0  0
  -26.5619  -34.8917   22.4676 O   0  0  0  0  0  0
  -23.5411  -32.1404   23.7374 O   0  0  0  0  0  0
  -29.5870  -20.8388   19.5971 C   0  0  0  0  0  0
  -29.3258  -19.0132   21.7220 C   0  0  0  0  0  0
  -29.8917  -18.5303   20.5100 C   0  0  0  0  0  0
  -29.0703  -21.3518   20.8114 C   0  0  0  0  0  0
  -29.9911  -19.4810   19.4522 C   0  0  0  0  0  0
  -28.9233  -20.3834   21.8605 C   0  0  0  0  0  0
  -28.5695  -24.8990   22.0645 C   0  0  0  0  0  0
  -28.5606  -23.3711   22.2818 C   0  0  0  0  0  0
  -28.7354  -23.8360   19.9486 C   0  0  0  0  0  0
  -28.0730  -25.0926   20.6319 C   0  0  2  0  0  0
  -29.1997  -18.0745   22.9129 C   0  0  0  0  0  0
  -30.6014  -17.1297   20.3601 C   0  0  0  0  0  0
  -28.7414  -22.7531   20.9687 N   0  0  0  0  0  0
  -29.9894  -15.7910   20.6829 N   0  0  0  0  0  0
  -30.5357  -19.1059   18.2697 F   0  0  0  0  0  0
  -28.3979  -20.7659   23.0504 F   0  0  0  0  0  0
  -31.4602  -12.4662   19.1661 H   0  0  0  0  0  0
  -30.3152  -11.4001   19.9287 H   0  0  0  0  0  0
  -29.7616  -11.7332   17.4913 H   0  0  0  0  0  0
  -29.6499  -13.4588   17.7380 H   0  0  0  0  0  0
  -27.8567  -11.2931   18.8800 H   0  0  0  0  0  0
  -27.3701  -12.5657   17.7930 H   0  0  0  0  0  0
  -27.6492  -14.2588   19.4920 H   0  0  0  0  0  0
  -28.6927  -12.1412   21.4346 H   0  0  0  0  0  0
  -28.4464  -13.8315   21.7971 H   0  0  0  0  0  0
  -25.2771   -9.5685   22.4761 H   0  0  0  0  0  0
  -24.0011   -7.4637   22.7469 H   0  0  0  0  0  0
  -21.0856   -8.8775   19.8950 H   0  0  0  0  0  0
  -22.3709  -10.9675   19.6165 H   0  0  0  0  0  0
  -21.2004   -7.6149   23.9718 H   0  0  0  0  0  0
  -21.1484   -6.0523   25.9076 H   0  0  0  0  0  0
  -22.0597   -2.7613   23.2844 H   0  0  0  0  0  0
  -22.4098  -11.9859   22.4791 H   0  0  0  0  0  0
  -21.1092  -13.1218   22.2635 H   0  0  0  0  0  0
  -24.6504  -15.8446   20.5176 H   0  0  0  0  0  0
  -26.2652  -15.6332   20.0710 H   0  0  0  0  0  0
  -26.7171  -32.5453   23.1115 H   0  0  0  0  0  0
  -25.0083  -33.9735   25.0439 H   0  0  0  0  0  0
  -22.7101  -31.3052   21.4046 H   0  0  0  0  0  0
  -23.3758  -35.9628   23.3306 H   0  0  0  0  0  0
  -24.3588  -36.8909   22.2056 H   0  0  0  0  0  0
  -23.7246  -37.6498   23.6659 H   0  0  0  0  0  0
  -26.0846  -31.5604   20.6039 H   0  0  0  0  0  0
  -26.8390  -30.8469   21.9993 H   0  0  0  0  0  0
  -28.1115  -28.9952   21.1951 H   0  0  0  0  0  0
  -26.0032  -25.9461   18.9853 H   0  0  0  0  0  0
  -23.9726  -27.3153   19.0021 H   0  0  0  0  0  0
  -23.7468  -30.5987   19.4050 H   0  0  0  0  0  0
  -22.7508  -29.2496   19.8602 H   0  0  0  0  0  0
  -25.1293  -36.1943   25.0825 H   0  0  0  0  0  0
  -20.9964  -28.3267   24.1412 H   0  0  0  0  0  0
  -20.5686  -26.2301   23.3616 H   0  0  0  0  0  0
  -21.6642  -26.7457   22.1198 H   0  0  0  0  0  0
  -19.6916  -25.6304   21.1245 H   0  0  0  0  0  0
  -19.6690  -27.3206   20.6753 H   0  0  0  0  0  0
  -17.4199  -26.6697   21.4021 H   0  0  0  0  0  0
  -18.0315  -26.0073   22.9011 H   0  0  0  0  0  0
  -19.7933  -30.7279   24.2272 H   0  0  0  0  0  0
  -17.5013  -31.6274   24.5172 H   0  0  0  0  0  0
  -15.5352  -30.2999   23.7663 H   0  0  0  0  0  0
  -15.8665  -28.0839   22.7065 H   0  0  0  0  0  0
  -24.5939  -30.7007   25.7776 H   0  0  0  0  0  0
  -24.8870  -32.2856   26.4837 H   0  0  0  0  0  0
  -25.8057  -30.8918   27.0238 H   0  0  0  0  0  0
  -26.2914  -29.6753   24.1199 H   0  0  0  0  0  0
  -27.4053  -29.7261   25.4663 H   0  0  0  0  0  0
  -27.8772  -30.4301   23.9380 H   0  0  0  0  0  0
  -27.2690  -33.3625   26.2051 H   0  0  0  0  0  0
  -28.3876  -32.6848   25.0313 H   0  0  0  0  0  0
  -28.0725  -31.8440   26.5409 H   0  0  0  0  0  0
  -28.2595  -38.0100   24.7509 H   0  0  0  0  0  0
  -28.1077  -36.2631   24.6296 H   0  0  0  0  0  0
  -27.2296  -37.1451   25.8867 H   0  0  0  0  0  0
  -20.9359  -29.8761   21.6891 H   0  0  0  0  0  0
  -26.0175  -38.2859   24.1405 H   0  0  0  0  0  0
  -29.7235  -21.5003   18.7555 H   0  0  0  0  0  0
  -29.5895  -25.2758   22.1499 H   0  0  0  0  0  0
  -27.9600  -25.4283   22.7972 H   0  0  0  0  0  0
  -27.5996  -23.0609   22.6954 H   0  0  0  0  0  0
  -29.3409  -23.0740   22.9846 H   0  0  0  0  0  0
  -29.7624  -24.0602   19.6562 H   0  0  0  0  0  0
  -28.1903  -23.5405   19.0509 H   0  0  0  0  0  0
  -27.0035  -24.8843   20.6652 H   0  0  0  0  0  0
  -30.1650  -17.6308   23.1569 H   0  0  0  0  0  0
  -28.4985  -17.2707   22.6905 H   0  0  0  0  0  0
  -28.8415  -18.5825   23.8079 H   0  0  0  0  0  0
  -31.5142  -17.2100   20.9527 H   0  0  0  0  0  0
  -30.9538  -17.0527   19.3310 H   0  0  0  0  0  0
  -29.0054  -15.7425   20.8959 H   0  0  0  0  0  0
  1 25  1  0  0  0
  1 30  2  0  0  0
  1 84  1  0  0  0
  2  3  1  0  0  0
  2 25  1  0  0  0
  2 87  1  0  0  0
  2 88  1  0  0  0
  3  4  1  0  0  0
  3 89  1  0  0  0
  3 90  1  0  0  0
  4  5  1  0  0  0
  4 91  1  0  0  0
  4 92  1  0  0  0
  5  6  1  0  0  0
  5 26  1  0  0  0
  5 93  1  0  0  0
  6 25  1  0  0  0
  6 94  1  0  0  0
  6 95  1  0  0  0
  7  8  2  0  0  0
  7 26  1  0  0  0
  7 29  1  0  0  0
  8  9  1  0  0  0
  8 22  1  0  0  0
  9 10  1  0  0  0
  9 27  2  0  0  0
 10 11  2  0  0  0
 10 15  1  0  0  0
 11 12  1  0  0  0
 11 96  1  0  0  0
 12 13  2  0  0  0
 12 97  1  0  0  0
 13 14  1  0  0  0
 13 31  1  0  0  0
 14 15  2  0  0  0
 14 98  1  0  0  0
 15 99  1  0  0  0
 16 17  2  0  0  0
 16 21  1  0  0  0
 16 31  1  0  0  0
 17 18  1  0  0  0
 17100  1  0  0  0
 18 19  2  0  0  0
 18101  1  0  0  0
 19 20  1  0  0  0
 19 24  1  0  0  0
 20 21  2  0  0  0
 20102  1  0  0  0
 21 23  1  0  0  0
 22 28  1  0  0  0
 22 32  2  0  0  0
 26 27  1  0  0  0
 28103  1  0  0  0
 28104  1  0  0  0
 29105  1  0  0  0
 29106  1  0  0  0
 33 34  1  0  0  0
 33 66  1  0  0  0
 33 70  2  0  0  0
 34 36  1  0  0  0
 34 59  1  0  0  0
 34107  1  0  0  0
 35 44  2  0  0  0
 35 45  1  0  0  0
 35 68  1  0  0  0
 36 56  1  0  0  0
 36108  1  0  0  0
 37 39  1  0  0  0
 37 47  1  0  0  0
 37 66  1  0  0  0
 37109  1  0  0  0
 38 43  2  0  0  0
 38 46  1  0  0  0
 38 47  1  0  0  0
 39 64  1  0  0  0
 39 67  2  0  0  0
 40 52  1  0  0  0
 40 53  2  0  0  0
 40 58  1  0  0  0
 41110  1  0  0  0
 41111  1  0  0  0
 41112  1  0  0  0
 41 48  1  0  0  0
 42 43  1  0  0  0
 42 66  1  0  0  0
 42113  1  0  0  0
 42114  1  0  0  0
 43 44  1  0  0  0
 44115  1  0  0  0
 45 46  2  0  0  0
 45116  1  0  0  0
 46117  1  0  0  0
 47118  1  0  0  0
 47119  1  0  0  0
 48 56  1  0  0  0
 48 65  1  0  0  0
 48120  1  0  0  0
 49 50  1  0  0  0
 49 53  1  0  0  0
 49 64  1  0  0  0
 49121  1  0  0  0
 50 51  1  0  0  0
 50122  1  0  0  0
 50123  1  0  0  0
 51 52  1  0  0  0
 51124  1  0  0  0
 51125  1  0  0  0
 52126  1  0  0  0
 52127  1  0  0  0
 53 54  1  0  0  0
 54 55  2  0  0  0
 54128  1  0  0  0
 55 57  1  0  0  0
 55129  1  0  0  0
 56 69  2  0  0  0
 57 58  2  0  0  0
 57130  1  0  0  0
 58131  1  0  0  0
 59 60  1  0  0  0
 59 61  1  0  0  0
 59 62  1  0  0  0
 60132  1  0  0  0
 60133  1  0  0  0
 60134  1  0  0  0
 61135  1  0  0  0
 61136  1  0  0  0
 61137  1  0  0  0
 62138  1  0  0  0
 62139  1  0  0  0
 62140  1  0  0  0
 63 65  1  0  0  0
 63141  1  0  0  0
 63142  1  0  0  0
 63143  1  0  0  0
 64144  1  0  0  0
 65145  1  0  0  0
 68 80  1  0  0  0
 71 74  2  0  0  0
 71 75  1  0  0  0
 71146  1  0  0  0
 72 73  1  0  0  0
 72 76  2  0  0  0
 72 81  1  0  0  0
 73 75  2  0  0  0
 73 82  1  0  0  0
 74 76  1  0  0  0
 74 83  1  0  0  0
 75 85  1  0  0  0
 76 86  1  0  0  0
 77 78  1  0  0  0
 77 80  1  0  0  0
 77147  1  0  0  0
 77148  1  0  0  0
 78 83  1  0  0  0
 78149  1  0  0  0
 78150  1  0  0  0
 79 80  1  0  0  0
 79 83  1  0  0  0
 79151  1  0  0  0
 79152  1  0  0  0
 80153  1  0  0  0
 81154  1  0  0  0
 81155  1  0  0  0
 81156  1  0  0  0
 82 84  1  0  0  0
 82157  1  0  0  0
 82158  1  0  0  0
 84159  1  0  0  0
M  ISO  4   1 100  68 101  80 101  84 100
M  END
> <chiral flag>
0

> <version>
0

> <s_m_source_file>
/data/baiqing/PycharmProjects/Reinvent-master-3.2/result/LINK_invent/BTK/process_docking_weight1_custom_product_contain_oxygen_bond_distance_aromatic_linkinvent_7_9_3/rearranged_h_0028.sdf

> <i_m_source_file_index>
47

> <r_mmod_Potential_Energy-OPLS-2005>
170.46484375

> <r_mmod_Stretch_Energy-OPLS-2005>
76.1276931762695

> <r_mmod_Bend_Energy-OPLS-2005>
192.908920288086

> <r_mmod_Torsional_Energy-OPLS-2005>
264.813690185547

> <r_mmod_Improper_Torsional_Energy-OPLS-2005>
7.36713171005249

> <r_mmod_Van_der_Waal_Energy-OPLS-2005>
151.033905029297

> <r_mmod_Electrostatic_Energy-OPLS-2005>
-354.909881591797

> <r_mmod_Solvation_Energy-OPLS-2005>
-215.199722290039

> <b_mmod_Minimization_Converged-OPLS-2005>
0

> <r_mmod_RMS_Derivative-OPLS-2005>
0.738339781761169

$$$$
47
                    3D
 Structure written by MMmdl.
152161  0  0  1  0            999 V2000
  -30.3624  -15.4181   20.3992 C   0  0  0  0  0  0
  -30.4370  -12.9262   19.5296 C   0  0  0  0  0  0
  -29.5406  -12.6040   18.3045 C   0  0  0  0  0  0
  -28.0943  -12.3029   18.7344 C   0  0  0  0  0  0
  -27.6039  -13.2871   19.8228 C   0  0  2  0  0  0
  -28.6355  -13.5075   20.9497 C   0  0  0  0  0  0
  -25.2339  -13.8308   20.5774 C   0  0  0  0  0  0
  -24.1719  -13.0470   20.9312 C   0  0  0  0  0  0
  -24.6409  -11.6970   20.8842 C   0  0  0  0  0  0
  -23.9110  -10.4314   21.0459 C   0  0  0  0  0  0
  -24.3649   -9.4224   21.9226 C   0  0  0  0  0  0
  -23.6309   -8.2264   22.0771 C   0  0  0  0  0  0
  -22.4286   -8.0318   21.3564 C   0  0  0  0  0  0
  -21.9946   -9.0305   20.4663 C   0  0  0  0  0  0
  -22.7299  -10.2170   20.3087 C   0  0  0  0  0  0
  -21.6854   -6.0762   22.5283 C   0  0  0  0  0  0
  -21.4025   -6.5654   23.8227 C   0  0  0  0  0  0
  -21.3642   -5.6798   24.9183 C   0  0  0  0  0  0
  -21.6040   -4.3064   24.7227 C   0  0  0  0  0  0
  -21.8815   -3.8164   23.4346 C   0  0  0  0  0  0
  -21.9195   -4.6987   22.3408 C   0  0  0  0  0  0
  -22.7724  -13.5209   21.1917 C   0  0  0  0  0  0
  -22.1656   -4.2180   21.0984 F   0  0  0  0  0  0
  -21.5611   -3.4534   25.7730 F   0  0  0  0  0  0
  -29.8302  -14.0846   20.3055 N   0  0  0  0  0  0
  -26.2765  -12.9593   20.3236 N   0  0  0  0  0  0
  -25.9349  -11.6692   20.5796 N   0  0  0  0  0  0
  -22.0340  -12.8225   22.0458 N   0  0  0  0  0  0
  -25.3929  -15.2042   20.4177 N   0  0  0  0  0  0
  -31.5963  -15.3972   20.2519 O   0  0  0  0  0  0
  -21.6641   -6.8922   21.4249 O   0  0  0  0  0  0
  -22.3421  -14.5510   20.6736 O   0  0  0  0  0  0
  -24.6741  -31.8147   23.1599 C   0  0  0  0  0  0
  -25.9366  -32.4554   23.8124 C   0  0  1  0  0  0
  -27.2356  -26.8290   20.2042 C   0  0  0  0  0  0
  -25.5999  -33.8374   24.2029 N   0  0  0  0  0  0
  -23.4963  -30.4161   21.5135 C   0  0  2  0  0  0
  -24.9571  -28.7790   20.1196 C   0  0  0  0  0  0
  -22.7736  -29.4379   22.4775 C   0  0  0  0  0  0
  -18.0350  -28.1405   22.8473 C   0  0  0  0  0  0
  -24.1492  -36.7177   23.2653 C   0  0  0  0  0  0
  -26.0711  -30.5878   21.4067 C   0  0  0  0  0  0
  -26.1414  -29.1650   20.7571 C   0  0  0  0  0  0
  -27.2736  -28.2140   20.7701 C   0  0  0  0  0  0
  -26.0212  -26.6247   19.5114 C   0  0  0  0  0  0
  -24.9272  -27.5322   19.4747 C   0  0  0  0  0  0
  -23.7455  -29.7162   20.1464 C   0  0  0  0  0  0
  -25.4146  -36.2956   24.0295 C   0  0  1  0  0  0
  -20.5972  -28.3782   23.1170 C   0  0  2  0  0  0
  -20.6843  -26.9465   22.5385 C   0  0  0  0  0  0
  -19.5798  -26.6386   21.5213 C   0  0  0  0  0  0
  -18.1977  -26.7936   22.1641 C   0  0  0  0  0  0
  -19.1593  -28.8926   23.2794 C   0  0  0  0  0  0
  -18.9512  -30.1493   23.8855 C   0  0  0  0  0  0
  -17.6516  -30.6614   24.0567 C   0  0  0  0  0  0
  -25.9117  -34.9335   23.4999 C   0  0  0  0  0  0
  -16.5402  -29.9090   23.6371 C   0  0  0  0  0  0
  -16.7322  -28.6506   23.0393 C   0  0  0  0  0  0
  -26.4579  -31.6525   25.0685 C   0  0  0  0  0  0
  -25.3642  -31.3803   26.1291 C   0  0  0  0  0  0
  -27.0497  -30.2885   24.6469 C   0  0  0  0  0  0
  -27.6065  -32.4342   25.7490 C   0  0  0  0  0  0
  -27.5574  -37.1748   24.8471 C   0  0  0  0  0  0
  -21.4407  -29.3072   22.3533 N   0  0  0  0  0  0
  -26.4287  -37.3699   23.9406 N   0  0  0  0  0  0
  -24.7691  -30.9709   22.0799 N   0  0  0  0  0  0
  -23.4255  -28.7968   23.3068 O   0  0  0  0  0  0
  -28.2137  -25.6679   20.2807 O   0  0  0  0  0  0
  -26.5738  -34.8888   22.4597 O   0  0  0  0  0  0
  -23.5768  -32.1156   23.6606 O   0  0  0  0  0  0
  -27.5245  -19.0272   21.3131 C   0  0  0  0  0  0
  -29.1380  -18.3545   23.0240 C   0  0  0  0  0  0
  -28.6371  -19.5451   20.5997 C   0  0  0  0  0  0
  -29.6866  -18.3436   20.6932 C   0  0  0  0  0  0
  -27.7964  -18.5675   22.6256 C   0  0  0  0  0  0
  -30.1437  -18.3123   22.0301 C   0  0  0  0  0  0
  -28.9581  -22.5621   20.1337 C   0  0  0  0  0  0
  -26.9868  -23.3546   21.0923 C   0  0  0  0  0  0
  -27.0864  -21.7802   20.9566 C   0  0  0  0  0  0
  -27.9394  -23.9999   20.0973 C   0  0  1  0  0  0
  -28.4152  -21.2358   20.5196 N   0  0  0  0  0  0
  -29.5612  -16.7102   20.3764 N   0  0  0  0  0  0
  -30.1406  -22.6789   19.7989 O   0  0  0  0  0  0
  -26.7863  -18.4288   23.5176 F   0  0  0  0  0  0
  -31.3705  -17.8324   22.3456 F   0  0  0  0  0  0
  -31.4426  -13.1659   19.1837 H   0  0  0  0  0  0
  -30.5552  -12.0453   20.1614 H   0  0  0  0  0  0
  -29.9459  -11.7602   17.7454 H   0  0  0  0  0  0
  -29.5423  -13.4594   17.6293 H   0  0  0  0  0  0
  -28.0660  -11.2836   19.1194 H   0  0  0  0  0  0
  -27.4254  -12.3188   17.8740 H   0  0  0  0  0  0
  -27.5020  -14.2408   19.3039 H   0  0  0  0  0  0
  -28.8531  -12.5794   21.4834 H   0  0  0  0  0  0
  -28.2540  -14.2093   21.6929 H   0  0  0  0  0  0
  -25.2783   -9.5682   22.4829 H   0  0  0  0  0  0
  -24.0004   -7.4646   22.7493 H   0  0  0  0  0  0
  -21.0879   -8.8879   19.8958 H   0  0  0  0  0  0
  -22.3802  -10.9742   19.6206 H   0  0  0  0  0  0
  -21.2033   -7.6162   23.9754 H   0  0  0  0  0  0
  -21.1445   -6.0514   25.9090 H   0  0  0  0  0  0
  -22.0604   -2.7626   23.2838 H   0  0  0  0  0  0
  -22.3920  -11.9893   22.4878 H   0  0  0  0  0  0
  -21.0963  -13.1309   22.2649 H   0  0  0  0  0  0
  -24.6143  -15.8450   20.5274 H   0  0  0  0  0  0
  -26.2208  -15.6495   20.0420 H   0  0  0  0  0  0
  -26.7442  -32.5069   23.0843 H   0  0  0  0  0  0
  -25.0100  -33.9441   25.0154 H   0  0  0  0  0  0
  -22.8135  -31.2481   21.3274 H   0  0  0  0  0  0
  -23.3793  -35.9464   23.3267 H   0  0  0  0  0  0
  -24.3565  -36.8880   22.2077 H   0  0  0  0  0  0
  -23.7203  -37.6328   23.6743 H   0  0  0  0  0  0
  -26.2611  -31.3192   20.6199 H   0  0  0  0  0  0
  -26.9285  -30.6585   22.0650 H   0  0  0  0  0  0
  -28.1682  -28.5125   21.2977 H   0  0  0  0  0  0
  -25.8798  -25.6747   19.0185 H   0  0  0  0  0  0
  -24.0282  -27.2307   18.9548 H   0  0  0  0  0  0
  -23.9119  -30.4751   19.3816 H   0  0  0  0  0  0
  -22.8555  -29.1717   19.8273 H   0  0  0  0  0  0
  -25.1344  -36.1756   25.0785 H   0  0  0  0  0  0
  -21.0023  -28.3361   24.1300 H   0  0  0  0  0  0
  -20.5760  -26.2382   23.3627 H   0  0  0  0  0  0
  -21.6697  -26.7473   22.1143 H   0  0  0  0  0  0
  -19.6946  -25.6274   21.1294 H   0  0  0  0  0  0
  -19.6716  -27.3145   20.6703 H   0  0  0  0  0  0
  -17.4227  -26.6641   21.4066 H   0  0  0  0  0  0
  -18.0422  -26.0109   22.9083 H   0  0  0  0  0  0
  -19.8019  -30.7314   24.2181 H   0  0  0  0  0  0
  -17.5071  -31.6299   24.5156 H   0  0  0  0  0  0
  -15.5400  -30.2989   23.7712 H   0  0  0  0  0  0
  -15.8709  -28.0823   22.7176 H   0  0  0  0  0  0
  -24.5856  -30.7140   25.7557 H   0  0  0  0  0  0
  -24.8784  -32.3003   26.4543 H   0  0  0  0  0  0
  -25.7803  -30.9063   27.0182 H   0  0  0  0  0  0
  -26.3176  -29.6539   24.1451 H   0  0  0  0  0  0
  -27.3995  -29.7290   25.5158 H   0  0  0  0  0  0
  -27.9136  -30.4085   23.9925 H   0  0  0  0  0  0
  -27.2659  -33.3719   26.1887 H   0  0  0  0  0  0
  -28.3957  -32.6774   25.0364 H   0  0  0  0  0  0
  -28.0622  -31.8571   26.5544 H   0  0  0  0  0  0
  -28.2573  -38.0063   24.7537 H   0  0  0  0  0  0
  -28.1088  -36.2594   24.6281 H   0  0  0  0  0  0
  -27.2275  -37.1354   25.8867 H   0  0  0  0  0  0
  -20.9730  -29.8755   21.6593 H   0  0  0  0  0  0
  -26.0135  -38.2752   24.1424 H   0  0  0  0  0  0
  -26.5080  -19.3548   21.1484 H   0  0  0  0  0  0
  -29.3620  -18.1104   24.0521 H   0  0  0  0  0  0
  -27.2773  -23.6550   22.1002 H   0  0  0  0  0  0
  -25.9645  -23.7010   20.9492 H   0  0  0  0  0  0
  -26.3489  -21.4454   20.2238 H   0  0  0  0  0  0
  -26.7962  -21.3785   21.9266 H   0  0  0  0  0  0
  -27.4801  -23.9373   19.1088 H   0  0  0  0  0  0
  -28.6002  -16.4629   20.1983 H   0  0  0  0  0  0
  1 25  1  0  0  0
  1 30  2  0  0  0
  1 82  1  0  0  0
  2  3  1  0  0  0
  2 25  1  0  0  0
  2 86  1  0  0  0
  2 87  1  0  0  0
  3  4  1  0  0  0
  3 88  1  0  0  0
  3 89  1  0  0  0
  4  5  1  0  0  0
  4 90  1  0  0  0
  4 91  1  0  0  0
  5  6  1  0  0  0
  5 26  1  0  0  0
  5 92  1  0  0  0
  6 25  1  0  0  0
  6 93  1  0  0  0
  6 94  1  0  0  0
  7  8  2  0  0  0
  7 26  1  0  0  0
  7 29  1  0  0  0
  8  9  1  0  0  0
  8 22  1  0  0  0
  9 10  1  0  0  0
  9 27  2  0  0  0
 10 11  2  0  0  0
 10 15  1  0  0  0
 11 12  1  0  0  0
 11 95  1  0  0  0
 12 13  2  0  0  0
 12 96  1  0  0  0
 13 14  1  0  0  0
 13 31  1  0  0  0
 14 15  2  0  0  0
 14 97  1  0  0  0
 15 98  1  0  0  0
 16 17  2  0  0  0
 16 21  1  0  0  0
 16 31  1  0  0  0
 17 18  1  0  0  0
 17 99  1  0  0  0
 18 19  2  0  0  0
 18100  1  0  0  0
 19 20  1  0  0  0
 19 24  1  0  0  0
 20 21  2  0  0  0
 20101  1  0  0  0
 21 23  1  0  0  0
 22 28  1  0  0  0
 22 32  2  0  0  0
 26 27  1  0  0  0
 28102  1  0  0  0
 28103  1  0  0  0
 29104  1  0  0  0
 29105  1  0  0  0
 33 34  1  0  0  0
 33 66  1  0  0  0
 33 70  2  0  0  0
 34 36  1  0  0  0
 34 59  1  0  0  0
 34106  1  0  0  0
 35 44  2  0  0  0
 35 45  1  0  0  0
 35 68  1  0  0  0
 36 56  1  0  0  0
 36107  1  0  0  0
 37 39  1  0  0  0
 37 47  1  0  0  0
 37 66  1  0  0  0
 37108  1  0  0  0
 38 43  2  0  0  0
 38 46  1  0  0  0
 38 47  1  0  0  0
 39 64  1  0  0  0
 39 67  2  0  0  0
 40 52  1  0  0  0
 40 53  2  0  0  0
 40 58  1  0  0  0
 41109  1  0  0  0
 41110  1  0  0  0
 41111  1  0  0  0
 41 48  1  0  0  0
 42 43  1  0  0  0
 42 66  1  0  0  0
 42112  1  0  0  0
 42113  1  0  0  0
 43 44  1  0  0  0
 44114  1  0  0  0
 45 46  2  0  0  0
 45115  1  0  0  0
 46116  1  0  0  0
 47117  1  0  0  0
 47118  1  0  0  0
 48 56  1  0  0  0
 48 65  1  0  0  0
 48119  1  0  0  0
 49 50  1  0  0  0
 49 53  1  0  0  0
 49 64  1  0  0  0
 49120  1  0  0  0
 50 51  1  0  0  0
 50121  1  0  0  0
 50122  1  0  0  0
 51 52  1  0  0  0
 51123  1  0  0  0
 51124  1  0  0  0
 52125  1  0  0  0
 52126  1  0  0  0
 53 54  1  0  0  0
 54 55  2  0  0  0
 54127  1  0  0  0
 55 57  1  0  0  0
 55128  1  0  0  0
 56 69  2  0  0  0
 57 58  2  0  0  0
 57129  1  0  0  0
 58130  1  0  0  0
 59 60  1  0  0  0
 59 61  1  0  0  0
 59 62  1  0  0  0
 60131  1  0  0  0
 60132  1  0  0  0
 60133  1  0  0  0
 61134  1  0  0  0
 61135  1  0  0  0
 61136  1  0  0  0
 62137  1  0  0  0
 62138  1  0  0  0
 62139  1  0  0  0
 63 65  1  0  0  0
 63140  1  0  0  0
 63141  1  0  0  0
 63142  1  0  0  0
 64143  1  0  0  0
 65144  1  0  0  0
 68 80  1  0  0  0
 71 73  2  0  0  0
 71 75  1  0  0  0
 71145  1  0  0  0
 72 75  2  0  0  0
 72 76  1  0  0  0
 72146  1  0  0  0
 73 74  1  0  0  0
 73 81  1  0  0  0
 74 76  2  0  0  0
 74 82  1  0  0  0
 75 84  1  0  0  0
 76 85  1  0  0  0
 77 80  1  0  0  0
 77 81  1  0  0  0
 77 83  2  0  0  0
 78 79  1  0  0  0
 78 80  1  0  0  0
 78147  1  0  0  0
 78148  1  0  0  0
 79 81  1  0  0  0
 79149  1  0  0  0
 79150  1  0  0  0
 80151  1  0  0  0
 82152  1  0  0  0
M  ISO  4   1 100  68 101  80 101  82 100
M  END
> <chiral flag>
0

> <version>
0

> <s_m_source_file>
/data/baiqing/PycharmProjects/Reinvent-master-3.2/result/LINK_invent/BTK/process_docking_weight1_custom_product_contain_oxygen_bond_distance_aromatic_linkinvent_7_9_3/rearranged_h_0028.sdf

> <i_m_source_file_index>
48

> <r_mmod_Potential_Energy-OPLS-2005>
2130.8212890625

> <r_mmod_Stretch_Energy-OPLS-2005>
782.42236328125

> <r_mmod_Bend_Energy-OPLS-2005>
656.097717285156

> <r_mmod_Torsional_Energy-OPLS-2005>
502.372222900391

> <r_mmod_Improper_Torsional_Energy-OPLS-2005>
46.838321685791

> <r_mmod_Van_der_Waal_Energy-OPLS-2005>
138.920883178711

> <r_mmod_Electrostatic_Energy-OPLS-2005>
-382.7958984375

> <r_mmod_Solvation_Energy-OPLS-2005>
-243.99674987793

> <b_mmod_Minimization_Converged-OPLS-2005>
0

> <r_mmod_RMS_Derivative-OPLS-2005>
4.67908906936646

$$$$
48
                    3D
 Structure written by MMmdl.
167176  0  0  1  0            999 V2000
  -30.6042  -14.8459   20.5103 C   0  0  0  0  0  0
  -30.4324  -12.5343   19.4922 C   0  0  0  0  0  0
  -29.5161  -12.5499   18.2463 C   0  0  0  0  0  0
  -28.0426  -12.3487   18.6480 C   0  0  0  0  0  0
  -27.6393  -13.2353   19.8541 C   0  0  2  0  0  0
  -28.6786  -13.1360   20.9852 C   0  0  0  0  0  0
  -25.2491  -13.8187   20.5678 C   0  0  0  0  0  0
  -24.1792  -13.0430   20.9191 C   0  0  0  0  0  0
  -24.6384  -11.6910   20.8718 C   0  0  0  0  0  0
  -23.9059  -10.4289   21.0389 C   0  0  0  0  0  0
  -24.3614   -9.4211   21.9172 C   0  0  0  0  0  0
  -23.6290   -8.2248   22.0748 C   0  0  0  0  0  0
  -22.4271   -8.0281   21.3542 C   0  0  0  0  0  0
  -21.9902   -9.0248   20.4641 C   0  0  0  0  0  0
  -22.7228  -10.2126   20.3043 C   0  0  0  0  0  0
  -21.6854   -6.0731   22.5281 C   0  0  0  0  0  0
  -21.4019   -6.5638   23.8215 C   0  0  0  0  0  0
  -21.3658   -5.6790   24.9177 C   0  0  0  0  0  0
  -21.6043   -4.3053   24.7226 C   0  0  0  0  0  0
  -21.8821   -3.8142   23.4348 C   0  0  0  0  0  0
  -21.9194   -4.6959   22.3404 C   0  0  0  0  0  0
  -22.7824  -13.5223   21.1867 C   0  0  0  0  0  0
  -22.1664   -4.2145   21.0983 F   0  0  0  0  0  0
  -21.5621   -3.4538   25.7740 F   0  0  0  0  0  0
  -29.9663  -13.6008   20.4346 N   0  0  0  0  0  0
  -26.2911  -12.9397   20.3250 N   0  0  0  0  0  0
  -25.9314  -11.6533   20.5705 N   0  0  0  0  0  0
  -22.0467  -12.8209   22.0418 N   0  0  0  0  0  0
  -25.4187  -15.1904   20.4114 N   0  0  0  0  0  0
  -31.7422  -14.8697   20.0373 O   0  0  0  0  0  0
  -21.6637   -6.8875   21.4244 O   0  0  0  0  0  0
  -22.3513  -14.5538   20.6728 O   0  0  0  0  0  0
  -24.6348  -31.8493   23.1924 C   0  0  0  0  0  0
  -25.9153  -32.4711   23.8289 C   0  0  1  0  0  0
  -27.2228  -27.2122   20.1314 C   0  0  0  0  0  0
  -25.5935  -33.8516   24.2219 N   0  0  0  0  0  0
  -23.4345  -30.4695   21.5361 C   0  0  2  0  0  0
  -24.8823  -28.9040   20.1060 C   0  0  0  0  0  0
  -22.7517  -29.4577   22.4887 C   0  0  0  0  0  0
  -18.0296  -28.1393   22.8486 C   0  0  0  0  0  0
  -24.1494  -36.7255   23.2648 C   0  0  0  0  0  0
  -25.9825  -30.7457   21.3796 C   0  0  0  0  0  0
  -26.0528  -29.3634   20.7210 C   0  0  0  0  0  0
  -27.2201  -28.5280   20.7233 C   0  0  0  0  0  0
  -26.0257  -26.8240   19.4921 C   0  0  0  0  0  0
  -24.8769  -27.6451   19.4818 C   0  0  0  0  0  0
  -23.6545  -29.7975   20.1536 C   0  0  0  0  0  0
  -25.4127  -36.3039   24.0320 C   0  0  1  0  0  0
  -20.5900  -28.3706   23.1254 C   0  0  2  0  0  0
  -20.6780  -26.9415   22.5410 C   0  0  0  0  0  0
  -19.5758  -26.6385   21.5214 C   0  0  0  0  0  0
  -18.1939  -26.7935   22.1623 C   0  0  0  0  0  0
  -19.1550  -28.8868   23.2867 C   0  0  0  0  0  0
  -18.9469  -30.1468   23.8889 C   0  0  0  0  0  0
  -17.6467  -30.6595   24.0563 C   0  0  0  0  0  0
  -25.9066  -34.9410   23.5079 C   0  0  0  0  0  0
  -16.5359  -29.9091   23.6334 C   0  0  0  0  0  0
  -16.7281  -28.6505   23.0361 C   0  0  0  0  0  0
  -26.4510  -31.6552   25.0695 C   0  0  0  0  0  0
  -25.3718  -31.3713   26.1399 C   0  0  0  0  0  0
  -27.0372  -30.2960   24.6229 C   0  0  0  0  0  0
  -27.6056  -32.4297   25.7472 C   0  0  0  0  0  0
  -27.5578  -37.1787   24.8466 C   0  0  0  0  0  0
  -21.4220  -29.3041   22.3626 N   0  0  0  0  0  0
  -26.4294  -37.3745   23.9402 N   0  0  0  0  0  0
  -24.7031  -31.0419   22.0916 N   0  0  0  0  0  0
  -23.4194  -28.8137   23.3019 O   0  0  0  0  0  0
  -28.3229  -26.3150   20.2392 O   0  0  0  0  0  0
  -26.5653  -34.8889   22.4658 O   0  0  0  0  0  0
  -23.5486  -32.1341   23.7189 O   0  0  0  0  0  0
  -30.9926  -20.2901   20.1151 C   0  0  0  0  0  0
  -29.2882  -18.6441   20.5389 C   0  0  0  0  0  0
  -29.6196  -20.0797   20.3605 C   0  0  0  0  0  0
  -31.9594  -19.2688   20.1753 C   0  0  0  0  0  0
  -30.2578  -17.5136   20.5784 C   0  0  0  0  0  0
  -31.6104  -17.9307   20.4364 C   0  0  0  0  0  0
  -29.2247  -22.5847   21.0636 C   0  0  0  0  0  0
  -28.4209  -22.1430   19.2702 C   0  0  0  0  0  0
  -28.2390  -23.4345   20.1745 C   0  0  0  0  0  0
  -27.8108  -18.3303   20.7079 C   0  0  0  0  0  0
  -29.1826  -15.9658   22.1805 C   0  0  0  0  0  0
  -35.8743  -20.5408   20.5269 C   0  0  0  0  0  0
  -28.4586  -24.9540   19.5691 C   0  0  0  0  0  0
  -28.7328  -21.3029   20.4555 N   0  0  0  0  0  0
  -33.3203  -19.5615   20.0386 N   0  0  0  0  0  0
  -29.9546  -16.0517   20.9348 N   0  0  0  0  0  0
  -33.9326  -21.9009   19.2460 O   0  0  0  0  0  0
  -33.6418  -21.4276   21.7415 O   0  0  0  0  0  0
  -32.6473  -17.0881   20.6459 F   0  0  0  0  0  0
  -34.1298  -21.0271   20.4124 S   0  0  0  0  0  0
  -31.4707  -12.6621   19.1814 H   0  0  0  0  0  0
  -30.4075  -11.5553   19.9735 H   0  0  0  0  0  0
  -29.8200  -11.7761   17.5403 H   0  0  0  0  0  0
  -29.6267  -13.5009   17.7228 H   0  0  0  0  0  0
  -27.9115  -11.2970   18.9062 H   0  0  0  0  0  0
  -27.3851  -12.5391   17.7993 H   0  0  0  0  0  0
  -27.6387  -14.2645   19.4947 H   0  0  0  0  0  0
  -28.7589  -12.1033   21.3272 H   0  0  0  0  0  0
  -28.3410  -13.6650   21.8668 H   0  0  0  0  0  0
  -25.2757   -9.5694   22.4745 H   0  0  0  0  0  0
  -23.9992   -7.4647   22.7482 H   0  0  0  0  0  0
  -21.0823   -8.8769   19.8962 H   0  0  0  0  0  0
  -22.3679  -10.9662   19.6152 H   0  0  0  0  0  0
  -21.2020   -7.6150   23.9715 H   0  0  0  0  0  0
  -21.1471   -6.0522   25.9077 H   0  0  0  0  0  0
  -22.0596   -2.7603   23.2852 H   0  0  0  0  0  0
  -22.4084  -11.9871   22.4809 H   0  0  0  0  0  0
  -21.1085  -13.1245   22.2623 H   0  0  0  0  0  0
  -24.6496  -15.8432   20.5126 H   0  0  0  0  0  0
  -26.2681  -15.6226   20.0733 H   0  0  0  0  0  0
  -26.7209  -32.5345   23.1017 H   0  0  0  0  0  0
  -25.0053  -33.9640   25.0346 H   0  0  0  0  0  0
  -22.7330  -31.2930   21.3860 H   0  0  0  0  0  0
  -23.3754  -35.9590   23.3307 H   0  0  0  0  0  0
  -24.3583  -36.8885   22.2064 H   0  0  0  0  0  0
  -23.7239  -37.6450   23.6679 H   0  0  0  0  0  0
  -26.1301  -31.5046   20.6100 H   0  0  0  0  0  0
  -26.8552  -30.7942   22.0190 H   0  0  0  0  0  0
  -28.1142  -28.8733   21.2230 H   0  0  0  0  0  0
  -25.9399  -25.8506   19.0325 H   0  0  0  0  0  0
  -23.9759  -27.2869   19.0028 H   0  0  0  0  0  0
  -23.7791  -30.5717   19.3952 H   0  0  0  0  0  0
  -22.7713  -29.2324   19.8504 H   0  0  0  0  0  0
  -25.1314  -36.1890   25.0811 H   0  0  0  0  0  0
  -21.0002  -28.3302   24.1373 H   0  0  0  0  0  0
  -20.5682  -26.2321   23.3625 H   0  0  0  0  0  0
  -21.6647  -26.7439   22.1207 H   0  0  0  0  0  0
  -19.6919  -25.6294   21.1256 H   0  0  0  0  0  0
  -19.6698  -27.3184   20.6736 H   0  0  0  0  0  0
  -17.4208  -26.6684   21.4027 H   0  0  0  0  0  0
  -18.0338  -26.0080   22.9021 H   0  0  0  0  0  0
  -19.7946  -30.7292   24.2255 H   0  0  0  0  0  0
  -17.5018  -31.6275   24.5166 H   0  0  0  0  0  0
  -15.5357  -30.2990   23.7662 H   0  0  0  0  0  0
  -15.8681  -28.0819   22.7084 H   0  0  0  0  0  0
  -24.5896  -30.7066   25.7706 H   0  0  0  0  0  0
  -24.8910  -32.2892   26.4793 H   0  0  0  0  0  0
  -25.8014  -30.8902   27.0197 H   0  0  0  0  0  0
  -26.2983  -29.6681   24.1235 H   0  0  0  0  0  0
  -27.4014  -29.7244   25.4778 H   0  0  0  0  0  0
  -27.8871  -30.4209   23.9513 H   0  0  0  0  0  0
  -27.2662  -33.3607   26.2023 H   0  0  0  0  0  0
  -28.3878  -32.6844   25.0308 H   0  0  0  0  0  0
  -28.0708  -31.8444   26.5416 H   0  0  0  0  0  0
  -28.2595  -38.0084   24.7505 H   0  0  0  0  0  0
  -28.1076  -36.2614   24.6310 H   0  0  0  0  0  0
  -27.2295  -37.1446   25.8868 H   0  0  0  0  0  0
  -20.9418  -29.8734   21.6796 H   0  0  0  0  0  0
  -26.0166  -38.2816   24.1402 H   0  0  0  0  0  0
  -31.3410  -21.2909   19.9188 H   0  0  0  0  0  0
  -29.0218  -22.6627   22.1323 H   0  0  0  0  0  0
  -30.2676  -22.8254   20.8559 H   0  0  0  0  0  0
  -29.2616  -22.2233   18.5760 H   0  0  0  0  0  0
  -27.5121  -21.8424   18.7464 H   0  0  0  0  0  0
  -27.2473  -23.3823   20.6268 H   0  0  0  0  0  0
  -27.5633  -17.3585   20.2822 H   0  0  0  0  0  0
  -27.1896  -19.0659   20.1976 H   0  0  0  0  0  0
  -27.5357  -18.3349   21.7625 H   0  0  0  0  0  0
  -28.1232  -15.8061   21.9825 H   0  0  0  0  0  0
  -29.2642  -16.8843   22.7636 H   0  0  0  0  0  0
  -29.5518  -15.1806   22.8435 H   0  0  0  0  0  0
  -35.9958  -19.7800   21.2954 H   0  0  0  0  0  0
  -36.4641  -21.4160   20.7933 H   0  0  0  0  0  0
  -36.2111  -20.1615   19.5640 H   0  0  0  0  0  0
  -27.9060  -25.0115   18.6327 H   0  0  0  0  0  0
  -29.4923  -24.9781   19.2223 H   0  0  0  0  0  0
  -33.8988  -18.7318   20.0855 H   0  0  0  0  0  0
  1 25  1  0  0  0
  1 30  2  0  0  0
  1 86  1  0  0  0
  2  3  1  0  0  0
  2 25  1  0  0  0
  2 91  1  0  0  0
  2 92  1  0  0  0
  3  4  1  0  0  0
  3 93  1  0  0  0
  3 94  1  0  0  0
  4  5  1  0  0  0
  4 95  1  0  0  0
  4 96  1  0  0  0
  5  6  1  0  0  0
  5 26  1  0  0  0
  5 97  1  0  0  0
  6 25  1  0  0  0
  6 98  1  0  0  0
  6 99  1  0  0  0
  7  8  2  0  0  0
  7 26  1  0  0  0
  7 29  1  0  0  0
  8  9  1  0  0  0
  8 22  1  0  0  0
  9 10  1  0  0  0
  9 27  2  0  0  0
 10 11  2  0  0  0
 10 15  1  0  0  0
 11 12  1  0  0  0
 11100  1  0  0  0
 12 13  2  0  0  0
 12101  1  0  0  0
 13 14  1  0  0  0
 13 31  1  0  0  0
 14 15  2  0  0  0
 14102  1  0  0  0
 15103  1  0  0  0
 16 17  2  0  0  0
 16 21  1  0  0  0
 16 31  1  0  0  0
 17 18  1  0  0  0
 17104  1  0  0  0
 18 19  2  0  0  0
 18105  1  0  0  0
 19 20  1  0  0  0
 19 24  1  0  0  0
 20 21  2  0  0  0
 20106  1  0  0  0
 21 23  1  0  0  0
 22 28  1  0  0  0
 22 32  2  0  0  0
 26 27  1  0  0  0
 28107  1  0  0  0
 28108  1  0  0  0
 29109  1  0  0  0
 29110  1  0  0  0
 33 34  1  0  0  0
 33 66  1  0  0  0
 33 70  2  0  0  0
 34 36  1  0  0  0
 34 59  1  0  0  0
 34111  1  0  0  0
 35 44  2  0  0  0
 35 45  1  0  0  0
 35 68  1  0  0  0
 36 56  1  0  0  0
 36112  1  0  0  0
 37 39  1  0  0  0
 37 47  1  0  0  0
 37 66  1  0  0  0
 37113  1  0  0  0
 38 43  2  0  0  0
 38 46  1  0  0  0
 38 47  1  0  0  0
 39 64  1  0  0  0
 39 67  2  0  0  0
 40 52  1  0  0  0
 40 53  2  0  0  0
 40 58  1  0  0  0
 41114  1  0  0  0
 41115  1  0  0  0
 41116  1  0  0  0
 41 48  1  0  0  0
 42 43  1  0  0  0
 42 66  1  0  0  0
 42117  1  0  0  0
 42118  1  0  0  0
 43 44  1  0  0  0
 44119  1  0  0  0
 45 46  2  0  0  0
 45120  1  0  0  0
 46121  1  0  0  0
 47122  1  0  0  0
 47123  1  0  0  0
 48 56  1  0  0  0
 48 65  1  0  0  0
 48124  1  0  0  0
 49 50  1  0  0  0
 49 53  1  0  0  0
 49 64  1  0  0  0
 49125  1  0  0  0
 50 51  1  0  0  0
 50126  1  0  0  0
 50127  1  0  0  0
 51 52  1  0  0  0
 51128  1  0  0  0
 51129  1  0  0  0
 52130  1  0  0  0
 52131  1  0  0  0
 53 54  1  0  0  0
 54 55  2  0  0  0
 54132  1  0  0  0
 55 57  1  0  0  0
 55133  1  0  0  0
 56 69  2  0  0  0
 57 58  2  0  0  0
 57134  1  0  0  0
 58135  1  0  0  0
 59 60  1  0  0  0
 59 61  1  0  0  0
 59 62  1  0  0  0
 60136  1  0  0  0
 60137  1  0  0  0
 60138  1  0  0  0
 61139  1  0  0  0
 61140  1  0  0  0
 61141  1  0  0  0
 62142  1  0  0  0
 62143  1  0  0  0
 62144  1  0  0  0
 63 65  1  0  0  0
 63145  1  0  0  0
 63146  1  0  0  0
 63147  1  0  0  0
 64148  1  0  0  0
 65149  1  0  0  0
 68 83  1  0  0  0
 71 73  2  0  0  0
 71 74  1  0  0  0
 71150  1  0  0  0
 72 73  1  0  0  0
 72 75  2  0  0  0
 72 80  1  0  0  0
 73 84  1  0  0  0
 74 76  2  0  0  0
 74 85  1  0  0  0
 75 76  1  0  0  0
 75 86  1  0  0  0
 76 89  1  0  0  0
 77 79  1  0  0  0
 77 84  1  0  0  0
 77151  1  0  0  0
 77152  1  0  0  0
 78 79  1  0  0  0
 78 84  1  0  0  0
 78153  1  0  0  0
 78154  1  0  0  0
 79 83  1  0  0  0
 79155  1  0  0  0
 80156  1  0  0  0
 80157  1  0  0  0
 80158  1  0  0  0
 81 86  1  0  0  0
 81159  1  0  0  0
 81160  1  0  0  0
 81161  1  0  0  0
 82162  1  0  0  0
 82163  1  0  0  0
 82164  1  0  0  0
 82 90  1  0  0  0
 83165  1  0  0  0
 83166  1  0  0  0
 85 90  1  0  0  0
 85167  1  0  0  0
 87 90  2  0  0  0
 88 90  2  0  0  0
M  ISO  4   1 100  68 101  83 101  86 100
M  END
> <chiral flag>
0

> <version>
0

> <s_m_source_file>
/data/baiqing/PycharmProjects/Reinvent-master-3.2/result/LINK_invent/BTK/process_docking_weight1_custom_product_contain_oxygen_bond_distance_aromatic_linkinvent_7_9_3/rearranged_h_0028.sdf

> <i_m_source_file_index>
49

> <r_mmod_Potential_Energy-OPLS-2005>
290.311859130859

> <r_mmod_Stretch_Energy-OPLS-2005>
199.397232055664

> <r_mmod_Bend_Energy-OPLS-2005>
285.081512451172

> <r_mmod_Torsional_Energy-OPLS-2005>
320.990203857422

> <r_mmod_Improper_Torsional_Energy-OPLS-2005>
15.5919065475464

> <r_mmod_Van_der_Waal_Energy-OPLS-2005>
154.645217895508

> <r_mmod_Electrostatic_Energy-OPLS-2005>
-551.401733398438

> <r_mmod_Solvation_Energy-OPLS-2005>
-250.34016418457

> <b_mmod_Minimization_Converged-OPLS-2005>
0

> <r_mmod_RMS_Derivative-OPLS-2005>
1.38123273849487

$$$$
49
                    3D
 Structure written by MMmdl.
166175  0  0  1  0            999 V2000
  -30.7210  -14.4928   20.5524 C   0  0  0  0  0  0
  -30.4074  -12.3215   19.4282 C   0  0  0  0  0  0
  -29.4850  -12.5000   18.2069 C   0  0  0  0  0  0
  -28.0095  -12.3604   18.6235 C   0  0  0  0  0  0
  -27.6542  -13.2161   19.8699 C   0  0  2  0  0  0
  -28.6975  -13.0437   20.9965 C   0  0  0  0  0  0
  -25.2552  -13.8182   20.5695 C   0  0  0  0  0  0
  -24.1822  -13.0449   20.9188 C   0  0  0  0  0  0
  -24.6395  -11.6915   20.8762 C   0  0  0  0  0  0
  -23.9066  -10.4299   21.0419 C   0  0  0  0  0  0
  -24.3618   -9.4212   21.9194 C   0  0  0  0  0  0
  -23.6287   -8.2248   22.0763 C   0  0  0  0  0  0
  -22.4274   -8.0288   21.3541 C   0  0  0  0  0  0
  -21.9913   -9.0264   20.4635 C   0  0  0  0  0  0
  -22.7244  -10.2141   20.3056 C   0  0  0  0  0  0
  -21.6848   -6.0742   22.5281 C   0  0  0  0  0  0
  -21.4014   -6.5647   23.8212 C   0  0  0  0  0  0
  -21.3653   -5.6799   24.9169 C   0  0  0  0  0  0
  -21.6045   -4.3059   24.7216 C   0  0  0  0  0  0
  -21.8824   -3.8153   23.4334 C   0  0  0  0  0  0
  -21.9193   -4.6972   22.3400 C   0  0  0  0  0  0
  -22.7847  -13.5236   21.1848 C   0  0  0  0  0  0
  -22.1665   -4.2162   21.0977 F   0  0  0  0  0  0
  -21.5618   -3.4540   25.7728 F   0  0  0  0  0  0
  -30.0206  -13.3322   20.4282 N   0  0  0  0  0  0
  -26.2992  -12.9369   20.3368 N   0  0  0  0  0  0
  -25.9324  -11.6519   20.5796 N   0  0  0  0  0  0
  -22.0504  -12.8213   22.0396 N   0  0  0  0  0  0
  -25.4267  -15.1904   20.4118 N   0  0  0  0  0  0
  -31.8666  -14.6090   20.1104 O   0  0  0  0  0  0
  -21.6631   -6.8886   21.4245 O   0  0  0  0  0  0
  -22.3530  -14.5559   20.6717 O   0  0  0  0  0  0
  -24.6167  -31.8663   23.2121 C   0  0  0  0  0  0
  -25.9058  -32.4808   23.8404 C   0  0  1  0  0  0
  -27.2155  -27.3935   20.0961 C   0  0  0  0  0  0
  -25.5928  -33.8615   24.2327 N   0  0  0  0  0  0
  -23.4050  -30.4947   21.5523 C   0  0  2  0  0  0
  -24.8475  -28.9643   20.1068 C   0  0  0  0  0  0
  -22.7406  -29.4666   22.4965 C   0  0  0  0  0  0
  -18.0272  -28.1378   22.8488 C   0  0  0  0  0  0
  -24.1492  -36.7295   23.2643 C   0  0  0  0  0  0
  -25.9409  -30.8135   21.3800 C   0  0  0  0  0  0
  -26.0106  -29.4510   20.7159 C   0  0  0  0  0  0
  -27.1941  -28.6705   20.7131 C   0  0  0  0  0  0
  -26.0426  -26.9575   19.4373 C   0  0  0  0  0  0
  -24.8612  -27.7186   19.4621 C   0  0  0  0  0  0
  -23.6129  -29.8350   20.1639 C   0  0  0  0  0  0
  -25.4122  -36.3106   24.0337 C   0  0  1  0  0  0
  -20.5865  -28.3681   23.1300 C   0  0  2  0  0  0
  -20.6761  -26.9411   22.5415 C   0  0  0  0  0  0
  -19.5745  -26.6383   21.5206 C   0  0  0  0  0  0
  -18.1920  -26.7929   22.1610 C   0  0  0  0  0  0
  -19.1524  -28.8843   23.2887 C   0  0  0  0  0  0
  -18.9458  -30.1451   23.8892 C   0  0  0  0  0  0
  -17.6458  -30.6586   24.0567 C   0  0  0  0  0  0
  -25.9053  -34.9470   23.5122 C   0  0  0  0  0  0
  -16.5344  -29.9088   23.6342 C   0  0  0  0  0  0
  -16.7261  -28.6502   23.0366 C   0  0  0  0  0  0
  -26.4490  -31.6602   25.0745 C   0  0  0  0  0  0
  -25.3739  -31.3662   26.1464 C   0  0  0  0  0  0
  -27.0376  -30.3054   24.6174 C   0  0  0  0  0  0
  -27.6051  -32.4343   25.7500 C   0  0  0  0  0  0
  -27.5591  -37.1796   24.8468 C   0  0  0  0  0  0
  -21.4134  -29.3040   22.3692 N   0  0  0  0  0  0
  -26.4301  -37.3801   23.9414 N   0  0  0  0  0  0
  -24.6718  -31.0733   22.1048 N   0  0  0  0  0  0
  -23.4163  -28.8207   23.3015 O   0  0  0  0  0  0
  -28.3562  -26.6055   20.1814 O   0  0  0  0  0  0
  -26.5603  -34.8916   22.4680 O   0  0  0  0  0  0
  -23.5359  -32.1450   23.7489 O   0  0  0  0  0  0
  -29.5724  -20.3777   22.3486 C   0  0  0  0  0  0
  -30.1584  -19.0943   22.3381 C   0  0  0  0  0  0
  -28.6992  -20.8114   21.3304 C   0  0  0  0  0  0
  -28.3970  -19.8957   20.2803 C   0  0  0  0  0  0
  -29.0414  -18.6176   20.2221 C   0  0  0  0  0  0
  -29.9272  -18.1969   21.2588 C   0  0  0  0  0  0
  -27.2285  -24.2952   20.4201 C   0  0  0  0  0  0
  -29.2539  -24.2576   20.5447 C   0  0  0  0  0  0
  -28.2963  -25.2068   19.7866 C   0  0  2  0  0  0
  -31.0474  -18.7226   23.5158 C   0  0  0  0  0  0
  -27.3763  -20.2677   19.2063 C   0  0  0  0  0  0
  -28.7839  -17.7085   19.0212 C   0  0  0  0  0  0
  -30.7534  -16.8841   21.1654 C   0  0  0  0  0  0
  -28.0268  -22.1995   21.5029 C   0  0  0  0  0  0
  -30.0761  -15.5735   21.0474 N   0  0  0  0  0  0
  -28.2210  -23.2147   20.4224 N   0  3  1  0  0  0
  -31.4519  -12.4024   19.1225 H   0  0  0  0  0  0
  -30.2985  -11.3204   19.8484 H   0  0  0  0  0  0
  -29.7258  -11.7619   17.4406 H   0  0  0  0  0  0
  -29.6515  -13.4792   17.7534 H   0  0  0  0  0  0
  -27.8251  -11.3063   18.8316 H   0  0  0  0  0  0
  -27.3562  -12.6225   17.7908 H   0  0  0  0  0  0
  -27.6855  -14.2582   19.5519 H   0  0  0  0  0  0
  -28.6787  -12.0263   21.3902 H   0  0  0  0  0  0
  -28.4663  -13.6935   21.8422 H   0  0  0  0  0  0
  -25.2769   -9.5681   22.4768 H   0  0  0  0  0  0
  -23.9991   -7.4639   22.7484 H   0  0  0  0  0  0
  -21.0850   -8.8777   19.8930 H   0  0  0  0  0  0
  -22.3713  -10.9676   19.6163 H   0  0  0  0  0  0
  -21.2023   -7.6158   23.9716 H   0  0  0  0  0  0
  -21.1462   -6.0527   25.9073 H   0  0  0  0  0  0
  -22.0614   -2.7618   23.2830 H   0  0  0  0  0  0
  -22.4132  -11.9853   22.4740 H   0  0  0  0  0  0
  -21.1134  -13.1237   22.2653 H   0  0  0  0  0  0
  -24.6630  -15.8470   20.5296 H   0  0  0  0  0  0
  -26.2844  -15.6312   20.1081 H   0  0  0  0  0  0
  -26.7111  -32.5499   23.1142 H   0  0  0  0  0  0
  -25.0094  -33.9786   25.0483 H   0  0  0  0  0  0
  -22.6955  -31.3142   21.4180 H   0  0  0  0  0  0
  -23.3781  -35.9599   23.3299 H   0  0  0  0  0  0
  -24.3569  -36.8939   22.2061 H   0  0  0  0  0  0
  -23.7217  -37.6478   23.6679 H   0  0  0  0  0  0
  -26.0787  -31.5862   20.6225 H   0  0  0  0  0  0
  -26.8183  -30.8465   22.0144 H   0  0  0  0  0  0
  -28.0843  -29.0325   21.2100 H   0  0  0  0  0  0
  -26.0077  -26.0288   18.8897 H   0  0  0  0  0  0
  -23.9735  -27.3494   18.9650 H   0  0  0  0  0  0
  -23.7214  -30.6154   19.4100 H   0  0  0  0  0  0
  -22.7335  -29.2604   19.8663 H   0  0  0  0  0  0
  -25.1299  -36.1968   25.0831 H   0  0  0  0  0  0
  -20.9958  -28.3264   24.1423 H   0  0  0  0  0  0
  -20.5667  -26.2285   23.3607 H   0  0  0  0  0  0
  -21.6638  -26.7457   22.1217 H   0  0  0  0  0  0
  -19.6915  -25.6297   21.1230 H   0  0  0  0  0  0
  -19.6692  -27.3185   20.6727 H   0  0  0  0  0  0
  -17.4203  -26.6708   21.3995 H   0  0  0  0  0  0
  -18.0301  -26.0050   22.8983 H   0  0  0  0  0  0
  -19.7939  -30.7266   24.2252 H   0  0  0  0  0  0
  -17.5030  -31.6267   24.5176 H   0  0  0  0  0  0
  -15.5352  -30.3000   23.7667 H   0  0  0  0  0  0
  -15.8662  -28.0815   22.7101 H   0  0  0  0  0  0
  -24.5997  -30.6917   25.7789 H   0  0  0  0  0  0
  -24.8808  -32.2775   26.4857 H   0  0  0  0  0  0
  -25.8101  -30.8903   27.0255 H   0  0  0  0  0  0
  -26.2961  -29.6750   24.1259 H   0  0  0  0  0  0
  -27.4183  -29.7359   25.4661 H   0  0  0  0  0  0
  -27.8766  -30.4386   23.9339 H   0  0  0  0  0  0
  -27.2675  -33.3645   26.2080 H   0  0  0  0  0  0
  -28.3847  -32.6905   25.0313 H   0  0  0  0  0  0
  -28.0737  -31.8470   26.5411 H   0  0  0  0  0  0
  -28.2600  -38.0105   24.7581 H   0  0  0  0  0  0
  -28.1110  -36.2649   24.6251 H   0  0  0  0  0  0
  -27.2297  -37.1378   25.8864 H   0  0  0  0  0  0
  -20.9289  -29.8757   21.6909 H   0  0  0  0  0  0
  -26.0195  -38.2873   24.1456 H   0  0  0  0  0  0
  -29.7777  -21.0375   23.1818 H   0  0  0  0  0  0
  -26.3656  -24.0643   19.7963 H   0  0  0  0  0  0
  -26.9314  -24.6082   21.4233 H   0  0  0  0  0  0
  -29.4437  -24.5629   21.5757 H   0  0  0  0  0  0
  -30.1787  -24.0233   20.0179 H   0  0  0  0  0  0
  -28.3637  -25.0834   18.7025 H   0  0  0  0  0  0
  -31.0510  -19.5000   24.2806 H   0  0  0  0  0  0
  -32.0803  -18.5760   23.1996 H   0  0  0  0  0  0
  -30.6890  -17.8080   23.9900 H   0  0  0  0  0  0
  -26.6585  -21.0154   19.5385 H   0  0  0  0  0  0
  -26.7782  -19.4045   18.9134 H   0  0  0  0  0  0
  -27.8812  -20.6440   18.3156 H   0  0  0  0  0  0
  -27.8536  -17.1571   19.1601 H   0  0  0  0  0  0
  -29.5787  -16.9862   18.8452 H   0  0  0  0  0  0
  -28.7065  -18.2818   18.0971 H   0  0  0  0  0  0
  -31.4456  -16.7769   21.9968 H   0  0  0  0  0  0
  -31.4050  -17.0339   20.3027 H   0  0  0  0  0  0
  -28.3173  -22.6431   22.4555 H   0  0  0  0  0  0
  -26.9573  -22.0120   21.6011 H   0  0  0  0  0  0
  -29.1250  -15.4808   21.3711 H   0  0  0  0  0  0
  -28.2612  -22.7831   19.5126 H   0  0  0  0  0  0
  1 25  1  0  0  0
  1 30  2  0  0  0
  1 85  1  0  0  0
  2  3  1  0  0  0
  2 25  1  0  0  0
  2 87  1  0  0  0
  2 88  1  0  0  0
  3  4  1  0  0  0
  3 89  1  0  0  0
  3 90  1  0  0  0
  4  5  1  0  0  0
  4 91  1  0  0  0
  4 92  1  0  0  0
  5  6  1  0  0  0
  5 26  1  0  0  0
  5 93  1  0  0  0
  6 25  1  0  0  0
  6 94  1  0  0  0
  6 95  1  0  0  0
  7  8  2  0  0  0
  7 26  1  0  0  0
  7 29  1  0  0  0
  8  9  1  0  0  0
  8 22  1  0  0  0
  9 10  1  0  0  0
  9 27  2  0  0  0
 10 11  2  0  0  0
 10 15  1  0  0  0
 11 12  1  0  0  0
 11 96  1  0  0  0
 12 13  2  0  0  0
 12 97  1  0  0  0
 13 14  1  0  0  0
 13 31  1  0  0  0
 14 15  2  0  0  0
 14 98  1  0  0  0
 15 99  1  0  0  0
 16 17  2  0  0  0
 16 21  1  0  0  0
 16 31  1  0  0  0
 17 18  1  0  0  0
 17100  1  0  0  0
 18 19  2  0  0  0
 18101  1  0  0  0
 19 20  1  0  0  0
 19 24  1  0  0  0
 20 21  2  0  0  0
 20102  1  0  0  0
 21 23  1  0  0  0
 22 28  1  0  0  0
 22 32  2  0  0  0
 26 27  1  0  0  0
 28103  1  0  0  0
 28104  1  0  0  0
 29105  1  0  0  0
 29106  1  0  0  0
 33 34  1  0  0  0
 33 66  1  0  0  0
 33 70  2  0  0  0
 34 36  1  0  0  0
 34 59  1  0  0  0
 34107  1  0  0  0
 35 44  2  0  0  0
 35 45  1  0  0  0
 35 68  1  0  0  0
 36 56  1  0  0  0
 36108  1  0  0  0
 37 39  1  0  0  0
 37 47  1  0  0  0
 37 66  1  0  0  0
 37109  1  0  0  0
 38 43  2  0  0  0
 38 46  1  0  0  0
 38 47  1  0  0  0
 39 64  1  0  0  0
 39 67  2  0  0  0
 40 52  1  0  0  0
 40 53  2  0  0  0
 40 58  1  0  0  0
 41110  1  0  0  0
 41111  1  0  0  0
 41112  1  0  0  0
 41 48  1  0  0  0
 42 43  1  0  0  0
 42 66  1  0  0  0
 42113  1  0  0  0
 42114  1  0  0  0
 43 44  1  0  0  0
 44115  1  0  0  0
 45 46  2  0  0  0
 45116  1  0  0  0
 46117  1  0  0  0
 47118  1  0  0  0
 47119  1  0  0  0
 48 56  1  0  0  0
 48 65  1  0  0  0
 48120  1  0  0  0
 49 50  1  0  0  0
 49 53  1  0  0  0
 49 64  1  0  0  0
 49121  1  0  0  0
 50 51  1  0  0  0
 50122  1  0  0  0
 50123  1  0  0  0
 51 52  1  0  0  0
 51124  1  0  0  0
 51125  1  0  0  0
 52126  1  0  0  0
 52127  1  0  0  0
 53 54  1  0  0  0
 54 55  2  0  0  0
 54128  1  0  0  0
 55 57  1  0  0  0
 55129  1  0  0  0
 56 69  2  0  0  0
 57 58  2  0  0  0
 57130  1  0  0  0
 58131  1  0  0  0
 59 60  1  0  0  0
 59 61  1  0  0  0
 59 62  1  0  0  0
 60132  1  0  0  0
 60133  1  0  0  0
 60134  1  0  0  0
 61135  1  0  0  0
 61136  1  0  0  0
 61137  1  0  0  0
 62138  1  0  0  0
 62139  1  0  0  0
 62140  1  0  0  0
 63 65  1  0  0  0
 63141  1  0  0  0
 63142  1  0  0  0
 63143  1  0  0  0
 64144  1  0  0  0
 65145  1  0  0  0
 68 79  1  0  0  0
 71 72  2  0  0  0
 71 73  1  0  0  0
 71146  1  0  0  0
 72 76  1  0  0  0
 72 80  1  0  0  0
 73 74  2  0  0  0
 73 84  1  0  0  0
 74 75  1  0  0  0
 74 81  1  0  0  0
 75 76  2  0  0  0
 75 82  1  0  0  0
 76 83  1  0  0  0
 77 79  1  0  0  0
 77 86  1  0  0  0
 77147  1  0  0  0
 77148  1  0  0  0
 78 79  1  0  0  0
 78 86  1  0  0  0
 78149  1  0  0  0
 78150  1  0  0  0
 79151  1  0  0  0
 80152  1  0  0  0
 80153  1  0  0  0
 80154  1  0  0  0
 81155  1  0  0  0
 81156  1  0  0  0
 81157  1  0  0  0
 82158  1  0  0  0
 82159  1  0  0  0
 82160  1  0  0  0
 83 85  1  0  0  0
 83161  1  0  0  0
 83162  1  0  0  0
 84163  1  0  0  0
 84164  1  0  0  0
 84 86  1  0  0  0
 85165  1  0  0  0
 86166  1  0  0  0
M  CHG  1  86   1
M  ISO  4   1 100  68 101  79 101  85 100
M  END
> <chiral flag>
0

> <version>
0

> <s_m_source_file>
/data/baiqing/PycharmProjects/Reinvent-master-3.2/result/LINK_invent/BTK/process_docking_weight1_custom_product_contain_oxygen_bond_distance_aromatic_linkinvent_7_9_3/rearranged_h_0028.sdf

> <i_m_source_file_index>
50

> <r_mmod_Potential_Energy-OPLS-2005>
-250.682830810547

> <r_mmod_Stretch_Energy-OPLS-2005>
50.1938400268555

> <r_mmod_Bend_Energy-OPLS-2005>
142.949066162109

> <r_mmod_Torsional_Energy-OPLS-2005>
207.521209716797

> <r_mmod_Improper_Torsional_Energy-OPLS-2005>
3.89386463165283

> <r_mmod_Van_der_Waal_Energy-OPLS-2005>
167.745712280273

> <r_mmod_Electrostatic_Energy-OPLS-2005>
-393.350128173828

> <r_mmod_Solvation_Energy-OPLS-2005>
-452.561859130859

> <b_mmod_Minimization_Converged-OPLS-2005>
0

> <r_mmod_RMS_Derivative-OPLS-2005>
1.94695293903351

$$$$
50
                    3D
 Structure written by MMmdl.
157166  0  0  1  0            999 V2000
  -31.5701  -15.1542   20.9617 C   0  0  0  0  0  0
  -31.1421  -13.4510   19.0091 C   0  0  0  0  0  0
  -29.6722  -12.8598   17.3507 C   0  0  0  0  0  0
  -27.4133  -13.3227   17.8055 C   0  0  0  0  0  0
  -26.8343  -14.3016   19.7896 C   0  0  2  0  0  0
  -28.6697  -14.8801   21.6668 C   0  0  0  0  0  0
  -24.8165  -14.0338   20.8228 C   0  0  0  0  0  0
  -23.9211  -13.0722   21.0415 C   0  0  0  0  0  0
  -24.5366  -11.7957   20.8429 C   0  0  0  0  0  0
  -23.9137  -10.4593   20.9871 C   0  0  0  0  0  0
  -24.3792   -9.4631   21.8807 C   0  0  0  0  0  0
  -23.6541   -8.2573   22.0589 C   0  0  0  0  0  0
  -22.4481   -8.0380   21.3481 C   0  0  0  0  0  0
  -22.0043   -9.0197   20.4461 C   0  0  0  0  0  0
  -22.7287  -10.2095   20.2657 C   0  0  0  0  0  0
  -21.6998   -6.0802   22.5300 C   0  0  0  0  0  0
  -21.4128   -6.5691   23.8231 C   0  0  0  0  0  0
  -21.3704   -5.6824   24.9177 C   0  0  0  0  0  0
  -21.6046   -4.3080   24.7222 C   0  0  0  0  0  0
  -21.8809   -3.8177   23.4340 C   0  0  0  0  0  0
  -21.9241   -4.7008   22.3409 C   0  0  0  0  0  0
  -22.5193  -13.4340   21.2810 C   0  0  0  0  0  0
  -22.1676   -4.2184   21.0983 F   0  0  0  0  0  0
  -21.5597   -3.4555   25.7728 F   0  0  0  0  0  0
  -30.6088  -14.3593   20.8241 N   0  0  0  0  0  0
  -25.8394  -13.4029   20.3048 N   0  0  0  0  0  0
  -25.7646  -12.0065   20.3529 N   0  0  0  0  0  0
  -21.8479  -12.6930   22.1376 N   0  0  0  0  0  0
  -24.8127  -15.4248   20.9281 N   0  0  0  0  0  0
  -32.6687  -14.8489   20.5549 O   0  0  0  0  0  0
  -21.6850   -6.8956   21.4264 O   0  0  0  0  0  0
  -22.0544  -14.4435   20.7487 O   0  0  0  0  0  0
  -24.7376  -31.7312   23.1061 C   0  0  0  0  0  0
  -25.9698  -32.4117   23.7794 C   0  0  1  0  0  0
  -27.0799  -26.0951   20.1825 C   0  0  0  0  0  0
  -25.6044  -33.7983   24.1611 N   0  0  0  0  0  0
  -23.5747  -30.3240   21.4792 C   0  0  2  0  0  0
  -24.9929  -28.5492   20.1106 C   0  0  0  0  0  0
  -22.7949  -29.3981   22.4565 C   0  0  0  0  0  0
  -18.0364  -28.1443   22.8434 C   0  0  0  0  0  0
  -24.1502  -36.7003   23.2668 C   0  0  0  0  0  0
  -26.1719  -30.2513   21.4543 C   0  0  0  0  0  0
  -26.1946  -28.7586   20.7923 C   0  0  0  0  0  0
  -27.2070  -27.5749   20.7832 C   0  0  0  0  0  0
  -25.8691  -26.2548   19.4378 C   0  0  0  0  0  0
  -24.9051  -27.3321   19.4092 C   0  0  0  0  0  0
  -23.8413  -29.5930   20.1266 C   0  0  0  0  0  0
  -25.4173  -36.2689   24.0234 C   0  0  1  0  0  0
  -20.6016  -28.3817   23.1058 C   0  0  2  0  0  0
  -20.6800  -26.9433   22.5416 C   0  0  0  0  0  0
  -19.5786  -26.6350   21.5224 C   0  0  0  0  0  0
  -18.1968  -26.7963   22.1613 C   0  0  0  0  0  0
  -19.1641  -28.8965   23.2715 C   0  0  0  0  0  0
  -18.9540  -30.1539   23.8778 C   0  0  0  0  0  0
  -17.6524  -30.6613   24.0542 C   0  0  0  0  0  0
  -25.9193  -34.9097   23.4802 C   0  0  0  0  0  0
  -16.5411  -29.9087   23.6363 C   0  0  0  0  0  0
  -16.7342  -28.6514   23.0376 C   0  0  0  0  0  0
  -26.4689  -31.6418   25.0660 C   0  0  0  0  0  0
  -25.3608  -31.3902   26.1171 C   0  0  0  0  0  0
  -27.0716  -30.2703   24.6984 C   0  0  0  0  0  0
  -27.6020  -32.4430   25.7504 C   0  0  0  0  0  0
  -27.5545  -37.1656   24.8462 C   0  0  0  0  0  0
  -21.4558  -29.2967   22.3319 N   0  0  0  0  0  0
  -26.4244  -37.3518   23.9406 N   0  0  0  0  0  0
  -24.8629  -30.8173   22.0637 N   0  0  0  0  0  0
  -23.4166  -28.7650   23.3125 O   0  0  0  0  0  0
  -27.8689  -24.5747   20.1764 O   0  0  0  0  0  0
  -26.5914  -34.8793   22.4477 O   0  0  0  0  0  0
  -23.6295  -32.0686   23.5672 O   0  0  0  0  0  0
  -28.9184  -13.0351   19.4711 C   0  0  0  0  0  0
  -29.1441  -14.7344   18.6346 C   0  0  0  0  0  0
  -29.4940  -12.1191   20.2907 C   0  0  0  0  0  0
  -29.8165  -15.9082   18.6672 C   0  0  0  0  0  0
  -28.8446  -15.4727   19.5120 C   0  0  0  0  0  0
  -28.7260  -13.2511   20.2312 C   0  0  0  0  0  0
  -28.0823  -21.0005   19.0096 C   0  0  0  0  0  0
  -28.1398  -20.9273   20.9002 C   0  0  0  0  0  0
  -27.6902  -22.5228   20.0352 C   0  0  1  0  0  0
  -30.8940  -16.7258   19.4185 C   0  0  0  0  0  0
  -28.0927  -17.4795   19.8971 C   0  0  0  0  0  0
  -31.1445  -16.3936   20.8195 N   0  0  0  0  0  0
  -28.0998  -19.5232   19.9021 N   0  3  1  0  0  0
  -27.9309  -12.7563   21.3716 F   0  0  0  0  0  0
  -31.8451  -14.1002   18.4841 H   0  0  0  0  0  0
  -31.7716  -12.5885   19.2397 H   0  0  0  0  0  0
  -29.7944  -11.7999   17.1197 H   0  0  0  0  0  0
  -29.9683  -13.3513   16.4216 H   0  0  0  0  0  0
  -26.8369  -12.4010   17.7017 H   0  0  0  0  0  0
  -27.0085  -13.9351   16.9979 H   0  0  0  0  0  0
  -26.4133  -15.2063   19.3463 H   0  0  0  0  0  0
  -28.5216  -14.3889   22.6332 H   0  0  0  0  0  0
  -28.6705  -15.9222   21.9810 H   0  0  0  0  0  0
  -25.2837   -9.6358   22.4473 H   0  0  0  0  0  0
  -24.0302   -7.5102   22.7434 H   0  0  0  0  0  0
  -21.0948   -8.8598   19.8841 H   0  0  0  0  0  0
  -22.3520  -10.9542   19.5785 H   0  0  0  0  0  0
  -21.2165   -7.6204   23.9749 H   0  0  0  0  0  0
  -21.1519   -6.0547   25.9084 H   0  0  0  0  0  0
  -22.0530   -2.7632   23.2829 H   0  0  0  0  0  0
  -22.2756  -11.8926   22.5793 H   0  0  0  0  0  0
  -20.8904  -12.9248   22.3613 H   0  0  0  0  0  0
  -23.9908  -15.9365   21.2308 H   0  0  0  0  0  0
  -25.6029  -16.0185   20.7310 H   0  0  0  0  0  0
  -26.7833  -32.4437   23.0536 H   0  0  0  0  0  0
  -24.9999  -33.8924   24.9637 H   0  0  0  0  0  0
  -22.9338  -31.1800   21.2597 H   0  0  0  0  0  0
  -23.3794  -35.9297   23.3217 H   0  0  0  0  0  0
  -24.3551  -36.8818   22.2106 H   0  0  0  0  0  0
  -23.7239  -37.6115   23.6874 H   0  0  0  0  0  0
  -26.4543  -30.9432   20.6593 H   0  0  0  0  0  0
  -26.9995  -30.3045   22.1475 H   0  0  0  0  0  0
  -28.1045  -27.7498   21.3599 H   0  0  0  0  0  0
  -25.5801  -25.3851   18.8643 H   0  0  0  0  0  0
  -24.0125  -27.1626   18.8229 H   0  0  0  0  0  0
  -24.0772  -30.3399   19.3678 H   0  0  0  0  0  0
  -22.9239  -29.1148   19.7802 H   0  0  0  0  0  0
  -25.1414  -36.1358   25.0719 H   0  0  0  0  0  0
  -21.0088  -28.3480   24.1189 H   0  0  0  0  0  0
  -20.5620  -26.2454   23.3721 H   0  0  0  0  0  0
  -21.6657  -26.7299   22.1263 H   0  0  0  0  0  0
  -19.6932  -25.6229   21.1331 H   0  0  0  0  0  0
  -19.6747  -27.3095   20.6706 H   0  0  0  0  0  0
  -17.4244  -26.6718   21.4010 H   0  0  0  0  0  0
  -18.0331  -26.0131   22.9029 H   0  0  0  0  0  0
  -19.8018  -30.7385   24.2093 H   0  0  0  0  0  0
  -17.5075  -31.6282   24.5169 H   0  0  0  0  0  0
  -15.5408  -30.2953   23.7754 H   0  0  0  0  0  0
  -15.8743  -28.0795   22.7156 H   0  0  0  0  0  0
  -24.5845  -30.7202   25.7458 H   0  0  0  0  0  0
  -24.8752  -32.3176   26.4216 H   0  0  0  0  0  0
  -25.7654  -30.9306   27.0198 H   0  0  0  0  0  0
  -26.3504  -29.6101   24.2162 H   0  0  0  0  0  0
  -27.4092  -29.7434   25.5919 H   0  0  0  0  0  0
  -27.9505  -30.3707   24.0616 H   0  0  0  0  0  0
  -27.2480  -33.3874   26.1650 H   0  0  0  0  0  0
  -28.4038  -32.6766   25.0487 H   0  0  0  0  0  0
  -28.0461  -31.8867   26.5769 H   0  0  0  0  0  0
  -28.2479  -38.0024   24.7517 H   0  0  0  0  0  0
  -28.1121  -36.2536   24.6277 H   0  0  0  0  0  0
  -27.2258  -37.1257   25.8862 H   0  0  0  0  0  0
  -20.9963  -29.8576   21.6278 H   0  0  0  0  0  0
  -26.0011  -38.2533   24.1437 H   0  0  0  0  0  0
  -28.5759  -11.9629   18.8912 H   0  0  0  0  0  0
  -28.8841  -14.9073   17.5470 H   0  0  0  0  0  0
  -29.0904  -11.1556   20.5848 H   0  0  0  0  0  0
  -29.0616  -21.1190   18.5433 H   0  0  0  0  0  0
  -27.3698  -20.9133   18.1887 H   0  0  0  0  0  0
  -27.4900  -20.7751   21.7624 H   0  0  0  0  0  0
  -29.1511  -21.0112   21.3032 H   0  0  0  0  0  0
  -26.6004  -22.5089   20.0624 H   0  0  0  0  0  0
  -31.8216  -16.6399   18.8474 H   0  0  0  0  0  0
  -30.6478  -17.7849   19.3548 H   0  0  0  0  0  0
  -27.5810  -17.3332   20.8445 H   0  0  0  0  0  0
  -27.2805  -17.4088   19.1752 H   0  0  0  0  0  0
  -31.7461  -17.0696   21.2672 H   0  0  0  0  0  0
  -27.0958  -19.4334   19.9252 H   0  0  0  0  0  0
  1 25  1  0  0  0
  1 30  2  0  0  0
  1 82  1  0  0  0
  2  3  1  0  0  0
  2 25  1  0  0  0
  2 85  1  0  0  0
  2 86  1  0  0  0
  3  4  1  0  0  0
  3 87  1  0  0  0
  3 88  1  0  0  0
  4  5  1  0  0  0
  4 89  1  0  0  0
  4 90  1  0  0  0
  5  6  1  0  0  0
  5 26  1  0  0  0
  5 91  1  0  0  0
  6 25  1  0  0  0
  6 92  1  0  0  0
  6 93  1  0  0  0
  7  8  2  0  0  0
  7 26  1  0  0  0
  7 29  1  0  0  0
  8  9  1  0  0  0
  8 22  1  0  0  0
  9 10  1  0  0  0
  9 27  2  0  0  0
 10 11  2  0  0  0
 10 15  1  0  0  0
 11 12  1  0  0  0
 11 94  1  0  0  0
 12 13  2  0  0  0
 12 95  1  0  0  0
 13 14  1  0  0  0
 13 31  1  0  0  0
 14 15  2  0  0  0
 14 96  1  0  0  0
 15 97  1  0  0  0
 16 17  2  0  0  0
 16 21  1  0  0  0
 16 31  1  0  0  0
 17 18  1  0  0  0
 17 98  1  0  0  0
 18 19  2  0  0  0
 18 99  1  0  0  0
 19 20  1  0  0  0
 19 24  1  0  0  0
 20 21  2  0  0  0
 20100  1  0  0  0
 21 23  1  0  0  0
 22 28  1  0  0  0
 22 32  2  0  0  0
 26 27  1  0  0  0
 28101  1  0  0  0
 28102  1  0  0  0
 29103  1  0  0  0
 29104  1  0  0  0
 33 34  1  0  0  0
 33 66  1  0  0  0
 33 70  2  0  0  0
 34 36  1  0  0  0
 34 59  1  0  0  0
 34105  1  0  0  0
 35 44  2  0  0  0
 35 45  1  0  0  0
 35 68  1  0  0  0
 36 56  1  0  0  0
 36106  1  0  0  0
 37 39  1  0  0  0
 37 47  1  0  0  0
 37 66  1  0  0  0
 37107  1  0  0  0
 38 43  2  0  0  0
 38 46  1  0  0  0
 38 47  1  0  0  0
 39 64  1  0  0  0
 39 67  2  0  0  0
 40 52  1  0  0  0
 40 53  2  0  0  0
 40 58  1  0  0  0
 41108  1  0  0  0
 41109  1  0  0  0
 41110  1  0  0  0
 41 48  1  0  0  0
 42 43  1  0  0  0
 42 66  1  0  0  0
 42111  1  0  0  0
 42112  1  0  0  0
 43 44  1  0  0  0
 44113  1  0  0  0
 45 46  2  0  0  0
 45114  1  0  0  0
 46115  1  0  0  0
 47116  1  0  0  0
 47117  1  0  0  0
 48 56  1  0  0  0
 48 65  1  0  0  0
 48118  1  0  0  0
 49 50  1  0  0  0
 49 53  1  0  0  0
 49 64  1  0  0  0
 49119  1  0  0  0
 50 51  1  0  0  0
 50120  1  0  0  0
 50121  1  0  0  0
 51 52  1  0  0  0
 51122  1  0  0  0
 51123  1  0  0  0
 52124  1  0  0  0
 52125  1  0  0  0
 53 54  1  0  0  0
 54 55  2  0  0  0
 54126  1  0  0  0
 55 57  1  0  0  0
 55127  1  0  0  0
 56 69  2  0  0  0
 57 58  2  0  0  0
 57128  1  0  0  0
 58129  1  0  0  0
 59 60  1  0  0  0
 59 61  1  0  0  0
 59 62  1  0  0  0
 60130  1  0  0  0
 60131  1  0  0  0
 60132  1  0  0  0
 61133  1  0  0  0
 61134  1  0  0  0
 61135  1  0  0  0
 62136  1  0  0  0
 62137  1  0  0  0
 62138  1  0  0  0
 63 65  1  0  0  0
 63139  1  0  0  0
 63140  1  0  0  0
 63141  1  0  0  0
 64142  1  0  0  0
 65143  1  0  0  0
 68 79  1  0  0  0
 71 72  2  0  0  0
 71 73  1  0  0  0
 71144  1  0  0  0
 72 74  1  0  0  0
 72145  1  0  0  0
 73 76  2  0  0  0
 73146  1  0  0  0
 74 75  2  0  0  0
 74 80  1  0  0  0
 75 76  1  0  0  0
 75 81  1  0  0  0
 76 84  1  0  0  0
 77 79  1  0  0  0
 77 83  1  0  0  0
 77147  1  0  0  0
 77148  1  0  0  0
 78 79  1  0  0  0
 78 83  1  0  0  0
 78149  1  0  0  0
 78150  1  0  0  0
 79151  1  0  0  0
 80 82  1  0  0  0
 80152  1  0  0  0
 80153  1  0  0  0
 81154  1  0  0  0
 81155  1  0  0  0
 81 83  1  0  0  0
 82156  1  0  0  0
 83157  1  0  0  0
M  CHG  1  83   1
M  ISO  4   1 100  68 101  79 101  82 100
M  END
> <chiral flag>
0

> <version>
0

> <s_m_source_file>
/data/baiqing/PycharmProjects/Reinvent-master-3.2/result/LINK_invent/BTK/process_docking_weight1_custom_product_contain_oxygen_bond_distance_aromatic_linkinvent_7_9_3/rearranged_h_0028.sdf

> <i_m_source_file_index>
51

> <r_mmod_Potential_Energy-OPLS-2005>
18818.908203125

> <r_mmod_Stretch_Energy-OPLS-2005>
9839.7333984375

> <r_mmod_Bend_Energy-OPLS-2005>
2908.35961914062

> <r_mmod_Torsional_Energy-OPLS-2005>
626.054809570312

> <r_mmod_Improper_Torsional_Energy-OPLS-2005>
73.5021133422852

> <r_mmod_Van_der_Waal_Energy-OPLS-2005>
3445.36840820312

> <r_mmod_Electrostatic_Energy-OPLS-2005>
-335.239929199219

> <r_mmod_Solvation_Energy-OPLS-2005>
-531.238830566406

> <b_mmod_Minimization_Converged-OPLS-2005>
0

> <r_mmod_RMS_Derivative-OPLS-2005>
1.56008684635162

$$$$
51
                    3D
 Structure written by MMmdl.
157166  0  0  1  0            999 V2000
  -30.5621  -14.9113   20.4403 C   0  0  0  0  0  0
  -30.4352  -12.5729   19.4757 C   0  0  0  0  0  0
  -29.5106  -12.5184   18.2394 C   0  0  0  0  0  0
  -28.0439  -12.3122   18.6648 C   0  0  0  0  0  0
  -27.6253  -13.2449   19.8320 C   0  0  2  0  0  0
  -28.6727  -13.2685   20.9628 C   0  0  0  0  0  0
  -25.2448  -13.8211   20.5713 C   0  0  0  0  0  0
  -24.1766  -13.0438   20.9234 C   0  0  0  0  0  0
  -24.6381  -11.6921   20.8764 C   0  0  0  0  0  0
  -23.9073  -10.4292   21.0413 C   0  0  0  0  0  0
  -24.3624   -9.4207   21.9187 C   0  0  0  0  0  0
  -23.6296   -8.2242   22.0753 C   0  0  0  0  0  0
  -22.4276   -8.0279   21.3543 C   0  0  0  0  0  0
  -21.9917   -9.0254   20.4645 C   0  0  0  0  0  0
  -22.7249  -10.2133   20.3056 C   0  0  0  0  0  0
  -21.6851   -6.0735   22.5278 C   0  0  0  0  0  0
  -21.4014   -6.5640   23.8212 C   0  0  0  0  0  0
  -21.3659   -5.6791   24.9172 C   0  0  0  0  0  0
  -21.6043   -4.3054   24.7223 C   0  0  0  0  0  0
  -21.8821   -3.8148   23.4345 C   0  0  0  0  0  0
  -21.9193   -4.6963   22.3401 C   0  0  0  0  0  0
  -22.7788  -13.5207   21.1893 C   0  0  0  0  0  0
  -22.1662   -4.2151   21.0978 F   0  0  0  0  0  0
  -21.5628   -3.4536   25.7737 F   0  0  0  0  0  0
  -29.9422  -13.6718   20.3485 N   0  0  0  0  0  0
  -26.2864  -12.9438   20.3239 N   0  0  0  0  0  0
  -25.9310  -11.6573   20.5743 N   0  0  0  0  0  0
  -22.0440  -12.8186   22.0445 N   0  0  0  0  0  0
  -25.4104  -15.1942   20.4137 N   0  0  0  0  0  0
  -31.7792  -14.9497   20.2285 O   0  0  0  0  0  0
  -21.6637   -6.8880   21.4240 O   0  0  0  0  0  0
  -22.3475  -14.5514   20.6739 O   0  0  0  0  0  0
  -24.6403  -31.8460   23.1878 C   0  0  0  0  0  0
  -25.9187  -32.4706   23.8262 C   0  0  1  0  0  0
  -27.2221  -27.1584   20.1602 C   0  0  0  0  0  0
  -25.5952  -33.8509   24.2193 N   0  0  0  0  0  0
  -23.4422  -30.4607   21.5348 C   0  0  2  0  0  0
  -24.8896  -28.8778   20.1222 C   0  0  0  0  0  0
  -22.7544  -29.4549   22.4904 C   0  0  0  0  0  0
  -18.0295  -28.1388   22.8477 C   0  0  0  0  0  0
  -24.1490  -36.7251   23.2646 C   0  0  0  0  0  0
  -25.9936  -30.7263   21.3799 C   0  0  0  0  0  0
  -26.0658  -29.3348   20.7306 C   0  0  0  0  0  0
  -27.2357  -28.4933   20.7244 C   0  0  0  0  0  0
  -26.0183  -26.7800   19.5334 C   0  0  0  0  0  0
  -24.8758  -27.6123   19.5102 C   0  0  0  0  0  0
  -23.6674  -29.7817   20.1569 C   0  0  0  0  0  0
  -25.4121  -36.3038   24.0320 C   0  0  1  0  0  0
  -20.5900  -28.3704   23.1257 C   0  0  2  0  0  0
  -20.6782  -26.9414   22.5412 C   0  0  0  0  0  0
  -19.5759  -26.6376   21.5214 C   0  0  0  0  0  0
  -18.1933  -26.7929   22.1618 C   0  0  0  0  0  0
  -19.1549  -28.8865   23.2853 C   0  0  0  0  0  0
  -18.9477  -30.1466   23.8874 C   0  0  0  0  0  0
  -17.6475  -30.6594   24.0550 C   0  0  0  0  0  0
  -25.9072  -34.9416   23.5065 C   0  0  0  0  0  0
  -16.5363  -29.9084   23.6337 C   0  0  0  0  0  0
  -16.7281  -28.6500   23.0358 C   0  0  0  0  0  0
  -26.4517  -31.6572   25.0699 C   0  0  0  0  0  0
  -25.3707  -31.3752   26.1399 C   0  0  0  0  0  0
  -27.0390  -30.2977   24.6259 C   0  0  0  0  0  0
  -27.6047  -32.4341   25.7483 C   0  0  0  0  0  0
  -27.5572  -37.1777   24.8466 C   0  0  0  0  0  0
  -21.4246  -29.3035   22.3643 N   0  0  0  0  0  0
  -26.4284  -37.3752   23.9414 N   0  0  0  0  0  0
  -24.7114  -31.0323   22.0898 N   0  0  0  0  0  0
  -23.4199  -28.8112   23.3059 O   0  0  0  0  0  0
  -28.3332  -26.2583   20.1096 O   0  0  0  0  0  0
  -26.5659  -34.8918   22.4648 O   0  0  0  0  0  0
  -23.5534  -32.1333   23.7115 O   0  0  0  0  0  0
  -31.4385  -18.6086   22.8007 C   0  0  0  0  0  0
  -30.8797  -19.8641   22.5267 C   0  0  0  0  0  0
  -31.0605  -17.4691   22.0739 C   0  0  0  0  0  0
  -29.9420  -20.0396   21.4921 C   0  0  0  0  0  0
  -29.5802  -18.8759   20.7033 C   0  0  0  0  0  0
  -30.1252  -17.5035   21.0108 C   0  0  0  0  0  0
  -28.7070  -19.3000   19.4981 C   0  0  0  0  0  0
  -29.3518  -21.5172   21.3518 C   0  0  0  0  0  0
  -28.0025  -20.7524   19.5368 C   0  0  0  0  0  0
  -28.1365  -23.3770   19.7766 C   0  0  0  0  0  0
  -28.3730  -24.7941   20.6200 C   0  0  0  0  0  0
  -29.8016  -16.1149   20.4741 N   0  0  0  0  0  0
  -28.8085  -21.9461   20.0197 N   0  3  1  0  0  0
  -31.4670  -12.7319   19.1588 H   0  0  0  0  0  0
  -30.4286  -11.6221   20.0114 H   0  0  0  0  0  0
  -29.8220  -11.7177   17.5672 H   0  0  0  0  0  0
  -29.6000  -13.4472   17.6732 H   0  0  0  0  0  0
  -27.9359  -11.2708   18.9704 H   0  0  0  0  0  0
  -27.3778  -12.4481   17.8119 H   0  0  0  0  0  0
  -27.5880  -14.2470   19.4046 H   0  0  0  0  0  0
  -28.7584  -12.2930   21.4435 H   0  0  0  0  0  0
  -28.3829  -13.9762   21.7415 H   0  0  0  0  0  0
  -25.2764   -9.5677   22.4769 H   0  0  0  0  0  0
  -23.9999   -7.4630   22.7469 H   0  0  0  0  0  0
  -21.0852   -8.8779   19.8947 H   0  0  0  0  0  0
  -22.3710  -10.9675   19.6168 H   0  0  0  0  0  0
  -21.2008   -7.6147   23.9716 H   0  0  0  0  0  0
  -21.1478   -6.0520   25.9076 H   0  0  0  0  0  0
  -22.0601   -2.7609   23.2842 H   0  0  0  0  0  0
  -22.4064  -11.9847   22.4824 H   0  0  0  0  0  0
  -21.1054  -13.1197   22.2654 H   0  0  0  0  0  0
  -24.6399  -15.8436   20.5284 H   0  0  0  0  0  0
  -26.2520  -15.6381   20.0727 H   0  0  0  0  0  0
  -26.7251  -32.5322   23.0987 H   0  0  0  0  0  0
  -25.0067  -33.9624   25.0318 H   0  0  0  0  0  0
  -22.7445  -31.2853   21.3781 H   0  0  0  0  0  0
  -23.3764  -35.9570   23.3300 H   0  0  0  0  0  0
  -24.3566  -36.8896   22.2062 H   0  0  0  0  0  0
  -23.7233  -37.6440   23.6690 H   0  0  0  0  0  0
  -26.1418  -31.4788   20.6046 H   0  0  0  0  0  0
  -26.8665  -30.7801   22.0190 H   0  0  0  0  0  0
  -28.1453  -28.8503   21.1878 H   0  0  0  0  0  0
  -25.9569  -25.8123   19.0543 H   0  0  0  0  0  0
  -23.9764  -27.2572   19.0261 H   0  0  0  0  0  0
  -23.8060  -30.5528   19.3977 H   0  0  0  0  0  0
  -22.7812  -29.2236   19.8494 H   0  0  0  0  0  0
  -25.1306  -36.1860   25.0810 H   0  0  0  0  0  0
  -20.9972  -28.3293   24.1385 H   0  0  0  0  0  0
  -20.5691  -26.2315   23.3629 H   0  0  0  0  0  0
  -21.6649  -26.7441   22.1202 H   0  0  0  0  0  0
  -19.6930  -25.6284   21.1257 H   0  0  0  0  0  0
  -19.6700  -27.3185   20.6738 H   0  0  0  0  0  0
  -17.4209  -26.6678   21.4017 H   0  0  0  0  0  0
  -18.0319  -26.0074   22.9020 H   0  0  0  0  0  0
  -19.7959  -30.7270   24.2242 H   0  0  0  0  0  0
  -17.5040  -31.6277   24.5151 H   0  0  0  0  0  0
  -15.5366  -30.2978   23.7687 H   0  0  0  0  0  0
  -15.8676  -28.0814   22.7090 H   0  0  0  0  0  0
  -24.5898  -30.7083   25.7722 H   0  0  0  0  0  0
  -24.8872  -32.2929   26.4762 H   0  0  0  0  0  0
  -25.7990  -30.8973   27.0220 H   0  0  0  0  0  0
  -26.2998  -29.6687   24.1278 H   0  0  0  0  0  0
  -27.4044  -29.7282   25.4817 H   0  0  0  0  0  0
  -27.8890  -30.4235   23.9542 H   0  0  0  0  0  0
  -27.2642  -33.3676   26.1979 H   0  0  0  0  0  0
  -28.3890  -32.6850   25.0328 H   0  0  0  0  0  0
  -28.0672  -31.8516   26.5465 H   0  0  0  0  0  0
  -28.2575  -38.0085   24.7521 H   0  0  0  0  0  0
  -28.1080  -36.2615   24.6279 H   0  0  0  0  0  0
  -27.2286  -37.1402   25.8867 H   0  0  0  0  0  0
  -20.9469  -29.8733   21.6802 H   0  0  0  0  0  0
  -26.0152  -38.2819   24.1436 H   0  0  0  0  0  0
  -32.1538  -18.5108   23.6060 H   0  0  0  0  0  0
  -31.1774  -20.7075   23.1356 H   0  0  0  0  0  0
  -31.5080  -16.5360   22.3835 H   0  0  0  0  0  0
  -27.9414  -18.5386   19.3466 H   0  0  0  0  0  0
  -29.3499  -19.2500   18.6188 H   0  0  0  0  0  0
  -30.1232  -22.2338   21.6365 H   0  0  0  0  0  0
  -28.5581  -21.6226   22.0922 H   0  0  0  0  0  0
  -27.1267  -20.6839   20.1837 H   0  0  0  0  0  0
  -27.6093  -20.9731   18.5442 H   0  0  0  0  0  0
  -28.3796  -23.6082   18.7393 H   0  0  0  0  0  0
  -27.0583  -23.2174   19.7656 H   0  0  0  0  0  0
  -29.3837  -24.7150   21.0198 H   0  0  0  0  0  0
  -27.7401  -24.7556   21.5062 H   0  0  0  0  0  0
  -28.8269  -15.9733   20.2589 H   0  0  0  0  0  0
  -29.6305  -21.9634   19.4335 H   0  0  0  0  0  0
  1 25  1  0  0  0
  1 30  2  0  0  0
  1 82  1  0  0  0
  2  3  1  0  0  0
  2 25  1  0  0  0
  2 84  1  0  0  0
  2 85  1  0  0  0
  3  4  1  0  0  0
  3 86  1  0  0  0
  3 87  1  0  0  0
  4  5  1  0  0  0
  4 88  1  0  0  0
  4 89  1  0  0  0
  5  6  1  0  0  0
  5 26  1  0  0  0
  5 90  1  0  0  0
  6 25  1  0  0  0
  6 91  1  0  0  0
  6 92  1  0  0  0
  7  8  2  0  0  0
  7 26  1  0  0  0
  7 29  1  0  0  0
  8  9  1  0  0  0
  8 22  1  0  0  0
  9 10  1  0  0  0
  9 27  2  0  0  0
 10 11  2  0  0  0
 10 15  1  0  0  0
 11 12  1  0  0  0
 11 93  1  0  0  0
 12 13  2  0  0  0
 12 94  1  0  0  0
 13 14  1  0  0  0
 13 31  1  0  0  0
 14 15  2  0  0  0
 14 95  1  0  0  0
 15 96  1  0  0  0
 16 17  2  0  0  0
 16 21  1  0  0  0
 16 31  1  0  0  0
 17 18  1  0  0  0
 17 97  1  0  0  0
 18 19  2  0  0  0
 18 98  1  0  0  0
 19 20  1  0  0  0
 19 24  1  0  0  0
 20 21  2  0  0  0
 20 99  1  0  0  0
 21 23  1  0  0  0
 22 28  1  0  0  0
 22 32  2  0  0  0
 26 27  1  0  0  0
 28100  1  0  0  0
 28101  1  0  0  0
 29102  1  0  0  0
 29103  1  0  0  0
 33 34  1  0  0  0
 33 66  1  0  0  0
 33 70  2  0  0  0
 34 36  1  0  0  0
 34 59  1  0  0  0
 34104  1  0  0  0
 35 44  2  0  0  0
 35 45  1  0  0  0
 35 68  1  0  0  0
 36 56  1  0  0  0
 36105  1  0  0  0
 37 39  1  0  0  0
 37 47  1  0  0  0
 37 66  1  0  0  0
 37106  1  0  0  0
 38 43  2  0  0  0
 38 46  1  0  0  0
 38 47  1  0  0  0
 39 64  1  0  0  0
 39 67  2  0  0  0
 40 52  1  0  0  0
 40 53  2  0  0  0
 40 58  1  0  0  0
 41107  1  0  0  0
 41108  1  0  0  0
 41109  1  0  0  0
 41 48  1  0  0  0
 42 43  1  0  0  0
 42 66  1  0  0  0
 42110  1  0  0  0
 42111  1  0  0  0
 43 44  1  0  0  0
 44112  1  0  0  0
 45 46  2  0  0  0
 45113  1  0  0  0
 46114  1  0  0  0
 47115  1  0  0  0
 47116  1  0  0  0
 48 56  1  0  0  0
 48 65  1  0  0  0
 48117  1  0  0  0
 49 50  1  0  0  0
 49 53  1  0  0  0
 49 64  1  0  0  0
 49118  1  0  0  0
 50 51  1  0  0  0
 50119  1  0  0  0
 50120  1  0  0  0
 51 52  1  0  0  0
 51121  1  0  0  0
 51122  1  0  0  0
 52123  1  0  0  0
 52124  1  0  0  0
 53 54  1  0  0  0
 54 55  2  0  0  0
 54125  1  0  0  0
 55 57  1  0  0  0
 55126  1  0  0  0
 56 69  2  0  0  0
 57 58  2  0  0  0
 57127  1  0  0  0
 58128  1  0  0  0
 59 60  1  0  0  0
 59 61  1  0  0  0
 59 62  1  0  0  0
 60129  1  0  0  0
 60130  1  0  0  0
 60131  1  0  0  0
 61132  1  0  0  0
 61133  1  0  0  0
 61134  1  0  0  0
 62135  1  0  0  0
 62136  1  0  0  0
 62137  1  0  0  0
 63 65  1  0  0  0
 63138  1  0  0  0
 63139  1  0  0  0
 63140  1  0  0  0
 64141  1  0  0  0
 65142  1  0  0  0
 68 81  1  0  0  0
 71 72  2  0  0  0
 71 73  1  0  0  0
 71143  1  0  0  0
 72 74  1  0  0  0
 72144  1  0  0  0
 73 76  2  0  0  0
 73145  1  0  0  0
 74 75  2  0  0  0
 74 78  1  0  0  0
 75 76  1  0  0  0
 75 77  1  0  0  0
 76 82  1  0  0  0
 77 79  1  0  0  0
 77146  1  0  0  0
 77147  1  0  0  0
 78 83  1  0  0  0
 78148  1  0  0  0
 78149  1  0  0  0
 79 83  1  0  0  0
 79150  1  0  0  0
 79151  1  0  0  0
 80 81  1  0  0  0
 80152  1  0  0  0
 80153  1  0  0  0
 80 83  1  0  0  0
 81154  1  0  0  0
 81155  1  0  0  0
 82156  1  0  0  0
 83157  1  0  0  0
M  CHG  1  83   1
M  ISO  4   1 100  68 101  81 101  82 100
M  END
> <chiral flag>
0

> <version>
0

> <s_m_source_file>
/data/baiqing/PycharmProjects/Reinvent-master-3.2/result/LINK_invent/BTK/process_docking_weight1_custom_product_contain_oxygen_bond_distance_aromatic_linkinvent_7_9_3/rearranged_h_0028.sdf

> <i_m_source_file_index>
52

> <r_mmod_Potential_Energy-OPLS-2005>
364.792877197266

> <r_mmod_Stretch_Energy-OPLS-2005>
219.209594726562

> <r_mmod_Bend_Energy-OPLS-2005>
286.962860107422

> <r_mmod_Torsional_Energy-OPLS-2005>
276.113708496094

> <r_mmod_Improper_Torsional_Energy-OPLS-2005>
7.95033407211304

> <r_mmod_Van_der_Waal_Energy-OPLS-2005>
131.395858764648

> <r_mmod_Electrostatic_Energy-OPLS-2005>
-266.428649902344

> <r_mmod_Solvation_Energy-OPLS-2005>
-452.746215820312

> <b_mmod_Minimization_Converged-OPLS-2005>
0

> <r_mmod_RMS_Derivative-OPLS-2005>
1.07716679573059

$$$$
52
                    3D
 Structure written by MMmdl.
155164  0  0  1  0            999 V2000
  -30.2433  -15.8402   20.3173 C   0  0  0  0  0  0
  -30.4053  -13.2430   19.5308 C   0  0  0  0  0  0
  -29.5547  -12.7121   18.3377 C   0  0  0  0  0  0
  -28.1482  -12.3053   18.7972 C   0  0  0  0  0  0
  -27.5875  -13.3281   19.8090 C   0  0  2  0  0  0
  -28.5927  -13.7588   20.9085 C   0  0  0  0  0  0
  -25.2295  -13.8266   20.5885 C   0  0  0  0  0  0
  -24.1693  -13.0406   20.9306 C   0  0  0  0  0  0
  -24.6427  -11.6931   20.8761 C   0  0  0  0  0  0
  -23.9139  -10.4279   21.0388 C   0  0  0  0  0  0
  -24.3667   -9.4190   21.9177 C   0  0  0  0  0  0
  -23.6314   -8.2241   22.0752 C   0  0  0  0  0  0
  -22.4295   -8.0287   21.3545 C   0  0  0  0  0  0
  -21.9945   -9.0265   20.4646 C   0  0  0  0  0  0
  -22.7298  -10.2128   20.3047 C   0  0  0  0  0  0
  -21.6859   -6.0743   22.5279 C   0  0  0  0  0  0
  -21.4015   -6.5643   23.8213 C   0  0  0  0  0  0
  -21.3658   -5.6792   24.9176 C   0  0  0  0  0  0
  -21.6044   -4.3059   24.7222 C   0  0  0  0  0  0
  -21.8819   -3.8156   23.4340 C   0  0  0  0  0  0
  -21.9187   -4.6973   22.3396 C   0  0  0  0  0  0
  -22.7705  -13.5145   21.1925 C   0  0  0  0  0  0
  -22.1661   -4.2162   21.0978 F   0  0  0  0  0  0
  -21.5621   -3.4537   25.7732 F   0  0  0  0  0  0
  -29.7243  -14.4476   20.2237 N   0  0  0  0  0  0
  -26.2769  -12.9660   20.3295 N   0  0  0  0  0  0
  -25.9388  -11.6705   20.5686 N   0  0  0  0  0  0
  -22.0357  -12.8134   22.0472 N   0  0  0  0  0  0
  -25.3861  -15.1996   20.4439 N   0  0  0  0  0  0
  -31.4868  -15.7090   20.2462 O   0  0  0  0  0  0
  -21.6643   -6.8895   21.4247 O   0  0  0  0  0  0
  -22.3396  -14.5454   20.6757 O   0  0  0  0  0  0
  -24.6969  -31.7839   23.1389 C   0  0  0  0  0  0
  -25.9480  -32.4388   23.7995 C   0  0  1  0  0  0
  -27.2325  -26.5618   20.2272 C   0  0  0  0  0  0
  -25.5997  -33.8220   24.1863 N   0  0  0  0  0  0
  -23.5299  -30.3791   21.4966 C   0  0  2  0  0  0
  -24.9887  -28.6907   20.1211 C   0  0  0  0  0  0
  -22.7826  -29.4235   22.4669 C   0  0  0  0  0  0
  -18.0350  -28.1428   22.8444 C   0  0  0  0  0  0
  -24.1490  -36.7119   23.2657 C   0  0  0  0  0  0
  -26.1163  -30.4694   21.4245 C   0  0  0  0  0  0
  -26.1806  -29.0193   20.7770 C   0  0  0  0  0  0
  -27.2798  -27.9877   20.7934 C   0  0  0  0  0  0
  -26.0071  -26.4794   19.5084 C   0  0  0  0  0  0
  -24.9495  -27.4479   19.4621 C   0  0  0  0  0  0
  -23.7907  -29.6621   20.1386 C   0  0  0  0  0  0
  -25.4146  -36.2848   24.0269 C   0  0  1  0  0  0
  -20.5993  -28.3795   23.1112 C   0  0  2  0  0  0
  -20.6817  -26.9436   22.5409 C   0  0  0  0  0  0
  -19.5796  -26.6360   21.5222 C   0  0  0  0  0  0
  -18.1979  -26.7949   22.1619 C   0  0  0  0  0  0
  -19.1619  -28.8940   23.2752 C   0  0  0  0  0  0
  -18.9525  -30.1518   23.8805 C   0  0  0  0  0  0
  -17.6515  -30.6606   24.0553 C   0  0  0  0  0  0
  -25.9138  -34.9244   23.4914 C   0  0  0  0  0  0
  -16.5404  -29.9090   23.6353 C   0  0  0  0  0  0
  -16.7330  -28.6512   23.0368 C   0  0  0  0  0  0
  -26.4607  -31.6483   25.0678 C   0  0  0  0  0  0
  -25.3634  -31.3851   26.1267 C   0  0  0  0  0  0
  -27.0558  -30.2803   24.6681 C   0  0  0  0  0  0
  -27.6022  -32.4378   25.7509 C   0  0  0  0  0  0
  -27.5553  -37.1713   24.8465 C   0  0  0  0  0  0
  -21.4461  -29.3018   22.3416 N   0  0  0  0  0  0
  -26.4261  -37.3622   23.9407 N   0  0  0  0  0  0
  -24.8066  -30.9140   22.0723 N   0  0  0  0  0  0
  -23.4203  -28.7854   23.3075 O   0  0  0  0  0  0
  -28.1759  -25.2779   20.3030 O   0  0  0  0  0  0
  -26.5812  -34.8852   22.4552 O   0  0  0  0  0  0
  -23.5958  -32.0986   23.6247 O   0  0  0  0  0  0
  -31.2456  -20.9146   20.9490 C   0  0  0  0  0  0
  -30.2856  -21.9606   20.7266 C   0  0  0  0  0  0
  -31.0484  -19.5003   20.8187 C   0  0  0  0  0  0
  -28.7991  -20.1274   20.2066 C   0  0  0  0  0  0
  -28.9321  -21.7886   20.3309 C   0  0  0  0  0  0
  -29.8118  -18.9456   20.4321 C   0  0  0  0  0  0
  -27.7142  -19.1306   19.8105 C   0  0  0  0  0  0
  -26.5040  -19.4961   19.3187 C   0  0  0  0  0  0
  -28.0994  -17.5604   19.9787 C   0  0  0  0  0  0
  -26.0797  -20.9333   19.1082 C   0  0  0  0  0  0
  -25.4261  -18.5098   18.8956 C   0  0  0  0  0  0
  -27.9745  -23.4659   20.1531 C   0  0  0  0  0  0
  -29.5335  -17.2934   20.2881 N   0  0  0  0  0  0
  -31.3804  -13.5355   19.1398 H   0  0  0  0  0  0
  -30.6196  -12.4433   20.2421 H   0  0  0  0  0  0
  -30.0534  -11.8728   17.8512 H   0  0  0  0  0  0
  -29.4745  -13.4990   17.5862 H   0  0  0  0  0  0
  -28.2185  -11.3272   19.2747 H   0  0  0  0  0  0
  -27.4805  -12.1894   17.9430 H   0  0  0  0  0  0
  -27.4147  -14.2187   19.2024 H   0  0  0  0  0  0
  -28.9074  -12.9176   21.5277 H   0  0  0  0  0  0
  -28.1211  -14.4714   21.5865 H   0  0  0  0  0  0
  -25.2805   -9.5661   22.4765 H   0  0  0  0  0  0
  -23.9999   -7.4638   22.7487 H   0  0  0  0  0  0
  -21.0861   -8.8811   19.8964 H   0  0  0  0  0  0
  -22.3758  -10.9678   19.6162 H   0  0  0  0  0  0
  -21.2016   -7.6157   23.9724 H   0  0  0  0  0  0
  -21.1479   -6.0522   25.9077 H   0  0  0  0  0  0
  -22.0597   -2.7617   23.2833 H   0  0  0  0  0  0
  -22.3995  -11.9808   22.4879 H   0  0  0  0  0  0
  -21.0974  -13.1152   22.2682 H   0  0  0  0  0  0
  -24.6109  -15.8427   20.5596 H   0  0  0  0  0  0
  -26.2391  -15.6492   20.1446 H   0  0  0  0  0  0
  -26.7573  -32.4822   23.0712 H   0  0  0  0  0  0
  -25.0002  -33.9227   24.9924 H   0  0  0  0  0  0
  -22.8637  -31.2202   21.2940 H   0  0  0  0  0  0
  -23.3772  -35.9428   23.3263 H   0  0  0  0  0  0
  -24.3551  -36.8851   22.2085 H   0  0  0  0  0  0
  -23.7237  -37.6269   23.6788 H   0  0  0  0  0  0
  -26.3328  -31.1833   20.6292 H   0  0  0  0  0  0
  -26.9627  -30.5440   22.0948 H   0  0  0  0  0  0
  -28.1734  -28.2508   21.3418 H   0  0  0  0  0  0
  -25.8169  -25.5486   18.9930 H   0  0  0  0  0  0
  -24.0534  -27.1844   18.9167 H   0  0  0  0  0  0
  -23.9756  -30.4157   19.3730 H   0  0  0  0  0  0
  -22.8932  -29.1348   19.8122 H   0  0  0  0  0  0
  -25.1360  -36.1590   25.0759 H   0  0  0  0  0  0
  -21.0068  -28.3438   24.1243 H   0  0  0  0  0  0
  -20.5677  -26.2418   23.3685 H   0  0  0  0  0  0
  -21.6676  -26.7357   22.1233 H   0  0  0  0  0  0
  -19.6952  -25.6248   21.1310 H   0  0  0  0  0  0
  -19.6755  -27.3125   20.6720 H   0  0  0  0  0  0
  -17.4247  -26.6686   21.4024 H   0  0  0  0  0  0
  -18.0360  -26.0120   22.9043 H   0  0  0  0  0  0
  -19.8004  -30.7355   24.2135 H   0  0  0  0  0  0
  -17.5069  -31.6274   24.5180 H   0  0  0  0  0  0
  -15.5402  -30.2973   23.7723 H   0  0  0  0  0  0
  -15.8727  -28.0808   22.7136 H   0  0  0  0  0  0
  -24.5843  -30.7178   25.7563 H   0  0  0  0  0  0
  -24.8808  -32.3095   26.4447 H   0  0  0  0  0  0
  -25.7777  -30.9174   27.0207 H   0  0  0  0  0  0
  -26.3303  -29.6373   24.1690 H   0  0  0  0  0  0
  -27.3941  -29.7305   25.5474 H   0  0  0  0  0  0
  -27.9300  -30.3889   24.0260 H   0  0  0  0  0  0
  -27.2530  -33.3757   26.1835 H   0  0  0  0  0  0
  -28.3959  -32.6812   25.0437 H   0  0  0  0  0  0
  -28.0546  -31.8687   26.5637 H   0  0  0  0  0  0
  -28.2528  -38.0041   24.7499 H   0  0  0  0  0  0
  -28.1084  -36.2561   24.6304 H   0  0  0  0  0  0
  -27.2265  -37.1360   25.8865 H   0  0  0  0  0  0
  -20.9793  -29.8662   21.6453 H   0  0  0  0  0  0
  -26.0074  -38.2662   24.1429 H   0  0  0  0  0  0
  -32.2328  -21.2323   21.2545 H   0  0  0  0  0  0
  -30.6237  -22.9771   20.8746 H   0  0  0  0  0  0
  -31.8748  -18.8353   21.0273 H   0  0  0  0  0  0
  -27.8345  -17.0032   19.0801 H   0  0  0  0  0  0
  -27.5112  -17.1557   20.8027 H   0  0  0  0  0  0
  -26.0552  -21.4560   20.0628 H   0  0  0  0  0  0
  -25.0805  -21.0017   18.6767 H   0  0  0  0  0  0
  -26.7655  -21.4292   18.4227 H   0  0  0  0  0  0
  -24.5105  -18.6955   19.4567 H   0  0  0  0  0  0
  -25.2014  -18.6374   17.8362 H   0  0  0  0  0  0
  -25.6897  -17.4675   19.0454 H   0  0  0  0  0  0
  -27.1220  -23.3010   20.8107 H   0  0  0  0  0  0
  -27.5588  -23.3929   19.1497 H   0  0  0  0  0  0
  1 25  1  0  0  0
  1 30  2  0  0  0
  1 83  1  0  0  0
  2  3  1  0  0  0
  2 25  1  0  0  0
  2 84  1  0  0  0
  2 85  1  0  0  0
  3  4  1  0  0  0
  3 86  1  0  0  0
  3 87  1  0  0  0
  4  5  1  0  0  0
  4 88  1  0  0  0
  4 89  1  0  0  0
  5  6  1  0  0  0
  5 26  1  0  0  0
  5 90  1  0  0  0
  6 25  1  0  0  0
  6 91  1  0  0  0
  6 92  1  0  0  0
  7  8  2  0  0  0
  7 26  1  0  0  0
  7 29  1  0  0  0
  8  9  1  0  0  0
  8 22  1  0  0  0
  9 10  1  0  0  0
  9 27  2  0  0  0
 10 11  2  0  0  0
 10 15  1  0  0  0
 11 12  1  0  0  0
 11 93  1  0  0  0
 12 13  2  0  0  0
 12 94  1  0  0  0
 13 14  1  0  0  0
 13 31  1  0  0  0
 14 15  2  0  0  0
 14 95  1  0  0  0
 15 96  1  0  0  0
 16 17  2  0  0  0
 16 21  1  0  0  0
 16 31  1  0  0  0
 17 18  1  0  0  0
 17 97  1  0  0  0
 18 19  2  0  0  0
 18 98  1  0  0  0
 19 20  1  0  0  0
 19 24  1  0  0  0
 20 21  2  0  0  0
 20 99  1  0  0  0
 21 23  1  0  0  0
 22 28  1  0  0  0
 22 32  2  0  0  0
 26 27  1  0  0  0
 28100  1  0  0  0
 28101  1  0  0  0
 29102  1  0  0  0
 29103  1  0  0  0
 33 34  1  0  0  0
 33 66  1  0  0  0
 33 70  2  0  0  0
 34 36  1  0  0  0
 34 59  1  0  0  0
 34104  1  0  0  0
 35 44  2  0  0  0
 35 45  1  0  0  0
 35 68  1  0  0  0
 36 56  1  0  0  0
 36105  1  0  0  0
 37 39  1  0  0  0
 37 47  1  0  0  0
 37 66  1  0  0  0
 37106  1  0  0  0
 38 43  2  0  0  0
 38 46  1  0  0  0
 38 47  1  0  0  0
 39 64  1  0  0  0
 39 67  2  0  0  0
 40 52  1  0  0  0
 40 53  2  0  0  0
 40 58  1  0  0  0
 41107  1  0  0  0
 41108  1  0  0  0
 41109  1  0  0  0
 41 48  1  0  0  0
 42 43  1  0  0  0
 42 66  1  0  0  0
 42110  1  0  0  0
 42111  1  0  0  0
 43 44  1  0  0  0
 44112  1  0  0  0
 45 46  2  0  0  0
 45113  1  0  0  0
 46114  1  0  0  0
 47115  1  0  0  0
 47116  1  0  0  0
 48 56  1  0  0  0
 48 65  1  0  0  0
 48117  1  0  0  0
 49 50  1  0  0  0
 49 53  1  0  0  0
 49 64  1  0  0  0
 49118  1  0  0  0
 50 51  1  0  0  0
 50119  1  0  0  0
 50120  1  0  0  0
 51 52  1  0  0  0
 51121  1  0  0  0
 51122  1  0  0  0
 52123  1  0  0  0
 52124  1  0  0  0
 53 54  1  0  0  0
 54 55  2  0  0  0
 54125  1  0  0  0
 55 57  1  0  0  0
 55126  1  0  0  0
 56 69  2  0  0  0
 57 58  2  0  0  0
 57127  1  0  0  0
 58128  1  0  0  0
 59 60  1  0  0  0
 59 61  1  0  0  0
 59 62  1  0  0  0
 60129  1  0  0  0
 60130  1  0  0  0
 60131  1  0  0  0
 61132  1  0  0  0
 61133  1  0  0  0
 61134  1  0  0  0
 62135  1  0  0  0
 62136  1  0  0  0
 62137  1  0  0  0
 63 65  1  0  0  0
 63138  1  0  0  0
 63139  1  0  0  0
 63140  1  0  0  0
 64141  1  0  0  0
 65142  1  0  0  0
 68 82  1  0  0  0
 71 72  2  0  0  0
 71 73  1  0  0  0
 71143  1  0  0  0
 72 75  1  0  0  0
 72144  1  0  0  0
 73 76  2  0  0  0
 73145  1  0  0  0
 74 75  2  0  0  0
 74 76  1  0  0  0
 74 77  1  0  0  0
 75 82  1  0  0  0
 76 83  1  0  0  0
 77 78  2  0  0  0
 77 79  1  0  0  0
 78 80  1  0  0  0
 78 81  1  0  0  0
 79 83  1  0  0  0
 79146  1  0  0  0
 79147  1  0  0  0
 80148  1  0  0  0
 80149  1  0  0  0
 80150  1  0  0  0
 81151  1  0  0  0
 81152  1  0  0  0
 81153  1  0  0  0
 82154  1  0  0  0
 82155  1  0  0  0
M  ISO  4   1 100  68 101  82 101  83 100
M  END
> <chiral flag>
0

> <version>
0

> <s_m_source_file>
/data/baiqing/PycharmProjects/Reinvent-master-3.2/result/LINK_invent/BTK/process_docking_weight1_custom_product_contain_oxygen_bond_distance_aromatic_linkinvent_7_9_3/rearranged_h_0028.sdf

> <i_m_source_file_index>
53

> <r_mmod_Potential_Energy-OPLS-2005>
3227.296875

> <r_mmod_Stretch_Energy-OPLS-2005>
1271.85595703125

> <r_mmod_Bend_Energy-OPLS-2005>
796.318481445312

> <r_mmod_Torsional_Energy-OPLS-2005>
286.163604736328

> <r_mmod_Improper_Torsional_Energy-OPLS-2005>
4.67512655258179

> <r_mmod_Van_der_Waal_Energy-OPLS-2005>
122.435020446777

> <r_mmod_Electrostatic_Energy-OPLS-2005>
-291.606292724609

> <r_mmod_Solvation_Energy-OPLS-2005>
-190.800033569336

> <b_mmod_Minimization_Converged-OPLS-2005>
0

> <r_mmod_RMS_Derivative-OPLS-2005>
1.58752632141113

$$$$
53
                    3D
 Structure written by MMmdl.
159168  0  0  1  0            999 V2000
  -30.5712  -14.8382   20.4404 C   0  0  0  0  0  0
  -30.4073  -12.5252   19.4542 C   0  0  0  0  0  0
  -29.4846  -12.5395   18.2144 C   0  0  0  0  0  0
  -28.0102  -12.3609   18.6313 C   0  0  0  0  0  0
  -27.6143  -13.2569   19.8373 C   0  0  2  0  0  0
  -28.6654  -13.2209   20.9644 C   0  0  0  0  0  0
  -25.2317  -13.8264   20.5759 C   0  0  0  0  0  0
  -24.1662  -13.0403   20.9213 C   0  0  0  0  0  0
  -24.6320  -11.6919   20.8710 C   0  0  0  0  0  0
  -23.9021  -10.4273   21.0360 C   0  0  0  0  0  0
  -24.3598   -9.4222   21.9155 C   0  0  0  0  0  0
  -23.6283   -8.2248   22.0770 C   0  0  0  0  0  0
  -22.4283   -8.0253   21.3547 C   0  0  0  0  0  0
  -21.9883   -9.0208   20.4663 C   0  0  0  0  0  0
  -22.7185  -10.2085   20.3049 C   0  0  0  0  0  0
  -21.6855   -6.0727   22.5274 C   0  0  0  0  0  0
  -21.4022   -6.5630   23.8190 C   0  0  0  0  0  0
  -21.3660   -5.6795   24.9168 C   0  0  0  0  0  0
  -21.6033   -4.3056   24.7232 C   0  0  0  0  0  0
  -21.8807   -3.8158   23.4349 C   0  0  0  0  0  0
  -21.9173   -4.6970   22.3400 C   0  0  0  0  0  0
  -22.7672  -13.5134   21.1862 C   0  0  0  0  0  0
  -22.1642   -4.2150   21.0989 F   0  0  0  0  0  0
  -21.5614   -3.4529   25.7757 F   0  0  0  0  0  0
  -29.9474  -13.6031   20.3630 N   0  0  0  0  0  0
  -26.2770  -12.9503   20.3298 N   0  0  0  0  0  0
  -25.9257  -11.6587   20.5726 N   0  0  0  0  0  0
  -22.0414  -12.8095   22.0484 N   0  0  0  0  0  0
  -25.3771  -15.2013   20.4244 N   0  0  0  0  0  0
  -31.7797  -14.9073   20.1997 O   0  0  0  0  0  0
  -21.6653   -6.8853   21.4230 O   0  0  0  0  0  0
  -22.3287  -14.5392   20.6702 O   0  0  0  0  0  0
  -24.6396  -31.8487   23.1887 C   0  0  0  0  0  0
  -25.9194  -32.4729   23.8283 C   0  0  1  0  0  0
  -27.2295  -27.1980   20.1466 C   0  0  0  0  0  0
  -25.5980  -33.8541   24.2214 N   0  0  0  0  0  0
  -23.4397  -30.4653   21.5318 C   0  0  2  0  0  0
  -24.8916  -28.8876   20.1241 C   0  0  0  0  0  0
  -22.7525  -29.4594   22.4879 C   0  0  0  0  0  0
  -18.0310  -28.1379   22.8481 C   0  0  0  0  0  0
  -24.1507  -36.7257   23.2630 C   0  0  0  0  0  0
  -25.9909  -30.7419   21.3789 C   0  0  0  0  0  0
  -26.0659  -29.3544   20.7287 C   0  0  0  0  0  0
  -27.2387  -28.5233   20.7226 C   0  0  0  0  0  0
  -26.0310  -26.8057   19.5181 C   0  0  0  0  0  0
  -24.8808  -27.6236   19.5107 C   0  0  0  0  0  0
  -23.6657  -29.7851   20.1563 C   0  0  0  0  0  0
  -25.4142  -36.3044   24.0308 C   0  0  1  0  0  0
  -20.5920  -28.3722   23.1235 C   0  0  2  0  0  0
  -20.6795  -26.9428   22.5409 C   0  0  0  0  0  0
  -19.5782  -26.6379   21.5206 C   0  0  0  0  0  0
  -18.1950  -26.7924   22.1592 C   0  0  0  0  0  0
  -19.1565  -28.8865   23.2861 C   0  0  0  0  0  0
  -18.9477  -30.1447   23.8913 C   0  0  0  0  0  0
  -17.6479  -30.6586   24.0560 C   0  0  0  0  0  0
  -25.9086  -34.9428   23.5066 C   0  0  0  0  0  0
  -16.5369  -29.9085   23.6337 C   0  0  0  0  0  0
  -16.7293  -28.6488   23.0378 C   0  0  0  0  0  0
  -26.4519  -31.6570   25.0714 C   0  0  0  0  0  0
  -25.3682  -31.3778   26.1398 C   0  0  0  0  0  0
  -27.0331  -30.2941   24.6280 C   0  0  0  0  0  0
  -27.6087  -32.4277   25.7497 C   0  0  0  0  0  0
  -27.5598  -37.1794   24.8449 C   0  0  0  0  0  0
  -21.4220  -29.3063   22.3605 N   0  0  0  0  0  0
  -26.4308  -37.3749   23.9399 N   0  0  0  0  0  0
  -24.7090  -31.0400   22.0880 N   0  0  0  0  0  0
  -23.4205  -28.8171   23.3030 O   0  0  0  0  0  0
  -28.3219  -26.2870   20.1470 O   0  0  0  0  0  0
  -26.5644  -34.8910   22.4631 O   0  0  0  0  0  0
  -23.5531  -32.1329   23.7155 O   0  0  0  0  0  0
  -29.4232  -21.2474   18.5441 C   0  0  0  0  0  0
  -29.2543  -20.0751   20.6151 C   0  0  0  0  0  0
  -29.9288  -20.0698   17.9353 C   0  0  0  0  0  0
  -29.7650  -18.8092   20.0536 C   0  0  0  0  0  0
  -30.0975  -18.8584   18.6713 C   0  0  0  0  0  0
  -29.0557  -21.3544   19.9057 C   0  0  0  0  0  0
  -27.6940  -23.6181   19.6181 C   0  0  0  0  0  0
  -29.4068  -23.8573   20.6447 C   0  0  0  0  0  0
  -28.1535  -24.8154   20.5400 C   0  0  0  0  0  0
  -30.2996  -20.1579   16.4562 C   0  0  0  0  0  0
  -30.6537  -17.6125   17.9842 C   0  0  0  0  0  0
  -30.1323  -17.4789   20.9248 C   0  0  0  0  0  0
  -28.5259  -22.6710   20.4361 N   0  0  0  0  0  0
  -29.7928  -15.9949   20.5971 N   0  0  0  0  0  0
  -31.4454  -12.6603   19.1496 H   0  0  0  0  0  0
  -30.3591  -11.5591   19.9562 H   0  0  0  0  0  0
  -29.7719  -11.7562   17.5099 H   0  0  0  0  0  0
  -29.6005  -13.4854   17.6832 H   0  0  0  0  0  0
  -27.8552  -11.3095   18.8707 H   0  0  0  0  0  0
  -27.3575  -12.5672   17.7821 H   0  0  0  0  0  0
  -27.5856  -14.2765   19.4531 H   0  0  0  0  0  0
  -28.7201  -12.2278   21.4118 H   0  0  0  0  0  0
  -28.3937  -13.9063   21.7711 H   0  0  0  0  0  0
  -25.2773   -9.5723   22.4685 H   0  0  0  0  0  0
  -24.0006   -7.4648   22.7472 H   0  0  0  0  0  0
  -21.0827   -8.8624   19.8980 H   0  0  0  0  0  0
  -22.3577  -10.9545   19.6120 H   0  0  0  0  0  0
  -21.2022   -7.6137   23.9683 H   0  0  0  0  0  0
  -21.1498   -6.0565   25.9063 H   0  0  0  0  0  0
  -22.0600   -2.7624   23.2860 H   0  0  0  0  0  0
  -22.4172  -11.9795   22.4820 H   0  0  0  0  0  0
  -21.1019  -13.1015   22.2737 H   0  0  0  0  0  0
  -24.5730  -15.8175   20.5133 H   0  0  0  0  0  0
  -26.1931  -15.6797   20.0700 H   0  0  0  0  0  0
  -26.7283  -32.5337   23.1035 H   0  0  0  0  0  0
  -25.0192  -33.9677   25.0400 H   0  0  0  0  0  0
  -22.7412  -31.2902   21.3724 H   0  0  0  0  0  0
  -23.3792  -35.9568   23.3259 H   0  0  0  0  0  0
  -24.3604  -36.8924   22.2057 H   0  0  0  0  0  0
  -23.7248  -37.6436   23.6687 H   0  0  0  0  0  0
  -26.1413  -31.4997   20.6081 H   0  0  0  0  0  0
  -26.8604  -30.7919   22.0228 H   0  0  0  0  0  0
  -28.1373  -28.8794   21.2074 H   0  0  0  0  0  0
  -25.9789  -25.8419   19.0333 H   0  0  0  0  0  0
  -23.9830  -27.2590   19.0333 H   0  0  0  0  0  0
  -23.8010  -30.5514   19.3915 H   0  0  0  0  0  0
  -22.7827  -29.2219   19.8519 H   0  0  0  0  0  0
  -25.1339  -36.1869   25.0798 H   0  0  0  0  0  0
  -21.0021  -28.3314   24.1351 H   0  0  0  0  0  0
  -20.5671  -26.2344   23.3629 H   0  0  0  0  0  0
  -21.6658  -26.7430   22.1219 H   0  0  0  0  0  0
  -19.6943  -25.6279   21.1266 H   0  0  0  0  0  0
  -19.6731  -27.3163   20.6720 H   0  0  0  0  0  0
  -17.4232  -26.6721   21.3967 H   0  0  0  0  0  0
  -18.0319  -26.0045   22.8959 H   0  0  0  0  0  0
  -19.7955  -30.7247   24.2313 H   0  0  0  0  0  0
  -17.5034  -31.6277   24.5123 H   0  0  0  0  0  0
  -15.5369  -30.2998   23.7621 H   0  0  0  0  0  0
  -15.8688  -28.0782   22.7137 H   0  0  0  0  0  0
  -24.6001  -30.6941   25.7767 H   0  0  0  0  0  0
  -24.8702  -32.2946   26.4560 H   0  0  0  0  0  0
  -25.7984  -30.9220   27.0320 H   0  0  0  0  0  0
  -26.2923  -29.6712   24.1257 H   0  0  0  0  0  0
  -27.3871  -29.7228   25.4868 H   0  0  0  0  0  0
  -27.8871  -30.4150   23.9612 H   0  0  0  0  0  0
  -27.2751  -33.3634   26.1992 H   0  0  0  0  0  0
  -28.3957  -32.6714   25.0343 H   0  0  0  0  0  0
  -28.0658  -31.8409   26.5471 H   0  0  0  0  0  0
  -28.2578  -38.0121   24.7525 H   0  0  0  0  0  0
  -28.1128  -36.2658   24.6228 H   0  0  0  0  0  0
  -27.2323  -37.1389   25.8847 H   0  0  0  0  0  0
  -20.9413  -29.8775   21.6787 H   0  0  0  0  0  0
  -26.0167  -38.2813   24.1416 H   0  0  0  0  0  0
  -29.3132  -22.1196   17.9132 H   0  0  0  0  0  0
  -29.0111  -20.0745   21.6703 H   0  0  0  0  0  0
  -28.0207  -23.7475   18.5843 H   0  0  0  0  0  0
  -26.6224  -23.4143   19.6676 H   0  0  0  0  0  0
  -29.9022  -23.8857   21.6158 H   0  0  0  0  0  0
  -30.1208  -23.9946   19.8291 H   0  0  0  0  0  0
  -27.6072  -24.7863   21.4861 H   0  0  0  0  0  0
  -30.1282  -21.1514   16.0382 H   0  0  0  0  0  0
  -29.7045  -19.4567   15.8679 H   0  0  0  0  0  0
  -31.3578  -19.9411   16.3066 H   0  0  0  0  0  0
  -31.4686  -17.1600   18.5522 H   0  0  0  0  0  0
  -31.0613  -17.7993   16.9943 H   0  0  0  0  0  0
  -29.8640  -16.8711   17.8638 H   0  0  0  0  0  0
  -29.7254  -17.6464   21.9262 H   0  0  0  0  0  0
  -31.2143  -17.5103   21.0748 H   0  0  0  0  0  0
  -28.8087  -15.7955   20.6780 H   0  0  0  0  0  0
  1 25  1  0  0  0
  1 30  2  0  0  0
  1 84  1  0  0  0
  2  3  1  0  0  0
  2 25  1  0  0  0
  2 85  1  0  0  0
  2 86  1  0  0  0
  3  4  1  0  0  0
  3 87  1  0  0  0
  3 88  1  0  0  0
  4  5  1  0  0  0
  4 89  1  0  0  0
  4 90  1  0  0  0
  5  6  1  0  0  0
  5 26  1  0  0  0
  5 91  1  0  0  0
  6 25  1  0  0  0
  6 92  1  0  0  0
  6 93  1  0  0  0
  7  8  2  0  0  0
  7 26  1  0  0  0
  7 29  1  0  0  0
  8  9  1  0  0  0
  8 22  1  0  0  0
  9 10  1  0  0  0
  9 27  2  0  0  0
 10 11  2  0  0  0
 10 15  1  0  0  0
 11 12  1  0  0  0
 11 94  1  0  0  0
 12 13  2  0  0  0
 12 95  1  0  0  0
 13 14  1  0  0  0
 13 31  1  0  0  0
 14 15  2  0  0  0
 14 96  1  0  0  0
 15 97  1  0  0  0
 16 17  2  0  0  0
 16 21  1  0  0  0
 16 31  1  0  0  0
 17 18  1  0  0  0
 17 98  1  0  0  0
 18 19  2  0  0  0
 18 99  1  0  0  0
 19 20  1  0  0  0
 19 24  1  0  0  0
 20 21  2  0  0  0
 20100  1  0  0  0
 21 23  1  0  0  0
 22 28  1  0  0  0
 22 32  2  0  0  0
 26 27  1  0  0  0
 28101  1  0  0  0
 28102  1  0  0  0
 29103  1  0  0  0
 29104  1  0  0  0
 33 34  1  0  0  0
 33 66  1  0  0  0
 33 70  2  0  0  0
 34 36  1  0  0  0
 34 59  1  0  0  0
 34105  1  0  0  0
 35 44  2  0  0  0
 35 45  1  0  0  0
 35 68  1  0  0  0
 36 56  1  0  0  0
 36106  1  0  0  0
 37 39  1  0  0  0
 37 47  1  0  0  0
 37 66  1  0  0  0
 37107  1  0  0  0
 38 43  2  0  0  0
 38 46  1  0  0  0
 38 47  1  0  0  0
 39 64  1  0  0  0
 39 67  2  0  0  0
 40 52  1  0  0  0
 40 53  2  0  0  0
 40 58  1  0  0  0
 41108  1  0  0  0
 41109  1  0  0  0
 41110  1  0  0  0
 41 48  1  0  0  0
 42 43  1  0  0  0
 42 66  1  0  0  0
 42111  1  0  0  0
 42112  1  0  0  0
 43 44  1  0  0  0
 44113  1  0  0  0
 45 46  2  0  0  0
 45114  1  0  0  0
 46115  1  0  0  0
 47116  1  0  0  0
 47117  1  0  0  0
 48 56  1  0  0  0
 48 65  1  0  0  0
 48118  1  0  0  0
 49 50  1  0  0  0
 49 53  1  0  0  0
 49 64  1  0  0  0
 49119  1  0  0  0
 50 51  1  0  0  0
 50120  1  0  0  0
 50121  1  0  0  0
 51 52  1  0  0  0
 51122  1  0  0  0
 51123  1  0  0  0
 52124  1  0  0  0
 52125  1  0  0  0
 53 54  1  0  0  0
 54 55  2  0  0  0
 54126  1  0  0  0
 55 57  1  0  0  0
 55127  1  0  0  0
 56 69  2  0  0  0
 57 58  2  0  0  0
 57128  1  0  0  0
 58129  1  0  0  0
 59 60  1  0  0  0
 59 61  1  0  0  0
 59 62  1  0  0  0
 60130  1  0  0  0
 60131  1  0  0  0
 60132  1  0  0  0
 61133  1  0  0  0
 61134  1  0  0  0
 61135  1  0  0  0
 62136  1  0  0  0
 62137  1  0  0  0
 62138  1  0  0  0
 63 65  1  0  0  0
 63139  1  0  0  0
 63140  1  0  0  0
 63141  1  0  0  0
 64142  1  0  0  0
 65143  1  0  0  0
 68 79  1  0  0  0
 71 73  2  0  0  0
 71 76  1  0  0  0
 71144  1  0  0  0
 72 74  1  0  0  0
 72 76  2  0  0  0
 72145  1  0  0  0
 73 75  1  0  0  0
 73 80  1  0  0  0
 74 75  2  0  0  0
 74 82  1  0  0  0
 75 81  1  0  0  0
 76 83  1  0  0  0
 77 79  1  0  0  0
 77 83  1  0  0  0
 77146  1  0  0  0
 77147  1  0  0  0
 78 79  1  0  0  0
 78 83  1  0  0  0
 78148  1  0  0  0
 78149  1  0  0  0
 79150  1  0  0  0
 80151  1  0  0  0
 80152  1  0  0  0
 80153  1  0  0  0
 81154  1  0  0  0
 81155  1  0  0  0
 81156  1  0  0  0
 82 84  1  0  0  0
 82157  1  0  0  0
 82158  1  0  0  0
 84159  1  0  0  0
M  ISO  4   1 100  68 101  79 101  84 100
M  END
> <chiral flag>
0

> <version>
0

> <s_m_source_file>
/data/baiqing/PycharmProjects/Reinvent-master-3.2/result/LINK_invent/BTK/process_docking_weight1_custom_product_contain_oxygen_bond_distance_aromatic_linkinvent_7_9_3/rearranged_h_0028.sdf

> <i_m_source_file_index>
54

> <r_mmod_Potential_Energy-OPLS-2005>
308.2822265625

> <r_mmod_Stretch_Energy-OPLS-2005>
174.304046630859

> <r_mmod_Bend_Energy-OPLS-2005>
253.906555175781

> <r_mmod_Torsional_Energy-OPLS-2005>
251.937515258789

> <r_mmod_Improper_Torsional_Energy-OPLS-2005>
12.9083461761475

> <r_mmod_Van_der_Waal_Energy-OPLS-2005>
134.985153198242

> <r_mmod_Electrostatic_Energy-OPLS-2005>
-417.218872070312

> <r_mmod_Solvation_Energy-OPLS-2005>
-232.280044555664

> <b_mmod_Minimization_Converged-OPLS-2005>
0

> <r_mmod_RMS_Derivative-OPLS-2005>
5.7445764541626

$$$$
54
                    3D
 Structure written by MMmdl.
158167  0  0  1  0            999 V2000
  -30.5005  -14.9426   20.4315 C   0  0  0  0  0  0
  -30.4534  -12.5821   19.4960 C   0  0  0  0  0  0
  -29.5278  -12.5257   18.2564 C   0  0  0  0  0  0
  -28.0607  -12.3069   18.6752 C   0  0  0  0  0  0
  -27.6338  -13.2365   19.8403 C   0  0  2  0  0  0
  -28.6755  -13.2379   20.9798 C   0  0  0  0  0  0
  -25.2487  -13.8186   20.5698 C   0  0  0  0  0  0
  -24.1790  -13.0436   20.9237 C   0  0  0  0  0  0
  -24.6387  -11.6915   20.8760 C   0  0  0  0  0  0
  -23.9071  -10.4294   21.0419 C   0  0  0  0  0  0
  -24.3626   -9.4204   21.9187 C   0  0  0  0  0  0
  -23.6289   -8.2245   22.0760 C   0  0  0  0  0  0
  -22.4264   -8.0298   21.3557 C   0  0  0  0  0  0
  -21.9902   -9.0273   20.4660 C   0  0  0  0  0  0
  -22.7244  -10.2142   20.3066 C   0  0  0  0  0  0
  -21.6856   -6.0739   22.5282 C   0  0  0  0  0  0
  -21.4017   -6.5640   23.8216 C   0  0  0  0  0  0
  -21.3655   -5.6792   24.9176 C   0  0  0  0  0  0
  -21.6044   -4.3057   24.7225 C   0  0  0  0  0  0
  -21.8819   -3.8147   23.4345 C   0  0  0  0  0  0
  -21.9187   -4.6963   22.3399 C   0  0  0  0  0  0
  -22.7811  -13.5226   21.1886 C   0  0  0  0  0  0
  -22.1659   -4.2152   21.0975 F   0  0  0  0  0  0
  -21.5616   -3.4540   25.7734 F   0  0  0  0  0  0
  -29.9553  -13.6612   20.3930 N   0  0  0  0  0  0
  -26.2894  -12.9391   20.3217 N   0  0  0  0  0  0
  -25.9311  -11.6540   20.5725 N   0  0  0  0  0  0
  -22.0450  -12.8235   22.0449 N   0  0  0  0  0  0
  -25.4152  -15.1911   20.4097 N   0  0  0  0  0  0
  -31.6978  -15.0706   20.1502 O   0  0  0  0  0  0
  -21.6639   -6.8890   21.4247 O   0  0  0  0  0  0
  -22.3503  -14.5523   20.6717 O   0  0  0  0  0  0
  -24.6433  -31.8433   23.1879 C   0  0  0  0  0  0
  -25.9195  -32.4690   23.8279 C   0  0  1  0  0  0
  -27.2181  -27.1372   20.1694 C   0  0  0  0  0  0
  -25.5937  -33.8498   24.2187 N   0  0  0  0  0  0
  -23.4477  -30.4617   21.5327 C   0  0  2  0  0  0
  -24.8983  -28.8845   20.1165 C   0  0  0  0  0  0
  -22.7568  -29.4538   22.4857 C   0  0  0  0  0  0
  -18.0308  -28.1401   22.8474 C   0  0  0  0  0  0
  -24.1483  -36.7263   23.2641 C   0  0  0  0  0  0
  -26.0035  -30.7181   21.3873 C   0  0  0  0  0  0
  -26.0756  -29.3271   20.7348 C   0  0  0  0  0  0
  -27.2395  -28.4705   20.7420 C   0  0  0  0  0  0
  -26.0185  -26.7930   19.5113 C   0  0  0  0  0  0
  -24.8812  -27.6294   19.4886 C   0  0  0  0  0  0
  -23.6757  -29.7880   20.1533 C   0  0  0  0  0  0
  -25.4110  -36.3028   24.0316 C   0  0  1  0  0  0
  -20.5921  -28.3721   23.1230 C   0  0  2  0  0  0
  -20.6792  -26.9423   22.5400 C   0  0  0  0  0  0
  -19.5765  -26.6383   21.5208 C   0  0  0  0  0  0
  -18.1946  -26.7938   22.1623 C   0  0  0  0  0  0
  -19.1568  -28.8881   23.2847 C   0  0  0  0  0  0
  -18.9481  -30.1470   23.8885 C   0  0  0  0  0  0
  -17.6477  -30.6591   24.0568 C   0  0  0  0  0  0
  -25.9063  -34.9404   23.5065 C   0  0  0  0  0  0
  -16.5368  -29.9086   23.6337 C   0  0  0  0  0  0
  -16.7292  -28.6507   23.0353 C   0  0  0  0  0  0
  -26.4506  -31.6566   25.0727 C   0  0  0  0  0  0
  -25.3687  -31.3794   26.1433 C   0  0  0  0  0  0
  -27.0356  -30.2951   24.6317 C   0  0  0  0  0  0
  -27.6049  -32.4329   25.7495 C   0  0  0  0  0  0
  -27.5571  -37.1777   24.8453 C   0  0  0  0  0  0
  -21.4265  -29.3039   22.3598 N   0  0  0  0  0  0
  -26.4272  -37.3740   23.9408 N   0  0  0  0  0  0
  -24.7178  -31.0292   22.0910 N   0  0  0  0  0  0
  -23.4204  -28.8091   23.3020 O   0  0  0  0  0  0
  -28.2676  -26.1503   20.1876 O   0  0  0  0  0  0
  -26.5666  -34.8901   22.4649 O   0  0  0  0  0  0
  -23.5547  -32.1312   23.7089 O   0  0  0  0  0  0
  -30.4132  -19.9876   20.6805 C   0  0  0  0  0  0
  -30.6254  -18.5400   20.6381 C   0  0  0  0  0  0
  -28.3038  -18.2485   20.4111 C   0  0  0  0  0  0
  -28.0824  -19.6878   20.4364 C   0  0  0  0  0  0
  -29.1361  -20.6570   20.5782 C   0  0  0  0  0  0
  -29.5689  -17.5734   20.5216 C   0  0  0  0  0  0
  -28.6423  -23.3115   20.1377 C   0  0  0  0  0  0
  -28.0649  -23.4489   22.9526 C   0  0  0  0  0  0
  -28.2797  -24.8031   22.2647 C   0  0  0  0  0  0
  -29.0055  -22.3717   22.3798 C   0  0  0  0  0  0
  -28.0060  -24.7245   20.7575 C   0  0  1  0  0  0
  -26.6447  -20.1888   20.4037 C   0  0  0  0  0  0
  -28.8858  -22.1406   20.9288 N   0  0  0  0  0  0
  -29.6100  -16.0380   20.5884 N   0  0  0  0  0  0
  -28.8349  -23.2733   18.9191 O   0  0  0  0  0  0
  -26.2075  -20.3789   21.6486 F   0  0  0  0  0  0
  -25.8289  -19.3422   19.7754 F   0  0  0  0  0  0
  -31.4847  -12.7594   19.1872 H   0  0  0  0  0  0
  -30.4588  -11.6249   20.0183 H   0  0  0  0  0  0
  -29.8459  -11.7286   17.5828 H   0  0  0  0  0  0
  -29.6149  -13.4556   17.6932 H   0  0  0  0  0  0
  -27.9604  -11.2652   18.9835 H   0  0  0  0  0  0
  -27.3978  -12.4375   17.8194 H   0  0  0  0  0  0
  -27.6027  -14.2400   19.4169 H   0  0  0  0  0  0
  -28.7588  -12.2490   21.4324 H   0  0  0  0  0  0
  -28.3717  -13.9146   21.7797 H   0  0  0  0  0  0
  -25.2770   -9.5664   22.4760 H   0  0  0  0  0  0
  -23.9997   -7.4626   22.7469 H   0  0  0  0  0  0
  -21.0829   -8.8797   19.8963 H   0  0  0  0  0  0
  -22.3709  -10.9684   19.6176 H   0  0  0  0  0  0
  -21.2027   -7.6151   23.9721 H   0  0  0  0  0  0
  -21.1468   -6.0521   25.9078 H   0  0  0  0  0  0
  -22.0597   -2.7608   23.2847 H   0  0  0  0  0  0
  -22.4065  -11.9912   22.4860 H   0  0  0  0  0  0
  -21.1068  -13.1266   22.2648 H   0  0  0  0  0  0
  -24.6380  -15.8337   20.5157 H   0  0  0  0  0  0
  -26.2270  -15.6219   19.9887 H   0  0  0  0  0  0
  -26.7269  -32.5302   23.1022 H   0  0  0  0  0  0
  -25.0020  -33.9607   25.0289 H   0  0  0  0  0  0
  -22.7503  -31.2871   21.3754 H   0  0  0  0  0  0
  -23.3740  -35.9598   23.3284 H   0  0  0  0  0  0
  -24.3575  -36.8917   22.2060 H   0  0  0  0  0  0
  -23.7244  -37.6454   23.6699 H   0  0  0  0  0  0
  -26.1557  -31.4674   20.6096 H   0  0  0  0  0  0
  -26.8749  -30.7725   22.0287 H   0  0  0  0  0  0
  -28.1392  -28.8041   21.2406 H   0  0  0  0  0  0
  -25.9445  -25.8324   19.0215 H   0  0  0  0  0  0
  -23.9845  -27.2849   18.9918 H   0  0  0  0  0  0
  -23.8166  -30.5595   19.3951 H   0  0  0  0  0  0
  -22.7910  -29.2298   19.8418 H   0  0  0  0  0  0
  -25.1295  -36.1856   25.0809 H   0  0  0  0  0  0
  -21.0019  -28.3316   24.1350 H   0  0  0  0  0  0
  -20.5666  -26.2340   23.3620 H   0  0  0  0  0  0
  -21.6662  -26.7406   22.1215 H   0  0  0  0  0  0
  -19.6918  -25.6286   21.1256 H   0  0  0  0  0  0
  -19.6699  -27.3181   20.6728 H   0  0  0  0  0  0
  -17.4207  -26.6670   21.4035 H   0  0  0  0  0  0
  -18.0346  -26.0087   22.9028 H   0  0  0  0  0  0
  -19.7956  -30.7290   24.2252 H   0  0  0  0  0  0
  -17.5027  -31.6269   24.5171 H   0  0  0  0  0  0
  -15.5368  -30.2980   23.7664 H   0  0  0  0  0  0
  -15.8695  -28.0814   22.7079 H   0  0  0  0  0  0
  -24.5826  -30.7186   25.7758 H   0  0  0  0  0  0
  -24.8932  -32.3005   26.4820 H   0  0  0  0  0  0
  -25.7954  -30.8976   27.0240 H   0  0  0  0  0  0
  -26.2973  -29.6689   24.1300 H   0  0  0  0  0  0
  -27.3922  -29.7245   25.4901 H   0  0  0  0  0  0
  -27.8904  -30.4171   23.9664 H   0  0  0  0  0  0
  -27.2640  -33.3622   26.2073 H   0  0  0  0  0  0
  -28.3850  -32.6906   25.0319 H   0  0  0  0  0  0
  -28.0737  -31.8469   26.5412 H   0  0  0  0  0  0
  -28.2576  -38.0083   24.7507 H   0  0  0  0  0  0
  -28.1083  -36.2622   24.6262 H   0  0  0  0  0  0
  -27.2313  -37.1405   25.8862 H   0  0  0  0  0  0
  -20.9479  -29.8742   21.6768 H   0  0  0  0  0  0
  -26.0144  -38.2804   24.1427 H   0  0  0  0  0  0
  -31.2846  -20.6041   20.8516 H   0  0  0  0  0  0
  -31.6356  -18.1739   20.7523 H   0  0  0  0  0  0
  -27.4263  -17.6223   20.3382 H   0  0  0  0  0  0
  -27.0261  -23.1335   22.8432 H   0  0  0  0  0  0
  -28.2362  -23.5519   24.0249 H   0  0  0  0  0  0
  -29.2986  -25.1514   22.4376 H   0  0  0  0  0  0
  -27.6235  -25.5478   22.7168 H   0  0  0  0  0  0
  -28.8241  -21.4375   22.9146 H   0  0  0  0  0  0
  -30.0409  -22.6384   22.5952 H   0  0  0  0  0  0
  -26.9342  -24.5524   20.6602 H   0  0  0  0  0  0
  -26.5632  -21.1382   19.8741 H   0  0  0  0  0  0
  -28.6888  -15.6570   20.7338 H   0  0  0  0  0  0
  1 25  1  0  0  0
  1 30  2  0  0  0
  1 84  1  0  0  0
  2  3  1  0  0  0
  2 25  1  0  0  0
  2 88  1  0  0  0
  2 89  1  0  0  0
  3  4  1  0  0  0
  3 90  1  0  0  0
  3 91  1  0  0  0
  4  5  1  0  0  0
  4 92  1  0  0  0
  4 93  1  0  0  0
  5  6  1  0  0  0
  5 26  1  0  0  0
  5 94  1  0  0  0
  6 25  1  0  0  0
  6 95  1  0  0  0
  6 96  1  0  0  0
  7  8  2  0  0  0
  7 26  1  0  0  0
  7 29  1  0  0  0
  8  9  1  0  0  0
  8 22  1  0  0  0
  9 10  1  0  0  0
  9 27  2  0  0  0
 10 11  2  0  0  0
 10 15  1  0  0  0
 11 12  1  0  0  0
 11 97  1  0  0  0
 12 13  2  0  0  0
 12 98  1  0  0  0
 13 14  1  0  0  0
 13 31  1  0  0  0
 14 15  2  0  0  0
 14 99  1  0  0  0
 15100  1  0  0  0
 16 17  2  0  0  0
 16 21  1  0  0  0
 16 31  1  0  0  0
 17 18  1  0  0  0
 17101  1  0  0  0
 18 19  2  0  0  0
 18102  1  0  0  0
 19 20  1  0  0  0
 19 24  1  0  0  0
 20 21  2  0  0  0
 20103  1  0  0  0
 21 23  1  0  0  0
 22 28  1  0  0  0
 22 32  2  0  0  0
 26 27  1  0  0  0
 28104  1  0  0  0
 28105  1  0  0  0
 29106  1  0  0  0
 29107  1  0  0  0
 33 34  1  0  0  0
 33 66  1  0  0  0
 33 70  2  0  0  0
 34 36  1  0  0  0
 34 59  1  0  0  0
 34108  1  0  0  0
 35 44  2  0  0  0
 35 45  1  0  0  0
 35 68  1  0  0  0
 36 56  1  0  0  0
 36109  1  0  0  0
 37 39  1  0  0  0
 37 47  1  0  0  0
 37 66  1  0  0  0
 37110  1  0  0  0
 38 43  2  0  0  0
 38 46  1  0  0  0
 38 47  1  0  0  0
 39 64  1  0  0  0
 39 67  2  0  0  0
 40 52  1  0  0  0
 40 53  2  0  0  0
 40 58  1  0  0  0
 41111  1  0  0  0
 41112  1  0  0  0
 41113  1  0  0  0
 41 48  1  0  0  0
 42 43  1  0  0  0
 42 66  1  0  0  0
 42114  1  0  0  0
 42115  1  0  0  0
 43 44  1  0  0  0
 44116  1  0  0  0
 45 46  2  0  0  0
 45117  1  0  0  0
 46118  1  0  0  0
 47119  1  0  0  0
 47120  1  0  0  0
 48 56  1  0  0  0
 48 65  1  0  0  0
 48121  1  0  0  0
 49 50  1  0  0  0
 49 53  1  0  0  0
 49 64  1  0  0  0
 49122  1  0  0  0
 50 51  1  0  0  0
 50123  1  0  0  0
 50124  1  0  0  0
 51 52  1  0  0  0
 51125  1  0  0  0
 51126  1  0  0  0
 52127  1  0  0  0
 52128  1  0  0  0
 53 54  1  0  0  0
 54 55  2  0  0  0
 54129  1  0  0  0
 55 57  1  0  0  0
 55130  1  0  0  0
 56 69  2  0  0  0
 57 58  2  0  0  0
 57131  1  0  0  0
 58132  1  0  0  0
 59 60  1  0  0  0
 59 61  1  0  0  0
 59 62  1  0  0  0
 60133  1  0  0  0
 60134  1  0  0  0
 60135  1  0  0  0
 61136  1  0  0  0
 61137  1  0  0  0
 61138  1  0  0  0
 62139  1  0  0  0
 62140  1  0  0  0
 62141  1  0  0  0
 63 65  1  0  0  0
 63142  1  0  0  0
 63143  1  0  0  0
 63144  1  0  0  0
 64145  1  0  0  0
 65146  1  0  0  0
 68 81  1  0  0  0
 71 72  2  0  0  0
 71 75  1  0  0  0
 71147  1  0  0  0
 72 76  1  0  0  0
 72148  1  0  0  0
 73 74  1  0  0  0
 73 76  2  0  0  0
 73149  1  0  0  0
 74 75  2  0  0  0
 74 82  1  0  0  0
 75 83  1  0  0  0
 76 84  1  0  0  0
 77 81  1  0  0  0
 77 83  1  0  0  0
 77 85  2  0  0  0
 78 79  1  0  0  0
 78 80  1  0  0  0
 78150  1  0  0  0
 78151  1  0  0  0
 79 81  1  0  0  0
 79152  1  0  0  0
 79153  1  0  0  0
 80 83  1  0  0  0
 80154  1  0  0  0
 80155  1  0  0  0
 81156  1  0  0  0
 82 86  1  0  0  0
 82 87  1  0  0  0
 82157  1  0  0  0
 84158  1  0  0  0
M  ISO  4   1 100  68 101  81 101  84 100
M  END
> <chiral flag>
0

> <version>
0

> <s_m_source_file>
/data/baiqing/PycharmProjects/Reinvent-master-3.2/result/LINK_invent/BTK/process_docking_weight1_custom_product_contain_oxygen_bond_distance_aromatic_linkinvent_7_9_3/rearranged_h_0028.sdf

> <i_m_source_file_index>
55

> <r_mmod_Potential_Energy-OPLS-2005>
614.780700683594

> <r_mmod_Stretch_Energy-OPLS-2005>
237.504089355469

> <r_mmod_Bend_Energy-OPLS-2005>
259.228363037109

> <r_mmod_Torsional_Energy-OPLS-2005>
313.918670654297

> <r_mmod_Improper_Torsional_Energy-OPLS-2005>
8.52433967590332

> <r_mmod_Van_der_Waal_Energy-OPLS-2005>
128.156066894531

> <r_mmod_Electrostatic_Energy-OPLS-2005>
-301.137420654297

> <r_mmod_Solvation_Energy-OPLS-2005>
-223.630096435547

> <b_mmod_Minimization_Converged-OPLS-2005>
0

> <r_mmod_RMS_Derivative-OPLS-2005>
1.71871626377106

$$$$
55
                    3D
 Structure written by MMmdl.
148156  0  0  1  0            999 V2000
  -30.5046  -14.8908   20.4495 C   0  0  0  0  0  0
  -30.4588  -12.5522   19.4876 C   0  0  0  0  0  0
  -29.5230  -12.5185   18.2543 C   0  0  0  0  0  0
  -28.0556  -12.3055   18.6752 C   0  0  0  0  0  0
  -27.6403  -13.2274   19.8513 C   0  0  2  0  0  0
  -28.6835  -13.1872   20.9889 C   0  0  0  0  0  0
  -25.2515  -13.8169   20.5701 C   0  0  0  0  0  0
  -24.1802  -13.0433   20.9234 C   0  0  0  0  0  0
  -24.6380  -11.6910   20.8768 C   0  0  0  0  0  0
  -23.9053  -10.4294   21.0422 C   0  0  0  0  0  0
  -24.3609   -9.4207   21.9198 C   0  0  0  0  0  0
  -23.6290   -8.2237   22.0755 C   0  0  0  0  0  0
  -22.4273   -8.0279   21.3540 C   0  0  0  0  0  0
  -21.9903   -9.0256   20.4643 C   0  0  0  0  0  0
  -22.7230  -10.2139   20.3064 C   0  0  0  0  0  0
  -21.6844   -6.0743   22.5282 C   0  0  0  0  0  0
  -21.4001   -6.5646   23.8219 C   0  0  0  0  0  0
  -21.3657   -5.6792   24.9178 C   0  0  0  0  0  0
  -21.6040   -4.3056   24.7220 C   0  0  0  0  0  0
  -21.8821   -3.8150   23.4341 C   0  0  0  0  0  0
  -21.9194   -4.6970   22.3402 C   0  0  0  0  0  0
  -22.7823  -13.5229   21.1885 C   0  0  0  0  0  0
  -22.1661   -4.2160   21.0977 F   0  0  0  0  0  0
  -21.5636   -3.4538   25.7731 F   0  0  0  0  0  0
  -29.9683  -13.6091   20.4117 N   0  0  0  0  0  0
  -26.2926  -12.9361   20.3272 N   0  0  0  0  0  0
  -25.9308  -11.6515   20.5760 N   0  0  0  0  0  0
  -22.0444  -12.8236   22.0431 N   0  0  0  0  0  0
  -25.4226  -15.1891   20.4088 N   0  0  0  0  0  0
  -31.6851  -15.0476   20.1184 O   0  0  0  0  0  0
  -21.6634   -6.8881   21.4240 O   0  0  0  0  0  0
  -22.3527  -14.5547   20.6732 O   0  0  0  0  0  0
  -24.6420  -31.8448   23.1910 C   0  0  0  0  0  0
  -25.9206  -32.4697   23.8282 C   0  0  1  0  0  0
  -27.2156  -27.1578   20.1318 C   0  0  0  0  0  0
  -25.5972  -33.8505   24.2199 N   0  0  0  0  0  0
  -23.4450  -30.4675   21.5337 C   0  0  2  0  0  0
  -24.8939  -28.9042   20.1039 C   0  0  0  0  0  0
  -22.7562  -29.4557   22.4836 C   0  0  0  0  0  0
  -18.0313  -28.1414   22.8485 C   0  0  0  0  0  0
  -24.1487  -36.7216   23.2649 C   0  0  0  0  0  0
  -26.0002  -30.7219   21.3909 C   0  0  0  0  0  0
  -26.0692  -29.3373   20.7299 C   0  0  0  0  0  0
  -27.2293  -28.4773   20.7355 C   0  0  0  0  0  0
  -26.0171  -26.8339   19.4525 C   0  0  0  0  0  0
  -24.8793  -27.6656   19.4508 C   0  0  0  0  0  0
  -23.6699  -29.8013   20.1513 C   0  0  0  0  0  0
  -25.4125  -36.3018   24.0322 C   0  0  1  0  0  0
  -20.5925  -28.3724   23.1225 C   0  0  2  0  0  0
  -20.6793  -26.9428   22.5389 C   0  0  0  0  0  0
  -19.5769  -26.6397   21.5199 C   0  0  0  0  0  0
  -18.1952  -26.7958   22.1610 C   0  0  0  0  0  0
  -19.1573  -28.8887   23.2852 C   0  0  0  0  0  0
  -18.9491  -30.1479   23.8880 C   0  0  0  0  0  0
  -17.6490  -30.6608   24.0573 C   0  0  0  0  0  0
  -25.9077  -34.9402   23.5058 C   0  0  0  0  0  0
  -16.5375  -29.9099   23.6356 C   0  0  0  0  0  0
  -16.7297  -28.6518   23.0372 C   0  0  0  0  0  0
  -26.4556  -31.6570   25.0713 C   0  0  0  0  0  0
  -25.3755  -31.3745   26.1413 C   0  0  0  0  0  0
  -27.0415  -30.2976   24.6263 C   0  0  0  0  0  0
  -27.6120  -32.4312   25.7470 C   0  0  0  0  0  0
  -27.5560  -37.1765   24.8484 C   0  0  0  0  0  0
  -21.4260  -29.3048   22.3582 N   0  0  0  0  0  0
  -26.4280  -37.3734   23.9419 N   0  0  0  0  0  0
  -24.7151  -31.0329   22.0935 N   0  0  0  0  0  0
  -23.4220  -28.8104   23.2973 O   0  0  0  0  0  0
  -28.2616  -26.1681   20.2130 O   0  0  0  0  0  0
  -26.5641  -34.8897   22.4624 O   0  0  0  0  0  0
  -23.5535  -32.1317   23.7132 O   0  0  0  0  0  0
  -30.4654  -18.4630   20.1530 C   0  0  0  0  0  0
  -28.2758  -18.1029   20.9306 C   0  0  0  0  0  0
  -28.9108  -20.5119   20.3612 C   0  0  0  0  0  0
  -29.5130  -17.4753   20.5871 C   0  0  0  0  0  0
  -30.1854  -19.9001   20.0545 C   0  0  0  0  0  0
  -27.9876  -19.5134   20.8314 C   0  0  0  0  0  0
  -28.4100  -22.0305   20.1938 C   0  0  0  0  0  0
  -28.8591  -23.3701   20.1994 C   0  0  0  0  0  0
  -27.9605  -24.6953   19.8538 C   0  0  0  0  0  0
  -29.6198  -15.9554   20.7206 N   0  0  0  0  0  0
  -31.4559  -20.9157   19.4730 Cl  0  0  0  0  0  0
  -26.3946  -19.9930   21.3134 Cl  0  0  0  0  0  0
  -31.4845  -12.7434   19.1676 H   0  0  0  0  0  0
  -30.4810  -11.5833   19.9894 H   0  0  0  0  0  0
  -29.8335  -11.7286   17.5687 H   0  0  0  0  0  0
  -29.6100  -13.4551   17.7020 H   0  0  0  0  0  0
  -27.9524  -11.2625   18.9784 H   0  0  0  0  0  0
  -27.3872  -12.4401   17.8245 H   0  0  0  0  0  0
  -27.6241  -14.2401   19.4483 H   0  0  0  0  0  0
  -28.7583  -12.1816   21.4073 H   0  0  0  0  0  0
  -28.3872  -13.8365   21.8144 H   0  0  0  0  0  0
  -25.2748   -9.5693   22.4784 H   0  0  0  0  0  0
  -24.0004   -7.4618   22.7464 H   0  0  0  0  0  0
  -21.0843   -8.8766   19.8941 H   0  0  0  0  0  0
  -22.3681  -10.9682   19.6181 H   0  0  0  0  0  0
  -21.1975   -7.6154   23.9724 H   0  0  0  0  0  0
  -21.1476   -6.0521   25.9084 H   0  0  0  0  0  0
  -22.0600   -2.7611   23.2831 H   0  0  0  0  0  0
  -22.4038  -11.9875   22.4810 H   0  0  0  0  0  0
  -21.1071  -13.1281   22.2627 H   0  0  0  0  0  0
  -24.6446  -15.8333   20.4980 H   0  0  0  0  0  0
  -26.2449  -15.6153   20.0027 H   0  0  0  0  0  0
  -26.7262  -32.5292   23.0994 H   0  0  0  0  0  0
  -25.0163  -33.9635   25.0376 H   0  0  0  0  0  0
  -22.7486  -31.2941   21.3814 H   0  0  0  0  0  0
  -23.3767  -35.9530   23.3318 H   0  0  0  0  0  0
  -24.3572  -36.8825   22.2062 H   0  0  0  0  0  0
  -23.7216  -37.6407   23.6665 H   0  0  0  0  0  0
  -26.1573  -31.4764   20.6194 H   0  0  0  0  0  0
  -26.8719  -30.7674   22.0319 H   0  0  0  0  0  0
  -28.1184  -28.7990   21.2589 H   0  0  0  0  0  0
  -25.9120  -25.8985   18.9248 H   0  0  0  0  0  0
  -23.9844  -27.3393   18.9379 H   0  0  0  0  0  0
  -23.8007  -30.5766   19.3956 H   0  0  0  0  0  0
  -22.7868  -29.2377   19.8430 H   0  0  0  0  0  0
  -25.1310  -36.1840   25.0811 H   0  0  0  0  0  0
  -21.0025  -28.3308   24.1341 H   0  0  0  0  0  0
  -20.5684  -26.2337   23.3608 H   0  0  0  0  0  0
  -21.6656  -26.7437   22.1172 H   0  0  0  0  0  0
  -19.6939  -25.6302   21.1236 H   0  0  0  0  0  0
  -19.6726  -27.3200   20.6728 H   0  0  0  0  0  0
  -17.4219  -26.6714   21.4017 H   0  0  0  0  0  0
  -18.0358  -26.0106   22.9013 H   0  0  0  0  0  0
  -19.7969  -30.7302   24.2234 H   0  0  0  0  0  0
  -17.5053  -31.6290   24.5168 H   0  0  0  0  0  0
  -15.5379  -30.3003   23.7707 H   0  0  0  0  0  0
  -15.8693  -28.0832   22.7107 H   0  0  0  0  0  0
  -24.5932  -30.7113   25.7701 H   0  0  0  0  0  0
  -24.8967  -32.2934   26.4813 H   0  0  0  0  0  0
  -25.8048  -30.8908   27.0199 H   0  0  0  0  0  0
  -26.3016  -29.6698   24.1294 H   0  0  0  0  0  0
  -27.4089  -29.7268   25.4798 H   0  0  0  0  0  0
  -27.8901  -30.4236   23.9538 H   0  0  0  0  0  0
  -27.2789  -33.3692   26.1922 H   0  0  0  0  0  0
  -28.4001  -32.6727   25.0325 H   0  0  0  0  0  0
  -28.0711  -31.8502   26.5478 H   0  0  0  0  0  0
  -28.2583  -38.0052   24.7489 H   0  0  0  0  0  0
  -28.1034  -36.2573   24.6348 H   0  0  0  0  0  0
  -27.2270  -37.1449   25.8886 H   0  0  0  0  0  0
  -20.9467  -29.8741   21.6741 H   0  0  0  0  0  0
  -26.0134  -38.2787   24.1453 H   0  0  0  0  0  0
  -31.4499  -18.1216   19.8692 H   0  0  0  0  0  0
  -27.4730  -17.4742   21.2877 H   0  0  0  0  0  0
  -27.3594  -22.0194   19.9420 H   0  0  0  0  0  0
  -29.9006  -23.5648   20.4130 H   0  0  0  0  0  0
  -26.9629  -24.4567   20.2230 H   0  0  0  0  0  0
  -27.8835  -24.6828   18.7655 H   0  0  0  0  0  0
  -28.7489  -15.5539   21.0332 H   0  0  0  0  0  0
  1 25  1  0  0  0
  1 30  2  0  0  0
  1 80  1  0  0  0
  2  3  1  0  0  0
  2 25  1  0  0  0
  2 83  1  0  0  0
  2 84  1  0  0  0
  3  4  1  0  0  0
  3 85  1  0  0  0
  3 86  1  0  0  0
  4  5  1  0  0  0
  4 87  1  0  0  0
  4 88  1  0  0  0
  5  6  1  0  0  0
  5 26  1  0  0  0
  5 89  1  0  0  0
  6 25  1  0  0  0
  6 90  1  0  0  0
  6 91  1  0  0  0
  7  8  2  0  0  0
  7 26  1  0  0  0
  7 29  1  0  0  0
  8  9  1  0  0  0
  8 22  1  0  0  0
  9 10  1  0  0  0
  9 27  2  0  0  0
 10 11  2  0  0  0
 10 15  1  0  0  0
 11 12  1  0  0  0
 11 92  1  0  0  0
 12 13  2  0  0  0
 12 93  1  0  0  0
 13 14  1  0  0  0
 13 31  1  0  0  0
 14 15  2  0  0  0
 14 94  1  0  0  0
 15 95  1  0  0  0
 16 17  2  0  0  0
 16 21  1  0  0  0
 16 31  1  0  0  0
 17 18  1  0  0  0
 17 96  1  0  0  0
 18 19  2  0  0  0
 18 97  1  0  0  0
 19 20  1  0  0  0
 19 24  1  0  0  0
 20 21  2  0  0  0
 20 98  1  0  0  0
 21 23  1  0  0  0
 22 28  1  0  0  0
 22 32  2  0  0  0
 26 27  1  0  0  0
 28 99  1  0  0  0
 28100  1  0  0  0
 29101  1  0  0  0
 29102  1  0  0  0
 33 34  1  0  0  0
 33 66  1  0  0  0
 33 70  2  0  0  0
 34 36  1  0  0  0
 34 59  1  0  0  0
 34103  1  0  0  0
 35 44  2  0  0  0
 35 45  1  0  0  0
 35 68  1  0  0  0
 36 56  1  0  0  0
 36104  1  0  0  0
 37 39  1  0  0  0
 37 47  1  0  0  0
 37 66  1  0  0  0
 37105  1  0  0  0
 38 43  2  0  0  0
 38 46  1  0  0  0
 38 47  1  0  0  0
 39 64  1  0  0  0
 39 67  2  0  0  0
 40 52  1  0  0  0
 40 53  2  0  0  0
 40 58  1  0  0  0
 41106  1  0  0  0
 41107  1  0  0  0
 41108  1  0  0  0
 41 48  1  0  0  0
 42 43  1  0  0  0
 42 66  1  0  0  0
 42109  1  0  0  0
 42110  1  0  0  0
 43 44  1  0  0  0
 44111  1  0  0  0
 45 46  2  0  0  0
 45112  1  0  0  0
 46113  1  0  0  0
 47114  1  0  0  0
 47115  1  0  0  0
 48 56  1  0  0  0
 48 65  1  0  0  0
 48116  1  0  0  0
 49 50  1  0  0  0
 49 53  1  0  0  0
 49 64  1  0  0  0
 49117  1  0  0  0
 50 51  1  0  0  0
 50118  1  0  0  0
 50119  1  0  0  0
 51 52  1  0  0  0
 51120  1  0  0  0
 51121  1  0  0  0
 52122  1  0  0  0
 52123  1  0  0  0
 53 54  1  0  0  0
 54 55  2  0  0  0
 54124  1  0  0  0
 55 57  1  0  0  0
 55125  1  0  0  0
 56 69  2  0  0  0
 57 58  2  0  0  0
 57126  1  0  0  0
 58127  1  0  0  0
 59 60  1  0  0  0
 59 61  1  0  0  0
 59 62  1  0  0  0
 60128  1  0  0  0
 60129  1  0  0  0
 60130  1  0  0  0
 61131  1  0  0  0
 61132  1  0  0  0
 61133  1  0  0  0
 62134  1  0  0  0
 62135  1  0  0  0
 62136  1  0  0  0
 63 65  1  0  0  0
 63137  1  0  0  0
 63138  1  0  0  0
 63139  1  0  0  0
 64140  1  0  0  0
 65141  1  0  0  0
 68 79  1  0  0  0
 71 74  2  0  0  0
 71 75  1  0  0  0
 71142  1  0  0  0
 72 74  1  0  0  0
 72 76  2  0  0  0
 72143  1  0  0  0
 73 75  2  0  0  0
 73 76  1  0  0  0
 73 77  1  0  0  0
 74 80  1  0  0  0
 75 81  1  0  0  0
 76 82  1  0  0  0
 77 78  2  0  0  0
 77144  1  0  0  0
 78 79  1  0  0  0
 78145  1  0  0  0
 79146  1  0  0  0
 79147  1  0  0  0
 80148  1  0  0  0
M  ISO  4   1 100  68 101  79 101  80 100
M  END
> <chiral flag>
0

> <version>
0

> <s_m_source_file>
/data/baiqing/PycharmProjects/Reinvent-master-3.2/result/LINK_invent/BTK/process_docking_weight1_custom_product_contain_oxygen_bond_distance_aromatic_linkinvent_7_9_3/rearranged_h_0028.sdf

> <i_m_source_file_index>
56

> <r_mmod_Potential_Energy-OPLS-2005>
463.5498046875

> <r_mmod_Stretch_Energy-OPLS-2005>
206.465438842773

> <r_mmod_Bend_Energy-OPLS-2005>
262.979248046875

> <r_mmod_Torsional_Energy-OPLS-2005>
220.389785766602

> <r_mmod_Improper_Torsional_Energy-OPLS-2005>
4.49723768234253

> <r_mmod_Van_der_Waal_Energy-OPLS-2005>
135.458694458008

> <r_mmod_Electrostatic_Energy-OPLS-2005>
-322.331756591797

> <r_mmod_Solvation_Energy-OPLS-2005>
-212.100479125977

> <b_mmod_Minimization_Converged-OPLS-2005>
0

> <r_mmod_RMS_Derivative-OPLS-2005>
1.92255294322968

$$$$
56
                    3D
 Structure written by MMmdl.
159168  0  0  1  0            999 V2000
  -30.5314  -15.0180   20.4039 C   0  0  0  0  0  0
  -30.4375  -12.6320   19.5102 C   0  0  0  0  0  0
  -29.5251  -12.5379   18.2649 C   0  0  0  0  0  0
  -28.0601  -12.3138   18.6822 C   0  0  0  0  0  0
  -27.6252  -13.2568   19.8342 C   0  0  2  0  0  0
  -28.6657  -13.3238   20.9726 C   0  0  0  0  0  0
  -25.2441  -13.8227   20.5719 C   0  0  0  0  0  0
  -24.1772  -13.0439   20.9242 C   0  0  0  0  0  0
  -24.6398  -11.6928   20.8758 C   0  0  0  0  0  0
  -23.9084  -10.4293   21.0406 C   0  0  0  0  0  0
  -24.3629   -9.4207   21.9184 C   0  0  0  0  0  0
  -23.6299   -8.2244   22.0755 C   0  0  0  0  0  0
  -22.4281   -8.0281   21.3545 C   0  0  0  0  0  0
  -21.9920   -9.0256   20.4648 C   0  0  0  0  0  0
  -22.7253  -10.2133   20.3057 C   0  0  0  0  0  0
  -21.6857   -6.0733   22.5279 C   0  0  0  0  0  0
  -21.4017   -6.5638   23.8211 C   0  0  0  0  0  0
  -21.3659   -5.6792   24.9173 C   0  0  0  0  0  0
  -21.6044   -4.3055   24.7226 C   0  0  0  0  0  0
  -21.8818   -3.8145   23.4349 C   0  0  0  0  0  0
  -21.9194   -4.6960   22.3403 C   0  0  0  0  0  0
  -22.7789  -13.5204   21.1885 C   0  0  0  0  0  0
  -22.1663   -4.2144   21.0982 F   0  0  0  0  0  0
  -21.5626   -3.4541   25.7741 F   0  0  0  0  0  0
  -29.9340  -13.7505   20.3672 N   0  0  0  0  0  0
  -26.2869  -12.9475   20.3234 N   0  0  0  0  0  0
  -25.9333  -11.6596   20.5736 N   0  0  0  0  0  0
  -22.0441  -12.8192   22.0441 N   0  0  0  0  0  0
  -25.4089  -15.1954   20.4124 N   0  0  0  0  0  0
  -31.7415  -15.0356   20.1510 O   0  0  0  0  0  0
  -21.6645   -6.8878   21.4240 O   0  0  0  0  0  0
  -22.3470  -14.5500   20.6717 O   0  0  0  0  0  0
  -24.6486  -31.8396   23.1854 C   0  0  0  0  0  0
  -25.9237  -32.4673   23.8256 C   0  0  1  0  0  0
  -27.2081  -27.0684   20.1748 C   0  0  0  0  0  0
  -25.5963  -33.8481   24.2167 N   0  0  0  0  0  0
  -23.4553  -30.4582   21.5317 C   0  0  2  0  0  0
  -24.9060  -28.8742   20.1147 C   0  0  0  0  0  0
  -22.7589  -29.4533   22.4842 C   0  0  0  0  0  0
  -18.0309  -28.1407   22.8480 C   0  0  0  0  0  0
  -24.1492  -36.7240   23.2641 C   0  0  0  0  0  0
  -26.0160  -30.6897   21.3985 C   0  0  0  0  0  0
  -26.0838  -29.2929   20.7468 C   0  0  0  0  0  0
  -27.2350  -28.4072   20.7599 C   0  0  0  0  0  0
  -26.0202  -26.7916   19.4643 C   0  0  0  0  0  0
  -24.8909  -27.6380   19.4546 C   0  0  0  0  0  0
  -23.6869  -29.7846   20.1533 C   0  0  0  0  0  0
  -25.4126  -36.3019   24.0311 C   0  0  1  0  0  0
  -20.5923  -28.3740   23.1222 C   0  0  2  0  0  0
  -20.6787  -26.9437   22.5403 C   0  0  0  0  0  0
  -19.5760  -26.6388   21.5214 C   0  0  0  0  0  0
  -18.1945  -26.7943   22.1629 C   0  0  0  0  0  0
  -19.1567  -28.8891   23.2843 C   0  0  0  0  0  0
  -18.9481  -30.1485   23.8875 C   0  0  0  0  0  0
  -17.6476  -30.6599   24.0564 C   0  0  0  0  0  0
  -25.9080  -34.9395   23.5051 C   0  0  0  0  0  0
  -16.5367  -29.9093   23.6340 C   0  0  0  0  0  0
  -16.7293  -28.6510   23.0363 C   0  0  0  0  0  0
  -26.4537  -31.6558   25.0718 C   0  0  0  0  0  0
  -25.3704  -31.3764   26.1400 C   0  0  0  0  0  0
  -27.0409  -30.2943   24.6345 C   0  0  0  0  0  0
  -27.6055  -32.4337   25.7510 C   0  0  0  0  0  0
  -27.5574  -37.1779   24.8466 C   0  0  0  0  0  0
  -21.4276  -29.3058   22.3584 N   0  0  0  0  0  0
  -26.4288  -37.3736   23.9404 N   0  0  0  0  0  0
  -24.7267  -31.0188   22.0929 N   0  0  0  0  0  0
  -23.4200  -28.8087   23.3020 O   0  0  0  0  0  0
  -28.2523  -26.0502   20.1881 O   0  0  0  0  0  0
  -26.5670  -34.8901   22.4634 O   0  0  0  0  0  0
  -23.5592  -32.1310   23.7032 O   0  0  0  0  0  0
  -31.7483  -19.4973   19.8698 C   0  0  0  0  0  0
  -30.8510  -20.5802   20.0042 C   0  0  0  0  0  0
  -31.3738  -18.1492   20.0603 C   0  0  0  0  0  0
  -29.1229  -18.9481   20.5026 C   0  0  0  0  0  0
  -29.4929  -20.4130   20.3484 C   0  0  0  0  0  0
  -30.0529  -17.7632   20.3794 C   0  0  0  0  0  0
  -26.4679  -22.5511   21.2122 C   0  0  0  0  0  0
  -26.6610  -23.9359   20.5169 C   0  0  0  0  0  0
  -27.7446  -21.7614   21.6019 C   0  0  0  0  0  0
  -29.0644  -23.1852   20.1119 C   0  0  0  0  0  0
  -28.0944  -24.5095   20.5825 C   0  0  1  0  0  0
  -27.6672  -18.5978   20.7512 C   0  0  0  0  0  0
  -28.7031  -21.6970   20.5039 N   0  0  0  0  0  0
  -29.7620  -16.2334   20.5285 N   0  0  0  0  0  0
  -31.4709  -12.7875   19.1972 H   0  0  0  0  0  0
  -30.4365  -11.6915   20.0639 H   0  0  0  0  0  0
  -29.8565  -11.7311   17.6097 H   0  0  0  0  0  0
  -29.6044  -13.4582   17.6839 H   0  0  0  0  0  0
  -27.9651  -11.2754   19.0021 H   0  0  0  0  0  0
  -27.3975  -12.4297   17.8235 H   0  0  0  0  0  0
  -27.5766  -14.2509   19.3884 H   0  0  0  0  0  0
  -28.7687  -12.3601   21.4734 H   0  0  0  0  0  0
  -28.3531  -14.0387   21.7355 H   0  0  0  0  0  0
  -25.2772   -9.5682   22.4762 H   0  0  0  0  0  0
  -24.0004   -7.4637   22.7480 H   0  0  0  0  0  0
  -21.0848   -8.8775   19.8957 H   0  0  0  0  0  0
  -22.3707  -10.9670   19.6167 H   0  0  0  0  0  0
  -21.2014   -7.6148   23.9712 H   0  0  0  0  0  0
  -21.1480   -6.0525   25.9075 H   0  0  0  0  0  0
  -22.0598   -2.7607   23.2853 H   0  0  0  0  0  0
  -22.4070  -11.9866   22.4842 H   0  0  0  0  0  0
  -21.1051  -13.1200   22.2634 H   0  0  0  0  0  0
  -24.6319  -15.8397   20.5113 H   0  0  0  0  0  0
  -26.2346  -15.6283   20.0220 H   0  0  0  0  0  0
  -26.7300  -32.5260   23.0976 H   0  0  0  0  0  0
  -25.0069  -33.9584   25.0288 H   0  0  0  0  0  0
  -22.7617  -31.2866   21.3724 H   0  0  0  0  0  0
  -23.3764  -35.9562   23.3288 H   0  0  0  0  0  0
  -24.3572  -36.8892   22.2058 H   0  0  0  0  0  0
  -23.7235  -37.6425   23.6693 H   0  0  0  0  0  0
  -26.1805  -31.4376   20.6217 H   0  0  0  0  0  0
  -26.8830  -30.7432   22.0447 H   0  0  0  0  0  0
  -28.1316  -28.7250   21.2735 H   0  0  0  0  0  0
  -25.9411  -25.8721   18.9072 H   0  0  0  0  0  0
  -24.0037  -27.3218   18.9232 H   0  0  0  0  0  0
  -23.8310  -30.5570   19.3967 H   0  0  0  0  0  0
  -22.8005  -29.2303   19.8401 H   0  0  0  0  0  0
  -25.1319  -36.1842   25.0803 H   0  0  0  0  0  0
  -21.0019  -28.3340   24.1342 H   0  0  0  0  0  0
  -20.5675  -26.2361   23.3632 H   0  0  0  0  0  0
  -21.6653  -26.7431   22.1208 H   0  0  0  0  0  0
  -19.6916  -25.6291   21.1267 H   0  0  0  0  0  0
  -19.6693  -27.3178   20.6726 H   0  0  0  0  0  0
  -17.4211  -26.6694   21.4035 H   0  0  0  0  0  0
  -18.0347  -26.0091   22.9031 H   0  0  0  0  0  0
  -19.7954  -30.7309   24.2238 H   0  0  0  0  0  0
  -17.5026  -31.6278   24.5171 H   0  0  0  0  0  0
  -15.5367  -30.2988   23.7672 H   0  0  0  0  0  0
  -15.8694  -28.0817   22.7096 H   0  0  0  0  0  0
  -24.5899  -30.7097   25.7715 H   0  0  0  0  0  0
  -24.8876  -32.2950   26.4745 H   0  0  0  0  0  0
  -25.7976  -30.8991   27.0228 H   0  0  0  0  0  0
  -26.3042  -29.6655   24.1333 H   0  0  0  0  0  0
  -27.3970  -29.7259   25.4946 H   0  0  0  0  0  0
  -27.8975  -30.4152   23.9711 H   0  0  0  0  0  0
  -27.2640  -33.3662   26.2016 H   0  0  0  0  0  0
  -28.3908  -32.6856   25.0372 H   0  0  0  0  0  0
  -28.0675  -31.8508   26.5487 H   0  0  0  0  0  0
  -28.2591  -38.0075   24.7512 H   0  0  0  0  0  0
  -28.1074  -36.2607   24.6306 H   0  0  0  0  0  0
  -27.2288  -37.1441   25.8868 H   0  0  0  0  0  0
  -20.9503  -29.8763   21.6744 H   0  0  0  0  0  0
  -26.0153  -38.2804   24.1403 H   0  0  0  0  0  0
  -32.7762  -19.7122   19.6128 H   0  0  0  0  0  0
  -31.2480  -21.5719   19.8474 H   0  0  0  0  0  0
  -32.1476  -17.4074   19.9359 H   0  0  0  0  0  0
  -25.8474  -21.9244   20.5697 H   0  0  0  0  0  0
  -25.8785  -22.6944   22.1186 H   0  0  0  0  0  0
  -25.9489  -24.6300   20.9612 H   0  0  0  0  0  0
  -26.3858  -23.8221   19.4688 H   0  0  0  0  0  0
  -27.4749  -20.7816   21.9868 H   0  0  0  0  0  0
  -28.2320  -22.2613   22.4412 H   0  0  0  0  0  0
  -30.0771  -23.3861   20.4630 H   0  0  0  0  0  0
  -29.1299  -23.2027   19.0235 H   0  0  0  0  0  0
  -28.2910  -24.5849   21.6527 H   0  0  0  0  0  0
  -27.4728  -18.5017   21.8192 H   0  0  0  0  0  0
  -27.4053  -17.6551   20.2729 H   0  0  0  0  0  0
  -27.0035  -19.3544   20.3331 H   0  0  0  0  0  0
  -28.7938  -16.0285   20.7206 H   0  0  0  0  0  0
  1 25  1  0  0  0
  1 30  2  0  0  0
  1 84  1  0  0  0
  2  3  1  0  0  0
  2 25  1  0  0  0
  2 85  1  0  0  0
  2 86  1  0  0  0
  3  4  1  0  0  0
  3 87  1  0  0  0
  3 88  1  0  0  0
  4  5  1  0  0  0
  4 89  1  0  0  0
  4 90  1  0  0  0
  5  6  1  0  0  0
  5 26  1  0  0  0
  5 91  1  0  0  0
  6 25  1  0  0  0
  6 92  1  0  0  0
  6 93  1  0  0  0
  7  8  2  0  0  0
  7 26  1  0  0  0
  7 29  1  0  0  0
  8  9  1  0  0  0
  8 22  1  0  0  0
  9 10  1  0  0  0
  9 27  2  0  0  0
 10 11  2  0  0  0
 10 15  1  0  0  0
 11 12  1  0  0  0
 11 94  1  0  0  0
 12 13  2  0  0  0
 12 95  1  0  0  0
 13 14  1  0  0  0
 13 31  1  0  0  0
 14 15  2  0  0  0
 14 96  1  0  0  0
 15 97  1  0  0  0
 16 17  2  0  0  0
 16 21  1  0  0  0
 16 31  1  0  0  0
 17 18  1  0  0  0
 17 98  1  0  0  0
 18 19  2  0  0  0
 18 99  1  0  0  0
 19 20  1  0  0  0
 19 24  1  0  0  0
 20 21  2  0  0  0
 20100  1  0  0  0
 21 23  1  0  0  0
 22 28  1  0  0  0
 22 32  2  0  0  0
 26 27  1  0  0  0
 28101  1  0  0  0
 28102  1  0  0  0
 29103  1  0  0  0
 29104  1  0  0  0
 33 34  1  0  0  0
 33 66  1  0  0  0
 33 70  2  0  0  0
 34 36  1  0  0  0
 34 59  1  0  0  0
 34105  1  0  0  0
 35 44  2  0  0  0
 35 45  1  0  0  0
 35 68  1  0  0  0
 36 56  1  0  0  0
 36106  1  0  0  0
 37 39  1  0  0  0
 37 47  1  0  0  0
 37 66  1  0  0  0
 37107  1  0  0  0
 38 43  2  0  0  0
 38 46  1  0  0  0
 38 47  1  0  0  0
 39 64  1  0  0  0
 39 67  2  0  0  0
 40 52  1  0  0  0
 40 53  2  0  0  0
 40 58  1  0  0  0
 41108  1  0  0  0
 41109  1  0  0  0
 41110  1  0  0  0
 41 48  1  0  0  0
 42 43  1  0  0  0
 42 66  1  0  0  0
 42111  1  0  0  0
 42112  1  0  0  0
 43 44  1  0  0  0
 44113  1  0  0  0
 45 46  2  0  0  0
 45114  1  0  0  0
 46115  1  0  0  0
 47116  1  0  0  0
 47117  1  0  0  0
 48 56  1  0  0  0
 48 65  1  0  0  0
 48118  1  0  0  0
 49 50  1  0  0  0
 49 53  1  0  0  0
 49 64  1  0  0  0
 49119  1  0  0  0
 50 51  1  0  0  0
 50120  1  0  0  0
 50121  1  0  0  0
 51 52  1  0  0  0
 51122  1  0  0  0
 51123  1  0  0  0
 52124  1  0  0  0
 52125  1  0  0  0
 53 54  1  0  0  0
 54 55  2  0  0  0
 54126  1  0  0  0
 55 57  1  0  0  0
 55127  1  0  0  0
 56 69  2  0  0  0
 57 58  2  0  0  0
 57128  1  0  0  0
 58129  1  0  0  0
 59 60  1  0  0  0
 59 61  1  0  0  0
 59 62  1  0  0  0
 60130  1  0  0  0
 60131  1  0  0  0
 60132  1  0  0  0
 61133  1  0  0  0
 61134  1  0  0  0
 61135  1  0  0  0
 62136  1  0  0  0
 62137  1  0  0  0
 62138  1  0  0  0
 63 65  1  0  0  0
 63139  1  0  0  0
 63140  1  0  0  0
 63141  1  0  0  0
 64142  1  0  0  0
 65143  1  0  0  0
 68 81  1  0  0  0
 71 72  2  0  0  0
 71 73  1  0  0  0
 71144  1  0  0  0
 72 75  1  0  0  0
 72145  1  0  0  0
 73 76  2  0  0  0
 73146  1  0  0  0
 74 75  2  0  0  0
 74 76  1  0  0  0
 74 82  1  0  0  0
 75 83  1  0  0  0
 76 84  1  0  0  0
 77 78  1  0  0  0
 77 79  1  0  0  0
 77147  1  0  0  0
 77148  1  0  0  0
 78 81  1  0  0  0
 78149  1  0  0  0
 78150  1  0  0  0
 79 83  1  0  0  0
 79151  1  0  0  0
 79152  1  0  0  0
 80 81  1  0  0  0
 80 83  1  0  0  0
 80153  1  0  0  0
 80154  1  0  0  0
 81155  1  0  0  0
 82156  1  0  0  0
 82157  1  0  0  0
 82158  1  0  0  0
 84159  1  0  0  0
M  ISO  4   1 100  68 101  81 101  84 100
M  END
> <chiral flag>
0

> <version>
0

> <s_m_source_file>
/data/baiqing/PycharmProjects/Reinvent-master-3.2/result/LINK_invent/BTK/process_docking_weight1_custom_product_contain_oxygen_bond_distance_aromatic_linkinvent_7_9_3/rearranged_h_0028.sdf

> <i_m_source_file_index>
57

> <r_mmod_Potential_Energy-OPLS-2005>
712.1162109375

> <r_mmod_Stretch_Energy-OPLS-2005>
333.258087158203

> <r_mmod_Bend_Energy-OPLS-2005>
305.145812988281

> <r_mmod_Torsional_Energy-OPLS-2005>
274.007110595703

> <r_mmod_Improper_Torsional_Energy-OPLS-2005>
6.17289352416992

> <r_mmod_Van_der_Waal_Energy-OPLS-2005>
142.091735839844

> <r_mmod_Electrostatic_Energy-OPLS-2005>
-373.58642578125

> <r_mmod_Solvation_Energy-OPLS-2005>
-220.216735839844

> <b_mmod_Minimization_Converged-OPLS-2005>
0

> <r_mmod_RMS_Derivative-OPLS-2005>
0.597215354442596

$$$$
57
                    3D
 Structure written by MMmdl.
152161  0  0  1  0            999 V2000
  -30.5731  -14.7323   20.4302 C   0  0  0  0  0  0
  -30.4428  -12.4385   19.4523 C   0  0  0  0  0  0
  -29.5100  -12.5110   18.2203 C   0  0  0  0  0  0
  -28.0328  -12.3436   18.6310 C   0  0  0  0  0  0
  -27.6467  -13.2210   19.8497 C   0  0  2  0  0  0
  -28.6961  -13.1174   20.9774 C   0  0  0  0  0  0
  -25.2543  -13.8154   20.5669 C   0  0  0  0  0  0
  -24.1819  -13.0427   20.9198 C   0  0  0  0  0  0
  -24.6405  -11.6901   20.8745 C   0  0  0  0  0  0
  -23.9086  -10.4285   21.0419 C   0  0  0  0  0  0
  -24.3635   -9.4190   21.9175 C   0  0  0  0  0  0
  -23.6303   -8.2232   22.0749 C   0  0  0  0  0  0
  -22.4278   -8.0297   21.3569 C   0  0  0  0  0  0
  -21.9908   -9.0268   20.4668 C   0  0  0  0  0  0
  -22.7254  -10.2132   20.3078 C   0  0  0  0  0  0
  -21.6844   -6.0743   22.5283 C   0  0  0  0  0  0
  -21.4011   -6.5634   23.8215 C   0  0  0  0  0  0
  -21.3646   -5.6786   24.9166 C   0  0  0  0  0  0
  -21.6043   -4.3052   24.7219 C   0  0  0  0  0  0
  -21.8817   -3.8157   23.4333 C   0  0  0  0  0  0
  -21.9187   -4.6976   22.3393 C   0  0  0  0  0  0
  -22.7845  -13.5244   21.1849 C   0  0  0  0  0  0
  -22.1679   -4.2165   21.0969 F   0  0  0  0  0  0
  -21.5607   -3.4528   25.7728 F   0  0  0  0  0  0
  -29.9989  -13.4815   20.4008 N   0  0  0  0  0  0
  -26.2967  -12.9354   20.3259 N   0  0  0  0  0  0
  -25.9332  -11.6509   20.5711 N   0  0  0  0  0  0
  -22.0487  -12.8269   22.0422 N   0  0  0  0  0  0
  -25.4221  -15.1871   20.4052 N   0  0  0  0  0  0
  -31.7648  -14.8701   20.1429 O   0  0  0  0  0  0
  -21.6650   -6.8899   21.4257 O   0  0  0  0  0  0
  -22.3535  -14.5552   20.6692 O   0  0  0  0  0  0
  -24.6306  -31.8519   23.1956 C   0  0  0  0  0  0
  -25.9131  -32.4730   23.8305 C   0  0  1  0  0  0
  -27.2292  -27.2573   20.1094 C   0  0  0  0  0  0
  -25.5906  -33.8537   24.2222 N   0  0  0  0  0  0
  -23.4286  -30.4730   21.5385 C   0  0  2  0  0  0
  -24.8741  -28.9153   20.1103 C   0  0  0  0  0  0
  -22.7499  -29.4579   22.4902 C   0  0  0  0  0  0
  -18.0283  -28.1386   22.8472 C   0  0  0  0  0  0
  -24.1477  -36.7278   23.2653 C   0  0  0  0  0  0
  -25.9750  -30.7606   21.3763 C   0  0  0  0  0  0
  -26.0464  -29.3825   20.7168 C   0  0  0  0  0  0
  -27.2230  -28.5656   20.7045 C   0  0  0  0  0  0
  -26.0221  -26.8466   19.4992 C   0  0  0  0  0  0
  -24.8661  -27.6533   19.4962 C   0  0  0  0  0  0
  -23.6456  -29.8037   20.1563 C   0  0  0  0  0  0
  -25.4106  -36.3046   24.0326 C   0  0  1  0  0  0
  -20.5881  -28.3689   23.1261 C   0  0  2  0  0  0
  -20.6748  -26.9399   22.5412 C   0  0  0  0  0  0
  -19.5735  -26.6371   21.5201 C   0  0  0  0  0  0
  -18.1915  -26.7923   22.1619 C   0  0  0  0  0  0
  -19.1541  -28.8855   23.2865 C   0  0  0  0  0  0
  -18.9472  -30.1459   23.8884 C   0  0  0  0  0  0
  -17.6474  -30.6594   24.0552 C   0  0  0  0  0  0
  -25.9051  -34.9427   23.5088 C   0  0  0  0  0  0
  -16.5358  -29.9092   23.6331 C   0  0  0  0  0  0
  -16.7271  -28.6506   23.0348 C   0  0  0  0  0  0
  -26.4496  -31.6582   25.0722 C   0  0  0  0  0  0
  -25.3735  -31.3767   26.1470 C   0  0  0  0  0  0
  -27.0349  -30.2987   24.6247 C   0  0  0  0  0  0
  -27.6018  -32.4373   25.7484 C   0  0  0  0  0  0
  -27.5567  -37.1782   24.8465 C   0  0  0  0  0  0
  -21.4202  -29.3037   22.3651 N   0  0  0  0  0  0
  -26.4263  -37.3756   23.9421 N   0  0  0  0  0  0
  -24.6970  -31.0472   22.0925 N   0  0  0  0  0  0
  -23.4194  -28.8129   23.3015 O   0  0  0  0  0  0
  -28.3493  -26.3912   20.1515 O   0  0  0  0  0  0
  -26.5652  -34.8910   22.4678 O   0  0  0  0  0  0
  -23.5452  -32.1357   23.7258 O   0  0  0  0  0  0
  -28.5217  -19.4126   19.8354 C   0  0  0  0  0  0
  -28.5620  -17.9948   20.0667 C   0  0  0  0  0  0
  -30.8757  -19.4999   20.2368 C   0  0  0  0  0  0
  -29.6881  -20.2214   19.8932 C   0  0  0  0  0  0
  -29.7592  -17.2647   20.3555 C   0  0  0  0  0  0
  -30.9215  -18.0802   20.4637 C   0  0  0  0  0  0
  -29.7133  -24.3051   19.4450 C   0  0  0  0  0  0
  -27.9433  -23.6700   20.2705 C   0  0  0  0  0  0
  -28.3188  -25.0122   19.5456 C   0  0  1  0  0  0
  -29.7787  -21.6988   19.2879 C   0  0  0  0  0  0
  -29.2167  -23.0375   19.7776 N   0  0  0  0  0  0
  -29.6907  -15.7917   20.5547 N   0  0  0  0  0  0
  -30.8217  -24.6364   19.0785 O   0  0  0  0  0  0
  -32.1136  -17.5205   20.7785 F   0  0  0  0  0  0
  -31.4829  -12.5763   19.1454 H   0  0  0  0  0  0
  -30.3982  -11.4525   19.9167 H   0  0  0  0  0  0
  -29.7780  -11.7423   17.4938 H   0  0  0  0  0  0
  -29.6441  -13.4656   17.7084 H   0  0  0  0  0  0
  -27.8630  -11.2919   18.8624 H   0  0  0  0  0  0
  -27.3830  -12.5767   17.7870 H   0  0  0  0  0  0
  -27.6480  -14.2486   19.4857 H   0  0  0  0  0  0
  -28.7271  -12.1037   21.3836 H   0  0  0  0  0  0
  -28.4394  -13.7719   21.8122 H   0  0  0  0  0  0
  -25.2767   -9.5659   22.4746 H   0  0  0  0  0  0
  -24.0000   -7.4615   22.7456 H   0  0  0  0  0  0
  -21.0819   -8.8829   19.8982 H   0  0  0  0  0  0
  -22.3724  -10.9695   19.6215 H   0  0  0  0  0  0
  -21.2050   -7.6144   23.9725 H   0  0  0  0  0  0
  -21.1453   -6.0512   25.9064 H   0  0  0  0  0  0
  -22.0619   -2.7621   23.2830 H   0  0  0  0  0  0
  -22.4121  -11.9956   22.4836 H   0  0  0  0  0  0
  -21.1129  -13.1351   22.2664 H   0  0  0  0  0  0
  -24.6400  -15.8273   20.4943 H   0  0  0  0  0  0
  -26.2404  -15.6185   19.9997 H   0  0  0  0  0  0
  -26.7195  -32.5362   23.1040 H   0  0  0  0  0  0
  -24.9963  -33.9656   25.0295 H   0  0  0  0  0  0
  -22.7254  -31.2953   21.3914 H   0  0  0  0  0  0
  -23.3719  -35.9626   23.3313 H   0  0  0  0  0  0
  -24.3554  -36.8913   22.2064 H   0  0  0  0  0  0
  -23.7244  -37.6484   23.6688 H   0  0  0  0  0  0
  -26.1181  -31.5226   20.6085 H   0  0  0  0  0  0
  -26.8507  -30.8050   22.0124 H   0  0  0  0  0  0
  -28.1224  -28.9238   21.1842 H   0  0  0  0  0  0
  -25.9309  -25.8738   19.0403 H   0  0  0  0  0  0
  -23.9633  -27.2821   19.0308 H   0  0  0  0  0  0
  -23.7715  -30.5785   19.3997 H   0  0  0  0  0  0
  -22.7625  -29.2382   19.8528 H   0  0  0  0  0  0
  -25.1277  -36.1872   25.0807 H   0  0  0  0  0  0
  -20.9964  -28.3263   24.1386 H   0  0  0  0  0  0
  -20.5583  -26.2309   23.3626 H   0  0  0  0  0  0
  -21.6629  -26.7371   22.1248 H   0  0  0  0  0  0
  -19.6884  -25.6274   21.1253 H   0  0  0  0  0  0
  -19.6671  -27.3156   20.6713 H   0  0  0  0  0  0
  -17.4169  -26.6645   21.4042 H   0  0  0  0  0  0
  -18.0337  -26.0083   22.9034 H   0  0  0  0  0  0
  -19.7955  -30.7269   24.2234 H   0  0  0  0  0  0
  -17.5038  -31.6268   24.5153 H   0  0  0  0  0  0
  -15.5360  -30.2992   23.7670 H   0  0  0  0  0  0
  -15.8668  -28.0826   22.7074 H   0  0  0  0  0  0
  -24.5828  -30.7202   25.7824 H   0  0  0  0  0  0
  -24.9035  -32.2965   26.4961 H   0  0  0  0  0  0
  -25.8063  -30.8882   27.0208 H   0  0  0  0  0  0
  -26.2951  -29.6734   24.1242 H   0  0  0  0  0  0
  -27.3968  -29.7259   25.4793 H   0  0  0  0  0  0
  -27.8844  -30.4243   23.9538 H   0  0  0  0  0  0
  -27.2553  -33.3639   26.2078 H   0  0  0  0  0  0
  -28.3788  -32.7020   25.0301 H   0  0  0  0  0  0
  -28.0736  -31.8530   26.5391 H   0  0  0  0  0  0
  -28.2584  -38.0077   24.7489 H   0  0  0  0  0  0
  -28.1056  -36.2607   24.6285 H   0  0  0  0  0  0
  -27.2309  -37.1440   25.8879 H   0  0  0  0  0  0
  -20.9386  -29.8782   21.6874 H   0  0  0  0  0  0
  -26.0136  -38.2815   24.1445 H   0  0  0  0  0  0
  -27.5819  -19.8640   19.5424 H   0  0  0  0  0  0
  -27.6277  -17.4566   19.9764 H   0  0  0  0  0  0
  -31.8172  -20.0274   20.2706 H   0  0  0  0  0  0
  -27.0332  -23.2073   19.8847 H   0  0  0  0  0  0
  -27.8925  -23.7667   21.3574 H   0  0  0  0  0  0
  -27.8690  -25.0568   18.5538 H   0  0  0  0  0  0
  -29.4003  -21.5970   18.2701 H   0  0  0  0  0  0
  -30.8468  -21.8736   19.1454 H   0  0  0  0  0  0
  -28.7524  -15.4515   20.6866 H   0  0  0  0  0  0
  1 25  1  0  0  0
  1 30  2  0  0  0
  1 82  1  0  0  0
  2  3  1  0  0  0
  2 25  1  0  0  0
  2 85  1  0  0  0
  2 86  1  0  0  0
  3  4  1  0  0  0
  3 87  1  0  0  0
  3 88  1  0  0  0
  4  5  1  0  0  0
  4 89  1  0  0  0
  4 90  1  0  0  0
  5  6  1  0  0  0
  5 26  1  0  0  0
  5 91  1  0  0  0
  6 25  1  0  0  0
  6 92  1  0  0  0
  6 93  1  0  0  0
  7  8  2  0  0  0
  7 26  1  0  0  0
  7 29  1  0  0  0
  8  9  1  0  0  0
  8 22  1  0  0  0
  9 10  1  0  0  0
  9 27  2  0  0  0
 10 11  2  0  0  0
 10 15  1  0  0  0
 11 12  1  0  0  0
 11 94  1  0  0  0
 12 13  2  0  0  0
 12 95  1  0  0  0
 13 14  1  0  0  0
 13 31  1  0  0  0
 14 15  2  0  0  0
 14 96  1  0  0  0
 15 97  1  0  0  0
 16 17  2  0  0  0
 16 21  1  0  0  0
 16 31  1  0  0  0
 17 18  1  0  0  0
 17 98  1  0  0  0
 18 19  2  0  0  0
 18 99  1  0  0  0
 19 20  1  0  0  0
 19 24  1  0  0  0
 20 21  2  0  0  0
 20100  1  0  0  0
 21 23  1  0  0  0
 22 28  1  0  0  0
 22 32  2  0  0  0
 26 27  1  0  0  0
 28101  1  0  0  0
 28102  1  0  0  0
 29103  1  0  0  0
 29104  1  0  0  0
 33 34  1  0  0  0
 33 66  1  0  0  0
 33 70  2  0  0  0
 34 36  1  0  0  0
 34 59  1  0  0  0
 34105  1  0  0  0
 35 44  2  0  0  0
 35 45  1  0  0  0
 35 68  1  0  0  0
 36 56  1  0  0  0
 36106  1  0  0  0
 37 39  1  0  0  0
 37 47  1  0  0  0
 37 66  1  0  0  0
 37107  1  0  0  0
 38 43  2  0  0  0
 38 46  1  0  0  0
 38 47  1  0  0  0
 39 64  1  0  0  0
 39 67  2  0  0  0
 40 52  1  0  0  0
 40 53  2  0  0  0
 40 58  1  0  0  0
 41108  1  0  0  0
 41109  1  0  0  0
 41110  1  0  0  0
 41 48  1  0  0  0
 42 43  1  0  0  0
 42 66  1  0  0  0
 42111  1  0  0  0
 42112  1  0  0  0
 43 44  1  0  0  0
 44113  1  0  0  0
 45 46  2  0  0  0
 45114  1  0  0  0
 46115  1  0  0  0
 47116  1  0  0  0
 47117  1  0  0  0
 48 56  1  0  0  0
 48 65  1  0  0  0
 48118  1  0  0  0
 49 50  1  0  0  0
 49 53  1  0  0  0
 49 64  1  0  0  0
 49119  1  0  0  0
 50 51  1  0  0  0
 50120  1  0  0  0
 50121  1  0  0  0
 51 52  1  0  0  0
 51122  1  0  0  0
 51123  1  0  0  0
 52124  1  0  0  0
 52125  1  0  0  0
 53 54  1  0  0  0
 54 55  2  0  0  0
 54126  1  0  0  0
 55 57  1  0  0  0
 55127  1  0  0  0
 56 69  2  0  0  0
 57 58  2  0  0  0
 57128  1  0  0  0
 58129  1  0  0  0
 59 60  1  0  0  0
 59 61  1  0  0  0
 59 62  1  0  0  0
 60130  1  0  0  0
 60131  1  0  0  0
 60132  1  0  0  0
 61133  1  0  0  0
 61134  1  0  0  0
 61135  1  0  0  0
 62136  1  0  0  0
 62137  1  0  0  0
 62138  1  0  0  0
 63 65  1  0  0  0
 63139  1  0  0  0
 63140  1  0  0  0
 63141  1  0  0  0
 64142  1  0  0  0
 65143  1  0  0  0
 68 79  1  0  0  0
 71 72  2  0  0  0
 71 74  1  0  0  0
 71144  1  0  0  0
 72 75  1  0  0  0
 72145  1  0  0  0
 73 74  2  0  0  0
 73 76  1  0  0  0
 73146  1  0  0  0
 74 80  1  0  0  0
 75 76  2  0  0  0
 75 82  1  0  0  0
 76 84  1  0  0  0
 77 79  1  0  0  0
 77 81  1  0  0  0
 77 83  2  0  0  0
 78 79  1  0  0  0
 78 81  1  0  0  0
 78147  1  0  0  0
 78148  1  0  0  0
 79149  1  0  0  0
 80 81  1  0  0  0
 80150  1  0  0  0
 80151  1  0  0  0
 82152  1  0  0  0
M  ISO  4   1 100  68 101  79 101  82 100
M  END
> <chiral flag>
0

> <version>
0

> <s_m_source_file>
/data/baiqing/PycharmProjects/Reinvent-master-3.2/result/LINK_invent/BTK/process_docking_weight1_custom_product_contain_oxygen_bond_distance_aromatic_linkinvent_7_9_3/rearranged_h_0028.sdf

> <i_m_source_file_index>
58

> <r_mmod_Potential_Energy-OPLS-2005>
166.980209350586

> <r_mmod_Stretch_Energy-OPLS-2005>
110.903549194336

> <r_mmod_Bend_Energy-OPLS-2005>
214.051361083984

> <r_mmod_Torsional_Energy-OPLS-2005>
244.017456054688

> <r_mmod_Improper_Torsional_Energy-OPLS-2005>
10.7665328979492

> <r_mmod_Van_der_Waal_Energy-OPLS-2005>
133.732269287109

> <r_mmod_Electrostatic_Energy-OPLS-2005>
-374.745208740234

> <r_mmod_Solvation_Energy-OPLS-2005>
-252.817687988281

> <b_mmod_Minimization_Converged-OPLS-2005>
0

> <r_mmod_RMS_Derivative-OPLS-2005>
4.12855100631714

$$$$
58
                    3D
 Structure written by MMmdl.
161170  0  0  1  0            999 V2000
  -30.6333  -14.7823   20.5116 C   0  0  0  0  0  0
  -30.4452  -12.4966   19.4749 C   0  0  0  0  0  0
  -29.5112  -12.5154   18.2426 C   0  0  0  0  0  0
  -28.0404  -12.3352   18.6640 C   0  0  0  0  0  0
  -27.6508  -13.2256   19.8720 C   0  0  2  0  0  0
  -28.7036  -13.1100   20.9946 C   0  0  0  0  0  0
  -25.2555  -13.8164   20.5768 C   0  0  0  0  0  0
  -24.1842  -13.0390   20.9201 C   0  0  0  0  0  0
  -24.6443  -11.6868   20.8762 C   0  0  0  0  0  0
  -23.9136  -10.4245   21.0402 C   0  0  0  0  0  0
  -24.3661   -9.4171   21.9181 C   0  0  0  0  0  0
  -23.6322   -8.2217   22.0743 C   0  0  0  0  0  0
  -22.4309   -8.0262   21.3526 C   0  0  0  0  0  0
  -21.9965   -9.0255   20.4643 C   0  0  0  0  0  0
  -22.7316  -10.2118   20.3055 C   0  0  0  0  0  0
  -21.6864   -6.0739   22.5276 C   0  0  0  0  0  0
  -21.4029   -6.5647   23.8206 C   0  0  0  0  0  0
  -21.3653   -5.6803   24.9170 C   0  0  0  0  0  0
  -21.6050   -4.3058   24.7234 C   0  0  0  0  0  0
  -21.8826   -3.8151   23.4348 C   0  0  0  0  0  0
  -21.9219   -4.6973   22.3406 C   0  0  0  0  0  0
  -22.7864  -13.5156   21.1861 C   0  0  0  0  0  0
  -22.1683   -4.2156   21.0990 F   0  0  0  0  0  0
  -21.5629   -3.4536   25.7741 F   0  0  0  0  0  0
  -29.9877  -13.5510   20.4217 N   0  0  0  0  0  0
  -26.2995  -12.9374   20.3416 N   0  0  0  0  0  0
  -25.9379  -11.6507   20.5816 N   0  0  0  0  0  0
  -22.0562  -12.8094   22.0422 N   0  0  0  0  0  0
  -25.4248  -15.1879   20.4189 N   0  0  0  0  0  0
  -31.7903  -14.8408   20.0827 O   0  0  0  0  0  0
  -21.6659   -6.8869   21.4224 O   0  0  0  0  0  0
  -22.3522  -14.5481   20.6760 O   0  0  0  0  0  0
  -24.6378  -31.8538   23.1966 C   0  0  0  0  0  0
  -25.9186  -32.4760   23.8339 C   0  0  1  0  0  0
  -27.2151  -27.2291   20.1307 C   0  0  0  0  0  0
  -25.5953  -33.8557   24.2280 N   0  0  0  0  0  0
  -23.4364  -30.4769   21.5376 C   0  0  2  0  0  0
  -24.8833  -28.9217   20.1086 C   0  0  0  0  0  0
  -22.7540  -29.4607   22.4887 C   0  0  0  0  0  0
  -18.0299  -28.1355   22.8499 C   0  0  0  0  0  0
  -24.1481  -36.7284   23.2650 C   0  0  0  0  0  0
  -25.9881  -30.7548   21.3831 C   0  0  0  0  0  0
  -26.0552  -29.3729   20.7284 C   0  0  0  0  0  0
  -27.2232  -28.5360   20.7351 C   0  0  0  0  0  0
  -26.0281  -26.8710   19.4562 C   0  0  0  0  0  0
  -24.8767  -27.6770   19.4622 C   0  0  0  0  0  0
  -23.6565  -29.8135   20.1544 C   0  0  0  0  0  0
  -25.4112  -36.3076   24.0343 C   0  0  1  0  0  0
  -20.5902  -28.3712   23.1259 C   0  0  2  0  0  0
  -20.6783  -26.9413   22.5425 C   0  0  0  0  0  0
  -19.5745  -26.6338   21.5245 C   0  0  0  0  0  0
  -18.1942  -26.7911   22.1653 C   0  0  0  0  0  0
  -19.1545  -28.8853   23.2850 C   0  0  0  0  0  0
  -18.9467  -30.1452   23.8862 C   0  0  0  0  0  0
  -17.6465  -30.6571   24.0540 C   0  0  0  0  0  0
  -25.9050  -34.9444   23.5108 C   0  0  0  0  0  0
  -16.5367  -29.9068   23.6294 C   0  0  0  0  0  0
  -16.7295  -28.6468   23.0369 C   0  0  0  0  0  0
  -26.4517  -31.6590   25.0753 C   0  0  0  0  0  0
  -25.3720  -31.3736   26.1461 C   0  0  0  0  0  0
  -27.0370  -30.3005   24.6264 C   0  0  0  0  0  0
  -27.6065  -32.4337   25.7543 C   0  0  0  0  0  0
  -27.5577  -37.1817   24.8483 C   0  0  0  0  0  0
  -21.4224  -29.3089   22.3660 N   0  0  0  0  0  0
  -26.4308  -37.3770   23.9405 N   0  0  0  0  0  0
  -24.7069  -31.0483   22.0934 N   0  0  0  0  0  0
  -23.4222  -28.8136   23.3003 O   0  0  0  0  0  0
  -28.2881  -26.2988   20.2153 O   0  0  0  0  0  0
  -26.5624  -34.8915   22.4682 O   0  0  0  0  0  0
  -23.5516  -32.1401   23.7221 O   0  0  0  0  0  0
  -29.4680  -19.9502   20.2673 C   0  0  0  0  0  0
  -31.0143  -20.2832   22.5424 C   0  0  0  0  0  0
  -30.1923  -18.7803   20.7774 C   0  0  0  0  0  0
  -31.0262  -19.0185   21.9103 C   0  0  0  0  0  0
  -29.5234  -21.2831   20.8639 C   0  0  0  0  0  0
  -30.2738  -21.3789   22.0630 C   0  0  0  0  0  0
  -29.2275  -23.7806   20.1310 C   0  0  0  0  0  0
  -26.9778  -24.0663   20.6839 C   0  0  0  0  0  0
  -27.3262  -22.5616   20.5128 C   0  0  0  0  0  0
  -28.0604  -24.8315   19.8974 C   0  0  1  0  0  0
  -28.9261  -16.1121   21.8174 C   0  0  0  0  0  0
  -30.1848  -17.3377   20.0595 C   0  0  0  0  0  0
  -31.9912  -17.9685   22.4840 C   0  0  0  0  0  0
  -28.7805  -22.4953   20.4049 N   0  0  0  0  0  0
  -29.9323  -15.9848   20.7562 N   0  0  0  0  0  0
  -30.4154  -24.1006   20.0193 O   0  0  0  0  0  0
  -32.9016  -18.5302   23.2821 F   0  0  0  0  0  0
  -31.3370  -17.0647   23.2102 F   0  0  0  0  0  0
  -32.6705  -17.3551   21.5178 F   0  0  0  0  0  0
  -30.2713  -22.8074   23.0406 Cl  0  0  0  0  0  0
  -31.4765  -12.6358   19.1508 H   0  0  0  0  0  0
  -30.4235  -11.5149   19.9555 H   0  0  0  0  0  0
  -29.7938  -11.7243   17.5433 H   0  0  0  0  0  0
  -29.6241  -13.4591   17.7079 H   0  0  0  0  0  0
  -27.9086  -11.2848   18.9290 H   0  0  0  0  0  0
  -27.3742  -12.5292   17.8251 H   0  0  0  0  0  0
  -27.6567  -14.2554   19.5159 H   0  0  0  0  0  0
  -28.7731  -12.0763   21.3364 H   0  0  0  0  0  0
  -28.4155  -13.6627   21.8819 H   0  0  0  0  0  0
  -25.2786   -9.5661   22.4776 H   0  0  0  0  0  0
  -24.0038   -7.4600   22.7450 H   0  0  0  0  0  0
  -21.0891   -8.8797   19.8935 H   0  0  0  0  0  0
  -22.3769  -10.9677   19.6184 H   0  0  0  0  0  0
  -21.2015   -7.6152   23.9711 H   0  0  0  0  0  0
  -21.1464   -6.0529   25.9071 H   0  0  0  0  0  0
  -22.0619   -2.7617   23.2855 H   0  0  0  0  0  0
  -22.4260  -11.9746   22.4729 H   0  0  0  0  0  0
  -21.1196  -13.1070   22.2734 H   0  0  0  0  0  0
  -24.6593  -15.8432   20.5394 H   0  0  0  0  0  0
  -26.2760  -15.6308   20.0964 H   0  0  0  0  0  0
  -26.7301  -32.5394   23.1115 H   0  0  0  0  0  0
  -25.0047  -33.9669   25.0386 H   0  0  0  0  0  0
  -22.7339  -31.2999   21.3907 H   0  0  0  0  0  0
  -23.3743  -35.9620   23.3344 H   0  0  0  0  0  0
  -24.3577  -36.8867   22.2062 H   0  0  0  0  0  0
  -23.7238  -37.6503   23.6644 H   0  0  0  0  0  0
  -26.1422  -31.5108   20.6126 H   0  0  0  0  0  0
  -26.8619  -30.8055   22.0210 H   0  0  0  0  0  0
  -28.1126  -28.8692   21.2515 H   0  0  0  0  0  0
  -25.9528  -25.9387   18.9215 H   0  0  0  0  0  0
  -23.9865  -27.3331   18.9555 H   0  0  0  0  0  0
  -23.7882  -30.5934   19.4031 H   0  0  0  0  0  0
  -22.7744  -29.2529   19.8389 H   0  0  0  0  0  0
  -25.1296  -36.1950   25.0849 H   0  0  0  0  0  0
  -20.9947  -28.3312   24.1397 H   0  0  0  0  0  0
  -20.5672  -26.2336   23.3663 H   0  0  0  0  0  0
  -21.6657  -26.7438   22.1234 H   0  0  0  0  0  0
  -19.6896  -25.6243   21.1299 H   0  0  0  0  0  0
  -19.6689  -27.3110   20.6754 H   0  0  0  0  0  0
  -17.4200  -26.6628   21.4084 H   0  0  0  0  0  0
  -18.0320  -26.0080   22.9072 H   0  0  0  0  0  0
  -19.7939  -30.7254   24.2263 H   0  0  0  0  0  0
  -17.5028  -31.6256   24.5146 H   0  0  0  0  0  0
  -15.5356  -30.2997   23.7556 H   0  0  0  0  0  0
  -15.8686  -28.0739   22.7178 H   0  0  0  0  0  0
  -24.5919  -30.7054   25.7801 H   0  0  0  0  0  0
  -24.8867  -32.2883   26.4879 H   0  0  0  0  0  0
  -25.8041  -30.8948   27.0252 H   0  0  0  0  0  0
  -26.2954  -29.6771   24.1268 H   0  0  0  0  0  0
  -27.4011  -29.7285   25.4809 H   0  0  0  0  0  0
  -27.8859  -30.4295   23.9549 H   0  0  0  0  0  0
  -27.2678  -33.3650   26.2095 H   0  0  0  0  0  0
  -28.3886  -32.6886   25.0380 H   0  0  0  0  0  0
  -28.0716  -31.8478   26.5478 H   0  0  0  0  0  0
  -28.2639  -38.0061   24.7460 H   0  0  0  0  0  0
  -28.1011  -36.2602   24.6392 H   0  0  0  0  0  0
  -27.2276  -37.1570   25.8876 H   0  0  0  0  0  0
  -20.9410  -29.8883   21.6922 H   0  0  0  0  0  0
  -26.0193  -38.2864   24.1355 H   0  0  0  0  0  0
  -28.8593  -19.8257   19.3823 H   0  0  0  0  0  0
  -31.6027  -20.4332   23.4321 H   0  0  0  0  0  0
  -27.0327  -24.3350   21.7409 H   0  0  0  0  0  0
  -25.9605  -24.2643   20.3498 H   0  0  0  0  0  0
  -26.8845  -22.1606   19.5967 H   0  0  0  0  0  0
  -26.9558  -21.9658   21.3452 H   0  0  0  0  0  0
  -27.8404  -24.7684   18.8315 H   0  0  0  0  0  0
  -28.8054  -17.1350   22.1760 H   0  0  0  0  0  0
  -29.1932  -15.5177   22.6912 H   0  0  0  0  0  0
  -27.9457  -15.8111   21.4572 H   0  0  0  0  0  0
  -31.1367  -17.2679   19.5305 H   0  0  0  0  0  0
  -29.4484  -17.3923   19.2570 H   0  0  0  0  0  0
  1 25  1  0  0  0
  1 30  2  0  0  0
  1 85  1  0  0  0
  2  3  1  0  0  0
  2 25  1  0  0  0
  2 91  1  0  0  0
  2 92  1  0  0  0
  3  4  1  0  0  0
  3 93  1  0  0  0
  3 94  1  0  0  0
  4  5  1  0  0  0
  4 95  1  0  0  0
  4 96  1  0  0  0
  5  6  1  0  0  0
  5 26  1  0  0  0
  5 97  1  0  0  0
  6 25  1  0  0  0
  6 98  1  0  0  0
  6 99  1  0  0  0
  7  8  2  0  0  0
  7 26  1  0  0  0
  7 29  1  0  0  0
  8  9  1  0  0  0
  8 22  1  0  0  0
  9 10  1  0  0  0
  9 27  2  0  0  0
 10 11  2  0  0  0
 10 15  1  0  0  0
 11 12  1  0  0  0
 11100  1  0  0  0
 12 13  2  0  0  0
 12101  1  0  0  0
 13 14  1  0  0  0
 13 31  1  0  0  0
 14 15  2  0  0  0
 14102  1  0  0  0
 15103  1  0  0  0
 16 17  2  0  0  0
 16 21  1  0  0  0
 16 31  1  0  0  0
 17 18  1  0  0  0
 17104  1  0  0  0
 18 19  2  0  0  0
 18105  1  0  0  0
 19 20  1  0  0  0
 19 24  1  0  0  0
 20 21  2  0  0  0
 20106  1  0  0  0
 21 23  1  0  0  0
 22 28  1  0  0  0
 22 32  2  0  0  0
 26 27  1  0  0  0
 28107  1  0  0  0
 28108  1  0  0  0
 29109  1  0  0  0
 29110  1  0  0  0
 33 34  1  0  0  0
 33 66  1  0  0  0
 33 70  2  0  0  0
 34 36  1  0  0  0
 34 59  1  0  0  0
 34111  1  0  0  0
 35 44  2  0  0  0
 35 45  1  0  0  0
 35 68  1  0  0  0
 36 56  1  0  0  0
 36112  1  0  0  0
 37 39  1  0  0  0
 37 47  1  0  0  0
 37 66  1  0  0  0
 37113  1  0  0  0
 38 43  2  0  0  0
 38 46  1  0  0  0
 38 47  1  0  0  0
 39 64  1  0  0  0
 39 67  2  0  0  0
 40 52  1  0  0  0
 40 53  2  0  0  0
 40 58  1  0  0  0
 41114  1  0  0  0
 41115  1  0  0  0
 41116  1  0  0  0
 41 48  1  0  0  0
 42 43  1  0  0  0
 42 66  1  0  0  0
 42117  1  0  0  0
 42118  1  0  0  0
 43 44  1  0  0  0
 44119  1  0  0  0
 45 46  2  0  0  0
 45120  1  0  0  0
 46121  1  0  0  0
 47122  1  0  0  0
 47123  1  0  0  0
 48 56  1  0  0  0
 48 65  1  0  0  0
 48124  1  0  0  0
 49 50  1  0  0  0
 49 53  1  0  0  0
 49 64  1  0  0  0
 49125  1  0  0  0
 50 51  1  0  0  0
 50126  1  0  0  0
 50127  1  0  0  0
 51 52  1  0  0  0
 51128  1  0  0  0
 51129  1  0  0  0
 52130  1  0  0  0
 52131  1  0  0  0
 53 54  1  0  0  0
 54 55  2  0  0  0
 54132  1  0  0  0
 55 57  1  0  0  0
 55133  1  0  0  0
 56 69  2  0  0  0
 57 58  2  0  0  0
 57134  1  0  0  0
 58135  1  0  0  0
 59 60  1  0  0  0
 59 61  1  0  0  0
 59 62  1  0  0  0
 60136  1  0  0  0
 60137  1  0  0  0
 60138  1  0  0  0
 61139  1  0  0  0
 61140  1  0  0  0
 61141  1  0  0  0
 62142  1  0  0  0
 62143  1  0  0  0
 62144  1  0  0  0
 63 65  1  0  0  0
 63145  1  0  0  0
 63146  1  0  0  0
 63147  1  0  0  0
 64148  1  0  0  0
 65149  1  0  0  0
 68 80  1  0  0  0
 71 73  2  0  0  0
 71 75  1  0  0  0
 71150  1  0  0  0
 72 74  2  0  0  0
 72 76  1  0  0  0
 72151  1  0  0  0
 73 74  1  0  0  0
 73 82  1  0  0  0
 74 83  1  0  0  0
 75 76  2  0  0  0
 75 84  1  0  0  0
 76 90  1  0  0  0
 77 80  1  0  0  0
 77 84  1  0  0  0
 77 86  2  0  0  0
 78 79  1  0  0  0
 78 80  1  0  0  0
 78152  1  0  0  0
 78153  1  0  0  0
 79 84  1  0  0  0
 79154  1  0  0  0
 79155  1  0  0  0
 80156  1  0  0  0
 81 85  1  0  0  0
 81157  1  0  0  0
 81158  1  0  0  0
 81159  1  0  0  0
 82 85  1  0  0  0
 82160  1  0  0  0
 82161  1  0  0  0
 83 87  1  0  0  0
 83 88  1  0  0  0
 83 89  1  0  0  0
M  ISO  4   1 100  68 101  80 101  85 100
M  END
> <chiral flag>
0

> <version>
0

> <s_m_source_file>
/data/baiqing/PycharmProjects/Reinvent-master-3.2/result/LINK_invent/BTK/process_docking_weight1_custom_product_contain_oxygen_bond_distance_aromatic_linkinvent_7_9_3/rearranged_h_0028.sdf

> <i_m_source_file_index>
59

> <r_mmod_Potential_Energy-OPLS-2005>
462.5615234375

> <r_mmod_Stretch_Energy-OPLS-2005>
150.265106201172

> <r_mmod_Bend_Energy-OPLS-2005>
225.396194458008

> <r_mmod_Torsional_Energy-OPLS-2005>
317.871917724609

> <r_mmod_Improper_Torsional_Energy-OPLS-2005>
9.74288177490234

> <r_mmod_Van_der_Waal_Energy-OPLS-2005>
149.054794311523

> <r_mmod_Electrostatic_Energy-OPLS-2005>
-271.141723632812

> <r_mmod_Solvation_Energy-OPLS-2005>
-218.01806640625

> <b_mmod_Minimization_Converged-OPLS-2005>
0

> <r_mmod_RMS_Derivative-OPLS-2005>
5.22520017623901

$$$$
59
                    3D
 Structure written by MMmdl.
163172  0  0  1  0            999 V2000
  -30.7049  -14.5356   20.4821 C   0  0  0  0  0  0
  -30.4048  -12.3219   19.4561 C   0  0  0  0  0  0
  -29.4939  -12.4802   18.2218 C   0  0  0  0  0  0
  -28.0162  -12.3420   18.6332 C   0  0  0  0  0  0
  -27.6485  -13.2205   19.8605 C   0  0  2  0  0  0
  -28.6909  -13.0919   20.9957 C   0  0  0  0  0  0
  -25.2542  -13.8190   20.5705 C   0  0  0  0  0  0
  -24.1813  -13.0448   20.9204 C   0  0  0  0  0  0
  -24.6381  -11.6919   20.8750 C   0  0  0  0  0  0
  -23.9053  -10.4299   21.0403 C   0  0  0  0  0  0
  -24.3610   -9.4214   21.9178 C   0  0  0  0  0  0
  -23.6294   -8.2247   22.0744 C   0  0  0  0  0  0
  -22.4279   -8.0282   21.3538 C   0  0  0  0  0  0
  -21.9910   -9.0249   20.4638 C   0  0  0  0  0  0
  -22.7227  -10.2135   20.3047 C   0  0  0  0  0  0
  -21.6854   -6.0738   22.5279 C   0  0  0  0  0  0
  -21.4015   -6.5639   23.8214 C   0  0  0  0  0  0
  -21.3660   -5.6791   24.9175 C   0  0  0  0  0  0
  -21.6048   -4.3054   24.7224 C   0  0  0  0  0  0
  -21.8817   -3.8147   23.4344 C   0  0  0  0  0  0
  -21.9191   -4.6964   22.3403 C   0  0  0  0  0  0
  -22.7836  -13.5236   21.1861 C   0  0  0  0  0  0
  -22.1659   -4.2151   21.0979 F   0  0  0  0  0  0
  -21.5628   -3.4537   25.7736 F   0  0  0  0  0  0
  -30.0133  -13.3637   20.4224 N   0  0  0  0  0  0
  -26.2962  -12.9383   20.3329 N   0  0  0  0  0  0
  -25.9309  -11.6529   20.5778 N   0  0  0  0  0  0
  -22.0478  -12.8221   22.0414 N   0  0  0  0  0  0
  -25.4255  -15.1911   20.4120 N   0  0  0  0  0  0
  -31.8881  -14.5978   20.1430 O   0  0  0  0  0  0
  -21.6644   -6.8880   21.4241 O   0  0  0  0  0  0
  -22.3521  -14.5541   20.6708 O   0  0  0  0  0  0
  -24.6175  -31.8655   23.2061 C   0  0  0  0  0  0
  -25.9056  -32.4808   23.8366 C   0  0  1  0  0  0
  -27.2275  -27.3985   20.1085 C   0  0  0  0  0  0
  -25.5901  -33.8605   24.2302 N   0  0  0  0  0  0
  -23.4060  -30.4886   21.5473 C   0  0  2  0  0  0
  -24.8504  -28.9472   20.1128 C   0  0  0  0  0  0
  -22.7423  -29.4653   22.4975 C   0  0  0  0  0  0
  -18.0276  -28.1380   22.8493 C   0  0  0  0  0  0
  -24.1490  -36.7313   23.2639 C   0  0  0  0  0  0
  -25.9368  -30.8222   21.3609 C   0  0  0  0  0  0
  -26.0119  -29.4535   20.7082 C   0  0  0  0  0  0
  -27.2033  -28.6888   20.6961 C   0  0  0  0  0  0
  -26.0477  -26.9136   19.5024 C   0  0  0  0  0  0
  -24.8654  -27.6796   19.5041 C   0  0  0  0  0  0
  -23.6145  -29.8188   20.1622 C   0  0  0  0  0  0
  -25.4111  -36.3105   24.0335 C   0  0  1  0  0  0
  -20.5868  -28.3669   23.1313 C   0  0  2  0  0  0
  -20.6766  -26.9403   22.5418 C   0  0  0  0  0  0
  -19.5743  -26.6386   21.5215 C   0  0  0  0  0  0
  -18.1922  -26.7927   22.1626 C   0  0  0  0  0  0
  -19.1525  -28.8840   23.2903 C   0  0  0  0  0  0
  -18.9452  -30.1446   23.8913 C   0  0  0  0  0  0
  -17.6453  -30.6584   24.0567 C   0  0  0  0  0  0
  -25.9038  -34.9470   23.5119 C   0  0  0  0  0  0
  -16.5345  -29.9087   23.6323 C   0  0  0  0  0  0
  -16.7264  -28.6504   23.0345 C   0  0  0  0  0  0
  -26.4473  -31.6596   25.0707 C   0  0  0  0  0  0
  -25.3730  -31.3708   26.1450 C   0  0  0  0  0  0
  -27.0308  -30.3038   24.6098 C   0  0  0  0  0  0
  -27.6049  -32.4316   25.7470 C   0  0  0  0  0  0
  -27.5583  -37.1812   24.8466 C   0  0  0  0  0  0
  -21.4147  -29.3036   22.3718 N   0  0  0  0  0  0
  -26.4298  -37.3789   23.9405 N   0  0  0  0  0  0
  -24.6721  -31.0738   22.0966 N   0  0  0  0  0  0
  -23.4187  -28.8201   23.3030 O   0  0  0  0  0  0
  -28.3964  -26.6578   20.1384 O   0  0  0  0  0  0
  -26.5608  -34.8927   22.4685 O   0  0  0  0  0  0
  -23.5362  -32.1415   23.7448 O   0  0  0  0  0  0
  -28.7531  -18.6150   21.0628 C   0  0  0  0  0  0
  -30.4141  -20.7771   20.3973 C   0  0  0  0  0  0
  -28.3711  -19.9482   21.3953 C   0  0  0  0  0  0
  -29.9808  -18.3494   20.4158 C   0  0  0  0  0  0
  -29.2386  -21.0584   21.1325 C   0  0  0  0  0  0
  -30.7767  -19.4601   20.0496 C   0  0  0  0  0  0
  -29.8445  -23.4777   21.3953 C   0  0  0  0  0  0
  -29.5970  -24.6380   20.7337 C   0  0  0  0  0  0
  -31.0699  -23.3883   22.2865 C   0  0  0  0  0  0
  -30.6286  -22.4777   23.4293 C   0  0  0  0  0  0
  -29.1466  -22.2387   23.1259 C   0  0  0  0  0  0
  -27.0107  -20.1452   22.0467 C   0  0  0  0  0  0
  -30.4950  -16.9467   20.0164 C   0  0  0  0  0  0
  -28.3376  -25.2096   20.0856 C   0  0  0  0  0  0
  -29.0200  -22.3712   21.6708 N   0  0  0  0  0  0
  -29.9905  -15.6833   20.6239 N   0  0  0  0  0  0
  -31.9304  -19.2652   19.3657 F   0  0  0  0  0  0
  -31.4539  -12.3856   19.1623 H   0  0  0  0  0  0
  -30.2808  -11.3332   19.8997 H   0  0  0  0  0  0
  -29.7440  -11.7301   17.4704 H   0  0  0  0  0  0
  -29.6607  -13.4519   17.7531 H   0  0  0  0  0  0
  -27.8395  -11.2909   18.8645 H   0  0  0  0  0  0
  -27.3641  -12.5782   17.7917 H   0  0  0  0  0  0
  -27.6644  -14.2531   19.5119 H   0  0  0  0  0  0
  -28.6721  -12.0904   21.4276 H   0  0  0  0  0  0
  -28.4635  -13.7802   21.8113 H   0  0  0  0  0  0
  -25.2747   -9.5700   22.4761 H   0  0  0  0  0  0
  -24.0006   -7.4639   22.7457 H   0  0  0  0  0  0
  -21.0844   -8.8753   19.8946 H   0  0  0  0  0  0
  -22.3667  -10.9670   19.6163 H   0  0  0  0  0  0
  -21.2010   -7.6148   23.9717 H   0  0  0  0  0  0
  -21.1486   -6.0521   25.9078 H   0  0  0  0  0  0
  -22.0600   -2.7609   23.2839 H   0  0  0  0  0  0
  -22.4093  -11.9883   22.4806 H   0  0  0  0  0  0
  -21.1094  -13.1240   22.2615 H   0  0  0  0  0  0
  -24.6600  -15.8461   20.5282 H   0  0  0  0  0  0
  -26.2738  -15.6306   20.0781 H   0  0  0  0  0  0
  -26.7130  -32.5507   23.1129 H   0  0  0  0  0  0
  -25.0047  -33.9757   25.0446 H   0  0  0  0  0  0
  -22.6960  -31.3064   21.4070 H   0  0  0  0  0  0
  -23.3746  -35.9653   23.3315 H   0  0  0  0  0  0
  -24.3583  -36.8915   22.2051 H   0  0  0  0  0  0
  -23.7251  -37.6524   23.6645 H   0  0  0  0  0  0
  -26.0526  -31.5870   20.5915 H   0  0  0  0  0  0
  -26.8237  -30.8759   21.9804 H   0  0  0  0  0  0
  -28.1007  -29.0764   21.1580 H   0  0  0  0  0  0
  -26.0293  -25.9446   19.0243 H   0  0  0  0  0  0
  -23.9724  -27.2863   19.0382 H   0  0  0  0  0  0
  -23.7248  -30.5930   19.4020 H   0  0  0  0  0  0
  -22.7367  -29.2414   19.8664 H   0  0  0  0  0  0
  -25.1292  -36.1970   25.0830 H   0  0  0  0  0  0
  -20.9964  -28.3237   24.1432 H   0  0  0  0  0  0
  -20.5671  -26.2277   23.3607 H   0  0  0  0  0  0
  -21.6637  -26.7444   22.1208 H   0  0  0  0  0  0
  -19.6904  -25.6302   21.1235 H   0  0  0  0  0  0
  -19.6682  -27.3206   20.6754 H   0  0  0  0  0  0
  -17.4194  -26.6679   21.4027 H   0  0  0  0  0  0
  -18.0319  -26.0066   22.9018 H   0  0  0  0  0  0
  -19.7927  -30.7259   24.2292 H   0  0  0  0  0  0
  -17.5006  -31.6266   24.5168 H   0  0  0  0  0  0
  -15.5346  -30.2994   23.7636 H   0  0  0  0  0  0
  -15.8665  -28.0830   22.7046 H   0  0  0  0  0  0
  -24.5900  -30.7063   25.7778 H   0  0  0  0  0  0
  -24.8922  -32.2865   26.4902 H   0  0  0  0  0  0
  -25.8071  -30.8866   27.0206 H   0  0  0  0  0  0
  -26.2856  -29.6793   24.1156 H   0  0  0  0  0  0
  -27.4083  -29.7282   25.4561 H   0  0  0  0  0  0
  -27.8687  -30.4358   23.9247 H   0  0  0  0  0  0
  -27.2672  -33.3609   26.2070 H   0  0  0  0  0  0
  -28.3842  -32.6888   25.0283 H   0  0  0  0  0  0
  -28.0735  -31.8425   26.5363 H   0  0  0  0  0  0
  -28.2612  -38.0097   24.7503 H   0  0  0  0  0  0
  -28.1068  -36.2631   24.6306 H   0  0  0  0  0  0
  -27.2299  -37.1479   25.8868 H   0  0  0  0  0  0
  -20.9310  -29.8759   21.6940 H   0  0  0  0  0  0
  -26.0190  -38.2874   24.1385 H   0  0  0  0  0  0
  -28.0954  -17.7933   21.3076 H   0  0  0  0  0  0
  -31.0945  -21.5680   20.1235 H   0  0  0  0  0  0
  -30.4020  -25.3599   20.7328 H   0  0  0  0  0  0
  -31.3344  -24.3730   22.6758 H   0  0  0  0  0  0
  -31.9353  -22.9993   21.7484 H   0  0  0  0  0  0
  -30.7814  -22.9192   24.4151 H   0  0  0  0  0  0
  -31.1806  -21.5377   23.3920 H   0  0  0  0  0  0
  -28.5367  -23.0119   23.5972 H   0  0  0  0  0  0
  -28.8210  -21.2888   23.5493 H   0  0  0  0  0  0
  -26.2691  -19.4922   21.5864 H   0  0  0  0  0  0
  -26.6533  -21.1695   21.9363 H   0  0  0  0  0  0
  -27.0522  -19.9059   23.1090 H   0  0  0  0  0  0
  -31.5752  -16.9934   20.1672 H   0  0  0  0  0  0
  -30.3587  -16.8607   18.9370 H   0  0  0  0  0  0
  -27.4669  -24.8183   20.6142 H   0  0  0  0  0  0
  -28.2844  -24.8828   19.0465 H   0  0  0  0  0  0
  -29.0129  -15.6142   20.8586 H   0  0  0  0  0  0
  1 25  1  0  0  0
  1 30  2  0  0  0
  1 86  1  0  0  0
  2  3  1  0  0  0
  2 25  1  0  0  0
  2 88  1  0  0  0
  2 89  1  0  0  0
  3  4  1  0  0  0
  3 90  1  0  0  0
  3 91  1  0  0  0
  4  5  1  0  0  0
  4 92  1  0  0  0
  4 93  1  0  0  0
  5  6  1  0  0  0
  5 26  1  0  0  0
  5 94  1  0  0  0
  6 25  1  0  0  0
  6 95  1  0  0  0
  6 96  1  0  0  0
  7  8  2  0  0  0
  7 26  1  0  0  0
  7 29  1  0  0  0
  8  9  1  0  0  0
  8 22  1  0  0  0
  9 10  1  0  0  0
  9 27  2  0  0  0
 10 11  2  0  0  0
 10 15  1  0  0  0
 11 12  1  0  0  0
 11 97  1  0  0  0
 12 13  2  0  0  0
 12 98  1  0  0  0
 13 14  1  0  0  0
 13 31  1  0  0  0
 14 15  2  0  0  0
 14 99  1  0  0  0
 15100  1  0  0  0
 16 17  2  0  0  0
 16 21  1  0  0  0
 16 31  1  0  0  0
 17 18  1  0  0  0
 17101  1  0  0  0
 18 19  2  0  0  0
 18102  1  0  0  0
 19 20  1  0  0  0
 19 24  1  0  0  0
 20 21  2  0  0  0
 20103  1  0  0  0
 21 23  1  0  0  0
 22 28  1  0  0  0
 22 32  2  0  0  0
 26 27  1  0  0  0
 28104  1  0  0  0
 28105  1  0  0  0
 29106  1  0  0  0
 29107  1  0  0  0
 33 34  1  0  0  0
 33 66  1  0  0  0
 33 70  2  0  0  0
 34 36  1  0  0  0
 34 59  1  0  0  0
 34108  1  0  0  0
 35 44  2  0  0  0
 35 45  1  0  0  0
 35 68  1  0  0  0
 36 56  1  0  0  0
 36109  1  0  0  0
 37 39  1  0  0  0
 37 47  1  0  0  0
 37 66  1  0  0  0
 37110  1  0  0  0
 38 43  2  0  0  0
 38 46  1  0  0  0
 38 47  1  0  0  0
 39 64  1  0  0  0
 39 67  2  0  0  0
 40 52  1  0  0  0
 40 53  2  0  0  0
 40 58  1  0  0  0
 41111  1  0  0  0
 41112  1  0  0  0
 41113  1  0  0  0
 41 48  1  0  0  0
 42 43  1  0  0  0
 42 66  1  0  0  0
 42114  1  0  0  0
 42115  1  0  0  0
 43 44  1  0  0  0
 44116  1  0  0  0
 45 46  2  0  0  0
 45117  1  0  0  0
 46118  1  0  0  0
 47119  1  0  0  0
 47120  1  0  0  0
 48 56  1  0  0  0
 48 65  1  0  0  0
 48121  1  0  0  0
 49 50  1  0  0  0
 49 53  1  0  0  0
 49 64  1  0  0  0
 49122  1  0  0  0
 50 51  1  0  0  0
 50123  1  0  0  0
 50124  1  0  0  0
 51 52  1  0  0  0
 51125  1  0  0  0
 51126  1  0  0  0
 52127  1  0  0  0
 52128  1  0  0  0
 53 54  1  0  0  0
 54 55  2  0  0  0
 54129  1  0  0  0
 55 57  1  0  0  0
 55130  1  0  0  0
 56 69  2  0  0  0
 57 58  2  0  0  0
 57131  1  0  0  0
 58132  1  0  0  0
 59 60  1  0  0  0
 59 61  1  0  0  0
 59 62  1  0  0  0
 60133  1  0  0  0
 60134  1  0  0  0
 60135  1  0  0  0
 61136  1  0  0  0
 61137  1  0  0  0
 61138  1  0  0  0
 62139  1  0  0  0
 62140  1  0  0  0
 62141  1  0  0  0
 63 65  1  0  0  0
 63142  1  0  0  0
 63143  1  0  0  0
 63144  1  0  0  0
 64145  1  0  0  0
 65146  1  0  0  0
 68 84  1  0  0  0
 71 73  2  0  0  0
 71 74  1  0  0  0
 71147  1  0  0  0
 72 75  2  0  0  0
 72 76  1  0  0  0
 72148  1  0  0  0
 73 75  1  0  0  0
 73 82  1  0  0  0
 74 76  2  0  0  0
 74 83  1  0  0  0
 75 85  1  0  0  0
 76 87  1  0  0  0
 77 78  2  0  0  0
 77 79  1  0  0  0
 77 85  1  0  0  0
 78 84  1  0  0  0
 78149  1  0  0  0
 79 80  1  0  0  0
 79150  1  0  0  0
 79151  1  0  0  0
 80 81  1  0  0  0
 80152  1  0  0  0
 80153  1  0  0  0
 81 85  1  0  0  0
 81154  1  0  0  0
 81155  1  0  0  0
 82156  1  0  0  0
 82157  1  0  0  0
 82158  1  0  0  0
 83 86  1  0  0  0
 83159  1  0  0  0
 83160  1  0  0  0
 84161  1  0  0  0
 84162  1  0  0  0
 86163  1  0  0  0
M  ISO  4   1 100  68 101  84 101  86 100
M  END
> <chiral flag>
0

> <version>
0

> <s_m_source_file>
/data/baiqing/PycharmProjects/Reinvent-master-3.2/result/LINK_invent/BTK/process_docking_weight1_custom_product_contain_oxygen_bond_distance_aromatic_linkinvent_7_9_3/rearranged_h_0028.sdf

> <i_m_source_file_index>
60

> <r_mmod_Potential_Energy-OPLS-2005>
82.4104232788086

> <r_mmod_Stretch_Energy-OPLS-2005>
50.1318016052246

> <r_mmod_Bend_Energy-OPLS-2005>
177.667098999023

> <r_mmod_Torsional_Energy-OPLS-2005>
277.625305175781

> <r_mmod_Improper_Torsional_Energy-OPLS-2005>
15.9869432449341

> <r_mmod_Van_der_Waal_Energy-OPLS-2005>
161.123336791992

> <r_mmod_Electrostatic_Energy-OPLS-2005>
-420.133544921875

> <r_mmod_Solvation_Energy-OPLS-2005>
-206.522872924805

> <b_mmod_Minimization_Converged-OPLS-2005>
0

> <r_mmod_RMS_Derivative-OPLS-2005>
0.888453125953674

$$$$
60
                    3D
 Structure written by MMmdl.
156165  0  0  1  0            999 V2000
  -30.6057  -14.7531   20.4559 C   0  0  0  0  0  0
  -30.4320  -12.4591   19.4787 C   0  0  0  0  0  0
  -29.5114  -12.5153   18.2389 C   0  0  0  0  0  0
  -28.0354  -12.3428   18.6486 C   0  0  0  0  0  0
  -27.6421  -13.2362   19.8556 C   0  0  2  0  0  0
  -28.6870  -13.1685   20.9915 C   0  0  0  0  0  0
  -25.2494  -13.8199   20.5695 C   0  0  0  0  0  0
  -24.1792  -13.0435   20.9199 C   0  0  0  0  0  0
  -24.6402  -11.6918   20.8754 C   0  0  0  0  0  0
  -23.9082  -10.4290   21.0408 C   0  0  0  0  0  0
  -24.3626   -9.4203   21.9183 C   0  0  0  0  0  0
  -23.6296   -8.2240   22.0754 C   0  0  0  0  0  0
  -22.4280   -8.0282   21.3541 C   0  0  0  0  0  0
  -21.9919   -9.0256   20.4643 C   0  0  0  0  0  0
  -22.7254  -10.2133   20.3053 C   0  0  0  0  0  0
  -21.6854   -6.0737   22.5277 C   0  0  0  0  0  0
  -21.4014   -6.5641   23.8209 C   0  0  0  0  0  0
  -21.3658   -5.6794   24.9172 C   0  0  0  0  0  0
  -21.6045   -4.3057   24.7223 C   0  0  0  0  0  0
  -21.8817   -3.8148   23.4344 C   0  0  0  0  0  0
  -21.9192   -4.6966   22.3402 C   0  0  0  0  0  0
  -22.7814  -13.5207   21.1860 C   0  0  0  0  0  0
  -22.1661   -4.2153   21.0980 F   0  0  0  0  0  0
  -21.5628   -3.4542   25.7736 F   0  0  0  0  0  0
  -29.9877  -13.5219   20.4105 N   0  0  0  0  0  0
  -26.2940  -12.9423   20.3316 N   0  0  0  0  0  0
  -25.9336  -11.6558   20.5768 N   0  0  0  0  0  0
  -22.0473  -12.8190   22.0424 N   0  0  0  0  0  0
  -25.4145  -15.1918   20.4088 N   0  0  0  0  0  0
  -31.7887  -14.8553   20.1216 O   0  0  0  0  0  0
  -21.6642   -6.8880   21.4238 O   0  0  0  0  0  0
  -22.3493  -14.5515   20.6720 O   0  0  0  0  0  0
  -24.6315  -31.8528   23.1962 C   0  0  0  0  0  0
  -25.9143  -32.4733   23.8322 C   0  0  1  0  0  0
  -27.2353  -27.2609   20.1319 C   0  0  0  0  0  0
  -25.5939  -33.8541   24.2251 N   0  0  0  0  0  0
  -23.4293  -30.4707   21.5385 C   0  0  2  0  0  0
  -24.8788  -28.9100   20.1104 C   0  0  0  0  0  0
  -22.7500  -29.4579   22.4912 C   0  0  0  0  0  0
  -18.0287  -28.1397   22.8489 C   0  0  0  0  0  0
  -24.1482  -36.7262   23.2640 C   0  0  0  0  0  0
  -25.9726  -30.7647   21.3749 C   0  0  0  0  0  0
  -26.0464  -29.3860   20.7181 C   0  0  0  0  0  0
  -27.2226  -28.5723   20.7165 C   0  0  0  0  0  0
  -26.0419  -26.8402   19.5066 C   0  0  0  0  0  0
  -24.8808  -27.6456   19.4962 C   0  0  0  0  0  0
  -23.6480  -29.7963   20.1567 C   0  0  0  0  0  0
  -25.4112  -36.3054   24.0327 C   0  0  1  0  0  0
  -20.5893  -28.3701   23.1276 C   0  0  2  0  0  0
  -20.6771  -26.9413   22.5423 C   0  0  0  0  0  0
  -19.5749  -26.6386   21.5223 C   0  0  0  0  0  0
  -18.1922  -26.7939   22.1623 C   0  0  0  0  0  0
  -19.1542  -28.8867   23.2871 C   0  0  0  0  0  0
  -18.9465  -30.1470   23.8885 C   0  0  0  0  0  0
  -17.6466  -30.6593   24.0570 C   0  0  0  0  0  0
  -25.9062  -34.9428   23.5093 C   0  0  0  0  0  0
  -16.5356  -29.9090   23.6348 C   0  0  0  0  0  0
  -16.7273  -28.6514   23.0360 C   0  0  0  0  0  0
  -26.4505  -31.6567   25.0720 C   0  0  0  0  0  0
  -25.3725  -31.3759   26.1449 C   0  0  0  0  0  0
  -27.0329  -30.2966   24.6230 C   0  0  0  0  0  0
  -27.6084  -32.4294   25.7476 C   0  0  0  0  0  0
  -27.5571  -37.1779   24.8465 C   0  0  0  0  0  0
  -21.4212  -29.3032   22.3651 N   0  0  0  0  0  0
  -26.4281  -37.3759   23.9416 N   0  0  0  0  0  0
  -24.6966  -31.0487   22.0933 N   0  0  0  0  0  0
  -23.4185  -28.8127   23.3033 O   0  0  0  0  0  0
  -28.3705  -26.4230   20.2084 O   0  0  0  0  0  0
  -26.5628  -34.8907   22.4656 O   0  0  0  0  0  0
  -23.5465  -32.1363   23.7260 O   0  0  0  0  0  0
  -27.6089  -20.8807   21.5667 C   0  0  0  0  0  0
  -27.3663  -19.5904   22.0729 C   0  0  0  0  0  0
  -29.2481  -18.6164   20.8210 C   0  0  0  0  0  0
  -28.6709  -21.1437   20.6791 C   0  0  0  0  0  0
  -29.4834  -19.9746   20.3206 C   0  0  0  0  0  0
  -28.1617  -18.4807   21.7264 C   0  0  0  0  0  0
  -29.9104  -24.5785   19.5401 C   0  0  0  0  0  0
  -29.9644  -23.0237   19.4702 C   0  0  0  0  0  0
  -28.0005  -23.7329   20.6182 C   0  0  0  0  0  0
  -28.4382  -24.9936   19.7437 C   0  0  1  0  0  0
  -30.1868  -17.3660   20.4385 C   0  0  0  0  0  0
  -28.8281  -22.5298   20.2374 N   0  0  0  0  0  0
  -29.8311  -15.8859   20.6607 N   0  0  0  0  0  0
  -30.5280  -20.1525   19.4738 F   0  0  0  0  0  0
  -27.7574  -16.9787   22.4818 Cl  0  0  0  0  0  0
  -31.4745  -12.5805   19.1800 H   0  0  0  0  0  0
  -30.3715  -11.4819   19.9614 H   0  0  0  0  0  0
  -29.7929  -11.7435   17.5213 H   0  0  0  0  0  0
  -29.6391  -13.4710   17.7272 H   0  0  0  0  0  0
  -27.8849  -11.2925   18.9021 H   0  0  0  0  0  0
  -27.3814  -12.5472   17.8002 H   0  0  0  0  0  0
  -27.6351  -14.2596   19.4799 H   0  0  0  0  0  0
  -28.7232  -12.1699   21.4291 H   0  0  0  0  0  0
  -28.4241  -13.8491   21.8026 H   0  0  0  0  0  0
  -25.2767   -9.5684   22.4760 H   0  0  0  0  0  0
  -24.0007   -7.4636   22.7476 H   0  0  0  0  0  0
  -21.0849   -8.8772   19.8952 H   0  0  0  0  0  0
  -22.3706  -10.9669   19.6165 H   0  0  0  0  0  0
  -21.2005   -7.6147   23.9714 H   0  0  0  0  0  0
  -21.1484   -6.0525   25.9074 H   0  0  0  0  0  0
  -22.0597   -2.7611   23.2843 H   0  0  0  0  0  0
  -22.4104  -11.9846   22.4787 H   0  0  0  0  0  0
  -21.1089  -13.1202   22.2644 H   0  0  0  0  0  0
  -24.6516  -15.8448   20.5469 H   0  0  0  0  0  0
  -26.2722  -15.6417   20.1202 H   0  0  0  0  0  0
  -26.7202  -32.5381   23.1060 H   0  0  0  0  0  0
  -25.0100  -33.9681   25.0408 H   0  0  0  0  0  0
  -22.7268  -31.2931   21.3863 H   0  0  0  0  0  0
  -23.3764  -35.9570   23.3277 H   0  0  0  0  0  0
  -24.3572  -36.8923   22.2059 H   0  0  0  0  0  0
  -23.7219  -37.6445   23.6684 H   0  0  0  0  0  0
  -26.1133  -31.5237   20.6041 H   0  0  0  0  0  0
  -26.8497  -30.8139   22.0091 H   0  0  0  0  0  0
  -28.1197  -28.9307   21.2029 H   0  0  0  0  0  0
  -25.9806  -25.8663   19.0444 H   0  0  0  0  0  0
  -23.9818  -27.2716   19.0254 H   0  0  0  0  0  0
  -23.7694  -30.5692   19.3969 H   0  0  0  0  0  0
  -22.7673  -29.2253   19.8555 H   0  0  0  0  0  0
  -25.1288  -36.1893   25.0818 H   0  0  0  0  0  0
  -20.9986  -28.3290   24.1397 H   0  0  0  0  0  0
  -20.5684  -26.2306   23.3633 H   0  0  0  0  0  0
  -21.6634  -26.7430   22.1211 H   0  0  0  0  0  0
  -19.6917  -25.6298   21.1252 H   0  0  0  0  0  0
  -19.6709  -27.3197   20.6759 H   0  0  0  0  0  0
  -17.4207  -26.6722   21.4004 H   0  0  0  0  0  0
  -18.0289  -26.0070   22.9004 H   0  0  0  0  0  0
  -19.7941  -30.7291   24.2240 H   0  0  0  0  0  0
  -17.5019  -31.6271   24.5172 H   0  0  0  0  0  0
  -15.5358  -30.2987   23.7681 H   0  0  0  0  0  0
  -15.8674  -28.0834   22.7079 H   0  0  0  0  0  0
  -24.5923  -30.7063   25.7812 H   0  0  0  0  0  0
  -24.8878  -32.2930   26.4798 H   0  0  0  0  0  0
  -25.8034  -30.9019   27.0276 H   0  0  0  0  0  0
  -26.2899  -29.6711   24.1263 H   0  0  0  0  0  0
  -27.3994  -29.7247   25.4771 H   0  0  0  0  0  0
  -27.8789  -30.4211   23.9470 H   0  0  0  0  0  0
  -27.2769  -33.3705   26.1873 H   0  0  0  0  0  0
  -28.3976  -32.6654   25.0323 H   0  0  0  0  0  0
  -28.0616  -31.8498   26.5528 H   0  0  0  0  0  0
  -28.2579  -38.0081   24.7510 H   0  0  0  0  0  0
  -28.1078  -36.2618   24.6285 H   0  0  0  0  0  0
  -27.2293  -37.1416   25.8869 H   0  0  0  0  0  0
  -20.9406  -29.8732   21.6828 H   0  0  0  0  0  0
  -26.0161  -38.2827   24.1437 H   0  0  0  0  0  0
  -26.9562  -21.6757   21.8922 H   0  0  0  0  0  0
  -26.5462  -19.4507   22.7620 H   0  0  0  0  0  0
  -30.3598  -25.0457   18.6636 H   0  0  0  0  0  0
  -30.4890  -24.9107   20.4044 H   0  0  0  0  0  0
  -30.9098  -22.6475   19.8663 H   0  0  0  0  0  0
  -29.8763  -22.6839   18.4369 H   0  0  0  0  0  0
  -26.9353  -23.5375   20.4856 H   0  0  0  0  0  0
  -28.1616  -23.9457   21.6762 H   0  0  0  0  0  0
  -27.9592  -24.9200   18.7673 H   0  0  0  0  0  0
  -31.1340  -17.5372   20.9513 H   0  0  0  0  0  0
  -30.4183  -17.4677   19.3775 H   0  0  0  0  0  0
  -28.8771  -15.7132   20.9403 H   0  0  0  0  0  0
  1 25  1  0  0  0
  1 30  2  0  0  0
  1 83  1  0  0  0
  2  3  1  0  0  0
  2 25  1  0  0  0
  2 86  1  0  0  0
  2 87  1  0  0  0
  3  4  1  0  0  0
  3 88  1  0  0  0
  3 89  1  0  0  0
  4  5  1  0  0  0
  4 90  1  0  0  0
  4 91  1  0  0  0
  5  6  1  0  0  0
  5 26  1  0  0  0
  5 92  1  0  0  0
  6 25  1  0  0  0
  6 93  1  0  0  0
  6 94  1  0  0  0
  7  8  2  0  0  0
  7 26  1  0  0  0
  7 29  1  0  0  0
  8  9  1  0  0  0
  8 22  1  0  0  0
  9 10  1  0  0  0
  9 27  2  0  0  0
 10 11  2  0  0  0
 10 15  1  0  0  0
 11 12  1  0  0  0
 11 95  1  0  0  0
 12 13  2  0  0  0
 12 96  1  0  0  0
 13 14  1  0  0  0
 13 31  1  0  0  0
 14 15  2  0  0  0
 14 97  1  0  0  0
 15 98  1  0  0  0
 16 17  2  0  0  0
 16 21  1  0  0  0
 16 31  1  0  0  0
 17 18  1  0  0  0
 17 99  1  0  0  0
 18 19  2  0  0  0
 18100  1  0  0  0
 19 20  1  0  0  0
 19 24  1  0  0  0
 20 21  2  0  0  0
 20101  1  0  0  0
 21 23  1  0  0  0
 22 28  1  0  0  0
 22 32  2  0  0  0
 26 27  1  0  0  0
 28102  1  0  0  0
 28103  1  0  0  0
 29104  1  0  0  0
 29105  1  0  0  0
 33 34  1  0  0  0
 33 66  1  0  0  0
 33 70  2  0  0  0
 34 36  1  0  0  0
 34 59  1  0  0  0
 34106  1  0  0  0
 35 44  2  0  0  0
 35 45  1  0  0  0
 35 68  1  0  0  0
 36 56  1  0  0  0
 36107  1  0  0  0
 37 39  1  0  0  0
 37 47  1  0  0  0
 37 66  1  0  0  0
 37108  1  0  0  0
 38 43  2  0  0  0
 38 46  1  0  0  0
 38 47  1  0  0  0
 39 64  1  0  0  0
 39 67  2  0  0  0
 40 52  1  0  0  0
 40 53  2  0  0  0
 40 58  1  0  0  0
 41109  1  0  0  0
 41110  1  0  0  0
 41111  1  0  0  0
 41 48  1  0  0  0
 42 43  1  0  0  0
 42 66  1  0  0  0
 42112  1  0  0  0
 42113  1  0  0  0
 43 44  1  0  0  0
 44114  1  0  0  0
 45 46  2  0  0  0
 45115  1  0  0  0
 46116  1  0  0  0
 47117  1  0  0  0
 47118  1  0  0  0
 48 56  1  0  0  0
 48 65  1  0  0  0
 48119  1  0  0  0
 49 50  1  0  0  0
 49 53  1  0  0  0
 49 64  1  0  0  0
 49120  1  0  0  0
 50 51  1  0  0  0
 50121  1  0  0  0
 50122  1  0  0  0
 51 52  1  0  0  0
 51123  1  0  0  0
 51124  1  0  0  0
 52125  1  0  0  0
 52126  1  0  0  0
 53 54  1  0  0  0
 54 55  2  0  0  0
 54127  1  0  0  0
 55 57  1  0  0  0
 55128  1  0  0  0
 56 69  2  0  0  0
 57 58  2  0  0  0
 57129  1  0  0  0
 58130  1  0  0  0
 59 60  1  0  0  0
 59 61  1  0  0  0
 59 62  1  0  0  0
 60131  1  0  0  0
 60132  1  0  0  0
 60133  1  0  0  0
 61134  1  0  0  0
 61135  1  0  0  0
 61136  1  0  0  0
 62137  1  0  0  0
 62138  1  0  0  0
 62139  1  0  0  0
 63 65  1  0  0  0
 63140  1  0  0  0
 63141  1  0  0  0
 63142  1  0  0  0
 64143  1  0  0  0
 65144  1  0  0  0
 68 80  1  0  0  0
 71 72  2  0  0  0
 71 74  1  0  0  0
 71145  1  0  0  0
 72 76  1  0  0  0
 72146  1  0  0  0
 73 75  1  0  0  0
 73 76  2  0  0  0
 73 81  1  0  0  0
 74 75  2  0  0  0
 74 82  1  0  0  0
 75 84  1  0  0  0
 76 85  1  0  0  0
 77 78  1  0  0  0
 77 80  1  0  0  0
 77147  1  0  0  0
 77148  1  0  0  0
 78 82  1  0  0  0
 78149  1  0  0  0
 78150  1  0  0  0
 79 80  1  0  0  0
 79 82  1  0  0  0
 79151  1  0  0  0
 79152  1  0  0  0
 80153  1  0  0  0
 81 83  1  0  0  0
 81154  1  0  0  0
 81155  1  0  0  0
 83156  1  0  0  0
M  ISO  4   1 100  68 101  80 101  83 100
M  END
> <chiral flag>
0

> <version>
0

> <s_m_source_file>
/data/baiqing/PycharmProjects/Reinvent-master-3.2/result/LINK_invent/BTK/process_docking_weight1_custom_product_contain_oxygen_bond_distance_aromatic_linkinvent_7_9_3/rearranged_h_0028.sdf

> <i_m_source_file_index>
61

> <r_mmod_Potential_Energy-OPLS-2005>
223.383544921875

> <r_mmod_Stretch_Energy-OPLS-2005>
126.021476745605

> <r_mmod_Bend_Energy-OPLS-2005>
227.518920898438

> <r_mmod_Torsional_Energy-OPLS-2005>
235.083847045898

> <r_mmod_Improper_Torsional_Energy-OPLS-2005>
5.1283483505249

> <r_mmod_Van_der_Waal_Energy-OPLS-2005>
132.869888305664

> <r_mmod_Electrostatic_Energy-OPLS-2005>
-367.100860595703

> <r_mmod_Solvation_Energy-OPLS-2005>
-220.31965637207

> <b_mmod_Minimization_Converged-OPLS-2005>
0

> <r_mmod_RMS_Derivative-OPLS-2005>
1.36736452579498

$$$$
61
                    3D
 Structure written by MMmdl.
164173  0  0  1  0            999 V2000
  -30.6502  -14.5799   20.4647 C   0  0  0  0  0  0
  -30.4472  -12.3201   19.4736 C   0  0  0  0  0  0
  -29.5220  -12.3576   18.2368 C   0  0  0  0  0  0
  -28.0281  -12.3129   18.6356 C   0  0  0  0  0  0
  -27.6587  -13.1978   19.8611 C   0  0  2  0  0  0
  -28.7039  -13.0585   20.9890 C   0  0  0  0  0  0
  -25.2623  -13.8132   20.5708 C   0  0  0  0  0  0
  -24.1865  -13.0432   20.9219 C   0  0  0  0  0  0
  -24.6405  -11.6894   20.8787 C   0  0  0  0  0  0
  -23.9066  -10.4284   21.0448 C   0  0  0  0  0  0
  -24.3623   -9.4191   21.9220 C   0  0  0  0  0  0
  -23.6303   -8.2218   22.0765 C   0  0  0  0  0  0
  -22.4277   -8.0284   21.3560 C   0  0  0  0  0  0
  -21.9920   -9.0257   20.4663 C   0  0  0  0  0  0
  -22.7242  -10.2138   20.3091 C   0  0  0  0  0  0
  -21.6826   -6.0766   22.5301 C   0  0  0  0  0  0
  -21.3985   -6.5661   23.8237 C   0  0  0  0  0  0
  -21.3656   -5.6807   24.9194 C   0  0  0  0  0  0
  -21.6044   -4.3072   24.7235 C   0  0  0  0  0  0
  -21.8805   -3.8175   23.4345 C   0  0  0  0  0  0
  -21.9168   -4.7001   22.3411 C   0  0  0  0  0  0
  -22.7887  -13.5258   21.1858 C   0  0  0  0  0  0
  -22.1644   -4.2204   21.0984 F   0  0  0  0  0  0
  -21.5647   -3.4546   25.7742 F   0  0  0  0  0  0
  -30.0234  -13.3678   20.4196 N   0  0  0  0  0  0
  -26.3032  -12.9270   20.3353 N   0  0  0  0  0  0
  -25.9333  -11.6452   20.5835 N   0  0  0  0  0  0
  -22.0458  -12.8278   22.0388 N   0  0  0  0  0  0
  -25.4361  -15.1845   20.4084 N   0  0  0  0  0  0
  -31.8189  -14.7285   20.0973 O   0  0  0  0  0  0
  -21.6614   -6.8905   21.4263 O   0  0  0  0  0  0
  -22.3616  -14.5580   20.6703 O   0  0  0  0  0  0
  -24.6181  -31.8659   23.2077 C   0  0  0  0  0  0
  -25.9053  -32.4817   23.8399 C   0  0  1  0  0  0
  -27.2395  -27.3992   20.1119 C   0  0  0  0  0  0
  -25.5900  -33.8613   24.2327 N   0  0  0  0  0  0
  -23.4101  -30.4879   21.5481 C   0  0  2  0  0  0
  -24.8582  -28.9522   20.1132 C   0  0  0  0  0  0
  -22.7444  -29.4640   22.4967 C   0  0  0  0  0  0
  -18.0281  -28.1382   22.8482 C   0  0  0  0  0  0
  -24.1484  -36.7313   23.2641 C   0  0  0  0  0  0
  -25.9429  -30.8213   21.3662 C   0  0  0  0  0  0
  -26.0206  -29.4545   20.7116 C   0  0  0  0  0  0
  -27.2129  -28.6874   20.7042 C   0  0  0  0  0  0
  -26.0572  -26.9309   19.4888 C   0  0  0  0  0  0
  -24.8743  -27.6923   19.4936 C   0  0  0  0  0  0
  -23.6217  -29.8221   20.1625 C   0  0  0  0  0  0
  -25.4101  -36.3111   24.0344 C   0  0  1  0  0  0
  -20.5875  -28.3674   23.1294 C   0  0  2  0  0  0
  -20.6761  -26.9403   22.5410 C   0  0  0  0  0  0
  -19.5749  -26.6376   21.5202 C   0  0  0  0  0  0
  -18.1927  -26.7923   22.1613 C   0  0  0  0  0  0
  -19.1533  -28.8845   23.2883 C   0  0  0  0  0  0
  -18.9454  -30.1442   23.8908 C   0  0  0  0  0  0
  -17.6458  -30.6585   24.0556 C   0  0  0  0  0  0
  -25.9032  -34.9473   23.5133 C   0  0  0  0  0  0
  -16.5348  -29.9088   23.6318 C   0  0  0  0  0  0
  -16.7267  -28.6502   23.0345 C   0  0  0  0  0  0
  -26.4467  -31.6606   25.0739 C   0  0  0  0  0  0
  -25.3736  -31.3698   26.1493 C   0  0  0  0  0  0
  -27.0297  -30.3056   24.6110 C   0  0  0  0  0  0
  -27.6050  -32.4324   25.7494 C   0  0  0  0  0  0
  -27.5578  -37.1811   24.8461 C   0  0  0  0  0  0
  -21.4169  -29.3041   22.3713 N   0  0  0  0  0  0
  -26.4290  -37.3794   23.9411 N   0  0  0  0  0  0
  -24.6758  -31.0735   22.0990 N   0  0  0  0  0  0
  -23.4199  -28.8184   23.3023 O   0  0  0  0  0  0
  -28.3918  -26.6225   20.1696 O   0  0  0  0  0  0
  -26.5596  -34.8927   22.4698 O   0  0  0  0  0  0
  -23.5358  -32.1415   23.7445 O   0  0  0  0  0  0
  -29.4910  -18.4215   18.1997 C   0  0  0  0  0  0
  -30.1222  -18.1330   20.8905 C   0  0  0  0  0  0
  -29.7673  -19.5771   18.9470 C   0  0  0  0  0  0
  -29.5122  -17.1360   18.7633 C   0  0  0  0  0  0
  -30.0585  -19.4552   20.3382 C   0  0  0  0  0  0
  -29.8766  -16.9536   20.1250 C   0  0  0  0  0  0
  -31.1616  -22.8382   20.3826 C   0  0  0  0  0  0
  -30.6524  -24.2320   20.0293 C   0  0  0  0  0  0
  -28.9533  -22.8488   21.0646 C   0  0  0  0  0  0
  -29.3335  -24.3384   20.8058 C   0  0  2  0  0  0
  -29.7359  -20.8833   18.1665 C   0  0  0  0  0  0
  -29.0814  -16.0201   17.8398 C   0  0  0  0  0  0
  -30.3108  -20.6477   21.3075 C   0  0  0  0  0  0
  -28.2120  -25.1839   20.1303 C   0  0  0  0  0  0
  -30.1764  -22.0600   20.8606 N   0  0  0  0  0  0
  -29.8574  -15.6468   20.7535 N   0  0  0  0  0  0
  -32.3347  -22.4988   20.2116 O   0  0  0  0  0  0
  -31.4888  -12.4319   19.1675 H   0  0  0  0  0  0
  -30.3899  -11.3455   19.9601 H   0  0  0  0  0  0
  -29.7434  -11.4921   17.6094 H   0  0  0  0  0  0
  -29.7507  -13.2070   17.6010 H   0  0  0  0  0  0
  -27.8040  -11.2710   18.8679 H   0  0  0  0  0  0
  -27.3991  -12.5664   17.7816 H   0  0  0  0  0  0
  -27.6664  -14.2314   19.5271 H   0  0  0  0  0  0
  -28.7009  -12.0460   21.3931 H   0  0  0  0  0  0
  -28.4622  -13.7136   21.8266 H   0  0  0  0  0  0
  -25.2762   -9.5670   22.4806 H   0  0  0  0  0  0
  -24.0023   -7.4604   22.7462 H   0  0  0  0  0  0
  -21.0861   -8.8769   19.8964 H   0  0  0  0  0  0
  -22.3705  -10.9692   19.6211 H   0  0  0  0  0  0
  -21.1955   -7.6170   23.9765 H   0  0  0  0  0  0
  -21.1501   -6.0530   25.9107 H   0  0  0  0  0  0
  -22.0587   -2.7649   23.2809 H   0  0  0  0  0  0
  -22.3985  -11.9943   22.4853 H   0  0  0  0  0  0
  -21.1098  -13.1392   22.2547 H   0  0  0  0  0  0
  -24.6762  -15.8457   20.5288 H   0  0  0  0  0  0
  -26.2932  -15.6203   20.0934 H   0  0  0  0  0  0
  -26.7135  -32.5508   23.1170 H   0  0  0  0  0  0
  -25.0063  -33.9772   25.0484 H   0  0  0  0  0  0
  -22.7002  -31.3052   21.4060 H   0  0  0  0  0  0
  -23.3746  -35.9645   23.3302 H   0  0  0  0  0  0
  -24.3585  -36.8923   22.2054 H   0  0  0  0  0  0
  -23.7227  -37.6520   23.6649 H   0  0  0  0  0  0
  -26.0619  -31.5835   20.5950 H   0  0  0  0  0  0
  -26.8290  -30.8755   21.9873 H   0  0  0  0  0  0
  -28.1064  -29.0662   21.1798 H   0  0  0  0  0  0
  -26.0259  -25.9684   19.0000 H   0  0  0  0  0  0
  -23.9844  -27.3000   19.0206 H   0  0  0  0  0  0
  -23.7364  -30.5970   19.4031 H   0  0  0  0  0  0
  -22.7454  -29.2441   19.8634 H   0  0  0  0  0  0
  -25.1272  -36.1989   25.0838 H   0  0  0  0  0  0
  -20.9964  -28.3238   24.1415 H   0  0  0  0  0  0
  -20.5646  -26.2287   23.3606 H   0  0  0  0  0  0
  -21.6631  -26.7434   22.1217 H   0  0  0  0  0  0
  -19.6907  -25.6283   21.1239 H   0  0  0  0  0  0
  -19.6691  -27.3174   20.6720 H   0  0  0  0  0  0
  -17.4196  -26.6670   21.4011 H   0  0  0  0  0  0
  -18.0330  -26.0066   22.9015 H   0  0  0  0  0  0
  -19.7932  -30.7241   24.2299 H   0  0  0  0  0  0
  -17.5017  -31.6267   24.5150 H   0  0  0  0  0  0
  -15.5350  -30.2995   23.7626 H   0  0  0  0  0  0
  -15.8663  -28.0815   22.7063 H   0  0  0  0  0  0
  -24.5908  -30.7049   25.7827 H   0  0  0  0  0  0
  -24.8930  -32.2843   26.4979 H   0  0  0  0  0  0
  -25.8099  -30.8845   27.0236 H   0  0  0  0  0  0
  -26.2839  -29.6835   24.1151 H   0  0  0  0  0  0
  -27.4065  -29.7273   25.4555 H   0  0  0  0  0  0
  -27.8677  -30.4391   23.9265 H   0  0  0  0  0  0
  -27.2681  -33.3607   26.2116 H   0  0  0  0  0  0
  -28.3830  -32.6912   25.0301 H   0  0  0  0  0  0
  -28.0762  -31.8432   26.5371 H   0  0  0  0  0  0
  -28.2603  -38.0105   24.7508 H   0  0  0  0  0  0
  -28.1075  -36.2637   24.6282 H   0  0  0  0  0  0
  -27.2308  -37.1456   25.8871 H   0  0  0  0  0  0
  -20.9344  -29.8797   21.6959 H   0  0  0  0  0  0
  -26.0184  -38.2881   24.1411 H   0  0  0  0  0  0
  -29.2359  -18.5179   17.1524 H   0  0  0  0  0  0
  -30.3566  -18.0266   21.9398 H   0  0  0  0  0  0
  -30.4894  -24.2759   18.9520 H   0  0  0  0  0  0
  -31.3638  -25.0098   20.3054 H   0  0  0  0  0  0
  -28.1792  -22.5111   20.3765 H   0  0  0  0  0  0
  -28.5635  -22.7183   22.0753 H   0  0  0  0  0  0
  -29.5550  -24.7937   21.7729 H   0  0  0  0  0  0
  -29.4877  -20.7169   17.1178 H   0  0  0  0  0  0
  -30.7160  -21.3538   18.1680 H   0  0  0  0  0  0
  -28.9846  -21.5715   18.5453 H   0  0  0  0  0  0
  -29.6469  -16.0422   16.9081 H   0  0  0  0  0  0
  -28.0208  -16.1178   17.6055 H   0  0  0  0  0  0
  -29.2265  -15.0561   18.2851 H   0  0  0  0  0  0
  -31.3157  -20.5164   21.7116 H   0  0  0  0  0  0
  -29.6490  -20.5156   22.1639 H   0  0  0  0  0  0
  -27.2887  -24.9253   20.6525 H   0  0  0  0  0  0
  -28.0869  -24.8644   19.0947 H   0  0  0  0  0  0
  -28.9744  -15.3940   21.1715 H   0  0  0  0  0  0
  1 25  1  0  0  0
  1 30  2  0  0  0
  1 86  1  0  0  0
  2  3  1  0  0  0
  2 25  1  0  0  0
  2 88  1  0  0  0
  2 89  1  0  0  0
  3  4  1  0  0  0
  3 90  1  0  0  0
  3 91  1  0  0  0
  4  5  1  0  0  0
  4 92  1  0  0  0
  4 93  1  0  0  0
  5  6  1  0  0  0
  5 26  1  0  0  0
  5 94  1  0  0  0
  6 25  1  0  0  0
  6 95  1  0  0  0
  6 96  1  0  0  0
  7  8  2  0  0  0
  7 26  1  0  0  0
  7 29  1  0  0  0
  8  9  1  0  0  0
  8 22  1  0  0  0
  9 10  1  0  0  0
  9 27  2  0  0  0
 10 11  2  0  0  0
 10 15  1  0  0  0
 11 12  1  0  0  0
 11 97  1  0  0  0
 12 13  2  0  0  0
 12 98  1  0  0  0
 13 14  1  0  0  0
 13 31  1  0  0  0
 14 15  2  0  0  0
 14 99  1  0  0  0
 15100  1  0  0  0
 16 17  2  0  0  0
 16 21  1  0  0  0
 16 31  1  0  0  0
 17 18  1  0  0  0
 17101  1  0  0  0
 18 19  2  0  0  0
 18102  1  0  0  0
 19 20  1  0  0  0
 19 24  1  0  0  0
 20 21  2  0  0  0
 20103  1  0  0  0
 21 23  1  0  0  0
 22 28  1  0  0  0
 22 32  2  0  0  0
 26 27  1  0  0  0
 28104  1  0  0  0
 28105  1  0  0  0
 29106  1  0  0  0
 29107  1  0  0  0
 33 34  1  0  0  0
 33 66  1  0  0  0
 33 70  2  0  0  0
 34 36  1  0  0  0
 34 59  1  0  0  0
 34108  1  0  0  0
 35 44  2  0  0  0
 35 45  1  0  0  0
 35 68  1  0  0  0
 36 56  1  0  0  0
 36109  1  0  0  0
 37 39  1  0  0  0
 37 47  1  0  0  0
 37 66  1  0  0  0
 37110  1  0  0  0
 38 43  2  0  0  0
 38 46  1  0  0  0
 38 47  1  0  0  0
 39 64  1  0  0  0
 39 67  2  0  0  0
 40 52  1  0  0  0
 40 53  2  0  0  0
 40 58  1  0  0  0
 41111  1  0  0  0
 41112  1  0  0  0
 41113  1  0  0  0
 41 48  1  0  0  0
 42 43  1  0  0  0
 42 66  1  0  0  0
 42114  1  0  0  0
 42115  1  0  0  0
 43 44  1  0  0  0
 44116  1  0  0  0
 45 46  2  0  0  0
 45117  1  0  0  0
 46118  1  0  0  0
 47119  1  0  0  0
 47120  1  0  0  0
 48 56  1  0  0  0
 48 65  1  0  0  0
 48121  1  0  0  0
 49 50  1  0  0  0
 49 53  1  0  0  0
 49 64  1  0  0  0
 49122  1  0  0  0
 50 51  1  0  0  0
 50123  1  0  0  0
 50124  1  0  0  0
 51 52  1  0  0  0
 51125  1  0  0  0
 51126  1  0  0  0
 52127  1  0  0  0
 52128  1  0  0  0
 53 54  1  0  0  0
 54 55  2  0  0  0
 54129  1  0  0  0
 55 57  1  0  0  0
 55130  1  0  0  0
 56 69  2  0  0  0
 57 58  2  0  0  0
 57131  1  0  0  0
 58132  1  0  0  0
 59 60  1  0  0  0
 59 61  1  0  0  0
 59 62  1  0  0  0
 60133  1  0  0  0
 60134  1  0  0  0
 60135  1  0  0  0
 61136  1  0  0  0
 61137  1  0  0  0
 61138  1  0  0  0
 62139  1  0  0  0
 62140  1  0  0  0
 62141  1  0  0  0
 63 65  1  0  0  0
 63142  1  0  0  0
 63143  1  0  0  0
 63144  1  0  0  0
 64145  1  0  0  0
 65146  1  0  0  0
 68 84  1  0  0  0
 71 73  2  0  0  0
 71 74  1  0  0  0
 71147  1  0  0  0
 72 75  2  0  0  0
 72 76  1  0  0  0
 72148  1  0  0  0
 73 75  1  0  0  0
 73 81  1  0  0  0
 74 76  2  0  0  0
 74 82  1  0  0  0
 75 83  1  0  0  0
 76 86  1  0  0  0
 77 78  1  0  0  0
 77 85  1  0  0  0
 77 87  2  0  0  0
 78 80  1  0  0  0
 78149  1  0  0  0
 78150  1  0  0  0
 79 80  1  0  0  0
 79 85  1  0  0  0
 79151  1  0  0  0
 79152  1  0  0  0
 80 84  1  0  0  0
 80153  1  0  0  0
 81154  1  0  0  0
 81155  1  0  0  0
 81156  1  0  0  0
 82157  1  0  0  0
 82158  1  0  0  0
 82159  1  0  0  0
 83 85  1  0  0  0
 83160  1  0  0  0
 83161  1  0  0  0
 84162  1  0  0  0
 84163  1  0  0  0
 86164  1  0  0  0
M  ISO  4   1 100  68 101  84 101  86 100
M  END
> <chiral flag>
0

> <version>
0

> <s_m_source_file>
/data/baiqing/PycharmProjects/Reinvent-master-3.2/result/LINK_invent/BTK/process_docking_weight1_custom_product_contain_oxygen_bond_distance_aromatic_linkinvent_7_9_3/rearranged_h_0028.sdf

> <i_m_source_file_index>
62

> <r_mmod_Potential_Energy-OPLS-2005>
18.997537612915

> <r_mmod_Stretch_Energy-OPLS-2005>
53.9523773193359

> <r_mmod_Bend_Energy-OPLS-2005>
148.345520019531

> <r_mmod_Torsional_Energy-OPLS-2005>
278.384307861328

> <r_mmod_Improper_Torsional_Energy-OPLS-2005>
6.28317070007324

> <r_mmod_Van_der_Waal_Energy-OPLS-2005>
155.402206420898

> <r_mmod_Electrostatic_Energy-OPLS-2005>
-418.493469238281

> <r_mmod_Solvation_Energy-OPLS-2005>
-237.569610595703

> <b_mmod_Minimization_Converged-OPLS-2005>
0

> <r_mmod_RMS_Derivative-OPLS-2005>
2.19080686569214

$$$$
62
                    3D
 Structure written by MMmdl.
165174  0  0  1  0            999 V2000
  -30.6250  -14.8218   20.5080 C   0  0  0  0  0  0
  -30.4228  -12.5134   19.5096 C   0  0  0  0  0  0
  -29.5184  -12.5307   18.2567 C   0  0  0  0  0  0
  -28.0463  -12.3312   18.6572 C   0  0  0  0  0  0
  -27.6348  -13.2423   19.8411 C   0  0  2  0  0  0
  -28.6650  -13.2191   20.9869 C   0  0  0  0  0  0
  -25.2483  -13.8216   20.5690 C   0  0  0  0  0  0
  -24.1786  -13.0447   20.9198 C   0  0  0  0  0  0
  -24.6390  -11.6928   20.8724 C   0  0  0  0  0  0
  -23.9075  -10.4300   21.0395 C   0  0  0  0  0  0
  -24.3628   -9.4218   21.9175 C   0  0  0  0  0  0
  -23.6302   -8.2253   22.0752 C   0  0  0  0  0  0
  -22.4281   -8.0284   21.3545 C   0  0  0  0  0  0
  -21.9917   -9.0257   20.4645 C   0  0  0  0  0  0
  -22.7246  -10.2137   20.3050 C   0  0  0  0  0  0
  -21.6856   -6.0740   22.5281 C   0  0  0  0  0  0
  -21.4016   -6.5642   23.8216 C   0  0  0  0  0  0
  -21.3661   -5.6793   24.9175 C   0  0  0  0  0  0
  -21.6043   -4.3056   24.7223 C   0  0  0  0  0  0
  -21.8819   -3.8149   23.4345 C   0  0  0  0  0  0
  -21.9194   -4.6967   22.3402 C   0  0  0  0  0  0
  -22.7808  -13.5217   21.1876 C   0  0  0  0  0  0
  -22.1660   -4.2152   21.0982 F   0  0  0  0  0  0
  -21.5629   -3.4541   25.7738 F   0  0  0  0  0  0
  -29.9716  -13.5960   20.4318 N   0  0  0  0  0  0
  -26.2895  -12.9437   20.3203 N   0  0  0  0  0  0
  -25.9316  -11.6571   20.5696 N   0  0  0  0  0  0
  -22.0467  -12.8199   22.0434 N   0  0  0  0  0  0
  -25.4188  -15.1945   20.4164 N   0  0  0  0  0  0
  -31.7503  -14.8941   19.9999 O   0  0  0  0  0  0
  -21.6643   -6.8882   21.4242 O   0  0  0  0  0  0
  -22.3483  -14.5520   20.6724 O   0  0  0  0  0  0
  -24.6368  -31.8481   23.1915 C   0  0  0  0  0  0
  -25.9168  -32.4710   23.8285 C   0  0  1  0  0  0
  -27.2210  -27.1977   20.1423 C   0  0  0  0  0  0
  -25.5938  -33.8515   24.2212 N   0  0  0  0  0  0
  -23.4373  -30.4666   21.5360 C   0  0  2  0  0  0
  -24.8862  -28.9005   20.1070 C   0  0  0  0  0  0
  -22.7533  -29.4552   22.4881 C   0  0  0  0  0  0
  -18.0296  -28.1379   22.8472 C   0  0  0  0  0  0
  -24.1486  -36.7269   23.2639 C   0  0  0  0  0  0
  -25.9858  -30.7416   21.3795 C   0  0  0  0  0  0
  -26.0577  -29.3574   20.7228 C   0  0  0  0  0  0
  -27.2244  -28.5184   20.7273 C   0  0  0  0  0  0
  -26.0275  -26.8209   19.4912 C   0  0  0  0  0  0
  -24.8803  -27.6445   19.4780 C   0  0  0  0  0  0
  -23.6591  -29.7955   20.1537 C   0  0  0  0  0  0
  -25.4115  -36.3044   24.0314 C   0  0  1  0  0  0
  -20.5901  -28.3699   23.1249 C   0  0  2  0  0  0
  -20.6778  -26.9408   22.5408 C   0  0  0  0  0  0
  -19.5757  -26.6375   21.5205 C   0  0  0  0  0  0
  -18.1935  -26.7921   22.1614 C   0  0  0  0  0  0
  -19.1550  -28.8855   23.2850 C   0  0  0  0  0  0
  -18.9472  -30.1456   23.8866 C   0  0  0  0  0  0
  -17.6470  -30.6578   24.0559 C   0  0  0  0  0  0
  -25.9061  -34.9415   23.5073 C   0  0  0  0  0  0
  -16.5357  -29.9077   23.6332 C   0  0  0  0  0  0
  -16.7283  -28.6499   23.0342 C   0  0  0  0  0  0
  -26.4515  -31.6556   25.0705 C   0  0  0  0  0  0
  -25.3718  -31.3730   26.1415 C   0  0  0  0  0  0
  -27.0382  -30.2959   24.6251 C   0  0  0  0  0  0
  -27.6049  -32.4315   25.7488 C   0  0  0  0  0  0
  -27.5573  -37.1788   24.8463 C   0  0  0  0  0  0
  -21.4230  -29.3033   22.3626 N   0  0  0  0  0  0
  -26.4282  -37.3755   23.9409 N   0  0  0  0  0  0
  -24.7060  -31.0386   22.0918 N   0  0  0  0  0  0
  -23.4199  -28.8110   23.3019 O   0  0  0  0  0  0
  -28.3065  -26.2783   20.2416 O   0  0  0  0  0  0
  -26.5645  -34.8906   22.4651 O   0  0  0  0  0  0
  -23.5502  -32.1330   23.7178 O   0  0  0  0  0  0
  -28.1218  -18.5370   21.6643 C   0  0  0  0  0  0
  -27.5469  -20.9248   21.5870 C   0  0  0  0  0  0
  -29.1454  -18.6960   20.7130 C   0  0  0  0  0  0
  -29.2947  -20.0739   20.1824 C   0  0  0  0  0  0
  -28.4883  -21.2562   20.5798 C   0  0  0  0  0  0
  -27.3608  -19.6292   22.1094 C   0  0  0  0  0  0
  -29.4005  -23.7660   20.1288 C   0  0  0  0  0  0
  -27.3954  -23.6807   20.4533 C   0  0  0  0  0  0
  -28.2505  -24.8178   19.7831 C   0  0  0  0  0  0
  -30.3381  -20.2750   19.0993 C   0  0  0  0  0  0
  -29.6190  -15.3803   23.4759 C   0  0  0  0  0  0
  -31.8860  -16.2541   22.7752 C   0  0  0  0  0  0
  -29.9759  -17.3590   20.2695 C   0  0  0  0  0  0
  -30.3693  -16.2743   22.4737 C   0  0  0  0  0  0
  -28.4049  -22.6660   20.0113 N   0  0  0  0  0  0
  -30.0290  -15.9936   21.0432 N   0  0  0  0  0  0
  -26.4070  -19.4255   23.0493 F   0  0  0  0  0  0
  -31.4675  -12.6202   19.2140 H   0  0  0  0  0  0
  -30.3638  -11.5448   20.0090 H   0  0  0  0  0  0
  -29.8241  -11.7520   17.5565 H   0  0  0  0  0  0
  -29.6335  -13.4797   17.7311 H   0  0  0  0  0  0
  -27.9192  -11.2841   18.9345 H   0  0  0  0  0  0
  -27.3921  -12.5007   17.8012 H   0  0  0  0  0  0
  -27.6185  -14.2578   19.4437 H   0  0  0  0  0  0
  -28.7111  -12.2375   21.4604 H   0  0  0  0  0  0
  -28.3374  -13.9162   21.7515 H   0  0  0  0  0  0
  -25.2774   -9.5694   22.4747 H   0  0  0  0  0  0
  -24.0011   -7.4645   22.7474 H   0  0  0  0  0  0
  -21.0846   -8.8776   19.8953 H   0  0  0  0  0  0
  -22.3701  -10.9673   19.6158 H   0  0  0  0  0  0
  -21.2010   -7.6151   23.9717 H   0  0  0  0  0  0
  -21.1481   -6.0526   25.9078 H   0  0  0  0  0  0
  -22.0595   -2.7612   23.2846 H   0  0  0  0  0  0
  -22.4096  -11.9862   22.4814 H   0  0  0  0  0  0
  -21.1084  -13.1211   22.2650 H   0  0  0  0  0  0
  -24.6565  -15.8512   20.5431 H   0  0  0  0  0  0
  -26.2782  -15.6379   20.1187 H   0  0  0  0  0  0
  -26.7233  -32.5342   23.1015 H   0  0  0  0  0  0
  -25.0063  -33.9630   25.0343 H   0  0  0  0  0  0
  -22.7372  -31.2905   21.3854 H   0  0  0  0  0  0
  -23.3743  -35.9606   23.3297 H   0  0  0  0  0  0
  -24.3567  -36.8912   22.2055 H   0  0  0  0  0  0
  -23.7252  -37.6467   23.6681 H   0  0  0  0  0  0
  -26.1298  -31.4976   20.6063 H   0  0  0  0  0  0
  -26.8603  -30.7938   22.0163 H   0  0  0  0  0  0
  -28.1184  -28.8611   21.2289 H   0  0  0  0  0  0
  -25.9524  -25.8561   19.0118 H   0  0  0  0  0  0
  -23.9829  -27.2908   18.9893 H   0  0  0  0  0  0
  -23.7883  -30.5698   19.3970 H   0  0  0  0  0  0
  -22.7756  -29.2325   19.8478 H   0  0  0  0  0  0
  -25.1303  -36.1876   25.0808 H   0  0  0  0  0  0
  -20.9977  -28.3285   24.1375 H   0  0  0  0  0  0
  -20.5663  -26.2310   23.3621 H   0  0  0  0  0  0
  -21.6648  -26.7418   22.1208 H   0  0  0  0  0  0
  -19.6918  -25.6283   21.1242 H   0  0  0  0  0  0
  -19.6690  -27.3174   20.6722 H   0  0  0  0  0  0
  -17.4205  -26.6648   21.4020 H   0  0  0  0  0  0
  -18.0341  -26.0064   22.9010 H   0  0  0  0  0  0
  -19.7949  -30.7276   24.2210 H   0  0  0  0  0  0
  -17.5031  -31.6254   24.5170 H   0  0  0  0  0  0
  -15.5359  -30.2975   23.7672 H   0  0  0  0  0  0
  -15.8681  -28.0823   22.7055 H   0  0  0  0  0  0
  -24.5899  -30.7068   25.7751 H   0  0  0  0  0  0
  -24.8892  -32.2903   26.4792 H   0  0  0  0  0  0
  -25.8016  -30.8944   27.0224 H   0  0  0  0  0  0
  -26.2989  -29.6675   24.1268 H   0  0  0  0  0  0
  -27.4031  -29.7259   25.4808 H   0  0  0  0  0  0
  -27.8881  -30.4211   23.9536 H   0  0  0  0  0  0
  -27.2643  -33.3631   26.2018 H   0  0  0  0  0  0
  -28.3882  -32.6851   25.0331 H   0  0  0  0  0  0
  -28.0691  -31.8470   26.5443 H   0  0  0  0  0  0
  -28.2584  -38.0093   24.7515 H   0  0  0  0  0  0
  -28.1077  -36.2622   24.6283 H   0  0  0  0  0  0
  -27.2289  -37.1428   25.8867 H   0  0  0  0  0  0
  -20.9425  -29.8767   21.6830 H   0  0  0  0  0  0
  -26.0150  -38.2821   24.1422 H   0  0  0  0  0  0
  -27.9091  -17.5629   22.0794 H   0  0  0  0  0  0
  -26.8800  -21.6784   21.9739 H   0  0  0  0  0  0
  -29.7993  -23.8706   21.1404 H   0  0  0  0  0  0
  -30.1995  -23.7248   19.3875 H   0  0  0  0  0  0
  -26.4094  -23.5488   20.0070 H   0  0  0  0  0  0
  -27.3323  -23.7938   21.5378 H   0  0  0  0  0  0
  -28.0821  -24.8189   18.7037 H   0  0  0  0  0  0
  -30.2073  -19.5425   18.3023 H   0  0  0  0  0  0
  -31.3400  -20.1595   19.5125 H   0  0  0  0  0  0
  -30.2741  -21.2646   18.6487 H   0  0  0  0  0  0
  -29.8436  -15.6794   24.5005 H   0  0  0  0  0  0
  -29.9005  -14.3308   23.3863 H   0  0  0  0  0  0
  -28.5384  -15.4657   23.3576 H   0  0  0  0  0  0
  -32.0849  -16.6258   23.7815 H   0  0  0  0  0  0
  -32.4411  -16.8915   22.0854 H   0  0  0  0  0  0
  -32.3104  -15.2505   22.7208 H   0  0  0  0  0  0
  -31.0129  -17.6700   20.1352 H   0  0  0  0  0  0
  -29.6287  -17.1180   19.2639 H   0  0  0  0  0  0
  -30.0763  -17.2897   22.7236 H   0  0  0  0  0  0
  1 25  1  0  0  0
  1 30  2  0  0  0
  1 86  1  0  0  0
  2  3  1  0  0  0
  2 25  1  0  0  0
  2 88  1  0  0  0
  2 89  1  0  0  0
  3  4  1  0  0  0
  3 90  1  0  0  0
  3 91  1  0  0  0
  4  5  1  0  0  0
  4 92  1  0  0  0
  4 93  1  0  0  0
  5  6  1  0  0  0
  5 26  1  0  0  0
  5 94  1  0  0  0
  6 25  1  0  0  0
  6 95  1  0  0  0
  6 96  1  0  0  0
  7  8  2  0  0  0
  7 26  1  0  0  0
  7 29  1  0  0  0
  8  9  1  0  0  0
  8 22  1  0  0  0
  9 10  1  0  0  0
  9 27  2  0  0  0
 10 11  2  0  0  0
 10 15  1  0  0  0
 11 12  1  0  0  0
 11 97  1  0  0  0
 12 13  2  0  0  0
 12 98  1  0  0  0
 13 14  1  0  0  0
 13 31  1  0  0  0
 14 15  2  0  0  0
 14 99  1  0  0  0
 15100  1  0  0  0
 16 17  2  0  0  0
 16 21  1  0  0  0
 16 31  1  0  0  0
 17 18  1  0  0  0
 17101  1  0  0  0
 18 19  2  0  0  0
 18102  1  0  0  0
 19 20  1  0  0  0
 19 24  1  0  0  0
 20 21  2  0  0  0
 20103  1  0  0  0
 21 23  1  0  0  0
 22 28  1  0  0  0
 22 32  2  0  0  0
 26 27  1  0  0  0
 28104  1  0  0  0
 28105  1  0  0  0
 29106  1  0  0  0
 29107  1  0  0  0
 33 34  1  0  0  0
 33 66  1  0  0  0
 33 70  2  0  0  0
 34 36  1  0  0  0
 34 59  1  0  0  0
 34108  1  0  0  0
 35 44  2  0  0  0
 35 45  1  0  0  0
 35 68  1  0  0  0
 36 56  1  0  0  0
 36109  1  0  0  0
 37 39  1  0  0  0
 37 47  1  0  0  0
 37 66  1  0  0  0
 37110  1  0  0  0
 38 43  2  0  0  0
 38 46  1  0  0  0
 38 47  1  0  0  0
 39 64  1  0  0  0
 39 67  2  0  0  0
 40 52  1  0  0  0
 40 53  2  0  0  0
 40 58  1  0  0  0
 41111  1  0  0  0
 41112  1  0  0  0
 41113  1  0  0  0
 41 48  1  0  0  0
 42 43  1  0  0  0
 42 66  1  0  0  0
 42114  1  0  0  0
 42115  1  0  0  0
 43 44  1  0  0  0
 44116  1  0  0  0
 45 46  2  0  0  0
 45117  1  0  0  0
 46118  1  0  0  0
 47119  1  0  0  0
 47120  1  0  0  0
 48 56  1  0  0  0
 48 65  1  0  0  0
 48121  1  0  0  0
 49 50  1  0  0  0
 49 53  1  0  0  0
 49 64  1  0  0  0
 49122  1  0  0  0
 50 51  1  0  0  0
 50123  1  0  0  0
 50124  1  0  0  0
 51 52  1  0  0  0
 51125  1  0  0  0
 51126  1  0  0  0
 52127  1  0  0  0
 52128  1  0  0  0
 53 54  1  0  0  0
 54 55  2  0  0  0
 54129  1  0  0  0
 55 57  1  0  0  0
 55130  1  0  0  0
 56 69  2  0  0  0
 57 58  2  0  0  0
 57131  1  0  0  0
 58132  1  0  0  0
 59 60  1  0  0  0
 59 61  1  0  0  0
 59 62  1  0  0  0
 60133  1  0  0  0
 60134  1  0  0  0
 60135  1  0  0  0
 61136  1  0  0  0
 61137  1  0  0  0
 61138  1  0  0  0
 62139  1  0  0  0
 62140  1  0  0  0
 62141  1  0  0  0
 63 65  1  0  0  0
 63142  1  0  0  0
 63143  1  0  0  0
 63144  1  0  0  0
 64145  1  0  0  0
 65146  1  0  0  0
 68 79  1  0  0  0
 71 73  2  0  0  0
 71 76  1  0  0  0
 71147  1  0  0  0
 72 75  1  0  0  0
 72 76  2  0  0  0
 72148  1  0  0  0
 73 74  1  0  0  0
 73 83  1  0  0  0
 74 75  2  0  0  0
 74 80  1  0  0  0
 75 85  1  0  0  0
 76 87  1  0  0  0
 77 79  1  0  0  0
 77 85  1  0  0  0
 77149  1  0  0  0
 77150  1  0  0  0
 78 79  1  0  0  0
 78 85  1  0  0  0
 78151  1  0  0  0
 78152  1  0  0  0
 79153  1  0  0  0
 80154  1  0  0  0
 80155  1  0  0  0
 80156  1  0  0  0
 81157  1  0  0  0
 81158  1  0  0  0
 81159  1  0  0  0
 81 84  1  0  0  0
 82 84  1  0  0  0
 82160  1  0  0  0
 82161  1  0  0  0
 82162  1  0  0  0
 83 86  1  0  0  0
 83163  1  0  0  0
 83164  1  0  0  0
 84 86  1  0  0  0
 84165  1  0  0  0
M  ISO  4   1 100  68 101  79 101  86 100
M  END
> <chiral flag>
0

> <version>
0

> <s_m_source_file>
/data/baiqing/PycharmProjects/Reinvent-master-3.2/result/LINK_invent/BTK/process_docking_weight1_custom_product_contain_oxygen_bond_distance_aromatic_linkinvent_7_9_3/rearranged_h_0028.sdf

> <i_m_source_file_index>
63

> <r_mmod_Potential_Energy-OPLS-2005>
575.452331542969

> <r_mmod_Stretch_Energy-OPLS-2005>
195.142059326172

> <r_mmod_Bend_Energy-OPLS-2005>
286.482177734375

> <r_mmod_Torsional_Energy-OPLS-2005>
291.839782714844

> <r_mmod_Improper_Torsional_Energy-OPLS-2005>
13.9976491928101

> <r_mmod_Van_der_Waal_Energy-OPLS-2005>
141.323577880859

> <r_mmod_Electrostatic_Energy-OPLS-2005>
-280.400848388672

> <r_mmod_Solvation_Energy-OPLS-2005>
-196.656372070312

> <b_mmod_Minimization_Converged-OPLS-2005>
0

> <r_mmod_RMS_Derivative-OPLS-2005>
0.89018988609314

$$$$
63
                    3D
 Structure written by MMmdl.
156165  0  0  1  0            999 V2000
  -30.6242  -14.7095   20.4550 C   0  0  0  0  0  0
  -30.4305  -12.4346   19.4555 C   0  0  0  0  0  0
  -29.5068  -12.5077   18.2222 C   0  0  0  0  0  0
  -28.0323  -12.3387   18.6387 C   0  0  0  0  0  0
  -27.6454  -13.2284   19.8514 C   0  0  2  0  0  0
  -28.6934  -13.1490   20.9822 C   0  0  0  0  0  0
  -25.2551  -13.8192   20.5717 C   0  0  0  0  0  0
  -24.1832  -13.0439   20.9187 C   0  0  0  0  0  0
  -24.6422  -11.6916   20.8736 C   0  0  0  0  0  0
  -23.9103  -10.4303   21.0407 C   0  0  0  0  0  0
  -24.3646   -9.4212   21.9187 C   0  0  0  0  0  0
  -23.6310   -8.2250   22.0768 C   0  0  0  0  0  0
  -22.4289   -8.0296   21.3554 C   0  0  0  0  0  0
  -21.9930   -9.0271   20.4655 C   0  0  0  0  0  0
  -22.7271  -10.2144   20.3058 C   0  0  0  0  0  0
  -21.6861   -6.0749   22.5279 C   0  0  0  0  0  0
  -21.4016   -6.5652   23.8214 C   0  0  0  0  0  0
  -21.3649   -5.6802   24.9173 C   0  0  0  0  0  0
  -21.6041   -4.3063   24.7223 C   0  0  0  0  0  0
  -21.8823   -3.8165   23.4344 C   0  0  0  0  0  0
  -21.9192   -4.6977   22.3401 C   0  0  0  0  0  0
  -22.7851  -13.5221   21.1841 C   0  0  0  0  0  0
  -22.1664   -4.2167   21.0976 F   0  0  0  0  0  0
  -21.5621   -3.4548   25.7734 F   0  0  0  0  0  0
  -29.9910  -13.4926   20.3913 N   0  0  0  0  0  0
  -26.2983  -12.9390   20.3308 N   0  0  0  0  0  0
  -25.9354  -11.6536   20.5752 N   0  0  0  0  0  0
  -22.0504  -12.8209   22.0394 N   0  0  0  0  0  0
  -25.4214  -15.1922   20.4189 N   0  0  0  0  0  0
  -31.8170  -14.7984   20.1516 O   0  0  0  0  0  0
  -21.6644   -6.8896   21.4247 O   0  0  0  0  0  0
  -22.3541  -14.5534   20.6697 O   0  0  0  0  0  0
  -24.6269  -31.8553   23.1998 C   0  0  0  0  0  0
  -25.9094  -32.4751   23.8327 C   0  0  1  0  0  0
  -27.2090  -27.2721   20.1143 C   0  0  0  0  0  0
  -25.5895  -33.8557   24.2255 N   0  0  0  0  0  0
  -23.4193  -30.4801   21.5454 C   0  0  2  0  0  0
  -24.8622  -28.9316   20.1091 C   0  0  0  0  0  0
  -22.7469  -29.4577   22.4927 C   0  0  0  0  0  0
  -18.0278  -28.1355   22.8467 C   0  0  0  0  0  0
  -24.1472  -36.7275   23.2638 C   0  0  0  0  0  0
  -25.9636  -30.7713   21.3745 C   0  0  0  0  0  0
  -26.0347  -29.3941   20.7195 C   0  0  0  0  0  0
  -27.2093  -28.5771   20.7133 C   0  0  0  0  0  0
  -26.0097  -26.8726   19.4813 C   0  0  0  0  0  0
  -24.8554  -27.6787   19.4798 C   0  0  0  0  0  0
  -23.6335  -29.8204   20.1588 C   0  0  0  0  0  0
  -25.4098  -36.3065   24.0330 C   0  0  1  0  0  0
  -20.5872  -28.3653   23.1288 C   0  0  2  0  0  0
  -20.6754  -26.9367   22.5426 C   0  0  0  0  0  0
  -19.5748  -26.6366   21.5196 C   0  0  0  0  0  0
  -18.1915  -26.7895   22.1588 C   0  0  0  0  0  0
  -19.1525  -28.8821   23.2870 C   0  0  0  0  0  0
  -18.9458  -30.1420   23.8889 C   0  0  0  0  0  0
  -17.6459  -30.6560   24.0557 C   0  0  0  0  0  0
  -25.9041  -34.9440   23.5099 C   0  0  0  0  0  0
  -16.5354  -29.9054   23.6336 C   0  0  0  0  0  0
  -16.7266  -28.6472   23.0356 C   0  0  0  0  0  0
  -26.4479  -31.6553   25.0697 C   0  0  0  0  0  0
  -25.3718  -31.3711   26.1436 C   0  0  0  0  0  0
  -27.0299  -30.2960   24.6146 C   0  0  0  0  0  0
  -27.6051  -32.4296   25.7456 C   0  0  0  0  0  0
  -27.5577  -37.1778   24.8458 C   0  0  0  0  0  0
  -21.4180  -29.3004   22.3683 N   0  0  0  0  0  0
  -26.4270  -37.3774   23.9436 N   0  0  0  0  0  0
  -24.6898  -31.0522   22.0969 N   0  0  0  0  0  0
  -23.4194  -28.8106   23.2997 O   0  0  0  0  0  0
  -28.3200  -26.4017   20.1650 O   0  0  0  0  0  0
  -26.5631  -34.8919   22.4681 O   0  0  0  0  0  0
  -23.5427  -32.1369   23.7308 O   0  0  0  0  0  0
  -30.2101  -19.4064   19.3865 C   0  0  0  0  0  0
  -28.3932  -20.6946   21.0205 C   0  0  0  0  0  0
  -29.8495  -20.7777   19.1583 C   0  0  0  0  0  0
  -29.7103  -18.6335   20.4671 C   0  0  0  0  0  0
  -28.9410  -21.5190   19.9875 C   0  0  0  0  0  0
  -28.7613  -19.3272   21.2689 C   0  0  0  0  0  0
  -27.6482  -23.7891   20.4865 C   0  0  0  0  0  0
  -29.4923  -24.0665   19.6183 C   0  0  0  0  0  0
  -28.2288  -24.9928   19.6530 C   0  0  0  0  0  0
  -30.4736  -21.4560   17.9493 C   0  0  0  0  0  0
  -30.4009  -17.2587   20.8911 C   0  0  0  0  0  0
  -28.5546  -22.9268   19.7002 N   0  0  0  0  0  0
  -29.8704  -15.8498   20.6734 N   0  0  0  0  0  0
  -28.2159  -18.6880   22.3315 F   0  0  0  0  0  0
  -31.4720  -12.5540   19.1528 H   0  0  0  0  0  0
  -30.3684  -11.4539   19.9297 H   0  0  0  0  0  0
  -29.7821  -11.7421   17.4964 H   0  0  0  0  0  0
  -29.6389  -13.4673   17.7186 H   0  0  0  0  0  0
  -27.8793  -11.2878   18.8870 H   0  0  0  0  0  0
  -27.3767  -12.5509   17.7934 H   0  0  0  0  0  0
  -27.6441  -14.2535   19.4820 H   0  0  0  0  0  0
  -28.7271  -12.1511   21.4211 H   0  0  0  0  0  0
  -28.4429  -13.8326   21.7953 H   0  0  0  0  0  0
  -25.2791   -9.5684   22.4758 H   0  0  0  0  0  0
  -24.0018   -7.4652   22.7503 H   0  0  0  0  0  0
  -21.0854   -8.8805   19.8965 H   0  0  0  0  0  0
  -22.3741  -10.9687   19.6169 H   0  0  0  0  0  0
  -21.2014   -7.6157   23.9724 H   0  0  0  0  0  0
  -21.1458   -6.0528   25.9073 H   0  0  0  0  0  0
  -22.0603   -2.7629   23.2844 H   0  0  0  0  0  0
  -22.4135  -11.9859   22.4752 H   0  0  0  0  0  0
  -21.1122  -13.1231   22.2614 H   0  0  0  0  0  0
  -24.6527  -15.8398   20.5541 H   0  0  0  0  0  0
  -26.2723  -15.6483   20.1162 H   0  0  0  0  0  0
  -26.7139  -32.5403   23.1057 H   0  0  0  0  0  0
  -25.0078  -33.9710   25.0419 H   0  0  0  0  0  0
  -22.7137  -31.3023   21.4091 H   0  0  0  0  0  0
  -23.3746  -35.9590   23.3280 H   0  0  0  0  0  0
  -24.3567  -36.8925   22.2055 H   0  0  0  0  0  0
  -23.7217  -37.6470   23.6683 H   0  0  0  0  0  0
  -26.0943  -31.5288   20.6005 H   0  0  0  0  0  0
  -26.8445  -30.8259   22.0006 H   0  0  0  0  0  0
  -28.1079  -28.9300   21.1990 H   0  0  0  0  0  0
  -25.9252  -25.9172   18.9867 H   0  0  0  0  0  0
  -23.9572  -27.3257   18.9913 H   0  0  0  0  0  0
  -23.7575  -30.6055   19.4121 H   0  0  0  0  0  0
  -22.7485  -29.2616   19.8478 H   0  0  0  0  0  0
  -25.1266  -36.1915   25.0822 H   0  0  0  0  0  0
  -20.9960  -28.3230   24.1411 H   0  0  0  0  0  0
  -20.5609  -26.2253   23.3628 H   0  0  0  0  0  0
  -21.6631  -26.7359   22.1259 H   0  0  0  0  0  0
  -19.6919  -25.6281   21.1214 H   0  0  0  0  0  0
  -19.6712  -27.3190   20.6742 H   0  0  0  0  0  0
  -17.4200  -26.6669   21.3969 H   0  0  0  0  0  0
  -18.0299  -26.0012   22.8958 H   0  0  0  0  0  0
  -19.7943  -30.7238   24.2244 H   0  0  0  0  0  0
  -17.5024  -31.6238   24.5157 H   0  0  0  0  0  0
  -15.5354  -30.2965   23.7653 H   0  0  0  0  0  0
  -15.8662  -28.0807   22.7063 H   0  0  0  0  0  0
  -24.6054  -30.6811   25.7876 H   0  0  0  0  0  0
  -24.8688  -32.2843   26.4628 H   0  0  0  0  0  0
  -25.8085  -30.9194   27.0346 H   0  0  0  0  0  0
  -26.2840  -29.6736   24.1182 H   0  0  0  0  0  0
  -27.4004  -29.7195   25.4631 H   0  0  0  0  0  0
  -27.8712  -30.4231   23.9332 H   0  0  0  0  0  0
  -27.2708  -33.3702   26.1848 H   0  0  0  0  0  0
  -28.3938  -32.6658   25.0299 H   0  0  0  0  0  0
  -28.0586  -31.8504   26.5511 H   0  0  0  0  0  0
  -28.2562  -38.0102   24.7548 H   0  0  0  0  0  0
  -28.1104  -36.2646   24.6211 H   0  0  0  0  0  0
  -27.2325  -37.1353   25.8865 H   0  0  0  0  0  0
  -20.9336  -29.8778   21.6952 H   0  0  0  0  0  0
  -26.0139  -38.2830   24.1507 H   0  0  0  0  0  0
  -30.9397  -18.9500   18.7318 H   0  0  0  0  0  0
  -27.6568  -21.1331   21.6781 H   0  0  0  0  0  0
  -26.5867  -23.5976   20.3225 H   0  0  0  0  0  0
  -27.9009  -23.8231   21.5487 H   0  0  0  0  0  0
  -30.1371  -24.1543   20.4961 H   0  0  0  0  0  0
  -30.0581  -24.1347   18.6889 H   0  0  0  0  0  0
  -27.8191  -25.0121   18.6406 H   0  0  0  0  0  0
  -30.8258  -20.7262   17.2200 H   0  0  0  0  0  0
  -31.3246  -22.0667   18.2527 H   0  0  0  0  0  0
  -29.7509  -22.0924   17.4374 H   0  0  0  0  0  0
  -30.5406  -17.3361   21.9694 H   0  0  0  0  0  0
  -31.4145  -17.2995   20.4895 H   0  0  0  0  0  0
  -28.8908  -15.7042   20.8645 H   0  0  0  0  0  0
  1 25  1  0  0  0
  1 30  2  0  0  0
  1 83  1  0  0  0
  2  3  1  0  0  0
  2 25  1  0  0  0
  2 85  1  0  0  0
  2 86  1  0  0  0
  3  4  1  0  0  0
  3 87  1  0  0  0
  3 88  1  0  0  0
  4  5  1  0  0  0
  4 89  1  0  0  0
  4 90  1  0  0  0
  5  6  1  0  0  0
  5 26  1  0  0  0
  5 91  1  0  0  0
  6 25  1  0  0  0
  6 92  1  0  0  0
  6 93  1  0  0  0
  7  8  2  0  0  0
  7 26  1  0  0  0
  7 29  1  0  0  0
  8  9  1  0  0  0
  8 22  1  0  0  0
  9 10  1  0  0  0
  9 27  2  0  0  0
 10 11  2  0  0  0
 10 15  1  0  0  0
 11 12  1  0  0  0
 11 94  1  0  0  0
 12 13  2  0  0  0
 12 95  1  0  0  0
 13 14  1  0  0  0
 13 31  1  0  0  0
 14 15  2  0  0  0
 14 96  1  0  0  0
 15 97  1  0  0  0
 16 17  2  0  0  0
 16 21  1  0  0  0
 16 31  1  0  0  0
 17 18  1  0  0  0
 17 98  1  0  0  0
 18 19  2  0  0  0
 18 99  1  0  0  0
 19 20  1  0  0  0
 19 24  1  0  0  0
 20 21  2  0  0  0
 20100  1  0  0  0
 21 23  1  0  0  0
 22 28  1  0  0  0
 22 32  2  0  0  0
 26 27  1  0  0  0
 28101  1  0  0  0
 28102  1  0  0  0
 29103  1  0  0  0
 29104  1  0  0  0
 33 34  1  0  0  0
 33 66  1  0  0  0
 33 70  2  0  0  0
 34 36  1  0  0  0
 34 59  1  0  0  0
 34105  1  0  0  0
 35 44  2  0  0  0
 35 45  1  0  0  0
 35 68  1  0  0  0
 36 56  1  0  0  0
 36106  1  0  0  0
 37 39  1  0  0  0
 37 47  1  0  0  0
 37 66  1  0  0  0
 37107  1  0  0  0
 38 43  2  0  0  0
 38 46  1  0  0  0
 38 47  1  0  0  0
 39 64  1  0  0  0
 39 67  2  0  0  0
 40 52  1  0  0  0
 40 53  2  0  0  0
 40 58  1  0  0  0
 41108  1  0  0  0
 41109  1  0  0  0
 41110  1  0  0  0
 41 48  1  0  0  0
 42 43  1  0  0  0
 42 66  1  0  0  0
 42111  1  0  0  0
 42112  1  0  0  0
 43 44  1  0  0  0
 44113  1  0  0  0
 45 46  2  0  0  0
 45114  1  0  0  0
 46115  1  0  0  0
 47116  1  0  0  0
 47117  1  0  0  0
 48 56  1  0  0  0
 48 65  1  0  0  0
 48118  1  0  0  0
 49 50  1  0  0  0
 49 53  1  0  0  0
 49 64  1  0  0  0
 49119  1  0  0  0
 50 51  1  0  0  0
 50120  1  0  0  0
 50121  1  0  0  0
 51 52  1  0  0  0
 51122  1  0  0  0
 51123  1  0  0  0
 52124  1  0  0  0
 52125  1  0  0  0
 53 54  1  0  0  0
 54 55  2  0  0  0
 54126  1  0  0  0
 55 57  1  0  0  0
 55127  1  0  0  0
 56 69  2  0  0  0
 57 58  2  0  0  0
 57128  1  0  0  0
 58129  1  0  0  0
 59 60  1  0  0  0
 59 61  1  0  0  0
 59 62  1  0  0  0
 60130  1  0  0  0
 60131  1  0  0  0
 60132  1  0  0  0
 61133  1  0  0  0
 61134  1  0  0  0
 61135  1  0  0  0
 62136  1  0  0  0
 62137  1  0  0  0
 62138  1  0  0  0
 63 65  1  0  0  0
 63139  1  0  0  0
 63140  1  0  0  0
 63141  1  0  0  0
 64142  1  0  0  0
 65143  1  0  0  0
 68 79  1  0  0  0
 71 73  2  0  0  0
 71 74  1  0  0  0
 71144  1  0  0  0
 72 75  2  0  0  0
 72 76  1  0  0  0
 72145  1  0  0  0
 73 75  1  0  0  0
 73 80  1  0  0  0
 74 76  2  0  0  0
 74 81  1  0  0  0
 75 82  1  0  0  0
 76 84  1  0  0  0
 77 79  1  0  0  0
 77 82  1  0  0  0
 77146  1  0  0  0
 77147  1  0  0  0
 78 79  1  0  0  0
 78 82  1  0  0  0
 78148  1  0  0  0
 78149  1  0  0  0
 79150  1  0  0  0
 80151  1  0  0  0
 80152  1  0  0  0
 80153  1  0  0  0
 81 83  1  0  0  0
 81154  1  0  0  0
 81155  1  0  0  0
 83156  1  0  0  0
M  ISO  4   1 100  68 101  79 101  83 100
M  END
> <chiral flag>
0

> <version>
0

> <s_m_source_file>
/data/baiqing/PycharmProjects/Reinvent-master-3.2/result/LINK_invent/BTK/process_docking_weight1_custom_product_contain_oxygen_bond_distance_aromatic_linkinvent_7_9_3/rearranged_h_0028.sdf

> <i_m_source_file_index>
64

> <r_mmod_Potential_Energy-OPLS-2005>
182.092620849609

> <r_mmod_Stretch_Energy-OPLS-2005>
102.808067321777

> <r_mmod_Bend_Energy-OPLS-2005>
233.985397338867

> <r_mmod_Torsional_Energy-OPLS-2005>
230.230804443359

> <r_mmod_Improper_Torsional_Energy-OPLS-2005>
12.8137855529785

> <r_mmod_Van_der_Waal_Energy-OPLS-2005>
146.02311706543

> <r_mmod_Electrostatic_Energy-OPLS-2005>
-399.674530029297

> <r_mmod_Solvation_Energy-OPLS-2005>
-217.607421875

> <b_mmod_Minimization_Converged-OPLS-2005>
0

> <r_mmod_RMS_Derivative-OPLS-2005>
2.64016628265381

$$$$
64
                    3D
 Structure written by MMmdl.
163171  0  0  1  0            999 V2000
  -30.6976  -14.4422   20.6263 C   0  0  0  0  0  0
  -30.4323  -12.3094   19.4140 C   0  0  0  0  0  0
  -29.4976  -12.5280   18.2061 C   0  0  0  0  0  0
  -28.0185  -12.3839   18.6154 C   0  0  0  0  0  0
  -27.6697  -13.2038   19.8858 C   0  0  2  0  0  0
  -28.7071  -12.9435   21.0020 C   0  0  0  0  0  0
  -25.2617  -13.8162   20.5688 C   0  0  0  0  0  0
  -24.1856  -13.0447   20.9156 C   0  0  0  0  0  0
  -24.6402  -11.6905   20.8716 C   0  0  0  0  0  0
  -23.9065  -10.4295   21.0394 C   0  0  0  0  0  0
  -24.3613   -9.4211   21.9180 C   0  0  0  0  0  0
  -23.6286   -8.2249   22.0750 C   0  0  0  0  0  0
  -22.4267   -8.0286   21.3541 C   0  0  0  0  0  0
  -21.9900   -9.0263   20.4646 C   0  0  0  0  0  0
  -22.7232  -10.2139   20.3052 C   0  0  0  0  0  0
  -21.6853   -6.0731   22.5278 C   0  0  0  0  0  0
  -21.4018   -6.5633   23.8213 C   0  0  0  0  0  0
  -21.3657   -5.6784   24.9172 C   0  0  0  0  0  0
  -21.6045   -4.3048   24.7221 C   0  0  0  0  0  0
  -21.8824   -3.8140   23.4342 C   0  0  0  0  0  0
  -21.9192   -4.6958   22.3400 C   0  0  0  0  0  0
  -22.7875  -13.5244   21.1822 C   0  0  0  0  0  0
  -22.1662   -4.2142   21.0979 F   0  0  0  0  0  0
  -21.5621   -3.4532   25.7736 F   0  0  0  0  0  0
  -30.0495  -13.2563   20.4732 N   0  0  0  0  0  0
  -26.3060  -12.9325   20.3399 N   0  0  0  0  0  0
  -25.9331  -11.6482   20.5762 N   0  0  0  0  0  0
  -22.0517  -12.8253   22.0386 N   0  0  0  0  0  0
  -25.4365  -15.1884   20.4128 N   0  0  0  0  0  0
  -31.7451  -14.7239   20.0339 O   0  0  0  0  0  0
  -21.6637   -6.8877   21.4241 O   0  0  0  0  0  0
  -22.3562  -14.5551   20.6668 O   0  0  0  0  0  0
  -24.6162  -31.8694   23.2119 C   0  0  0  0  0  0
  -25.9060  -32.4829   23.8415 C   0  0  1  0  0  0
  -27.2245  -27.4328   20.0911 C   0  0  0  0  0  0
  -25.5924  -33.8630   24.2343 N   0  0  0  0  0  0
  -23.4029  -30.4930   21.5534 C   0  0  2  0  0  0
  -24.8482  -28.9606   20.1159 C   0  0  0  0  0  0
  -22.7421  -29.4657   22.5012 C   0  0  0  0  0  0
  -18.0296  -28.1352   22.8482 C   0  0  0  0  0  0
  -24.1492  -36.7328   23.2627 C   0  0  0  0  0  0
  -25.9327  -30.8293   21.3691 C   0  0  0  0  0  0
  -26.0079  -29.4610   20.7224 C   0  0  0  0  0  0
  -27.2007  -28.7004   20.7176 C   0  0  0  0  0  0
  -26.0630  -26.9684   19.4466 C   0  0  0  0  0  0
  -24.8694  -27.7110   19.4748 C   0  0  0  0  0  0
  -23.6112  -29.8276   20.1677 C   0  0  0  0  0  0
  -25.4110  -36.3124   24.0327 C   0  0  1  0  0  0
  -20.5892  -28.3625   23.1333 C   0  0  2  0  0  0
  -20.6826  -26.9438   22.5235 C   0  0  0  0  0  0
  -19.5756  -26.6482   21.5076 C   0  0  0  0  0  0
  -18.1936  -26.7974   22.1482 C   0  0  0  0  0  0
  -19.1540  -28.8783   23.2949 C   0  0  0  0  0  0
  -18.9454  -30.1357   23.9019 C   0  0  0  0  0  0
  -17.6457  -30.6516   24.0636 C   0  0  0  0  0  0
  -25.9039  -34.9486   23.5127 C   0  0  0  0  0  0
  -16.5360  -29.9050   23.6317 C   0  0  0  0  0  0
  -16.7286  -28.6470   23.0340 C   0  0  0  0  0  0
  -26.4483  -31.6600   25.0732 C   0  0  0  0  0  0
  -25.3761  -31.3713   26.1491 C   0  0  0  0  0  0
  -27.0309  -30.3038   24.6108 C   0  0  0  0  0  0
  -27.6061  -32.4312   25.7500 C   0  0  0  0  0  0
  -27.5583  -37.1821   24.8458 C   0  0  0  0  0  0
  -21.4138  -29.3089   22.3823 N   0  0  0  0  0  0
  -26.4301  -37.3806   23.9397 N   0  0  0  0  0  0
  -24.6683  -31.0781   22.1030 N   0  0  0  0  0  0
  -23.4213  -28.8146   23.2995 O   0  0  0  0  0  0
  -28.3696  -26.6723   20.0386 O   0  0  0  0  0  0
  -26.5587  -34.8940   22.4682 O   0  0  0  0  0  0
  -23.5353  -32.1462   23.7506 O   0  0  0  0  0  0
  -29.4568  -17.1911   20.0209 C   0  0  0  0  0  0
  -29.8779  -17.5602   22.3847 C   0  0  0  0  0  0
  -29.0101  -19.4042   21.0072 C   0  0  0  0  0  0
  -29.0222  -18.5315   19.8793 C   0  0  0  0  0  0
  -29.8644  -16.6864   21.2784 C   0  0  0  0  0  0
  -29.4672  -18.9036   22.2526 C   0  0  0  0  0  0
  -28.3907  -20.7829   20.9388 C   0  0  0  0  0  0
  -28.5447  -18.9903   18.5071 C   0  0  0  0  0  0
  -26.6719  -23.9814   20.5027 C   0  0  0  0  0  0
  -28.8833  -23.8936   19.2487 C   0  0  0  0  0  0
  -28.7670  -23.1926   21.7059 C   0  0  0  0  0  0
  -28.5106  -25.6533   21.0466 C   0  0  0  0  0  0
  -28.2072  -24.1715   20.6092 C   0  0  0  0  0  0
  -30.1225  -15.2989   21.4872 N   0  0  0  0  0  0
  -29.1602  -21.8195   21.3170 N   0  0  0  0  0  0
  -27.2233  -20.8991   20.5698 O   0  0  0  0  0  0
  -29.4621  -19.6935   23.3554 F   0  0  0  0  0  0
  -31.4738  -12.4269   19.1092 H   0  0  0  0  0  0
  -30.3454  -11.2874   19.7857 H   0  0  0  0  0  0
  -29.7376  -11.8180   17.4137 H   0  0  0  0  0  0
  -29.6655  -13.5206   17.7841 H   0  0  0  0  0  0
  -27.8226  -11.3261   18.7930 H   0  0  0  0  0  0
  -27.3703  -12.6773   17.7884 H   0  0  0  0  0  0
  -27.7271  -14.2585   19.6154 H   0  0  0  0  0  0
  -28.6766  -11.8960   21.3078 H   0  0  0  0  0  0
  -28.4500  -13.5066   21.8996 H   0  0  0  0  0  0
  -25.2763   -9.5677   22.4746 H   0  0  0  0  0  0
  -23.9990   -7.4636   22.7470 H   0  0  0  0  0  0
  -21.0826   -8.8795   19.8956 H   0  0  0  0  0  0
  -22.3706  -10.9677   19.6153 H   0  0  0  0  0  0
  -21.2028   -7.6144   23.9713 H   0  0  0  0  0  0
  -21.1468   -6.0513   25.9072 H   0  0  0  0  0  0
  -22.0606   -2.7602   23.2849 H   0  0  0  0  0  0
  -22.4118  -11.9916   22.4793 H   0  0  0  0  0  0
  -21.1142  -13.1296   22.2595 H   0  0  0  0  0  0
  -24.6785  -15.8506   20.5365 H   0  0  0  0  0  0
  -26.3043  -15.6272   20.1312 H   0  0  0  0  0  0
  -26.7125  -32.5549   23.1181 H   0  0  0  0  0  0
  -25.0128  -33.9795   25.0523 H   0  0  0  0  0  0
  -22.6911  -31.3091   21.4149 H   0  0  0  0  0  0
  -23.3747  -35.9666   23.3308 H   0  0  0  0  0  0
  -24.3583  -36.8932   22.2037 H   0  0  0  0  0  0
  -23.7261  -37.6545   23.6631 H   0  0  0  0  0  0
  -26.0449  -31.5900   20.5946 H   0  0  0  0  0  0
  -26.8206  -30.8854   21.9874 H   0  0  0  0  0  0
  -28.0970  -29.0813   21.1870 H   0  0  0  0  0  0
  -26.0822  -26.0371   18.9033 H   0  0  0  0  0  0
  -23.9865  -27.3330   18.9777 H   0  0  0  0  0  0
  -23.7171  -30.6041   19.4091 H   0  0  0  0  0  0
  -22.7358  -29.2467   19.8732 H   0  0  0  0  0  0
  -25.1288  -36.1995   25.0815 H   0  0  0  0  0  0
  -20.9984  -28.3092   24.1450 H   0  0  0  0  0  0
  -20.5920  -26.2158   23.3308 H   0  0  0  0  0  0
  -21.6639  -26.7652   22.0826 H   0  0  0  0  0  0
  -19.6662  -27.3401   20.6695 H   0  0  0  0  0  0
  -19.6893  -25.6451   21.0963 H   0  0  0  0  0  0
  -17.4271  -26.6913   21.3793 H   0  0  0  0  0  0
  -18.0217  -25.9984   22.8708 H   0  0  0  0  0  0
  -19.7919  -30.7130   24.2476 H   0  0  0  0  0  0
  -17.5017  -31.6153   24.5320 H   0  0  0  0  0  0
  -15.5358  -30.2957   23.7605 H   0  0  0  0  0  0
  -15.8697  -28.0794   22.7034 H   0  0  0  0  0  0
  -24.5922  -30.7063   25.7847 H   0  0  0  0  0  0
  -24.8970  -32.2877   26.4950 H   0  0  0  0  0  0
  -25.8131  -30.8890   27.0250 H   0  0  0  0  0  0
  -26.2859  -29.6806   24.1146 H   0  0  0  0  0  0
  -27.4062  -29.7259   25.4568 H   0  0  0  0  0  0
  -27.8708  -30.4346   23.9279 H   0  0  0  0  0  0
  -27.2672  -33.3589   26.2128 H   0  0  0  0  0  0
  -28.3856  -32.6912   25.0321 H   0  0  0  0  0  0
  -28.0753  -31.8413   26.5389 H   0  0  0  0  0  0
  -28.2608  -38.0114   24.7496 H   0  0  0  0  0  0
  -28.1078  -36.2644   24.6299 H   0  0  0  0  0  0
  -27.2296  -37.1493   25.8862 H   0  0  0  0  0  0
  -20.9244  -29.8948   21.7206 H   0  0  0  0  0  0
  -26.0196  -38.2887   24.1402 H   0  0  0  0  0  0
  -29.4190  -16.5342   19.1621 H   0  0  0  0  0  0
  -30.1702  -17.2006   23.3610 H   0  0  0  0  0  0
  -28.8187  -18.2775   17.7281 H   0  0  0  0  0  0
  -28.9815  -19.9529   18.2394 H   0  0  0  0  0  0
  -27.4585  -19.0896   18.4940 H   0  0  0  0  0  0
  -26.3309  -23.9509   19.4689 H   0  0  0  0  0  0
  -26.1292  -24.7746   21.0161 H   0  0  0  0  0  0
  -26.3135  -23.0694   20.9706 H   0  0  0  0  0  0
  -28.6486  -22.8970   18.8747 H   0  0  0  0  0  0
  -29.9687  -23.9698   19.3236 H   0  0  0  0  0  0
  -28.5542  -24.6010   18.4866 H   0  0  0  0  0  0
  -28.0721  -23.1352   22.5450 H   0  0  0  0  0  0
  -29.6763  -23.6200   22.1301 H   0  0  0  0  0  0
  -29.5548  -25.7193   21.3538 H   0  0  0  0  0  0
  -27.9373  -25.9126   21.9390 H   0  0  0  0  0  0
  -29.5150  -14.8574   22.1614 H   0  0  0  0  0  0
  -30.1141  -21.5690   21.5387 H   0  0  0  0  0  0
  1 25  1  0  0  0
  1 30  2  0  0  0
  1 84  1  0  0  0
  2  3  1  0  0  0
  2 25  1  0  0  0
  2 88  1  0  0  0
  2 89  1  0  0  0
  3  4  1  0  0  0
  3 90  1  0  0  0
  3 91  1  0  0  0
  4  5  1  0  0  0
  4 92  1  0  0  0
  4 93  1  0  0  0
  5  6  1  0  0  0
  5 26  1  0  0  0
  5 94  1  0  0  0
  6 25  1  0  0  0
  6 95  1  0  0  0
  6 96  1  0  0  0
  7  8  2  0  0  0
  7 26  1  0  0  0
  7 29  1  0  0  0
  8  9  1  0  0  0
  8 22  1  0  0  0
  9 10  1  0  0  0
  9 27  2  0  0  0
 10 11  2  0  0  0
 10 15  1  0  0  0
 11 12  1  0  0  0
 11 97  1  0  0  0
 12 13  2  0  0  0
 12 98  1  0  0  0
 13 14  1  0  0  0
 13 31  1  0  0  0
 14 15  2  0  0  0
 14 99  1  0  0  0
 15100  1  0  0  0
 16 17  2  0  0  0
 16 21  1  0  0  0
 16 31  1  0  0  0
 17 18  1  0  0  0
 17101  1  0  0  0
 18 19  2  0  0  0
 18102  1  0  0  0
 19 20  1  0  0  0
 19 24  1  0  0  0
 20 21  2  0  0  0
 20103  1  0  0  0
 21 23  1  0  0  0
 22 28  1  0  0  0
 22 32  2  0  0  0
 26 27  1  0  0  0
 28104  1  0  0  0
 28105  1  0  0  0
 29106  1  0  0  0
 29107  1  0  0  0
 33 34  1  0  0  0
 33 66  1  0  0  0
 33 70  2  0  0  0
 34 36  1  0  0  0
 34 59  1  0  0  0
 34108  1  0  0  0
 35 44  2  0  0  0
 35 45  1  0  0  0
 35 68  1  0  0  0
 36 56  1  0  0  0
 36109  1  0  0  0
 37 39  1  0  0  0
 37 47  1  0  0  0
 37 66  1  0  0  0
 37110  1  0  0  0
 38 43  2  0  0  0
 38 46  1  0  0  0
 38 47  1  0  0  0
 39 64  1  0  0  0
 39 67  2  0  0  0
 40 52  1  0  0  0
 40 53  2  0  0  0
 40 58  1  0  0  0
 41111  1  0  0  0
 41112  1  0  0  0
 41113  1  0  0  0
 41 48  1  0  0  0
 42 43  1  0  0  0
 42 66  1  0  0  0
 42114  1  0  0  0
 42115  1  0  0  0
 43 44  1  0  0  0
 44116  1  0  0  0
 45 46  2  0  0  0
 45117  1  0  0  0
 46118  1  0  0  0
 47119  1  0  0  0
 47120  1  0  0  0
 48 56  1  0  0  0
 48 65  1  0  0  0
 48121  1  0  0  0
 49 50  1  0  0  0
 49 53  1  0  0  0
 49 64  1  0  0  0
 49122  1  0  0  0
 50 51  1  0  0  0
 50123  1  0  0  0
 50124  1  0  0  0
 51 52  1  0  0  0
 51125  1  0  0  0
 51126  1  0  0  0
 52127  1  0  0  0
 52128  1  0  0  0
 53 54  1  0  0  0
 54 55  2  0  0  0
 54129  1  0  0  0
 55 57  1  0  0  0
 55130  1  0  0  0
 56 69  2  0  0  0
 57 58  2  0  0  0
 57131  1  0  0  0
 58132  1  0  0  0
 59 60  1  0  0  0
 59 61  1  0  0  0
 59 62  1  0  0  0
 60133  1  0  0  0
 60134  1  0  0  0
 60135  1  0  0  0
 61136  1  0  0  0
 61137  1  0  0  0
 61138  1  0  0  0
 62139  1  0  0  0
 62140  1  0  0  0
 62141  1  0  0  0
 63 65  1  0  0  0
 63142  1  0  0  0
 63143  1  0  0  0
 63144  1  0  0  0
 64145  1  0  0  0
 65146  1  0  0  0
 68 82  1  0  0  0
 71 74  2  0  0  0
 71 75  1  0  0  0
 71147  1  0  0  0
 72 75  2  0  0  0
 72 76  1  0  0  0
 72148  1  0  0  0
 73 74  1  0  0  0
 73 76  2  0  0  0
 73 77  1  0  0  0
 74 78  1  0  0  0
 75 84  1  0  0  0
 76 87  1  0  0  0
 77 85  1  0  0  0
 77 86  2  0  0  0
 78149  1  0  0  0
 78150  1  0  0  0
 78151  1  0  0  0
 79152  1  0  0  0
 79153  1  0  0  0
 79154  1  0  0  0
 79 83  1  0  0  0
 80 83  1  0  0  0
 80155  1  0  0  0
 80156  1  0  0  0
 80157  1  0  0  0
 81 83  1  0  0  0
 81 85  1  0  0  0
 81158  1  0  0  0
 81159  1  0  0  0
 82 83  1  0  0  0
 82160  1  0  0  0
 82161  1  0  0  0
 84162  1  0  0  0
 85163  1  0  0  0
M  ISO  4   1 100  68 101  82 101  84 100
M  END
> <chiral flag>
0

> <version>
0

> <s_m_source_file>
/data/baiqing/PycharmProjects/Reinvent-master-3.2/result/LINK_invent/BTK/process_docking_weight1_custom_product_contain_oxygen_bond_distance_aromatic_linkinvent_7_9_3/rearranged_h_0028.sdf

> <i_m_source_file_index>
65

> <r_mmod_Potential_Energy-OPLS-2005>
50.0003547668457

> <r_mmod_Stretch_Energy-OPLS-2005>
43.0278968811035

> <r_mmod_Bend_Energy-OPLS-2005>
112.292762756348

> <r_mmod_Torsional_Energy-OPLS-2005>
313.376586914062

> <r_mmod_Improper_Torsional_Energy-OPLS-2005>
5.21015739440918

> <r_mmod_Van_der_Waal_Energy-OPLS-2005>
153.668991088867

> <r_mmod_Electrostatic_Energy-OPLS-2005>
-373.345916748047

> <r_mmod_Solvation_Energy-OPLS-2005>
-215.179397583008

> <b_mmod_Minimization_Converged-OPLS-2005>
0

> <r_mmod_RMS_Derivative-OPLS-2005>
1.7974351644516

$$$$
65
                    3D
 Structure written by MMmdl.
156165  0  0  1  0            999 V2000
  -30.6108  -14.8362   20.4694 C   0  0  0  0  0  0
  -30.4333  -12.5231   19.4574 C   0  0  0  0  0  0
  -29.4960  -12.5281   18.2266 C   0  0  0  0  0  0
  -28.0367  -12.3151   18.6671 C   0  0  0  0  0  0
  -27.6449  -13.2258   19.8585 C   0  0  2  0  0  0
  -28.6994  -13.1543   20.9818 C   0  0  0  0  0  0
  -25.2512  -13.8154   20.5697 C   0  0  0  0  0  0
  -24.1789  -13.0433   20.9156 C   0  0  0  0  0  0
  -24.6369  -11.6892   20.8715 C   0  0  0  0  0  0
  -23.9040  -10.4277   21.0365 C   0  0  0  0  0  0
  -24.3569   -9.4206   21.9179 C   0  0  0  0  0  0
  -23.6247   -8.2257   22.0781 C   0  0  0  0  0  0
  -22.4256   -8.0260   21.3545 C   0  0  0  0  0  0
  -21.9863   -9.0228   20.4663 C   0  0  0  0  0  0
  -22.7186  -10.2116   20.3053 C   0  0  0  0  0  0
  -21.6849   -6.0697   22.5249 C   0  0  0  0  0  0
  -21.4025   -6.5616   23.8180 C   0  0  0  0  0  0
  -21.3657   -5.6775   24.9144 C   0  0  0  0  0  0
  -21.6045   -4.3035   24.7211 C   0  0  0  0  0  0
  -21.8821   -3.8125   23.4337 C   0  0  0  0  0  0
  -21.9180   -4.6928   22.3384 C   0  0  0  0  0  0
  -22.7820  -13.5229   21.1803 C   0  0  0  0  0  0
  -22.1658   -4.2111   21.0965 F   0  0  0  0  0  0
  -21.5611   -3.4529   25.7737 F   0  0  0  0  0  0
  -29.9832  -13.5896   20.4006 N   0  0  0  0  0  0
  -26.2959  -12.9365   20.3354 N   0  0  0  0  0  0
  -25.9320  -11.6513   20.5791 N   0  0  0  0  0  0
  -22.0471  -12.8221   22.0369 N   0  0  0  0  0  0
  -25.4222  -15.1899   20.4129 N   0  0  0  0  0  0
  -31.7650  -14.9118   20.0318 O   0  0  0  0  0  0
  -21.6637   -6.8850   21.4218 O   0  0  0  0  0  0
  -22.3502  -14.5546   20.6670 O   0  0  0  0  0  0
  -24.6398  -31.8449   23.1909 C   0  0  0  0  0  0
  -25.9161  -32.4688   23.8316 C   0  0  1  0  0  0
  -27.2436  -27.2134   20.1311 C   0  0  0  0  0  0
  -25.5937  -33.8485   24.2260 N   0  0  0  0  0  0
  -23.4418  -30.4692   21.5328 C   0  0  2  0  0  0
  -24.8961  -28.9112   20.1067 C   0  0  0  0  0  0
  -22.7554  -29.4555   22.4802 C   0  0  0  0  0  0
  -18.0313  -28.1334   22.8456 C   0  0  0  0  0  0
  -24.1477  -36.7279   23.2623 C   0  0  0  0  0  0
  -25.9893  -30.7458   21.3753 C   0  0  0  0  0  0
  -26.0668  -29.3641   20.7205 C   0  0  0  0  0  0
  -27.2386  -28.5333   20.7172 C   0  0  0  0  0  0
  -26.0400  -26.8393   19.4856 C   0  0  0  0  0  0
  -24.8949  -27.6628   19.4707 C   0  0  0  0  0  0
  -23.6661  -29.7987   20.1519 C   0  0  0  0  0  0
  -25.4068  -36.3009   24.0336 C   0  0  1  0  0  0
  -20.5939  -28.3688   23.1208 C   0  0  2  0  0  0
  -20.6789  -26.9377   22.5372 C   0  0  0  0  0  0
  -19.5758  -26.6344   21.5174 C   0  0  0  0  0  0
  -18.1935  -26.7864   22.1592 C   0  0  0  0  0  0
  -19.1579  -28.8828   23.2825 C   0  0  0  0  0  0
  -18.9485  -30.1421   23.8857 C   0  0  0  0  0  0
  -17.6485  -30.6540   24.0559 C   0  0  0  0  0  0
  -25.9026  -34.9380   23.5105 C   0  0  0  0  0  0
  -16.5372  -29.9052   23.6317 C   0  0  0  0  0  0
  -16.7312  -28.6475   23.0330 C   0  0  0  0  0  0
  -26.4525  -31.6502   25.0712 C   0  0  0  0  0  0
  -25.3800  -31.3658   26.1499 C   0  0  0  0  0  0
  -27.0303  -30.2879   24.6172 C   0  0  0  0  0  0
  -27.6095  -32.4272   25.7435 C   0  0  0  0  0  0
  -27.5577  -37.1719   24.8428 C   0  0  0  0  0  0
  -21.4244  -29.3044   22.3593 N   0  0  0  0  0  0
  -26.4221  -37.3738   23.9494 N   0  0  0  0  0  0
  -24.7109  -31.0385   22.0879 N   0  0  0  0  0  0
  -23.4239  -28.8032   23.2868 O   0  0  0  0  0  0
  -28.3598  -26.3243   20.1892 O   0  0  0  0  0  0
  -26.5586  -34.8875   22.4659 O   0  0  0  0  0  0
  -23.5540  -32.1278   23.7153 O   0  0  0  0  0  0
  -30.7394  -20.3780   22.4625 C   0  0  0  0  0  0
  -30.6763  -19.1078   21.8571 C   0  0  0  0  0  0
  -30.1065  -21.5110   21.9093 C   0  0  0  0  0  0
  -29.9484  -18.8986   20.6711 C   0  0  0  0  0  0
  -29.3857  -21.4745   20.6890 C   0  0  0  0  0  0
  -29.3551  -20.1212   20.0925 C   0  0  0  0  0  0
  -28.0978  -23.7497   21.0618 C   0  0  0  0  0  0
  -29.5112  -23.8970   19.6407 C   0  0  0  0  0  0
  -28.2580  -24.8240   19.9213 C   0  0  0  0  0  0
  -29.1874  -16.1036   22.0462 C   0  0  0  0  0  0
  -29.9721  -17.4064   20.0122 C   0  0  0  0  0  0
  -28.7342  -22.7344   20.1656 N   0  0  0  0  0  0
  -29.8986  -16.0285   20.7634 N   0  0  0  0  0  0
  -28.7366  -20.0016   18.8930 F   0  0  0  0  0  0
  -31.4635  -12.6560   19.1303 H   0  0  0  0  0  0
  -30.4123  -11.5425   19.9383 H   0  0  0  0  0  0
  -29.7865  -11.7473   17.5224 H   0  0  0  0  0  0
  -29.5843  -13.4746   17.6908 H   0  0  0  0  0  0
  -27.9414  -11.2683   18.9654 H   0  0  0  0  0  0
  -27.3533  -12.4557   17.8279 H   0  0  0  0  0  0
  -27.6425  -14.2500   19.4823 H   0  0  0  0  0  0
  -28.7761  -12.1361   21.3698 H   0  0  0  0  0  0
  -28.3999  -13.7456   21.8386 H   0  0  0  0  0  0
  -25.2701   -9.5706   22.4763 H   0  0  0  0  0  0
  -23.9936   -7.4676   22.7554 H   0  0  0  0  0  0
  -21.0779   -8.8738   19.8998 H   0  0  0  0  0  0
  -22.3606  -10.9642   19.6175 H   0  0  0  0  0  0
  -21.2064   -7.6128   23.9671 H   0  0  0  0  0  0
  -21.1457   -6.0507   25.9032 H   0  0  0  0  0  0
  -22.0602   -2.7588   23.2844 H   0  0  0  0  0  0
  -22.4102  -11.9860   22.4684 H   0  0  0  0  0  0
  -21.1129  -13.1281   22.2648 H   0  0  0  0  0  0
  -24.6564  -15.8430   20.5317 H   0  0  0  0  0  0
  -26.2861  -15.6375   20.1363 H   0  0  0  0  0  0
  -26.7216  -32.5324   23.1043 H   0  0  0  0  0  0
  -25.0210  -33.9611   25.0501 H   0  0  0  0  0  0
  -22.7449  -31.2945   21.3766 H   0  0  0  0  0  0
  -23.3796  -35.9536   23.3017 H   0  0  0  0  0  0
  -24.3673  -36.9178   22.2101 H   0  0  0  0  0  0
  -23.7129  -37.6350   23.6832 H   0  0  0  0  0  0
  -26.1266  -31.4960   20.5979 H   0  0  0  0  0  0
  -26.8730  -30.8088   22.0000 H   0  0  0  0  0  0
  -28.1381  -28.8837   21.2034 H   0  0  0  0  0  0
  -25.9320  -25.8936   18.9786 H   0  0  0  0  0  0
  -24.0010  -27.3248   18.9648 H   0  0  0  0  0  0
  -23.7846  -30.5769   19.3987 H   0  0  0  0  0  0
  -22.7876  -29.2288   19.8414 H   0  0  0  0  0  0
  -25.1188  -36.1822   25.0821 H   0  0  0  0  0  0
  -21.0050  -28.3274   24.1316 H   0  0  0  0  0  0
  -20.5677  -26.2283   23.3597 H   0  0  0  0  0  0
  -21.6644  -26.7347   22.1161 H   0  0  0  0  0  0
  -19.6948  -25.6255   21.1176 H   0  0  0  0  0  0
  -19.6697  -27.3154   20.6690 H   0  0  0  0  0  0
  -17.4216  -26.6646   21.3975 H   0  0  0  0  0  0
  -18.0329  -25.9967   22.8953 H   0  0  0  0  0  0
  -19.7978  -30.7222   24.2207 H   0  0  0  0  0  0
  -17.5049  -31.6213   24.5165 H   0  0  0  0  0  0
  -15.5382  -30.2944   23.7607 H   0  0  0  0  0  0
  -15.8716  -28.0787   22.7026 H   0  0  0  0  0  0
  -24.6161  -30.6687   25.8001 H   0  0  0  0  0  0
  -24.8728  -32.2749   26.4701 H   0  0  0  0  0  0
  -25.8212  -30.9189   27.0412 H   0  0  0  0  0  0
  -26.2787  -29.6636   24.1279 H   0  0  0  0  0  0
  -27.4052  -29.7115   25.4626 H   0  0  0  0  0  0
  -27.8664  -30.4086   23.9290 H   0  0  0  0  0  0
  -27.2860  -33.3883   26.1455 H   0  0  0  0  0  0
  -28.4145  -32.6268   25.0350 H   0  0  0  0  0  0
  -28.0418  -31.8702   26.5767 H   0  0  0  0  0  0
  -28.2360  -38.0224   24.7741 H   0  0  0  0  0  0
  -28.1303  -36.2769   24.5893 H   0  0  0  0  0  0
  -27.2391  -37.0947   25.8838 H   0  0  0  0  0  0
  -20.9449  -29.8956   21.6949 H   0  0  0  0  0  0
  -26.0070  -38.2753   24.1689 H   0  0  0  0  0  0
  -31.3013  -20.4853   23.3825 H   0  0  0  0  0  0
  -31.2169  -18.2898   22.3124 H   0  0  0  0  0  0
  -30.2078  -22.4399   22.4533 H   0  0  0  0  0  0
  -27.0586  -23.5489   21.3311 H   0  0  0  0  0  0
  -28.6963  -23.9869   21.9474 H   0  0  0  0  0  0
  -30.3997  -24.1444   20.2312 H   0  0  0  0  0  0
  -29.7660  -23.8025   18.5829 H   0  0  0  0  0  0
  -27.5494  -24.6349   19.1161 H   0  0  0  0  0  0
  -29.3330  -17.0493   22.5591 H   0  0  0  0  0  0
  -29.5364  -15.3500   22.7558 H   0  0  0  0  0  0
  -28.1126  -15.9748   21.9072 H   0  0  0  0  0  0
  -30.8851  -17.3952   19.4137 H   0  0  0  0  0  0
  -29.1768  -17.3849   19.2646 H   0  0  0  0  0  0
  1 25  1  0  0  0
  1 30  2  0  0  0
  1 83  1  0  0  0
  2  3  1  0  0  0
  2 25  1  0  0  0
  2 85  1  0  0  0
  2 86  1  0  0  0
  3  4  1  0  0  0
  3 87  1  0  0  0
  3 88  1  0  0  0
  4  5  1  0  0  0
  4 89  1  0  0  0
  4 90  1  0  0  0
  5  6  1  0  0  0
  5 26  1  0  0  0
  5 91  1  0  0  0
  6 25  1  0  0  0
  6 92  1  0  0  0
  6 93  1  0  0  0
  7  8  2  0  0  0
  7 26  1  0  0  0
  7 29  1  0  0  0
  8  9  1  0  0  0
  8 22  1  0  0  0
  9 10  1  0  0  0
  9 27  2  0  0  0
 10 11  2  0  0  0
 10 15  1  0  0  0
 11 12  1  0  0  0
 11 94  1  0  0  0
 12 13  2  0  0  0
 12 95  1  0  0  0
 13 14  1  0  0  0
 13 31  1  0  0  0
 14 15  2  0  0  0
 14 96  1  0  0  0
 15 97  1  0  0  0
 16 17  2  0  0  0
 16 21  1  0  0  0
 16 31  1  0  0  0
 17 18  1  0  0  0
 17 98  1  0  0  0
 18 19  2  0  0  0
 18 99  1  0  0  0
 19 20  1  0  0  0
 19 24  1  0  0  0
 20 21  2  0  0  0
 20100  1  0  0  0
 21 23  1  0  0  0
 22 28  1  0  0  0
 22 32  2  0  0  0
 26 27  1  0  0  0
 28101  1  0  0  0
 28102  1  0  0  0
 29103  1  0  0  0
 29104  1  0  0  0
 33 34  1  0  0  0
 33 66  1  0  0  0
 33 70  2  0  0  0
 34 36  1  0  0  0
 34 59  1  0  0  0
 34105  1  0  0  0
 35 44  2  0  0  0
 35 45  1  0  0  0
 35 68  1  0  0  0
 36 56  1  0  0  0
 36106  1  0  0  0
 37 39  1  0  0  0
 37 47  1  0  0  0
 37 66  1  0  0  0
 37107  1  0  0  0
 38 43  2  0  0  0
 38 46  1  0  0  0
 38 47  1  0  0  0
 39 64  1  0  0  0
 39 67  2  0  0  0
 40 52  1  0  0  0
 40 53  2  0  0  0
 40 58  1  0  0  0
 41108  1  0  0  0
 41109  1  0  0  0
 41110  1  0  0  0
 41 48  1  0  0  0
 42 43  1  0  0  0
 42 66  1  0  0  0
 42111  1  0  0  0
 42112  1  0  0  0
 43 44  1  0  0  0
 44113  1  0  0  0
 45 46  2  0  0  0
 45114  1  0  0  0
 46115  1  0  0  0
 47116  1  0  0  0
 47117  1  0  0  0
 48 56  1  0  0  0
 48 65  1  0  0  0
 48118  1  0  0  0
 49 50  1  0  0  0
 49 53  1  0  0  0
 49 64  1  0  0  0
 49119  1  0  0  0
 50 51  1  0  0  0
 50120  1  0  0  0
 50121  1  0  0  0
 51 52  1  0  0  0
 51122  1  0  0  0
 51123  1  0  0  0
 52124  1  0  0  0
 52125  1  0  0  0
 53 54  1  0  0  0
 54 55  2  0  0  0
 54126  1  0  0  0
 55 57  1  0  0  0
 55127  1  0  0  0
 56 69  2  0  0  0
 57 58  2  0  0  0
 57128  1  0  0  0
 58129  1  0  0  0
 59 60  1  0  0  0
 59 61  1  0  0  0
 59 62  1  0  0  0
 60130  1  0  0  0
 60131  1  0  0  0
 60132  1  0  0  0
 61133  1  0  0  0
 61134  1  0  0  0
 61135  1  0  0  0
 62136  1  0  0  0
 62137  1  0  0  0
 62138  1  0  0  0
 63 65  1  0  0  0
 63139  1  0  0  0
 63140  1  0  0  0
 63141  1  0  0  0
 64142  1  0  0  0
 65143  1  0  0  0
 68 79  1  0  0  0
 71 72  2  0  0  0
 71 73  1  0  0  0
 71144  1  0  0  0
 72 74  1  0  0  0
 72145  1  0  0  0
 73 75  2  0  0  0
 73146  1  0  0  0
 74 76  2  0  0  0
 74 81  1  0  0  0
 75 76  1  0  0  0
 75 82  1  0  0  0
 76 84  1  0  0  0
 77 79  1  0  0  0
 77 82  1  0  0  0
 77147  1  0  0  0
 77148  1  0  0  0
 78 79  1  0  0  0
 78 82  1  0  0  0
 78149  1  0  0  0
 78150  1  0  0  0
 79151  1  0  0  0
 80 83  1  0  0  0
 80152  1  0  0  0
 80153  1  0  0  0
 80154  1  0  0  0
 81 83  1  0  0  0
 81155  1  0  0  0
 81156  1  0  0  0
M  ISO  4   1 100  68 101  79 101  83 100
M  END
> <chiral flag>
0

> <version>
0

> <s_m_source_file>
/data/baiqing/PycharmProjects/Reinvent-master-3.2/result/LINK_invent/BTK/process_docking_weight1_custom_product_contain_oxygen_bond_distance_aromatic_linkinvent_7_9_3/rearranged_h_0028.sdf

> <i_m_source_file_index>
66

> <r_mmod_Potential_Energy-OPLS-2005>
532.953186035156

> <r_mmod_Stretch_Energy-OPLS-2005>
183.531936645508

> <r_mmod_Bend_Energy-OPLS-2005>
259.637817382812

> <r_mmod_Torsional_Energy-OPLS-2005>
286.362731933594

> <r_mmod_Improper_Torsional_Energy-OPLS-2005>
14.4460668563843

> <r_mmod_Van_der_Waal_Energy-OPLS-2005>
146.235214233398

> <r_mmod_Electrostatic_Energy-OPLS-2005>
-260.313781738281

> <r_mmod_Solvation_Energy-OPLS-2005>
-211.000350952148

> <b_mmod_Minimization_Converged-OPLS-2005>
0

> <r_mmod_RMS_Derivative-OPLS-2005>
6.34704732894897

$$$$
66
                    3D
 Structure written by MMmdl.
159168  0  0  1  0            999 V2000
  -30.6484  -14.6647   20.4761 C   0  0  0  0  0  0
  -30.4197  -12.4086   19.4566 C   0  0  0  0  0  0
  -29.4988  -12.4965   18.2221 C   0  0  0  0  0  0
  -28.0235  -12.3380   18.6374 C   0  0  0  0  0  0
  -27.6411  -13.2283   19.8507 C   0  0  2  0  0  0
  -28.6860  -13.1363   20.9828 C   0  0  0  0  0  0
  -25.2506  -13.8199   20.5693 C   0  0  0  0  0  0
  -24.1797  -13.0444   20.9213 C   0  0  0  0  0  0
  -24.6382  -11.6920   20.8752 C   0  0  0  0  0  0
  -23.9064  -10.4296   21.0411 C   0  0  0  0  0  0
  -24.3619   -9.4209   21.9185 C   0  0  0  0  0  0
  -23.6296   -8.2242   22.0753 C   0  0  0  0  0  0
  -22.4278   -8.0280   21.3544 C   0  0  0  0  0  0
  -21.9914   -9.0253   20.4647 C   0  0  0  0  0  0
  -22.7239  -10.2134   20.3057 C   0  0  0  0  0  0
  -21.6854   -6.0734   22.5279 C   0  0  0  0  0  0
  -21.4014   -6.5639   23.8210 C   0  0  0  0  0  0
  -21.3658   -5.6792   24.9175 C   0  0  0  0  0  0
  -21.6046   -4.3054   24.7227 C   0  0  0  0  0  0
  -21.8819   -3.8144   23.4346 C   0  0  0  0  0  0
  -21.9193   -4.6961   22.3402 C   0  0  0  0  0  0
  -22.7821  -13.5227   21.1876 C   0  0  0  0  0  0
  -22.1662   -4.2145   21.0980 F   0  0  0  0  0  0
  -21.5629   -3.4538   25.7738 F   0  0  0  0  0  0
  -29.9903  -13.4648   20.3976 N   0  0  0  0  0  0
  -26.2929  -12.9400   20.3283 N   0  0  0  0  0  0
  -25.9309  -11.6547   20.5755 N   0  0  0  0  0  0
  -22.0469  -12.8209   22.0429 N   0  0  0  0  0  0
  -25.4200  -15.1922   20.4101 N   0  0  0  0  0  0
  -31.8394  -14.7361   20.1644 O   0  0  0  0  0  0
  -21.6640   -6.8876   21.4240 O   0  0  0  0  0  0
  -22.3501  -14.5529   20.6718 O   0  0  0  0  0  0
  -24.6259  -31.8568   23.1981 C   0  0  0  0  0  0
  -25.9106  -32.4762   23.8315 C   0  0  1  0  0  0
  -27.2288  -27.3093   20.1173 C   0  0  0  0  0  0
  -25.5922  -33.8563   24.2254 N   0  0  0  0  0  0
  -23.4191  -30.4774   21.5402 C   0  0  2  0  0  0
  -24.8632  -28.9213   20.1103 C   0  0  0  0  0  0
  -22.7470  -29.4603   22.4924 C   0  0  0  0  0  0
  -18.0282  -28.1391   22.8482 C   0  0  0  0  0  0
  -24.1487  -36.7281   23.2644 C   0  0  0  0  0  0
  -25.9576  -30.7869   21.3639 C   0  0  0  0  0  0
  -26.0292  -29.4112   20.7087 C   0  0  0  0  0  0
  -27.2099  -28.6165   20.6970 C   0  0  0  0  0  0
  -26.0334  -26.8531   19.5238 C   0  0  0  0  0  0
  -24.8673  -27.6489   19.5106 C   0  0  0  0  0  0
  -23.6324  -29.8046   20.1568 C   0  0  0  0  0  0
  -25.4114  -36.3073   24.0332 C   0  0  1  0  0  0
  -20.5883  -28.3681   23.1290 C   0  0  2  0  0  0
  -20.6769  -26.9402   22.5423 C   0  0  0  0  0  0
  -19.5752  -26.6382   21.5217 C   0  0  0  0  0  0
  -18.1926  -26.7932   22.1620 C   0  0  0  0  0  0
  -19.1537  -28.8852   23.2880 C   0  0  0  0  0  0
  -18.9460  -30.1455   23.8894 C   0  0  0  0  0  0
  -17.6462  -30.6592   24.0554 C   0  0  0  0  0  0
  -25.9050  -34.9445   23.5095 C   0  0  0  0  0  0
  -16.5349  -29.9094   23.6326 C   0  0  0  0  0  0
  -16.7271  -28.6512   23.0346 C   0  0  0  0  0  0
  -26.4492  -31.6591   25.0697 C   0  0  0  0  0  0
  -25.3730  -31.3732   26.1429 C   0  0  0  0  0  0
  -27.0328  -30.3020   24.6140 C   0  0  0  0  0  0
  -27.6050  -32.4327   25.7469 C   0  0  0  0  0  0
  -27.5574  -37.1798   24.8469 C   0  0  0  0  0  0
  -21.4183  -29.3032   22.3680 N   0  0  0  0  0  0
  -26.4287  -37.3772   23.9410 N   0  0  0  0  0  0
  -24.6868  -31.0580   22.0917 N   0  0  0  0  0  0
  -23.4199  -28.8153   23.3008 O   0  0  0  0  0  0
  -28.4022  -26.5460   20.1732 O   0  0  0  0  0  0
  -26.5615  -34.8917   22.4659 O   0  0  0  0  0  0
  -23.5428  -32.1361   23.7320 O   0  0  0  0  0  0
  -28.5266  -18.9513   20.7351 C   0  0  0  0  0  0
  -30.2511  -20.9562   19.8297 C   0  0  0  0  0  0
  -28.0471  -20.2902   20.5040 C   0  0  0  0  0  0
  -29.8831  -18.5806   20.5213 C   0  0  0  0  0  0
  -28.9008  -21.3392   20.0338 C   0  0  0  0  0  0
  -30.7265  -19.6360   20.0696 C   0  0  0  0  0  0
  -28.4129  -24.6853   18.3257 C   0  0  0  0  0  0
  -28.8053  -23.1897   18.3585 C   0  0  0  0  0  0
  -28.2185  -23.8271   20.5812 C   0  0  0  0  0  0
  -28.6177  -25.1286   19.7754 C   0  0  2  0  0  0
  -26.5784  -20.5853   20.7497 C   0  0  0  0  0  0
  -30.5403  -17.1868   20.9013 C   0  0  0  0  0  0
  -28.4236  -22.6578   19.6716 N   0  0  0  0  0  0
  -29.9271  -15.8145   20.7217 N   0  0  0  0  0  0
  -32.0453  -19.3947   19.8719 F   0  0  0  0  0  0
  -31.4629  -12.5147   19.1537 H   0  0  0  0  0  0
  -30.3445  -11.4267   19.9263 H   0  0  0  0  0  0
  -29.7668  -11.7294   17.4944 H   0  0  0  0  0  0
  -29.6403  -13.4564   17.7225 H   0  0  0  0  0  0
  -27.8646  -11.2878   18.8854 H   0  0  0  0  0  0
  -27.3680  -12.5513   17.7923 H   0  0  0  0  0  0
  -27.6444  -14.2555   19.4852 H   0  0  0  0  0  0
  -28.7047  -12.1344   21.4144 H   0  0  0  0  0  0
  -28.4359  -13.8166   21.7983 H   0  0  0  0  0  0
  -25.2766   -9.5682   22.4759 H   0  0  0  0  0  0
  -24.0004   -7.4631   22.7469 H   0  0  0  0  0  0
  -21.0844   -8.8771   19.8951 H   0  0  0  0  0  0
  -22.3698  -10.9673   19.6162 H   0  0  0  0  0  0
  -21.2004   -7.6147   23.9714 H   0  0  0  0  0  0
  -21.1483   -6.0523   25.9078 H   0  0  0  0  0  0
  -22.0599   -2.7606   23.2848 H   0  0  0  0  0  0
  -22.4095  -11.9870   22.4811 H   0  0  0  0  0  0
  -21.1084  -13.1223   22.2636 H   0  0  0  0  0  0
  -24.6502  -15.8440   20.5159 H   0  0  0  0  0  0
  -26.2618  -15.6300   20.0588 H   0  0  0  0  0  0
  -26.7166  -32.5415   23.1053 H   0  0  0  0  0  0
  -25.0096  -33.9705   25.0416 H   0  0  0  0  0  0
  -22.7134  -31.2974   21.3936 H   0  0  0  0  0  0
  -23.3750  -35.9615   23.3323 H   0  0  0  0  0  0
  -24.3580  -36.8882   22.2056 H   0  0  0  0  0  0
  -23.7239  -37.6488   23.6652 H   0  0  0  0  0  0
  -26.0858  -31.5482   20.5933 H   0  0  0  0  0  0
  -26.8402  -30.8384   21.9906 H   0  0  0  0  0  0
  -28.1099  -28.9932   21.1622 H   0  0  0  0  0  0
  -25.9692  -25.8691   19.0908 H   0  0  0  0  0  0
  -23.9668  -27.2632   19.0520 H   0  0  0  0  0  0
  -23.7529  -30.5772   19.3964 H   0  0  0  0  0  0
  -22.7518  -29.2334   19.8570 H   0  0  0  0  0  0
  -25.1301  -36.1920   25.0826 H   0  0  0  0  0  0
  -20.9973  -28.3253   24.1412 H   0  0  0  0  0  0
  -20.5659  -26.2286   23.3622 H   0  0  0  0  0  0
  -21.6637  -26.7435   22.1213 H   0  0  0  0  0  0
  -19.6910  -25.6296   21.1238 H   0  0  0  0  0  0
  -19.6702  -27.3192   20.6748 H   0  0  0  0  0  0
  -17.4203  -26.6685   21.4017 H   0  0  0  0  0  0
  -18.0316  -26.0080   22.9021 H   0  0  0  0  0  0
  -19.7937  -30.7261   24.2271 H   0  0  0  0  0  0
  -17.5020  -31.6269   24.5161 H   0  0  0  0  0  0
  -15.5346  -30.2993   23.7663 H   0  0  0  0  0  0
  -15.8669  -28.0832   22.7064 H   0  0  0  0  0  0
  -24.5924  -30.7053   25.7773 H   0  0  0  0  0  0
  -24.8894  -32.2892   26.4829 H   0  0  0  0  0  0
  -25.8068  -30.8947   27.0217 H   0  0  0  0  0  0
  -26.2890  -29.6774   24.1179 H   0  0  0  0  0  0
  -27.4050  -29.7282   25.4635 H   0  0  0  0  0  0
  -27.8749  -30.4324   23.9340 H   0  0  0  0  0  0
  -27.2671  -33.3638   26.2030 H   0  0  0  0  0  0
  -28.3872  -32.6865   25.0304 H   0  0  0  0  0  0
  -28.0698  -31.8455   26.5398 H   0  0  0  0  0  0
  -28.2606  -38.0080   24.7493 H   0  0  0  0  0  0
  -28.1052  -36.2609   24.6324 H   0  0  0  0  0  0
  -27.2289  -37.1481   25.8871 H   0  0  0  0  0  0
  -20.9358  -29.8758   21.6895 H   0  0  0  0  0  0
  -26.0168  -38.2849   24.1406 H   0  0  0  0  0  0
  -27.8438  -18.2011   21.1082 H   0  0  0  0  0  0
  -30.9666  -21.6850   19.4809 H   0  0  0  0  0  0
  -27.3777  -24.7781   18.0076 H   0  0  0  0  0  0
  -29.0246  -25.2550   17.6256 H   0  0  0  0  0  0
  -29.8816  -23.0993   18.2081 H   0  0  0  0  0  0
  -28.3177  -22.6375   17.5536 H   0  0  0  0  0  0
  -27.1663  -23.8714   20.8659 H   0  0  0  0  0  0
  -28.8042  -23.7282   21.4966 H   0  0  0  0  0  0
  -29.7051  -25.1165   19.8720 H   0  0  0  0  0  0
  -26.0353  -19.6971   21.0730 H   0  0  0  0  0  0
  -26.1069  -20.9565   19.8393 H   0  0  0  0  0  0
  -26.4722  -21.3457   21.5236 H   0  0  0  0  0  0
  -30.7836  -17.2614   21.9617 H   0  0  0  0  0  0
  -31.5120  -17.1706   20.4078 H   0  0  0  0  0  0
  -28.9401  -15.7146   20.9020 H   0  0  0  0  0  0
  1 25  1  0  0  0
  1 30  2  0  0  0
  1 84  1  0  0  0
  2  3  1  0  0  0
  2 25  1  0  0  0
  2 86  1  0  0  0
  2 87  1  0  0  0
  3  4  1  0  0  0
  3 88  1  0  0  0
  3 89  1  0  0  0
  4  5  1  0  0  0
  4 90  1  0  0  0
  4 91  1  0  0  0
  5  6  1  0  0  0
  5 26  1  0  0  0
  5 92  1  0  0  0
  6 25  1  0  0  0
  6 93  1  0  0  0
  6 94  1  0  0  0
  7  8  2  0  0  0
  7 26  1  0  0  0
  7 29  1  0  0  0
  8  9  1  0  0  0
  8 22  1  0  0  0
  9 10  1  0  0  0
  9 27  2  0  0  0
 10 11  2  0  0  0
 10 15  1  0  0  0
 11 12  1  0  0  0
 11 95  1  0  0  0
 12 13  2  0  0  0
 12 96  1  0  0  0
 13 14  1  0  0  0
 13 31  1  0  0  0
 14 15  2  0  0  0
 14 97  1  0  0  0
 15 98  1  0  0  0
 16 17  2  0  0  0
 16 21  1  0  0  0
 16 31  1  0  0  0
 17 18  1  0  0  0
 17 99  1  0  0  0
 18 19  2  0  0  0
 18100  1  0  0  0
 19 20  1  0  0  0
 19 24  1  0  0  0
 20 21  2  0  0  0
 20101  1  0  0  0
 21 23  1  0  0  0
 22 28  1  0  0  0
 22 32  2  0  0  0
 26 27  1  0  0  0
 28102  1  0  0  0
 28103  1  0  0  0
 29104  1  0  0  0
 29105  1  0  0  0
 33 34  1  0  0  0
 33 66  1  0  0  0
 33 70  2  0  0  0
 34 36  1  0  0  0
 34 59  1  0  0  0
 34106  1  0  0  0
 35 44  2  0  0  0
 35 45  1  0  0  0
 35 68  1  0  0  0
 36 56  1  0  0  0
 36107  1  0  0  0
 37 39  1  0  0  0
 37 47  1  0  0  0
 37 66  1  0  0  0
 37108  1  0  0  0
 38 43  2  0  0  0
 38 46  1  0  0  0
 38 47  1  0  0  0
 39 64  1  0  0  0
 39 67  2  0  0  0
 40 52  1  0  0  0
 40 53  2  0  0  0
 40 58  1  0  0  0
 41109  1  0  0  0
 41110  1  0  0  0
 41111  1  0  0  0
 41 48  1  0  0  0
 42 43  1  0  0  0
 42 66  1  0  0  0
 42112  1  0  0  0
 42113  1  0  0  0
 43 44  1  0  0  0
 44114  1  0  0  0
 45 46  2  0  0  0
 45115  1  0  0  0
 46116  1  0  0  0
 47117  1  0  0  0
 47118  1  0  0  0
 48 56  1  0  0  0
 48 65  1  0  0  0
 48119  1  0  0  0
 49 50  1  0  0  0
 49 53  1  0  0  0
 49 64  1  0  0  0
 49120  1  0  0  0
 50 51  1  0  0  0
 50121  1  0  0  0
 50122  1  0  0  0
 51 52  1  0  0  0
 51123  1  0  0  0
 51124  1  0  0  0
 52125  1  0  0  0
 52126  1  0  0  0
 53 54  1  0  0  0
 54 55  2  0  0  0
 54127  1  0  0  0
 55 57  1  0  0  0
 55128  1  0  0  0
 56 69  2  0  0  0
 57 58  2  0  0  0
 57129  1  0  0  0
 58130  1  0  0  0
 59 60  1  0  0  0
 59 61  1  0  0  0
 59 62  1  0  0  0
 60131  1  0  0  0
 60132  1  0  0  0
 60133  1  0  0  0
 61134  1  0  0  0
 61135  1  0  0  0
 61136  1  0  0  0
 62137  1  0  0  0
 62138  1  0  0  0
 62139  1  0  0  0
 63 65  1  0  0  0
 63140  1  0  0  0
 63141  1  0  0  0
 63142  1  0  0  0
 64143  1  0  0  0
 65144  1  0  0  0
 68 80  1  0  0  0
 71 73  2  0  0  0
 71 74  1  0  0  0
 71145  1  0  0  0
 72 75  2  0  0  0
 72 76  1  0  0  0
 72146  1  0  0  0
 73 75  1  0  0  0
 73 81  1  0  0  0
 74 76  2  0  0  0
 74 82  1  0  0  0
 75 83  1  0  0  0
 76 85  1  0  0  0
 77 78  1  0  0  0
 77 80  1  0  0  0
 77147  1  0  0  0
 77148  1  0  0  0
 78 83  1  0  0  0
 78149  1  0  0  0
 78150  1  0  0  0
 79 80  1  0  0  0
 79 83  1  0  0  0
 79151  1  0  0  0
 79152  1  0  0  0
 80153  1  0  0  0
 81154  1  0  0  0
 81155  1  0  0  0
 81156  1  0  0  0
 82 84  1  0  0  0
 82157  1  0  0  0
 82158  1  0  0  0
 84159  1  0  0  0
M  ISO  4   1 100  68 101  80 101  84 100
M  END
> <chiral flag>
0

> <version>
0

> <s_m_source_file>
/data/baiqing/PycharmProjects/Reinvent-master-3.2/result/LINK_invent/BTK/process_docking_weight1_custom_product_contain_oxygen_bond_distance_aromatic_linkinvent_7_9_3/rearranged_h_0028.sdf

> <i_m_source_file_index>
67

> <r_mmod_Potential_Energy-OPLS-2005>
170.291549682617

> <r_mmod_Stretch_Energy-OPLS-2005>
85.8995513916016

> <r_mmod_Bend_Energy-OPLS-2005>
244.097091674805

> <r_mmod_Torsional_Energy-OPLS-2005>
262.125396728516

> <r_mmod_Improper_Torsional_Energy-OPLS-2005>
7.74887084960938

> <r_mmod_Van_der_Waal_Energy-OPLS-2005>
138.827758789062

> <r_mmod_Electrostatic_Energy-OPLS-2005>
-408.049285888672

> <r_mmod_Solvation_Energy-OPLS-2005>
-214.073043823242

> <b_mmod_Minimization_Converged-OPLS-2005>
0

> <r_mmod_RMS_Derivative-OPLS-2005>
0.799406468868256

$$$$
67
                    3D
 Structure written by MMmdl.
160169  0  0  1  0            999 V2000
  -31.6822  -15.0638   19.4734 C   0  0  0  0  0  0
  -30.6479  -14.3233   21.1204 C   0  0  0  0  0  0
  -28.4018  -12.2003   20.8351 C   0  0  0  0  0  0
  -27.6977  -12.0774   19.1752 C   0  0  0  0  0  0
  -27.2805  -13.6668   18.9440 C   0  0  2  0  0  0
  -28.6935  -15.2371   18.7610 C   0  0  0  0  0  0
  -25.0899  -14.0743   20.5125 C   0  0  0  0  0  0
  -24.0757  -13.2367   20.9631 C   0  0  0  0  0  0
  -24.5011  -11.8929   20.8957 C   0  0  0  0  0  0
  -23.8567  -10.5493   21.0563 C   0  0  0  0  0  0
  -24.3507   -9.5292   21.9119 C   0  0  0  0  0  0
  -23.6539   -8.3009   22.0652 C   0  0  0  0  0  0
  -22.4525   -8.0653   21.3520 C   0  0  0  0  0  0
  -21.9974   -9.0549   20.4628 C   0  0  0  0  0  0
  -22.6909  -10.2709   20.3142 C   0  0  0  0  0  0
  -21.7107   -6.0894   22.5234 C   0  0  0  0  0  0
  -21.4204   -6.5758   23.8171 C   0  0  0  0  0  0
  -21.3710   -5.6874   24.9106 C   0  0  0  0  0  0
  -21.6041   -4.3124   24.7156 C   0  0  0  0  0  0
  -21.8797   -3.8238   23.4264 C   0  0  0  0  0  0
  -21.9268   -4.7085   22.3343 C   0  0  0  0  0  0
  -22.6804  -13.6402   21.2451 C   0  0  0  0  0  0
  -22.1705   -4.2243   21.0924 F   0  0  0  0  0  0
  -21.5573   -3.4582   25.7648 F   0  0  0  0  0  0
  -30.3801  -15.3946   19.7648 N   0  0  0  0  0  0
  -26.0971  -13.3173   20.0048 N   0  0  0  0  0  0
  -25.6762  -11.9946   20.4043 N   0  0  0  0  0  0
  -21.9813  -12.8897   22.0890 N   0  0  0  0  0  0
  -25.2223  -15.4368   20.3629 N   0  0  0  0  0  0
  -32.6022  -15.5065   20.1128 O   0  0  0  0  0  0
  -21.7082   -6.9066   21.4183 O   0  0  0  0  0  0
  -22.2130  -14.6392   20.7096 O   0  0  0  0  0  0
  -24.7482  -31.7105   23.0957 C   0  0  0  0  0  0
  -25.9733  -32.4030   23.7737 C   0  0  1  0  0  0
  -27.0241  -25.8717   20.3782 C   0  0  0  0  0  0
  -25.6023  -33.7912   24.1529 N   0  0  0  0  0  0
  -23.5956  -30.2906   21.4676 C   0  0  2  0  0  0
  -25.0171  -28.4643   20.1382 C   0  0  0  0  0  0
  -22.7997  -29.3859   22.4517 C   0  0  0  0  0  0
  -18.0362  -28.1457   22.8416 C   0  0  0  0  0  0
  -24.1504  -36.6992   23.2669 C   0  0  0  0  0  0
  -26.1869  -30.1637   21.4863 C   0  0  0  0  0  0
  -26.1972  -28.6394   20.8641 C   0  0  0  0  0  0
  -27.1592  -27.3947   20.9318 C   0  0  0  0  0  0
  -25.8773  -26.1198   19.5305 C   0  0  0  0  0  0
  -24.9512  -27.2425   19.4337 C   0  0  0  0  0  0
  -23.8791  -29.5350   20.1254 C   0  0  0  0  0  0
  -25.4173  -36.2648   24.0220 C   0  0  1  0  0  0
  -20.6017  -28.3833   23.1026 C   0  0  2  0  0  0
  -20.6794  -26.9432   22.5415 C   0  0  0  0  0  0
  -19.5793  -26.6346   21.5218 C   0  0  0  0  0  0
  -18.1975  -26.7971   22.1600 C   0  0  0  0  0  0
  -19.1642  -28.8981   23.2686 C   0  0  0  0  0  0
  -18.9545  -30.1550   23.8758 C   0  0  0  0  0  0
  -17.6531  -30.6620   24.0540 C   0  0  0  0  0  0
  -25.9193  -34.9057   23.4767 C   0  0  0  0  0  0
  -16.5415  -29.9092   23.6370 C   0  0  0  0  0  0
  -16.7341  -28.6521   23.0374 C   0  0  0  0  0  0
  -26.4702  -31.6413   25.0670 C   0  0  0  0  0  0
  -25.3581  -31.3944   26.1151 C   0  0  0  0  0  0
  -27.0751  -30.2685   24.7111 C   0  0  0  0  0  0
  -27.6003  -32.4464   25.7498 C   0  0  0  0  0  0
  -27.5542  -37.1643   24.8454 C   0  0  0  0  0  0
  -21.4593  -29.2946   22.3264 N   0  0  0  0  0  0
  -26.4241  -37.3483   23.9402 N   0  0  0  0  0  0
  -24.8799  -30.7768   22.0665 N   0  0  0  0  0  0
  -23.4122  -28.7569   23.3173 O   0  0  0  0  0  0
  -27.7431  -24.2604   20.5323 O   0  0  0  0  0  0
  -26.5950  -34.8775   22.4467 O   0  0  0  0  0  0
  -23.6368  -32.0576   23.5433 O   0  0  0  0  0  0
  -29.7426  -12.7809   22.7623 C   0  0  0  0  0  0
  -30.6792  -11.9684   21.6991 C   0  0  0  0  0  0
  -28.6803  -13.9863   22.4478 C   0  0  0  0  0  0
  -30.7092  -12.2155   20.0938 C   0  0  0  0  0  0
  -28.4517  -14.5961   20.9419 C   0  0  0  0  0  0
  -29.6740  -13.2654   19.4639 C   0  0  0  0  0  0
  -27.1628  -20.4032   21.1757 C   0  0  0  0  0  0
  -28.6993  -20.4760   20.2966 C   0  0  0  0  0  0
  -27.6495  -22.0960   20.3927 C   0  0  2  0  0  0
  -28.0194  -14.6656   23.6277 C   0  0  0  0  0  0
  -32.0367  -12.5498   19.3379 C   0  0  0  0  0  0
  -28.2193  -16.8855   21.0931 C   0  0  0  0  0  0
  -31.9827  -13.9524   18.7295 N   0  0  0  0  0  0
  -27.8941  -18.9021   20.5337 N   0  3  1  0  0  0
  -29.7470  -13.2618   18.0709 F   0  0  0  0  0  0
  -31.6488  -14.0175   21.4943 H   0  0  0  0  0  0
  -30.6180  -15.0783   21.9236 H   0  0  0  0  0  0
  -27.6406  -12.1466   21.6158 H   0  0  0  0  0  0
  -28.6672  -11.1415   20.9487 H   0  0  0  0  0  0
  -27.0363  -11.2548   18.8825 H   0  0  0  0  0  0
  -28.3739  -11.6735   18.4196 H   0  0  0  0  0  0
  -26.7604  -13.7161   17.9877 H   0  0  0  0  0  0
  -28.1471  -16.1762   18.7900 H   0  0  0  0  0  0
  -28.9898  -15.2916   17.7112 H   0  0  0  0  0  0
  -25.2606   -9.7050   22.4698 H   0  0  0  0  0  0
  -24.0474   -7.5504   22.7367 H   0  0  0  0  0  0
  -21.0948   -8.8873   19.8903 H   0  0  0  0  0  0
  -22.3063  -11.0162   19.6324 H   0  0  0  0  0  0
  -21.2302   -7.6281   23.9707 H   0  0  0  0  0  0
  -21.1502   -6.0594   25.9004 H   0  0  0  0  0  0
  -22.0491   -2.7693   23.2721 H   0  0  0  0  0  0
  -22.3885  -12.0742   22.5220 H   0  0  0  0  0  0
  -21.0265  -13.1365   22.3076 H   0  0  0  0  0  0
  -24.3683  -15.9838   20.3596 H   0  0  0  0  0  0
  -25.8955  -15.7648   19.6852 H   0  0  0  0  0  0
  -26.7908  -32.4347   23.0518 H   0  0  0  0  0  0
  -24.9935  -33.8837   24.9527 H   0  0  0  0  0  0
  -22.9661  -31.1494   21.2275 H   0  0  0  0  0  0
  -23.3783  -35.9298   23.3192 H   0  0  0  0  0  0
  -24.3548  -36.8844   22.2115 H   0  0  0  0  0  0
  -23.7256  -37.6097   23.6904 H   0  0  0  0  0  0
  -26.4788  -30.8226   20.6679 H   0  0  0  0  0  0
  -27.0166  -30.2385   22.1735 H   0  0  0  0  0  0
  -28.0199  -27.5501   21.5660 H   0  0  0  0  0  0
  -25.5778  -25.2621   18.9453 H   0  0  0  0  0  0
  -24.0923  -27.0941   18.7925 H   0  0  0  0  0  0
  -24.1405  -30.2684   19.3631 H   0  0  0  0  0  0
  -22.9611  -29.0657   19.7675 H   0  0  0  0  0  0
  -25.1418  -36.1299   25.0702 H   0  0  0  0  0  0
  -21.0082  -28.3519   24.1161 H   0  0  0  0  0  0
  -20.5601  -26.2479   23.3738 H   0  0  0  0  0  0
  -21.6654  -26.7279   22.1279 H   0  0  0  0  0  0
  -19.6944  -25.6221   21.1347 H   0  0  0  0  0  0
  -19.6769  -27.3077   20.6693 H   0  0  0  0  0  0
  -17.4250  -26.6717   21.3998 H   0  0  0  0  0  0
  -18.0331  -26.0142   22.9019 H   0  0  0  0  0  0
  -19.8022  -30.7396   24.2073 H   0  0  0  0  0  0
  -17.5079  -31.6283   24.5178 H   0  0  0  0  0  0
  -15.5412  -30.2956   23.7767 H   0  0  0  0  0  0
  -15.8742  -28.0802   22.7163 H   0  0  0  0  0  0
  -24.5821  -30.7247   25.7440 H   0  0  0  0  0  0
  -24.8735  -32.3239   26.4155 H   0  0  0  0  0  0
  -25.7588  -30.9380   27.0211 H   0  0  0  0  0  0
  -26.3565  -29.6026   24.2343 H   0  0  0  0  0  0
  -27.4105  -29.7490   25.6098 H   0  0  0  0  0  0
  -27.9573  -30.3657   24.0775 H   0  0  0  0  0  0
  -27.2453  -33.3929   26.1582 H   0  0  0  0  0  0
  -28.4036  -32.6772   25.0491 H   0  0  0  0  0  0
  -28.0428  -31.8959   26.5813 H   0  0  0  0  0  0
  -28.2457  -38.0027   24.7501 H   0  0  0  0  0  0
  -28.1133  -36.2533   24.6267 H   0  0  0  0  0  0
  -27.2255  -37.1235   25.8853 H   0  0  0  0  0  0
  -21.0041  -29.8528   21.6177 H   0  0  0  0  0  0
  -25.9995  -38.2495   24.1420 H   0  0  0  0  0  0
  -29.8824  -12.5248   23.8046 H   0  0  0  0  0  0
  -31.4434  -11.3292   22.1154 H   0  0  0  0  0  0
  -26.0804  -20.2871   21.1168 H   0  0  0  0  0  0
  -27.3653  -20.4413   22.2524 H   0  0  0  0  0  0
  -29.5182  -20.5459   21.0207 H   0  0  0  0  0  0
  -29.2021  -20.4351   19.3312 H   0  0  0  0  0  0
  -27.0945  -22.0791   19.4547 H   0  0  0  0  0  0
  -28.7089  -15.3666   24.0971 H   0  0  0  0  0  0
  -27.7224  -13.9292   24.3741 H   0  0  0  0  0  0
  -27.1226  -15.2033   23.3211 H   0  0  0  0  0  0
  -32.8934  -12.4668   20.0065 H   0  0  0  0  0  0
  -32.1731  -11.8219   18.5384 H   0  0  0  0  0  0
  -27.3076  -16.8328   21.6848 H   0  0  0  0  0  0
  -29.0024  -17.0715   21.8263 H   0  0  0  0  0  0
  -31.3503  -13.9058   17.9397 H   0  0  0  0  0  0
  -27.3861  -18.7515   19.6773 H   0  0  0  0  0  0
  1 25  1  0  0  0
  1 30  2  0  0  0
  1 83  1  0  0  0
  2  3  1  0  0  0
  2 25  1  0  0  0
  2 86  1  0  0  0
  2 87  1  0  0  0
  3  4  1  0  0  0
  3 88  1  0  0  0
  3 89  1  0  0  0
  4  5  1  0  0  0
  4 90  1  0  0  0
  4 91  1  0  0  0
  5  6  1  0  0  0
  5 26  1  0  0  0
  5 92  1  0  0  0
  6 25  1  0  0  0
  6 93  1  0  0  0
  6 94  1  0  0  0
  7  8  2  0  0  0
  7 26  1  0  0  0
  7 29  1  0  0  0
  8  9  1  0  0  0
  8 22  1  0  0  0
  9 10  1  0  0  0
  9 27  2  0  0  0
 10 11  2  0  0  0
 10 15  1  0  0  0
 11 12  1  0  0  0
 11 95  1  0  0  0
 12 13  2  0  0  0
 12 96  1  0  0  0
 13 14  1  0  0  0
 13 31  1  0  0  0
 14 15  2  0  0  0
 14 97  1  0  0  0
 15 98  1  0  0  0
 16 17  2  0  0  0
 16 21  1  0  0  0
 16 31  1  0  0  0
 17 18  1  0  0  0
 17 99  1  0  0  0
 18 19  2  0  0  0
 18100  1  0  0  0
 19 20  1  0  0  0
 19 24  1  0  0  0
 20 21  2  0  0  0
 20101  1  0  0  0
 21 23  1  0  0  0
 22 28  1  0  0  0
 22 32  2  0  0  0
 26 27  1  0  0  0
 28102  1  0  0  0
 28103  1  0  0  0
 29104  1  0  0  0
 29105  1  0  0  0
 33 34  1  0  0  0
 33 66  1  0  0  0
 33 70  2  0  0  0
 34 36  1  0  0  0
 34 59  1  0  0  0
 34106  1  0  0  0
 35 44  2  0  0  0
 35 45  1  0  0  0
 35 68  1  0  0  0
 36 56  1  0  0  0
 36107  1  0  0  0
 37 39  1  0  0  0
 37 47  1  0  0  0
 37 66  1  0  0  0
 37108  1  0  0  0
 38 43  2  0  0  0
 38 46  1  0  0  0
 38 47  1  0  0  0
 39 64  1  0  0  0
 39 67  2  0  0  0
 40 52  1  0  0  0
 40 53  2  0  0  0
 40 58  1  0  0  0
 41109  1  0  0  0
 41110  1  0  0  0
 41111  1  0  0  0
 41 48  1  0  0  0
 42 43  1  0  0  0
 42 66  1  0  0  0
 42112  1  0  0  0
 42113  1  0  0  0
 43 44  1  0  0  0
 44114  1  0  0  0
 45 46  2  0  0  0
 45115  1  0  0  0
 46116  1  0  0  0
 47117  1  0  0  0
 47118  1  0  0  0
 48 56  1  0  0  0
 48 65  1  0  0  0
 48119  1  0  0  0
 49 50  1  0  0  0
 49 53  1  0  0  0
 49 64  1  0  0  0
 49120  1  0  0  0
 50 51  1  0  0  0
 50121  1  0  0  0
 50122  1  0  0  0
 51 52  1  0  0  0
 51123  1  0  0  0
 51124  1  0  0  0
 52125  1  0  0  0
 52126  1  0  0  0
 53 54  1  0  0  0
 54 55  2  0  0  0
 54127  1  0  0  0
 55 57  1  0  0  0
 55128  1  0  0  0
 56 69  2  0  0  0
 57 58  2  0  0  0
 57129  1  0  0  0
 58130  1  0  0  0
 59 60  1  0  0  0
 59 61  1  0  0  0
 59 62  1  0  0  0
 60131  1  0  0  0
 60132  1  0  0  0
 60133  1  0  0  0
 61134  1  0  0  0
 61135  1  0  0  0
 61136  1  0  0  0
 62137  1  0  0  0
 62138  1  0  0  0
 62139  1  0  0  0
 63 65  1  0  0  0
 63140  1  0  0  0
 63141  1  0  0  0
 63142  1  0  0  0
 64143  1  0  0  0
 65144  1  0  0  0
 68 79  1  0  0  0
 71 72  2  0  0  0
 71 73  1  0  0  0
 71145  1  0  0  0
 72 74  1  0  0  0
 72146  1  0  0  0
 73 75  2  0  0  0
 73 80  1  0  0  0
 74 76  2  0  0  0
 74 81  1  0  0  0
 75 76  1  0  0  0
 75 82  1  0  0  0
 76 85  1  0  0  0
 77 79  1  0  0  0
 77 84  1  0  0  0
 77147  1  0  0  0
 77148  1  0  0  0
 78 79  1  0  0  0
 78 84  1  0  0  0
 78149  1  0  0  0
 78150  1  0  0  0
 79151  1  0  0  0
 80152  1  0  0  0
 80153  1  0  0  0
 80154  1  0  0  0
 81 83  1  0  0  0
 81155  1  0  0  0
 81156  1  0  0  0
 82157  1  0  0  0
 82158  1  0  0  0
 82 84  1  0  0  0
 83159  1  0  0  0
 84160  1  0  0  0
M  CHG  1  84   1
M  ISO  4   1 100  68 101  79 101  83 100
M  END
> <chiral flag>
0

> <version>
0

> <s_m_source_file>
/data/baiqing/PycharmProjects/Reinvent-master-3.2/result/LINK_invent/BTK/process_docking_weight1_custom_product_contain_oxygen_bond_distance_aromatic_linkinvent_7_9_3/rearranged_h_0028.sdf

> <i_m_source_file_index>
68

> <r_mmod_Potential_Energy-OPLS-2005>
19931.837890625

> <r_mmod_Stretch_Energy-OPLS-2005>
9587.701171875

> <r_mmod_Bend_Energy-OPLS-2005>
1960.41748046875

> <r_mmod_Torsional_Energy-OPLS-2005>
499.258148193359

> <r_mmod_Improper_Torsional_Energy-OPLS-2005>
62.3520736694336

> <r_mmod_Van_der_Waal_Energy-OPLS-2005>
3363.38549804688

> <r_mmod_Electrostatic_Energy-OPLS-2005>
-353.270202636719

> <r_mmod_Solvation_Energy-OPLS-2005>
-491.435882568359

> <b_mmod_Minimization_Converged-OPLS-2005>
0

> <r_mmod_RMS_Derivative-OPLS-2005>
3.22893095016479

$$$$
68
                    3D
 Structure written by MMmdl.
162171  0  0  1  0            999 V2000
  -30.5713  -14.8968   20.4106 C   0  0  0  0  0  0
  -30.4322  -12.5488   19.4989 C   0  0  0  0  0  0
  -29.5165  -12.5182   18.2543 C   0  0  0  0  0  0
  -28.0478  -12.3180   18.6705 C   0  0  0  0  0  0
  -27.6312  -13.2470   19.8411 C   0  0  2  0  0  0
  -28.6734  -13.2616   20.9797 C   0  0  0  0  0  0
  -25.2469  -13.8223   20.5714 C   0  0  0  0  0  0
  -24.1782  -13.0447   20.9231 C   0  0  0  0  0  0
  -24.6394  -11.6931   20.8759 C   0  0  0  0  0  0
  -23.9078  -10.4299   21.0408 C   0  0  0  0  0  0
  -24.3626   -9.4211   21.9185 C   0  0  0  0  0  0
  -23.6298   -8.2246   22.0754 C   0  0  0  0  0  0
  -22.4281   -8.0283   21.3544 C   0  0  0  0  0  0
  -21.9920   -9.0258   20.4646 C   0  0  0  0  0  0
  -22.7250  -10.2137   20.3056 C   0  0  0  0  0  0
  -21.6856   -6.0737   22.5277 C   0  0  0  0  0  0
  -21.4016   -6.5640   23.8210 C   0  0  0  0  0  0
  -21.3659   -5.6793   24.9172 C   0  0  0  0  0  0
  -21.6043   -4.3056   24.7223 C   0  0  0  0  0  0
  -21.8820   -3.8148   23.4345 C   0  0  0  0  0  0
  -21.9194   -4.6964   22.3401 C   0  0  0  0  0  0
  -22.7801  -13.5216   21.1882 C   0  0  0  0  0  0
  -22.1663   -4.2150   21.0979 F   0  0  0  0  0  0
  -21.5628   -3.4540   25.7735 F   0  0  0  0  0  0
  -29.9571  -13.6495   20.3837 N   0  0  0  0  0  0
  -26.2892  -12.9454   20.3257 N   0  0  0  0  0  0
  -25.9327  -11.6584   20.5752 N   0  0  0  0  0  0
  -22.0451  -12.8198   22.0433 N   0  0  0  0  0  0
  -25.4142  -15.1949   20.4123 N   0  0  0  0  0  0
  -31.7771  -14.9248   20.1454 O   0  0  0  0  0  0
  -21.6644   -6.8880   21.4240 O   0  0  0  0  0  0
  -22.3484  -14.5518   20.6724 O   0  0  0  0  0  0
  -24.6400  -31.8457   23.1892 C   0  0  0  0  0  0
  -25.9185  -32.4702   23.8272 C   0  0  1  0  0  0
  -27.2156  -27.1610   20.1527 C   0  0  0  0  0  0
  -25.5943  -33.8508   24.2191 N   0  0  0  0  0  0
  -23.4421  -30.4646   21.5347 C   0  0  2  0  0  0
  -24.8905  -28.8924   20.1109 C   0  0  0  0  0  0
  -22.7547  -29.4550   22.4874 C   0  0  0  0  0  0
  -18.0297  -28.1391   22.8475 C   0  0  0  0  0  0
  -24.1491  -36.7256   23.2644 C   0  0  0  0  0  0
  -25.9950  -30.7274   21.3831 C   0  0  0  0  0  0
  -26.0659  -29.3403   20.7269 C   0  0  0  0  0  0
  -27.2304  -28.4903   20.7289 C   0  0  0  0  0  0
  -26.0189  -26.8075   19.4938 C   0  0  0  0  0  0
  -24.8781  -27.6390   19.4791 C   0  0  0  0  0  0
  -23.6661  -29.7920   20.1541 C   0  0  0  0  0  0
  -25.4123  -36.3036   24.0317 C   0  0  1  0  0  0
  -20.5907  -28.3710   23.1245 C   0  0  2  0  0  0
  -20.6780  -26.9416   22.5406 C   0  0  0  0  0  0
  -19.5758  -26.6380   21.5209 C   0  0  0  0  0  0
  -18.1938  -26.7931   22.1620 C   0  0  0  0  0  0
  -19.1553  -28.8869   23.2853 C   0  0  0  0  0  0
  -18.9473  -30.1464   23.8879 C   0  0  0  0  0  0
  -17.6472  -30.6589   24.0557 C   0  0  0  0  0  0
  -25.9071  -34.9411   23.5063 C   0  0  0  0  0  0
  -16.5361  -29.9082   23.6338 C   0  0  0  0  0  0
  -16.7282  -28.6500   23.0357 C   0  0  0  0  0  0
  -26.4521  -31.6564   25.0705 C   0  0  0  0  0  0
  -25.3715  -31.3736   26.1406 C   0  0  0  0  0  0
  -27.0392  -30.2969   24.6261 C   0  0  0  0  0  0
  -27.6051  -32.4333   25.7491 C   0  0  0  0  0  0
  -27.5573  -37.1781   24.8465 C   0  0  0  0  0  0
  -21.4243  -29.3040   22.3623 N   0  0  0  0  0  0
  -26.4285  -37.3747   23.9410 N   0  0  0  0  0  0
  -24.7122  -31.0333   22.0914 N   0  0  0  0  0  0
  -23.4203  -28.8102   23.3018 O   0  0  0  0  0  0
  -28.2898  -26.2112   20.2095 O   0  0  0  0  0  0
  -26.5659  -34.8906   22.4643 O   0  0  0  0  0  0
  -23.5527  -32.1322   23.7131 O   0  0  0  0  0  0
  -31.2366  -17.8472   19.4371 C   0  0  0  0  0  0
  -31.5645  -19.1531   19.0255 C   0  0  0  0  0  0
  -29.2757  -18.7663   20.5450 C   0  0  0  0  0  0
  -29.5972  -20.1633   20.1256 C   0  0  0  0  0  0
  -30.0912  -17.5607   20.2148 C   0  0  0  0  0  0
  -30.7791  -20.2742   19.3514 C   0  0  0  0  0  0
  -28.4779  -23.7463   19.0733 C   0  0  0  0  0  0
  -28.2315  -22.1558   19.2345 C   0  0  0  0  0  0
  -29.5035  -22.4782   21.2430 C   0  0  0  0  0  0
  -28.7044  -23.8633   21.5140 C   0  0  2  0  0  0
  -28.0813  -24.6720   20.2868 C   0  0  1  0  0  0
  -28.0190  -18.5424   21.3652 C   0  0  0  0  0  0
  -29.5806  -24.7913   22.3675 C   0  0  0  0  0  0
  -28.8620  -21.4326   20.3880 N   0  0  0  0  0  0
  -29.8136  -16.0917   20.5599 N   0  0  0  0  0  0
  -31.1791  -21.4849   18.8888 F   0  0  0  0  0  0
  -31.4701  -12.6829   19.1905 H   0  0  0  0  0  0
  -30.4020  -11.5935   20.0257 H   0  0  0  0  0  0
  -29.8248  -11.7215   17.5761 H   0  0  0  0  0  0
  -29.6178  -13.4517   17.6986 H   0  0  0  0  0  0
  -27.9333  -11.2759   18.9703 H   0  0  0  0  0  0
  -27.3860  -12.4624   17.8157 H   0  0  0  0  0  0
  -27.6004  -14.2523   19.4201 H   0  0  0  0  0  0
  -28.7448  -12.2848   21.4601 H   0  0  0  0  0  0
  -28.3835  -13.9686   21.7584 H   0  0  0  0  0  0
  -25.2768   -9.5688   22.4765 H   0  0  0  0  0  0
  -24.0005   -7.4638   22.7475 H   0  0  0  0  0  0
  -21.0852   -8.8780   19.8950 H   0  0  0  0  0  0
  -22.3708  -10.9678   19.6168 H   0  0  0  0  0  0
  -21.2009   -7.6148   23.9713 H   0  0  0  0  0  0
  -21.1479   -6.0523   25.9074 H   0  0  0  0  0  0
  -22.0599   -2.7611   23.2844 H   0  0  0  0  0  0
  -22.4079  -11.9862   22.4817 H   0  0  0  0  0  0
  -21.1063  -13.1210   22.2634 H   0  0  0  0  0  0
  -24.6418  -15.8438   20.5156 H   0  0  0  0  0  0
  -26.2489  -15.6301   20.0425 H   0  0  0  0  0  0
  -26.7246  -32.5317   23.0998 H   0  0  0  0  0  0
  -25.0066  -33.9626   25.0322 H   0  0  0  0  0  0
  -22.7435  -31.2897   21.3809 H   0  0  0  0  0  0
  -23.3760  -35.9581   23.3296 H   0  0  0  0  0  0
  -24.3574  -36.8901   22.2060 H   0  0  0  0  0  0
  -23.7240  -37.6447   23.6688 H   0  0  0  0  0  0
  -26.1456  -31.4821   20.6100 H   0  0  0  0  0  0
  -26.8679  -30.7787   22.0226 H   0  0  0  0  0  0
  -28.1285  -28.8280   21.2269 H   0  0  0  0  0  0
  -25.9444  -25.8523   18.9948 H   0  0  0  0  0  0
  -23.9818  -27.2938   18.9823 H   0  0  0  0  0  0
  -23.7990  -30.5657   19.3970 H   0  0  0  0  0  0
  -22.7815  -29.2314   19.8464 H   0  0  0  0  0  0
  -25.1310  -36.1862   25.0809 H   0  0  0  0  0  0
  -20.9994  -28.3295   24.1367 H   0  0  0  0  0  0
  -20.5672  -26.2320   23.3619 H   0  0  0  0  0  0
  -21.6647  -26.7422   22.1203 H   0  0  0  0  0  0
  -19.6921  -25.6287   21.1246 H   0  0  0  0  0  0
  -19.6700  -27.3184   20.6735 H   0  0  0  0  0  0
  -17.4205  -26.6675   21.4023 H   0  0  0  0  0  0
  -18.0334  -26.0078   22.9022 H   0  0  0  0  0  0
  -19.7951  -30.7280   24.2244 H   0  0  0  0  0  0
  -17.5026  -31.6269   24.5158 H   0  0  0  0  0  0
  -15.5361  -30.2976   23.7676 H   0  0  0  0  0  0
  -15.8683  -28.0812   22.7087 H   0  0  0  0  0  0
  -24.5902  -30.7079   25.7721 H   0  0  0  0  0  0
  -24.8894  -32.2912   26.4788 H   0  0  0  0  0  0
  -25.8004  -30.8935   27.0209 H   0  0  0  0  0  0
  -26.3002  -29.6691   24.1270 H   0  0  0  0  0  0
  -27.4029  -29.7264   25.4816 H   0  0  0  0  0  0
  -27.8896  -30.4226   23.9556 H   0  0  0  0  0  0
  -27.2643  -33.3653   26.2010 H   0  0  0  0  0  0
  -28.3889  -32.6862   25.0340 H   0  0  0  0  0  0
  -28.0688  -31.8499   26.5454 H   0  0  0  0  0  0
  -28.2576  -38.0089   24.7516 H   0  0  0  0  0  0
  -28.1082  -36.2618   24.6288 H   0  0  0  0  0  0
  -27.2289  -37.1422   25.8866 H   0  0  0  0  0  0
  -20.9446  -29.8757   21.6810 H   0  0  0  0  0  0
  -26.0153  -38.2814   24.1422 H   0  0  0  0  0  0
  -31.8993  -17.0630   19.1077 H   0  0  0  0  0  0
  -32.4498  -19.3026   18.4255 H   0  0  0  0  0  0
  -27.9342  -24.0890   18.1924 H   0  0  0  0  0  0
  -29.5299  -23.9140   18.8392 H   0  0  0  0  0  0
  -28.5339  -21.6679   18.3065 H   0  0  0  0  0  0
  -27.1560  -21.9879   19.3072 H   0  0  0  0  0  0
  -29.7304  -22.0170   22.2054 H   0  0  0  0  0  0
  -30.4742  -22.7267   20.8122 H   0  0  0  0  0  0
  -27.8587  -23.5889   22.1469 H   0  0  0  0  0  0
  -27.0069  -24.5324   20.4031 H   0  0  0  0  0  0
  -27.6375  -19.4749   21.7811 H   0  0  0  0  0  0
  -28.2179  -17.8679   22.1980 H   0  0  0  0  0  0
  -27.2382  -18.1031   20.7447 H   0  0  0  0  0  0
  -30.4463  -25.1407   21.8041 H   0  0  0  0  0  0
  -29.9463  -24.2813   23.2589 H   0  0  0  0  0  0
  -29.0218  -25.6675   22.6984 H   0  0  0  0  0  0
  -28.8725  -15.9125   20.8749 H   0  0  0  0  0  0
  1 25  1  0  0  0
  1 30  2  0  0  0
  1 85  1  0  0  0
  2  3  1  0  0  0
  2 25  1  0  0  0
  2 87  1  0  0  0
  2 88  1  0  0  0
  3  4  1  0  0  0
  3 89  1  0  0  0
  3 90  1  0  0  0
  4  5  1  0  0  0
  4 91  1  0  0  0
  4 92  1  0  0  0
  5  6  1  0  0  0
  5 26  1  0  0  0
  5 93  1  0  0  0
  6 25  1  0  0  0
  6 94  1  0  0  0
  6 95  1  0  0  0
  7  8  2  0  0  0
  7 26  1  0  0  0
  7 29  1  0  0  0
  8  9  1  0  0  0
  8 22  1  0  0  0
  9 10  1  0  0  0
  9 27  2  0  0  0
 10 11  2  0  0  0
 10 15  1  0  0  0
 11 12  1  0  0  0
 11 96  1  0  0  0
 12 13  2  0  0  0
 12 97  1  0  0  0
 13 14  1  0  0  0
 13 31  1  0  0  0
 14 15  2  0  0  0
 14 98  1  0  0  0
 15 99  1  0  0  0
 16 17  2  0  0  0
 16 21  1  0  0  0
 16 31  1  0  0  0
 17 18  1  0  0  0
 17100  1  0  0  0
 18 19  2  0  0  0
 18101  1  0  0  0
 19 20  1  0  0  0
 19 24  1  0  0  0
 20 21  2  0  0  0
 20102  1  0  0  0
 21 23  1  0  0  0
 22 28  1  0  0  0
 22 32  2  0  0  0
 26 27  1  0  0  0
 28103  1  0  0  0
 28104  1  0  0  0
 29105  1  0  0  0
 29106  1  0  0  0
 33 34  1  0  0  0
 33 66  1  0  0  0
 33 70  2  0  0  0
 34 36  1  0  0  0
 34 59  1  0  0  0
 34107  1  0  0  0
 35 44  2  0  0  0
 35 45  1  0  0  0
 35 68  1  0  0  0
 36 56  1  0  0  0
 36108  1  0  0  0
 37 39  1  0  0  0
 37 47  1  0  0  0
 37 66  1  0  0  0
 37109  1  0  0  0
 38 43  2  0  0  0
 38 46  1  0  0  0
 38 47  1  0  0  0
 39 64  1  0  0  0
 39 67  2  0  0  0
 40 52  1  0  0  0
 40 53  2  0  0  0
 40 58  1  0  0  0
 41110  1  0  0  0
 41111  1  0  0  0
 41112  1  0  0  0
 41 48  1  0  0  0
 42 43  1  0  0  0
 42 66  1  0  0  0
 42113  1  0  0  0
 42114  1  0  0  0
 43 44  1  0  0  0
 44115  1  0  0  0
 45 46  2  0  0  0
 45116  1  0  0  0
 46117  1  0  0  0
 47118  1  0  0  0
 47119  1  0  0  0
 48 56  1  0  0  0
 48 65  1  0  0  0
 48120  1  0  0  0
 49 50  1  0  0  0
 49 53  1  0  0  0
 49 64  1  0  0  0
 49121  1  0  0  0
 50 51  1  0  0  0
 50122  1  0  0  0
 50123  1  0  0  0
 51 52  1  0  0  0
 51124  1  0  0  0
 51125  1  0  0  0
 52126  1  0  0  0
 52127  1  0  0  0
 53 54  1  0  0  0
 54 55  2  0  0  0
 54128  1  0  0  0
 55 57  1  0  0  0
 55129  1  0  0  0
 56 69  2  0  0  0
 57 58  2  0  0  0
 57130  1  0  0  0
 58131  1  0  0  0
 59 60  1  0  0  0
 59 61  1  0  0  0
 59 62  1  0  0  0
 60132  1  0  0  0
 60133  1  0  0  0
 60134  1  0  0  0
 61135  1  0  0  0
 61136  1  0  0  0
 61137  1  0  0  0
 62138  1  0  0  0
 62139  1  0  0  0
 62140  1  0  0  0
 63 65  1  0  0  0
 63141  1  0  0  0
 63142  1  0  0  0
 63143  1  0  0  0
 64144  1  0  0  0
 65145  1  0  0  0
 68 81  1  0  0  0
 71 72  2  0  0  0
 71 75  1  0  0  0
 71146  1  0  0  0
 72 76  1  0  0  0
 72147  1  0  0  0
 73 74  1  0  0  0
 73 75  2  0  0  0
 73 82  1  0  0  0
 74 76  2  0  0  0
 74 84  1  0  0  0
 75 85  1  0  0  0
 76 86  1  0  0  0
 77 78  1  0  0  0
 77 81  1  0  0  0
 77148  1  0  0  0
 77149  1  0  0  0
 78 84  1  0  0  0
 78150  1  0  0  0
 78151  1  0  0  0
 79 80  1  0  0  0
 79 84  1  0  0  0
 79152  1  0  0  0
 79153  1  0  0  0
 80 81  1  0  0  0
 80 83  1  0  0  0
 80154  1  0  0  0
 81155  1  0  0  0
 82156  1  0  0  0
 82157  1  0  0  0
 82158  1  0  0  0
 83159  1  0  0  0
 83160  1  0  0  0
 83161  1  0  0  0
 85162  1  0  0  0
M  ISO  4   1 100  68 101  81 101  85 100
M  END
> <chiral flag>
0

> <version>
0

> <s_m_source_file>
/data/baiqing/PycharmProjects/Reinvent-master-3.2/result/LINK_invent/BTK/process_docking_weight1_custom_product_contain_oxygen_bond_distance_aromatic_linkinvent_7_9_3/rearranged_h_0028.sdf

> <i_m_source_file_index>
69

> <r_mmod_Potential_Energy-OPLS-2005>
487.46630859375

> <r_mmod_Stretch_Energy-OPLS-2005>
214.020050048828

> <r_mmod_Bend_Energy-OPLS-2005>
229.733825683594

> <r_mmod_Torsional_Energy-OPLS-2005>
300.573486328125

> <r_mmod_Improper_Torsional_Energy-OPLS-2005>
8.44029712677002

> <r_mmod_Van_der_Waal_Energy-OPLS-2005>
144.089172363281

> <r_mmod_Electrostatic_Energy-OPLS-2005>
-363.272247314453

> <r_mmod_Solvation_Energy-OPLS-2005>
-206.583480834961

> <b_mmod_Minimization_Converged-OPLS-2005>
0

> <r_mmod_RMS_Derivative-OPLS-2005>
0.386432737112045

$$$$
69
                    3D
 Structure written by MMmdl.
159168  0  0  1  0            999 V2000
  -30.5417  -14.9729   20.2948 C   0  0  0  0  0  0
  -30.4556  -12.5624   19.4864 C   0  0  0  0  0  0
  -29.5292  -12.3265   18.2660 C   0  0  0  0  0  0
  -28.0369  -12.2660   18.6657 C   0  0  0  0  0  0
  -27.6214  -13.2293   19.8159 C   0  0  2  0  0  0
  -28.6835  -13.3105   20.9299 C   0  0  0  0  0  0
  -25.2368  -13.7992   20.5767 C   0  0  0  0  0  0
  -24.1713  -13.0262   20.9257 C   0  0  0  0  0  0
  -24.6365  -11.6791   20.8775 C   0  0  0  0  0  0
  -23.9072  -10.4201   21.0423 C   0  0  0  0  0  0
  -24.3627   -9.4143   21.9217 C   0  0  0  0  0  0
  -23.6292   -8.2192   22.0772 C   0  0  0  0  0  0
  -22.4274   -8.0249   21.3551 C   0  0  0  0  0  0
  -21.9913   -9.0221   20.4656 C   0  0  0  0  0  0
  -22.7254  -10.2083   20.3067 C   0  0  0  0  0  0
  -21.6857   -6.0725   22.5276 C   0  0  0  0  0  0
  -21.4014   -6.5636   23.8211 C   0  0  0  0  0  0
  -21.3650   -5.6790   24.9170 C   0  0  0  0  0  0
  -21.6050   -4.3053   24.7226 C   0  0  0  0  0  0
  -21.8834   -3.8145   23.4347 C   0  0  0  0  0  0
  -21.9198   -4.6955   22.3404 C   0  0  0  0  0  0
  -22.7741  -13.5071   21.1915 C   0  0  0  0  0  0
  -22.1674   -4.2146   21.0979 F   0  0  0  0  0  0
  -21.5628   -3.4535   25.7736 F   0  0  0  0  0  0
  -29.9420  -13.7088   20.2849 N   0  0  0  0  0  0
  -26.2863  -12.9305   20.3262 N   0  0  0  0  0  0
  -25.9304  -11.6446   20.5800 N   0  0  0  0  0  0
  -22.0401  -12.8079   22.0483 N   0  0  0  0  0  0
  -25.3744  -15.1672   20.4287 N   0  0  0  0  0  0
  -31.7764  -14.9978   20.2615 O   0  0  0  0  0  0
  -21.6636   -6.8856   21.4238 O   0  0  0  0  0  0
  -22.3432  -14.5391   20.6769 O   0  0  0  0  0  0
  -24.6406  -31.8470   23.1908 C   0  0  0  0  0  0
  -25.9190  -32.4710   23.8294 C   0  0  1  0  0  0
  -27.2337  -27.1784   20.1430 C   0  0  0  0  0  0
  -25.5943  -33.8513   24.2216 N   0  0  0  0  0  0
  -23.4442  -30.4661   21.5352 C   0  0  2  0  0  0
  -24.8945  -28.8971   20.1110 C   0  0  0  0  0  0
  -22.7563  -29.4567   22.4871 C   0  0  0  0  0  0
  -18.0333  -28.1382   22.8468 C   0  0  0  0  0  0
  -24.1492  -36.7267   23.2644 C   0  0  0  0  0  0
  -25.9969  -30.7317   21.3845 C   0  0  0  0  0  0
  -26.0698  -29.3459   20.7272 C   0  0  0  0  0  0
  -27.2388  -28.5016   20.7266 C   0  0  0  0  0  0
  -26.0293  -26.8179   19.4936 C   0  0  0  0  0  0
  -24.8852  -27.6446   19.4799 C   0  0  0  0  0  0
  -23.6689  -29.7939   20.1545 C   0  0  0  0  0  0
  -25.4120  -36.3051   24.0326 C   0  0  1  0  0  0
  -20.5929  -28.3724   23.1237 C   0  0  2  0  0  0
  -20.6818  -26.9444   22.5383 C   0  0  0  0  0  0
  -19.5793  -26.6404   21.5183 C   0  0  0  0  0  0
  -18.1988  -26.7929   22.1615 C   0  0  0  0  0  0
  -19.1575  -28.8866   23.2855 C   0  0  0  0  0  0
  -18.9473  -30.1459   23.8877 C   0  0  0  0  0  0
  -17.6468  -30.6570   24.0553 C   0  0  0  0  0  0
  -25.9063  -34.9413   23.5083 C   0  0  0  0  0  0
  -16.5363  -29.9056   23.6315 C   0  0  0  0  0  0
  -16.7308  -28.6474   23.0347 C   0  0  0  0  0  0
  -26.4515  -31.6563   25.0718 C   0  0  0  0  0  0
  -25.3718  -31.3704   26.1422 C   0  0  0  0  0  0
  -27.0384  -30.2975   24.6262 C   0  0  0  0  0  0
  -27.6065  -32.4310   25.7483 C   0  0  0  0  0  0
  -27.5581  -37.1791   24.8471 C   0  0  0  0  0  0
  -21.4251  -29.3078   22.3626 N   0  0  0  0  0  0
  -26.4298  -37.3750   23.9412 N   0  0  0  0  0  0
  -24.7135  -31.0355   22.0928 N   0  0  0  0  0  0
  -23.4212  -28.8101   23.2997 O   0  0  0  0  0  0
  -28.3127  -26.2338   20.2096 O   0  0  0  0  0  0
  -26.5651  -34.8902   22.4657 O   0  0  0  0  0  0
  -23.5527  -32.1319   23.7146 O   0  0  0  0  0  0
  -28.1657  -19.6470   19.7831 C   0  0  0  0  0  0
  -30.2676  -19.9980   20.7809 C   0  0  0  0  0  0
  -28.4439  -18.2443   19.6959 C   0  0  0  0  0  0
  -29.6316  -17.5888   20.1535 C   0  0  0  0  0  0
  -29.0534  -20.6214   20.3021 C   0  0  0  0  0  0
  -30.5412  -18.5536   20.7253 C   0  0  0  0  0  0
  -27.4155  -17.3840   19.0359 C   0  0  0  0  0  0
  -28.0619  -16.5355   17.9489 C   0  0  0  0  0  0
  -29.4365  -15.9341   18.3501 C   0  0  1  0  0  0
  -30.5628  -16.4588   17.4343 C   0  0  0  0  0  0
  -29.1144  -23.4569   20.3498 C   0  0  0  0  0  0
  -28.0537  -24.7211   20.0879 C   0  0  0  0  0  0
  -29.8021  -16.0987   19.7899 N   0  0  0  0  0  0
  -28.5619  -22.0183   20.2895 N   0  0  0  0  0  0
  -31.7304  -18.1118   21.1975 F   0  0  0  0  0  0
  -31.4777  -12.7352   19.1467 H   0  0  0  0  0  0
  -30.4984  -11.6650   20.1079 H   0  0  0  0  0  0
  -29.7959  -11.3702   17.8108 H   0  0  0  0  0  0
  -29.7096  -13.0352   17.4606 H   0  0  0  0  0  0
  -27.8570  -11.2372   18.9782 H   0  0  0  0  0  0
  -27.4008  -12.4188   17.7921 H   0  0  0  0  0  0
  -27.5497  -14.2161   19.3683 H   0  0  0  0  0  0
  -28.7848  -12.3596   21.4538 H   0  0  0  0  0  0
  -28.3962  -14.0524   21.6776 H   0  0  0  0  0  0
  -25.2776   -9.5620   22.4792 H   0  0  0  0  0  0
  -24.0009   -7.4574   22.7467 H   0  0  0  0  0  0
  -21.0865   -8.8751   19.8943 H   0  0  0  0  0  0
  -22.3752  -10.9628   19.6170 H   0  0  0  0  0  0
  -21.2012   -7.6149   23.9696 H   0  0  0  0  0  0
  -21.1453   -6.0531   25.9063 H   0  0  0  0  0  0
  -22.0621   -2.7606   23.2854 H   0  0  0  0  0  0
  -22.4014  -11.9729   22.4870 H   0  0  0  0  0  0
  -21.1011  -13.1080   22.2683 H   0  0  0  0  0  0
  -24.6009  -15.8114   20.5480 H   0  0  0  0  0  0
  -26.2276  -15.6142   20.1264 H   0  0  0  0  0  0
  -26.7260  -32.5323   23.1033 H   0  0  0  0  0  0
  -25.0062  -33.9625   25.0344 H   0  0  0  0  0  0
  -22.7464  -31.2916   21.3806 H   0  0  0  0  0  0
  -23.3762  -35.9592   23.3299 H   0  0  0  0  0  0
  -24.3584  -36.8900   22.2063 H   0  0  0  0  0  0
  -23.7234  -37.6459   23.6672 H   0  0  0  0  0  0
  -26.1488  -31.4847   20.6104 H   0  0  0  0  0  0
  -26.8699  -30.7821   22.0243 H   0  0  0  0  0  0
  -28.1359  -28.8381   21.2281 H   0  0  0  0  0  0
  -25.9379  -25.8618   19.0009 H   0  0  0  0  0  0
  -23.9885  -27.2966   18.9856 H   0  0  0  0  0  0
  -23.8026  -30.5665   19.3962 H   0  0  0  0  0  0
  -22.7855  -29.2323   19.8466 H   0  0  0  0  0  0
  -25.1304  -36.1895   25.0819 H   0  0  0  0  0  0
  -21.0017  -28.3299   24.1351 H   0  0  0  0  0  0
  -20.5700  -26.2341   23.3583 H   0  0  0  0  0  0
  -21.6697  -26.7447   22.1206 H   0  0  0  0  0  0
  -19.6731  -27.3229   20.6711 H   0  0  0  0  0  0
  -19.6977  -25.6316   21.1196 H   0  0  0  0  0  0
  -17.4239  -26.6648   21.4047 H   0  0  0  0  0  0
  -18.0419  -26.0076   22.9029 H   0  0  0  0  0  0
  -19.7936  -30.7280   24.2264 H   0  0  0  0  0  0
  -17.5009  -31.6250   24.5161 H   0  0  0  0  0  0
  -15.5368  -30.2959   23.7644 H   0  0  0  0  0  0
  -15.8709  -28.0781   22.7069 H   0  0  0  0  0  0
  -24.5914  -30.7043   25.7728 H   0  0  0  0  0  0
  -24.8884  -32.2857   26.4841 H   0  0  0  0  0  0
  -25.8016  -30.8876   27.0210 H   0  0  0  0  0  0
  -26.2991  -29.6693   24.1282 H   0  0  0  0  0  0
  -27.4045  -29.7267   25.4809 H   0  0  0  0  0  0
  -27.8872  -30.4245   23.9541 H   0  0  0  0  0  0
  -27.2693  -33.3627   26.2029 H   0  0  0  0  0  0
  -28.3873  -32.6841   25.0300 H   0  0  0  0  0  0
  -28.0739  -31.8459   26.5416 H   0  0  0  0  0  0
  -28.2599  -38.0089   24.7516 H   0  0  0  0  0  0
  -28.1082  -36.2620   24.6302 H   0  0  0  0  0  0
  -27.2301  -37.1437   25.8875 H   0  0  0  0  0  0
  -20.9456  -29.8830   21.6829 H   0  0  0  0  0  0
  -26.0178  -38.2827   24.1399 H   0  0  0  0  0  0
  -27.2130  -19.9894   19.4015 H   0  0  0  0  0  0
  -31.0305  -20.6302   21.2118 H   0  0  0  0  0  0
  -26.5638  -17.9485   18.6532 H   0  0  0  0  0  0
  -27.0616  -16.7614   19.8416 H   0  0  0  0  0  0
  -28.1863  -17.1585   17.0621 H   0  0  0  0  0  0
  -27.3655  -15.7523   17.6438 H   0  0  0  0  0  0
  -29.3311  -14.8938   18.1043 H   0  0  0  0  0  0
  -30.7185  -17.5312   17.5527 H   0  0  0  0  0  0
  -30.3348  -16.2748   16.3829 H   0  0  0  0  0  0
  -31.5100  -15.9613   17.6438 H   0  0  0  0  0  0
  -29.5834  -23.5963   21.3240 H   0  0  0  0  0  0
  -29.9214  -23.5317   19.6189 H   0  0  0  0  0  0
  -27.1929  -24.5244   20.7291 H   0  0  0  0  0  0
  -27.6921  -24.5651   19.0708 H   0  0  0  0  0  0
  -27.5680  -22.0519   20.0757 H   0  0  0  0  0  0
  1 25  1  0  0  0
  1 30  2  0  0  0
  1 83  1  0  0  0
  2  3  1  0  0  0
  2 25  1  0  0  0
  2 86  1  0  0  0
  2 87  1  0  0  0
  3  4  1  0  0  0
  3 88  1  0  0  0
  3 89  1  0  0  0
  4  5  1  0  0  0
  4 90  1  0  0  0
  4 91  1  0  0  0
  5  6  1  0  0  0
  5 26  1  0  0  0
  5 92  1  0  0  0
  6 25  1  0  0  0
  6 93  1  0  0  0
  6 94  1  0  0  0
  7  8  2  0  0  0
  7 26  1  0  0  0
  7 29  1  0  0  0
  8  9  1  0  0  0
  8 22  1  0  0  0
  9 10  1  0  0  0
  9 27  2  0  0  0
 10 11  2  0  0  0
 10 15  1  0  0  0
 11 12  1  0  0  0
 11 95  1  0  0  0
 12 13  2  0  0  0
 12 96  1  0  0  0
 13 14  1  0  0  0
 13 31  1  0  0  0
 14 15  2  0  0  0
 14 97  1  0  0  0
 15 98  1  0  0  0
 16 17  2  0  0  0
 16 21  1  0  0  0
 16 31  1  0  0  0
 17 18  1  0  0  0
 17 99  1  0  0  0
 18 19  2  0  0  0
 18100  1  0  0  0
 19 20  1  0  0  0
 19 24  1  0  0  0
 20 21  2  0  0  0
 20101  1  0  0  0
 21 23  1  0  0  0
 22 28  1  0  0  0
 22 32  2  0  0  0
 26 27  1  0  0  0
 28102  1  0  0  0
 28103  1  0  0  0
 29104  1  0  0  0
 29105  1  0  0  0
 33 34  1  0  0  0
 33 66  1  0  0  0
 33 70  2  0  0  0
 34 36  1  0  0  0
 34 59  1  0  0  0
 34106  1  0  0  0
 35 44  2  0  0  0
 35 45  1  0  0  0
 35 68  1  0  0  0
 36 56  1  0  0  0
 36107  1  0  0  0
 37 39  1  0  0  0
 37 47  1  0  0  0
 37 66  1  0  0  0
 37108  1  0  0  0
 38 43  2  0  0  0
 38 46  1  0  0  0
 38 47  1  0  0  0
 39 64  1  0  0  0
 39 67  2  0  0  0
 40 52  1  0  0  0
 40 53  2  0  0  0
 40 58  1  0  0  0
 41109  1  0  0  0
 41110  1  0  0  0
 41111  1  0  0  0
 41 48  1  0  0  0
 42 43  1  0  0  0
 42 66  1  0  0  0
 42112  1  0  0  0
 42113  1  0  0  0
 43 44  1  0  0  0
 44114  1  0  0  0
 45 46  2  0  0  0
 45115  1  0  0  0
 46116  1  0  0  0
 47117  1  0  0  0
 47118  1  0  0  0
 48 56  1  0  0  0
 48 65  1  0  0  0
 48119  1  0  0  0
 49 50  1  0  0  0
 49 53  1  0  0  0
 49 64  1  0  0  0
 49120  1  0  0  0
 50 51  1  0  0  0
 50121  1  0  0  0
 50122  1  0  0  0
 51 52  1  0  0  0
 51123  1  0  0  0
 51124  1  0  0  0
 52125  1  0  0  0
 52126  1  0  0  0
 53 54  1  0  0  0
 54 55  2  0  0  0
 54127  1  0  0  0
 55 57  1  0  0  0
 55128  1  0  0  0
 56 69  2  0  0  0
 57 58  2  0  0  0
 57129  1  0  0  0
 58130  1  0  0  0
 59 60  1  0  0  0
 59 61  1  0  0  0
 59 62  1  0  0  0
 60131  1  0  0  0
 60132  1  0  0  0
 60133  1  0  0  0
 61134  1  0  0  0
 61135  1  0  0  0
 61136  1  0  0  0
 62137  1  0  0  0
 62138  1  0  0  0
 62139  1  0  0  0
 63 65  1  0  0  0
 63140  1  0  0  0
 63141  1  0  0  0
 63142  1  0  0  0
 64143  1  0  0  0
 65144  1  0  0  0
 68 82  1  0  0  0
 71 73  2  0  0  0
 71 75  1  0  0  0
 71145  1  0  0  0
 72 75  2  0  0  0
 72 76  1  0  0  0
 72146  1  0  0  0
 73 74  1  0  0  0
 73 77  1  0  0  0
 74 76  2  0  0  0
 74 83  1  0  0  0
 75 84  1  0  0  0
 76 85  1  0  0  0
 77 78  1  0  0  0
 77147  1  0  0  0
 77148  1  0  0  0
 78 79  1  0  0  0
 78149  1  0  0  0
 78150  1  0  0  0
 79 80  1  0  0  0
 79 83  1  0  0  0
 79151  1  0  0  0
 80152  1  0  0  0
 80153  1  0  0  0
 80154  1  0  0  0
 81 82  1  0  0  0
 81 84  1  0  0  0
 81155  1  0  0  0
 81156  1  0  0  0
 82157  1  0  0  0
 82158  1  0  0  0
 84159  1  0  0  0
M  ISO  4   1 100  68 101  82 101  83 100
M  END
> <chiral flag>
0

> <version>
0

> <s_m_source_file>
/data/baiqing/PycharmProjects/Reinvent-master-3.2/result/LINK_invent/BTK/process_docking_weight1_custom_product_contain_oxygen_bond_distance_aromatic_linkinvent_7_9_3/rearranged_h_0028.sdf

> <i_m_source_file_index>
70

> <r_mmod_Potential_Energy-OPLS-2005>
748.710327148438

> <r_mmod_Stretch_Energy-OPLS-2005>
211.468307495117

> <r_mmod_Bend_Energy-OPLS-2005>
308.924621582031

> <r_mmod_Torsional_Energy-OPLS-2005>
332.42724609375

> <r_mmod_Improper_Torsional_Energy-OPLS-2005>
21.5928020477295

> <r_mmod_Van_der_Waal_Energy-OPLS-2005>
153.500793457031

> <r_mmod_Electrostatic_Energy-OPLS-2005>
-270.049835205078

> <r_mmod_Solvation_Energy-OPLS-2005>
-208.056594848633

> <b_mmod_Minimization_Converged-OPLS-2005>
0

> <r_mmod_RMS_Derivative-OPLS-2005>
2.4229531288147

$$$$
70
                    3D
 Structure written by MMmdl.
173182  0  0  1  0            999 V2000
  -30.7562  -14.3878   20.6689 C   0  0  0  0  0  0
  -30.4248  -12.2908   19.4051 C   0  0  0  0  0  0
  -29.4892  -12.4986   18.2003 C   0  0  0  0  0  0
  -28.0123  -12.3707   18.6227 C   0  0  0  0  0  0
  -27.6681  -13.2102   19.8840 C   0  0  2  0  0  0
  -28.7074  -12.9513   20.9975 C   0  0  0  0  0  0
  -25.2593  -13.8200   20.5694 C   0  0  0  0  0  0
  -24.1845  -13.0447   20.9141 C   0  0  0  0  0  0
  -24.6413  -11.6921   20.8682 C   0  0  0  0  0  0
  -23.9068  -10.4327   21.0347 C   0  0  0  0  0  0
  -24.3637   -9.4245   21.9131 C   0  0  0  0  0  0
  -23.6298   -8.2278   22.0755 C   0  0  0  0  0  0
  -22.4274   -8.0308   21.3561 C   0  0  0  0  0  0
  -21.9892   -9.0252   20.4625 C   0  0  0  0  0  0
  -22.7234  -10.2124   20.2994 C   0  0  0  0  0  0
  -21.6866   -6.0732   22.5283 C   0  0  0  0  0  0
  -21.4024   -6.5657   23.8212 C   0  0  0  0  0  0
  -21.3626   -5.6793   24.9167 C   0  0  0  0  0  0
  -21.6054   -4.3063   24.7225 C   0  0  0  0  0  0
  -21.8819   -3.8164   23.4351 C   0  0  0  0  0  0
  -21.9202   -4.6964   22.3405 C   0  0  0  0  0  0
  -22.7863  -13.5220   21.1851 C   0  0  0  0  0  0
  -22.1664   -4.2145   21.0968 F   0  0  0  0  0  0
  -21.5598   -3.4537   25.7736 F   0  0  0  0  0  0
  -30.0501  -13.2458   20.4572 N   0  0  0  0  0  0
  -26.3067  -12.9381   20.3410 N   0  0  0  0  0  0
  -25.9336  -11.6529   20.5737 N   0  0  0  0  0  0
  -22.0503  -12.8180   22.0363 N   0  0  0  0  0  0
  -25.4379  -15.1917   20.4174 N   0  0  0  0  0  0
  -31.7948  -14.6666   20.0606 O   0  0  0  0  0  0
  -21.6678   -6.8879   21.4250 O   0  0  0  0  0  0
  -22.3583  -14.5551   20.6747 O   0  0  0  0  0  0
  -24.6149  -31.8671   23.2088 C   0  0  0  0  0  0
  -25.9048  -32.4808   23.8377 C   0  0  1  0  0  0
  -27.2308  -27.4047   20.1239 C   0  0  0  0  0  0
  -25.5910  -33.8606   24.2305 N   0  0  0  0  0  0
  -23.4054  -30.4891   21.5468 C   0  0  2  0  0  0
  -24.8526  -28.9405   20.1275 C   0  0  0  0  0  0
  -22.7408  -29.4697   22.4978 C   0  0  0  0  0  0
  -18.0263  -28.1400   22.8484 C   0  0  0  0  0  0
  -24.1485  -36.7308   23.2639 C   0  0  0  0  0  0
  -25.9363  -30.8187   21.3705 C   0  0  0  0  0  0
  -26.0105  -29.4468   20.7313 C   0  0  0  0  0  0
  -27.2033  -28.6840   20.7317 C   0  0  0  0  0  0
  -26.0579  -26.9168   19.5143 C   0  0  0  0  0  0
  -24.8700  -27.6727   19.5209 C   0  0  0  0  0  0
  -23.6193  -29.8144   20.1649 C   0  0  0  0  0  0
  -25.4112  -36.3105   24.0333 C   0  0  1  0  0  0
  -20.5852  -28.3707   23.1295 C   0  0  2  0  0  0
  -20.6793  -26.9449   22.5399 C   0  0  0  0  0  0
  -19.5762  -26.6406   21.5214 C   0  0  0  0  0  0
  -18.1927  -26.7943   22.1614 C   0  0  0  0  0  0
  -19.1513  -28.8863   23.2886 C   0  0  0  0  0  0
  -18.9447  -30.1462   23.8908 C   0  0  0  0  0  0
  -17.6456  -30.6607   24.0571 C   0  0  0  0  0  0
  -25.9035  -34.9470   23.5110 C   0  0  0  0  0  0
  -16.5345  -29.9112   23.6334 C   0  0  0  0  0  0
  -16.7255  -28.6522   23.0362 C   0  0  0  0  0  0
  -26.4478  -31.6610   25.0727 C   0  0  0  0  0  0
  -25.3737  -31.3727   26.1474 C   0  0  0  0  0  0
  -27.0354  -30.3045   24.6180 C   0  0  0  0  0  0
  -27.6016  -32.4390   25.7492 C   0  0  0  0  0  0
  -27.5576  -37.1828   24.8472 C   0  0  0  0  0  0
  -21.4139  -29.3063   22.3690 N   0  0  0  0  0  0
  -26.4295  -37.3787   23.9396 N   0  0  0  0  0  0
  -24.6693  -31.0760   22.0993 N   0  0  0  0  0  0
  -23.4167  -28.8238   23.3032 O   0  0  0  0  0  0
  -28.4026  -26.6874   20.0180 O   0  0  0  0  0  0
  -26.5582  -34.8928   22.4661 O   0  0  0  0  0  0
  -23.5341  -32.1427   23.7472 O   0  0  0  0  0  0
  -28.8321  -18.1423   22.0681 C   0  0  0  0  0  0
  -30.3365  -18.1978   20.1675 C   0  0  0  0  0  0
  -29.9700  -17.6492   21.4056 C   0  0  0  0  0  0
  -28.0756  -19.1963   21.5099 C   0  0  0  0  0  0
  -29.5754  -19.2291   19.5788 C   0  0  0  0  0  0
  -28.4454  -19.7685   20.2607 C   0  0  0  0  0  0
  -28.2661  -22.9517   21.1296 C   0  0  0  0  0  0
  -27.7302  -23.5193   19.2253 C   0  0  0  0  0  0
  -27.7198  -24.2822   20.5561 C   0  0  2  0  0  0
  -26.8490  -19.6733   22.2776 C   0  0  0  0  0  0
  -28.2727  -18.2561   16.9928 C   0  0  0  0  0  0
  -30.4435  -18.7558   15.9323 C   0  0  0  0  0  0
  -27.5793  -20.8785   19.6355 C   0  0  0  0  0  0
  -30.7842  -16.5076   21.9885 C   0  0  0  0  0  0
  -29.9923  -19.6417   18.1736 C   0  0  0  0  0  0
  -28.5861  -25.5287   20.8567 C   0  0  0  0  0  0
  -27.8833  -22.2723   19.9947 N   0  0  0  0  0  0
  -30.2484  -15.2058   21.5981 N   0  0  0  0  0  0
  -29.7130  -18.5546   17.1997 N   0  3  0  0  0  0
  -28.7615  -22.5694   22.1713 O   0  0  0  0  0  0
  -31.4674  -12.3897   19.0982 H   0  0  0  0  0  0
  -30.3315  -11.2731   19.7856 H   0  0  0  0  0  0
  -29.7248  -11.7645   17.4251 H   0  0  0  0  0  0
  -29.6626  -13.4807   17.7563 H   0  0  0  0  0  0
  -27.8267  -11.3192   18.8291 H   0  0  0  0  0  0
  -27.3529  -12.6332   17.7932 H   0  0  0  0  0  0
  -27.7243  -14.2649   19.6095 H   0  0  0  0  0  0
  -28.6683  -11.9097   21.3127 H   0  0  0  0  0  0
  -28.4611  -13.5215   21.8927 H   0  0  0  0  0  0
  -25.2755   -9.5754   22.4726 H   0  0  0  0  0  0
  -24.0002   -7.4698   22.7507 H   0  0  0  0  0  0
  -21.0813   -8.8766   19.8943 H   0  0  0  0  0  0
  -22.3669  -10.9665   19.6124 H   0  0  0  0  0  0
  -21.2052   -7.6166   23.9708 H   0  0  0  0  0  0
  -21.1414   -6.0534   25.9057 H   0  0  0  0  0  0
  -22.0625   -2.7618   23.2865 H   0  0  0  0  0  0
  -22.4100  -11.9780   22.4664 H   0  0  0  0  0  0
  -21.1132  -13.1200   22.2628 H   0  0  0  0  0  0
  -26.3203  -15.6250   20.1882 H   0  0  0  0  0  0
  -24.6881  -15.8628   20.5388 H   0  0  0  0  0  0
  -26.7116  -32.5538   23.1139 H   0  0  0  0  0  0
  -25.0147  -33.9756   25.0516 H   0  0  0  0  0  0
  -22.6938  -31.3054   21.3994 H   0  0  0  0  0  0
  -23.3739  -35.9654   23.3335 H   0  0  0  0  0  0
  -24.3560  -36.8896   22.2048 H   0  0  0  0  0  0
  -23.7260  -37.6528   23.6634 H   0  0  0  0  0  0
  -26.0525  -31.5737   20.5935 H   0  0  0  0  0  0
  -26.8203  -30.8738   21.9946 H   0  0  0  0  0  0
  -28.0988  -29.0698   21.1984 H   0  0  0  0  0  0
  -26.0659  -25.9569   19.0190 H   0  0  0  0  0  0
  -23.9814  -27.2755   19.0494 H   0  0  0  0  0  0
  -23.7342  -30.5804   19.3979 H   0  0  0  0  0  0
  -22.7431  -29.2337   19.8711 H   0  0  0  0  0  0
  -25.1299  -36.1961   25.0830 H   0  0  0  0  0  0
  -20.9922  -28.3302   24.1428 H   0  0  0  0  0  0
  -20.5756  -26.2323   23.3597 H   0  0  0  0  0  0
  -21.6664  -26.7560   22.1154 H   0  0  0  0  0  0
  -19.6955  -25.6313   21.1256 H   0  0  0  0  0  0
  -19.6706  -27.3211   20.6737 H   0  0  0  0  0  0
  -17.4220  -26.6673   21.4010 H   0  0  0  0  0  0
  -18.0335  -26.0084   22.9002 H   0  0  0  0  0  0
  -19.7930  -30.7261   24.2303 H   0  0  0  0  0  0
  -17.5027  -31.6288   24.5173 H   0  0  0  0  0  0
  -15.5352  -30.3034   23.7671 H   0  0  0  0  0  0
  -15.8641  -28.0854   22.7102 H   0  0  0  0  0  0
  -24.5854  -30.7150   25.7794 H   0  0  0  0  0  0
  -24.9000  -32.2897   26.4984 H   0  0  0  0  0  0
  -25.8070  -30.8818   27.0191 H   0  0  0  0  0  0
  -26.2914  -29.6720   24.1319 H   0  0  0  0  0  0
  -27.4177  -29.7381   25.4678 H   0  0  0  0  0  0
  -27.8715  -30.4337   23.9301 H   0  0  0  0  0  0
  -27.2559  -33.3637   26.2120 H   0  0  0  0  0  0
  -28.3768  -32.7065   25.0303 H   0  0  0  0  0  0
  -28.0755  -31.8526   26.5370 H   0  0  0  0  0  0
  -28.2624  -38.0091   24.7468 H   0  0  0  0  0  0
  -28.1034  -36.2618   24.6360 H   0  0  0  0  0  0
  -27.2275  -37.1567   25.8870 H   0  0  0  0  0  0
  -20.9316  -29.8751   21.6867 H   0  0  0  0  0  0
  -26.0184  -38.2874   24.1353 H   0  0  0  0  0  0
  -28.5315  -17.7025   23.0080 H   0  0  0  0  0  0
  -31.1950  -17.7938   19.6477 H   0  0  0  0  0  0
  -28.5848  -23.7508   18.5888 H   0  0  0  0  0  0
  -26.7956  -23.5911   18.6666 H   0  0  0  0  0  0
  -26.6878  -24.4402   20.8661 H   0  0  0  0  0  0
  -26.8608  -20.7543   22.3994 H   0  0  0  0  0  0
  -26.8017  -19.2455   23.2776 H   0  0  0  0  0  0
  -25.9285  -19.4008   21.7570 H   0  0  0  0  0  0
  -28.1423  -17.4493   16.2660 H   0  0  0  0  0  0
  -27.7277  -19.1212   16.6199 H   0  0  0  0  0  0
  -27.7969  -17.9227   17.9162 H   0  0  0  0  0  0
  -30.1518  -19.6960   15.4643 H   0  0  0  0  0  0
  -30.2516  -17.9450   15.2292 H   0  0  0  0  0  0
  -31.5190  -18.7869   16.1150 H   0  0  0  0  0  0
  -26.5378  -20.6919   19.8927 H   0  0  0  0  0  0
  -27.5641  -20.8053   18.5505 H   0  0  0  0  0  0
  -31.8315  -16.6214   21.6898 H   0  0  0  0  0  0
  -30.7796  -16.5775   23.0755 H   0  0  0  0  0  0
  -31.0680  -19.8282   18.1996 H   0  0  0  0  0  0
  -29.5508  -20.5819   17.8467 H   0  0  0  0  0  0
  -29.6470  -25.2711   20.8090 H   0  0  0  0  0  0
  -28.4201  -25.8329   21.8899 H   0  0  0  0  0  0
  -29.4069  -14.9024   22.0586 H   0  0  0  0  0  0
  -30.1059  -17.7203   17.6031 H   0  0  0  0  0  0
  1 25  1  0  0  0
  1 30  2  0  0  0
  1 88  1  0  0  0
  2  3  1  0  0  0
  2 25  1  0  0  0
  2 91  1  0  0  0
  2 92  1  0  0  0
  3  4  1  0  0  0
  3 93  1  0  0  0
  3 94  1  0  0  0
  4  5  1  0  0  0
  4 95  1  0  0  0
  4 96  1  0  0  0
  5  6  1  0  0  0
  5 26  1  0  0  0
  5 97  1  0  0  0
  6 25  1  0  0  0
  6 98  1  0  0  0
  6 99  1  0  0  0
  7  8  2  0  0  0
  7 26  1  0  0  0
  7 29  1  0  0  0
  8  9  1  0  0  0
  8 22  1  0  0  0
  9 10  1  0  0  0
  9 27  2  0  0  0
 10 11  2  0  0  0
 10 15  1  0  0  0
 11 12  1  0  0  0
 11100  1  0  0  0
 12 13  2  0  0  0
 12101  1  0  0  0
 13 14  1  0  0  0
 13 31  1  0  0  0
 14 15  2  0  0  0
 14102  1  0  0  0
 15103  1  0  0  0
 16 17  2  0  0  0
 16 21  1  0  0  0
 16 31  1  0  0  0
 17 18  1  0  0  0
 17104  1  0  0  0
 18 19  2  0  0  0
 18105  1  0  0  0
 19 20  1  0  0  0
 19 24  1  0  0  0
 20 21  2  0  0  0
 20106  1  0  0  0
 21 23  1  0  0  0
 22 28  1  0  0  0
 22 32  2  0  0  0
 26 27  1  0  0  0
 28107  1  0  0  0
 28108  1  0  0  0
 29109  1  0  0  0
 29110  1  0  0  0
 33 34  1  0  0  0
 33 66  1  0  0  0
 33 70  2  0  0  0
 34 36  1  0  0  0
 34 59  1  0  0  0
 34111  1  0  0  0
 35 44  2  0  0  0
 35 45  1  0  0  0
 35 68  1  0  0  0
 36 56  1  0  0  0
 36112  1  0  0  0
 37 39  1  0  0  0
 37 47  1  0  0  0
 37 66  1  0  0  0
 37113  1  0  0  0
 38 43  2  0  0  0
 38 46  1  0  0  0
 38 47  1  0  0  0
 39 64  1  0  0  0
 39 67  2  0  0  0
 40 52  1  0  0  0
 40 53  2  0  0  0
 40 58  1  0  0  0
 41114  1  0  0  0
 41115  1  0  0  0
 41116  1  0  0  0
 41 48  1  0  0  0
 42 43  1  0  0  0
 42 66  1  0  0  0
 42117  1  0  0  0
 42118  1  0  0  0
 43 44  1  0  0  0
 44119  1  0  0  0
 45 46  2  0  0  0
 45120  1  0  0  0
 46121  1  0  0  0
 47122  1  0  0  0
 47123  1  0  0  0
 48 56  1  0  0  0
 48 65  1  0  0  0
 48124  1  0  0  0
 49 50  1  0  0  0
 49 53  1  0  0  0
 49 64  1  0  0  0
 49125  1  0  0  0
 50 51  1  0  0  0
 50126  1  0  0  0
 50127  1  0  0  0
 51 52  1  0  0  0
 51128  1  0  0  0
 51129  1  0  0  0
 52130  1  0  0  0
 52131  1  0  0  0
 53 54  1  0  0  0
 54 55  2  0  0  0
 54132  1  0  0  0
 55 57  1  0  0  0
 55133  1  0  0  0
 56 69  2  0  0  0
 57 58  2  0  0  0
 57134  1  0  0  0
 58135  1  0  0  0
 59 60  1  0  0  0
 59 61  1  0  0  0
 59 62  1  0  0  0
 60136  1  0  0  0
 60137  1  0  0  0
 60138  1  0  0  0
 61139  1  0  0  0
 61140  1  0  0  0
 61141  1  0  0  0
 62142  1  0  0  0
 62143  1  0  0  0
 62144  1  0  0  0
 63 65  1  0  0  0
 63145  1  0  0  0
 63146  1  0  0  0
 63147  1  0  0  0
 64148  1  0  0  0
 65149  1  0  0  0
 68 86  1  0  0  0
 71 73  2  0  0  0
 71 74  1  0  0  0
 71150  1  0  0  0
 72 73  1  0  0  0
 72 75  2  0  0  0
 72151  1  0  0  0
 73 84  1  0  0  0
 74 76  2  0  0  0
 74 80  1  0  0  0
 75 76  1  0  0  0
 75 85  1  0  0  0
 76 83  1  0  0  0
 77 79  1  0  0  0
 77 87  1  0  0  0
 77 90  2  0  0  0
 78 79  1  0  0  0
 78 87  1  0  0  0
 78152  1  0  0  0
 78153  1  0  0  0
 79 86  1  0  0  0
 79154  1  0  0  0
 80155  1  0  0  0
 80156  1  0  0  0
 80157  1  0  0  0
 81158  1  0  0  0
 81159  1  0  0  0
 81160  1  0  0  0
 81 89  1  0  0  0
 82 89  1  0  0  0
 82161  1  0  0  0
 82162  1  0  0  0
 82163  1  0  0  0
 83 87  1  0  0  0
 83164  1  0  0  0
 83165  1  0  0  0
 84 88  1  0  0  0
 84166  1  0  0  0
 84167  1  0  0  0
 85 89  1  0  0  0
 85168  1  0  0  0
 85169  1  0  0  0
 86170  1  0  0  0
 86171  1  0  0  0
 88172  1  0  0  0
 89173  1  0  0  0
M  CHG  1  89   1
M  ISO  4   1 100  68 101  86 101  88 100
M  END
> <chiral flag>
0

> <version>
0

> <s_m_source_file>
/data/baiqing/PycharmProjects/Reinvent-master-3.2/result/LINK_invent/BTK/process_docking_weight1_custom_product_contain_oxygen_bond_distance_aromatic_linkinvent_7_9_3/rearranged_h_0028.sdf

> <i_m_source_file_index>
71

> <r_mmod_Potential_Energy-OPLS-2005>
-278.594512939453

> <r_mmod_Stretch_Energy-OPLS-2005>
39.4591331481934

> <r_mmod_Bend_Energy-OPLS-2005>
112.42985534668

> <r_mmod_Torsional_Energy-OPLS-2005>
241.792510986328

> <r_mmod_Improper_Torsional_Energy-OPLS-2005>
2.72230339050293

> <r_mmod_Van_der_Waal_Energy-OPLS-2005>
136.786224365234

> <r_mmod_Electrostatic_Energy-OPLS-2005>
-363.383575439453

> <r_mmod_Solvation_Energy-OPLS-2005>
-457.64794921875

> <b_mmod_Minimization_Converged-OPLS-2005>
0

> <r_mmod_RMS_Derivative-OPLS-2005>
5.51795148849487

$$$$
71
                    3D
 Structure written by MMmdl.
164173  0  0  1  0            999 V2000
  -30.6602  -14.5022   20.5956 C   0  0  0  0  0  0
  -30.4330  -12.3302   19.4262 C   0  0  0  0  0  0
  -29.4954  -12.5122   18.2125 C   0  0  0  0  0  0
  -28.0163  -12.3671   18.6242 C   0  0  0  0  0  0
  -27.6633  -13.2015   19.8834 C   0  0  2  0  0  0
  -28.7028  -12.9622   21.0012 C   0  0  0  0  0  0
  -25.2596  -13.8149   20.5681 C   0  0  0  0  0  0
  -24.1829  -13.0427   20.9154 C   0  0  0  0  0  0
  -24.6366  -11.6891   20.8718 C   0  0  0  0  0  0
  -23.9033  -10.4282   21.0394 C   0  0  0  0  0  0
  -24.3594   -9.4207   21.9175 C   0  0  0  0  0  0
  -23.6276   -8.2243   22.0756 C   0  0  0  0  0  0
  -22.4262   -8.0270   21.3548 C   0  0  0  0  0  0
  -21.9885   -9.0236   20.4649 C   0  0  0  0  0  0
  -22.7205  -10.2118   20.3049 C   0  0  0  0  0  0
  -21.6852   -6.0723   22.5281 C   0  0  0  0  0  0
  -21.4020   -6.5632   23.8214 C   0  0  0  0  0  0
  -21.3658   -5.6786   24.9178 C   0  0  0  0  0  0
  -21.6042   -4.3046   24.7231 C   0  0  0  0  0  0
  -21.8823   -3.8137   23.4350 C   0  0  0  0  0  0
  -21.9196   -4.6951   22.3404 C   0  0  0  0  0  0
  -22.7862  -13.5244   21.1828 C   0  0  0  0  0  0
  -22.1663   -4.2132   21.0979 F   0  0  0  0  0  0
  -21.5624   -3.4531   25.7745 F   0  0  0  0  0  0
  -30.0338  -13.2977   20.4622 N   0  0  0  0  0  0
  -26.3022  -12.9301   20.3399 N   0  0  0  0  0  0
  -25.9294  -11.6462   20.5773 N   0  0  0  0  0  0
  -22.0509  -12.8237   22.0394 N   0  0  0  0  0  0
  -25.4352  -15.1860   20.4113 N   0  0  0  0  0  0
  -31.7580  -14.7409   20.0802 O   0  0  0  0  0  0
  -21.6639   -6.8859   21.4241 O   0  0  0  0  0  0
  -22.3554  -14.5552   20.6685 O   0  0  0  0  0  0
  -24.6162  -31.8657   23.2077 C   0  0  0  0  0  0
  -25.9041  -32.4825   23.8389 C   0  0  1  0  0  0
  -27.2418  -27.4123   20.1132 C   0  0  0  0  0  0
  -25.5891  -33.8618   24.2322 N   0  0  0  0  0  0
  -23.4074  -30.4854   21.5475 C   0  0  2  0  0  0
  -24.8597  -28.9439   20.1174 C   0  0  0  0  0  0
  -22.7445  -29.4619   22.4990 C   0  0  0  0  0  0
  -18.0274  -28.1333   22.8479 C   0  0  0  0  0  0
  -24.1501  -36.7311   23.2639 C   0  0  0  0  0  0
  -25.9374  -30.8256   21.3646 C   0  0  0  0  0  0
  -26.0176  -29.4531   20.7207 C   0  0  0  0  0  0
  -27.2130  -28.6937   20.7166 C   0  0  0  0  0  0
  -26.0695  -26.9202   19.5046 C   0  0  0  0  0  0
  -24.8813  -27.6781   19.5049 C   0  0  0  0  0  0
  -23.6219  -29.8139   20.1636 C   0  0  0  0  0  0
  -25.4117  -36.3112   24.0343 C   0  0  1  0  0  0
  -20.5867  -28.3623   23.1314 C   0  0  2  0  0  0
  -20.6774  -26.9361   22.5402 C   0  0  0  0  0  0
  -19.5757  -26.6343   21.5187 C   0  0  0  0  0  0
  -18.1931  -26.7880   22.1599 C   0  0  0  0  0  0
  -19.1519  -28.8799   23.2887 C   0  0  0  0  0  0
  -18.9457  -30.1404   23.8894 C   0  0  0  0  0  0
  -17.6462  -30.6557   24.0535 C   0  0  0  0  0  0
  -25.9034  -34.9477   23.5131 C   0  0  0  0  0  0
  -16.5351  -29.9046   23.6313 C   0  0  0  0  0  0
  -16.7266  -28.6458   23.0340 C   0  0  0  0  0  0
  -26.4464  -31.6602   25.0716 C   0  0  0  0  0  0
  -25.3712  -31.3697   26.1453 C   0  0  0  0  0  0
  -27.0307  -30.3068   24.6050 C   0  0  0  0  0  0
  -27.6057  -32.4309   25.7473 C   0  0  0  0  0  0
  -27.5596  -37.1818   24.8468 C   0  0  0  0  0  0
  -21.4171  -29.2984   22.3745 N   0  0  0  0  0  0
  -26.4314  -37.3789   23.9399 N   0  0  0  0  0  0
  -24.6717  -31.0743   22.0984 N   0  0  0  0  0  0
  -23.4218  -28.8167   23.3036 O   0  0  0  0  0  0
  -28.3995  -26.6634   20.0410 O   0  0  0  0  0  0
  -26.5609  -34.8926   22.4702 O   0  0  0  0  0  0
  -23.5350  -32.1409   23.7465 O   0  0  0  0  0  0
  -30.4003  -19.0108   20.1338 C   0  0  0  0  0  0
  -30.3986  -17.5961   20.1351 C   0  0  0  0  0  0
  -30.0149  -19.7598   21.2732 C   0  0  0  0  0  0
  -29.5943  -19.0345   22.4281 C   0  0  0  0  0  0
  -29.6276  -17.6008   22.4431 C   0  0  0  0  0  0
  -30.0332  -16.8680   21.2905 C   0  0  0  0  0  0
  -28.6331  -23.2445   21.8544 C   0  0  0  0  0  0
  -28.7279  -23.3578   23.1930 C   0  0  0  0  0  0
  -29.2089  -23.2696   19.9827 C   0  0  0  0  0  0
  -28.2653  -24.2312   20.7655 C   0  0  2  0  0  0
  -29.1127  -19.8114   23.6523 C   0  0  0  0  0  0
  -29.2513  -16.8421   23.7165 C   0  0  0  0  0  0
  -30.2088  -21.3091   21.2615 C   0  0  0  0  0  0
  -28.6262  -25.7068   21.0954 C   0  0  0  0  0  0
  -29.9631  -15.4285   21.2937 N   0  0  0  0  0  0
  -29.0119  -22.1685   20.9654 N   0  3  1  0  0  0
  -31.4733  -12.4560   19.1220 H   0  0  0  0  0  0
  -30.3615  -11.3141   19.8168 H   0  0  0  0  0  0
  -29.7365  -11.7810   17.4399 H   0  0  0  0  0  0
  -29.6560  -13.4949   17.7675 H   0  0  0  0  0  0
  -27.8268  -11.3096   18.8151 H   0  0  0  0  0  0
  -27.3653  -12.6458   17.7942 H   0  0  0  0  0  0
  -27.7140  -14.2523   19.5958 H   0  0  0  0  0  0
  -28.6879  -11.9153   21.3106 H   0  0  0  0  0  0
  -28.4465  -13.5250   21.8992 H   0  0  0  0  0  0
  -25.2737   -9.5689   22.4747 H   0  0  0  0  0  0
  -23.9984   -7.4645   22.7481 H   0  0  0  0  0  0
  -21.0818   -8.8740   19.8962 H   0  0  0  0  0  0
  -22.3650  -10.9649   19.6157 H   0  0  0  0  0  0
  -21.2020   -7.6140   23.9712 H   0  0  0  0  0  0
  -21.1476   -6.0516   25.9078 H   0  0  0  0  0  0
  -22.0605   -2.7595   23.2859 H   0  0  0  0  0  0
  -22.4123  -11.9879   22.4748 H   0  0  0  0  0  0
  -21.1150  -13.1293   22.2649 H   0  0  0  0  0  0
  -24.6740  -15.8472   20.5220 H   0  0  0  0  0  0
  -26.3006  -15.6241   20.1190 H   0  0  0  0  0  0
  -26.7131  -32.5548   23.1177 H   0  0  0  0  0  0
  -25.0043  -33.9751   25.0479 H   0  0  0  0  0  0
  -22.6949  -31.3007   21.4060 H   0  0  0  0  0  0
  -23.3760  -35.9654   23.3309 H   0  0  0  0  0  0
  -24.3598  -36.8919   22.2054 H   0  0  0  0  0  0
  -23.7252  -37.6523   23.6646 H   0  0  0  0  0  0
  -26.0472  -31.5899   20.5939 H   0  0  0  0  0  0
  -26.8265  -30.8843   21.9814 H   0  0  0  0  0  0
  -28.1132  -29.0857   21.1689 H   0  0  0  0  0  0
  -26.0821  -25.9533   19.0223 H   0  0  0  0  0  0
  -23.9949  -27.2845   19.0269 H   0  0  0  0  0  0
  -23.7317  -30.5882   19.4033 H   0  0  0  0  0  0
  -22.7471  -29.2320   19.8683 H   0  0  0  0  0  0
  -25.1296  -36.1992   25.0837 H   0  0  0  0  0  0
  -20.9934  -28.3177   24.1436 H   0  0  0  0  0  0
  -20.5663  -26.2228   23.3588 H   0  0  0  0  0  0
  -21.6653  -26.7395   22.1201 H   0  0  0  0  0  0
  -19.6920  -25.6244   21.1219 H   0  0  0  0  0  0
  -19.6705  -27.3170   20.6727 H   0  0  0  0  0  0
  -17.4209  -26.6618   21.3999 H   0  0  0  0  0  0
  -18.0329  -26.0014   22.8979 H   0  0  0  0  0  0
  -19.7940  -30.7200   24.2280 H   0  0  0  0  0  0
  -17.5014  -31.6236   24.5121 H   0  0  0  0  0  0
  -15.5347  -30.2938   23.7624 H   0  0  0  0  0  0
  -15.8666  -28.0770   22.7050 H   0  0  0  0  0  0
  -24.5886  -30.7041   25.7780 H   0  0  0  0  0  0
  -24.8873  -32.2841   26.4898 H   0  0  0  0  0  0
  -25.8035  -30.8864   27.0217 H   0  0  0  0  0  0
  -26.2845  -29.6827   24.1122 H   0  0  0  0  0  0
  -27.4146  -29.7299   25.4472 H   0  0  0  0  0  0
  -27.8643  -30.4437   23.9161 H   0  0  0  0  0  0
  -27.2708  -33.3617   26.2058 H   0  0  0  0  0  0
  -28.3859  -32.6844   25.0276 H   0  0  0  0  0  0
  -28.0727  -31.8400   26.5361 H   0  0  0  0  0  0
  -28.2622  -38.0119   24.7521 H   0  0  0  0  0  0
  -28.1083  -36.2646   24.6292 H   0  0  0  0  0  0
  -27.2304  -37.1467   25.8871 H   0  0  0  0  0  0
  -20.9349  -29.8736   21.6982 H   0  0  0  0  0  0
  -26.0214  -38.2873   24.1383 H   0  0  0  0  0  0
  -30.7295  -19.5221   19.2398 H   0  0  0  0  0  0
  -30.6820  -17.0747   19.2313 H   0  0  0  0  0  0
  -28.4499  -24.2753   23.6910 H   0  0  0  0  0  0
  -29.0912  -22.5603   23.8191 H   0  0  0  0  0  0
  -30.2360  -23.6442   19.9414 H   0  0  0  0  0  0
  -28.8509  -23.0204   18.9836 H   0  0  0  0  0  0
  -27.2340  -24.1358   20.4222 H   0  0  0  0  0  0
  -28.2652  -20.4374   23.3760 H   0  0  0  0  0  0
  -29.9064  -20.4412   24.0543 H   0  0  0  0  0  0
  -28.7588  -19.1957   24.4759 H   0  0  0  0  0  0
  -29.7680  -17.2626   24.5793 H   0  0  0  0  0  0
  -29.5351  -15.7907   23.7060 H   0  0  0  0  0  0
  -28.1767  -16.8961   23.8897 H   0  0  0  0  0  0
  -30.9738  -21.5255   20.5147 H   0  0  0  0  0  0
  -30.6677  -21.6168   22.1995 H   0  0  0  0  0  0
  -29.6834  -25.7761   21.3519 H   0  0  0  0  0  0
  -28.0953  -26.0281   21.9930 H   0  0  0  0  0  0
  -29.2015  -15.0392   21.8281 H   0  0  0  0  0  0
  -28.2155  -21.6046   20.7133 H   0  0  0  0  0  0
  1 25  1  0  0  0
  1 30  2  0  0  0
  1 85  1  0  0  0
  2  3  1  0  0  0
  2 25  1  0  0  0
  2 87  1  0  0  0
  2 88  1  0  0  0
  3  4  1  0  0  0
  3 89  1  0  0  0
  3 90  1  0  0  0
  4  5  1  0  0  0
  4 91  1  0  0  0
  4 92  1  0  0  0
  5  6  1  0  0  0
  5 26  1  0  0  0
  5 93  1  0  0  0
  6 25  1  0  0  0
  6 94  1  0  0  0
  6 95  1  0  0  0
  7  8  2  0  0  0
  7 26  1  0  0  0
  7 29  1  0  0  0
  8  9  1  0  0  0
  8 22  1  0  0  0
  9 10  1  0  0  0
  9 27  2  0  0  0
 10 11  2  0  0  0
 10 15  1  0  0  0
 11 12  1  0  0  0
 11 96  1  0  0  0
 12 13  2  0  0  0
 12 97  1  0  0  0
 13 14  1  0  0  0
 13 31  1  0  0  0
 14 15  2  0  0  0
 14 98  1  0  0  0
 15 99  1  0  0  0
 16 17  2  0  0  0
 16 21  1  0  0  0
 16 31  1  0  0  0
 17 18  1  0  0  0
 17100  1  0  0  0
 18 19  2  0  0  0
 18101  1  0  0  0
 19 20  1  0  0  0
 19 24  1  0  0  0
 20 21  2  0  0  0
 20102  1  0  0  0
 21 23  1  0  0  0
 22 28  1  0  0  0
 22 32  2  0  0  0
 26 27  1  0  0  0
 28103  1  0  0  0
 28104  1  0  0  0
 29105  1  0  0  0
 29106  1  0  0  0
 33 34  1  0  0  0
 33 66  1  0  0  0
 33 70  2  0  0  0
 34 36  1  0  0  0
 34 59  1  0  0  0
 34107  1  0  0  0
 35 44  2  0  0  0
 35 45  1  0  0  0
 35 68  1  0  0  0
 36 56  1  0  0  0
 36108  1  0  0  0
 37 39  1  0  0  0
 37 47  1  0  0  0
 37 66  1  0  0  0
 37109  1  0  0  0
 38 43  2  0  0  0
 38 46  1  0  0  0
 38 47  1  0  0  0
 39 64  1  0  0  0
 39 67  2  0  0  0
 40 52  1  0  0  0
 40 53  2  0  0  0
 40 58  1  0  0  0
 41110  1  0  0  0
 41111  1  0  0  0
 41112  1  0  0  0
 41 48  1  0  0  0
 42 43  1  0  0  0
 42 66  1  0  0  0
 42113  1  0  0  0
 42114  1  0  0  0
 43 44  1  0  0  0
 44115  1  0  0  0
 45 46  2  0  0  0
 45116  1  0  0  0
 46117  1  0  0  0
 47118  1  0  0  0
 47119  1  0  0  0
 48 56  1  0  0  0
 48 65  1  0  0  0
 48120  1  0  0  0
 49 50  1  0  0  0
 49 53  1  0  0  0
 49 64  1  0  0  0
 49121  1  0  0  0
 50 51  1  0  0  0
 50122  1  0  0  0
 50123  1  0  0  0
 51 52  1  0  0  0
 51124  1  0  0  0
 51125  1  0  0  0
 52126  1  0  0  0
 52127  1  0  0  0
 53 54  1  0  0  0
 54 55  2  0  0  0
 54128  1  0  0  0
 55 57  1  0  0  0
 55129  1  0  0  0
 56 69  2  0  0  0
 57 58  2  0  0  0
 57130  1  0  0  0
 58131  1  0  0  0
 59 60  1  0  0  0
 59 61  1  0  0  0
 59 62  1  0  0  0
 60132  1  0  0  0
 60133  1  0  0  0
 60134  1  0  0  0
 61135  1  0  0  0
 61136  1  0  0  0
 61137  1  0  0  0
 62138  1  0  0  0
 62139  1  0  0  0
 62140  1  0  0  0
 63 65  1  0  0  0
 63141  1  0  0  0
 63142  1  0  0  0
 63143  1  0  0  0
 64144  1  0  0  0
 65145  1  0  0  0
 68 84  1  0  0  0
 71 72  2  0  0  0
 71 73  1  0  0  0
 71146  1  0  0  0
 72 76  1  0  0  0
 72147  1  0  0  0
 73 74  2  0  0  0
 73 83  1  0  0  0
 74 75  1  0  0  0
 74 81  1  0  0  0
 75 76  2  0  0  0
 75 82  1  0  0  0
 76 85  1  0  0  0
 77 78  2  0  0  0
 77 80  1  0  0  0
 77 86  1  0  0  0
 78148  1  0  0  0
 78149  1  0  0  0
 79 80  1  0  0  0
 79 86  1  0  0  0
 79150  1  0  0  0
 79151  1  0  0  0
 80 84  1  0  0  0
 80152  1  0  0  0
 81153  1  0  0  0
 81154  1  0  0  0
 81155  1  0  0  0
 82156  1  0  0  0
 82157  1  0  0  0
 82158  1  0  0  0
 83159  1  0  0  0
 83160  1  0  0  0
 83 86  1  0  0  0
 84161  1  0  0  0
 84162  1  0  0  0
 85163  1  0  0  0
 86164  1  0  0  0
M  CHG  1  86   1
M  ISO  4   1 100  68 101  84 101  85 100
M  END
> <chiral flag>
0

> <version>
0

> <s_m_source_file>
/data/baiqing/PycharmProjects/Reinvent-master-3.2/result/LINK_invent/BTK/process_docking_weight1_custom_product_contain_oxygen_bond_distance_aromatic_linkinvent_7_9_3/rearranged_h_0028.sdf

> <i_m_source_file_index>
72

> <r_mmod_Potential_Energy-OPLS-2005>
-130.867950439453

> <r_mmod_Stretch_Energy-OPLS-2005>
52.4476509094238

> <r_mmod_Bend_Energy-OPLS-2005>
142.154113769531

> <r_mmod_Torsional_Energy-OPLS-2005>
252.97624206543

> <r_mmod_Improper_Torsional_Energy-OPLS-2005>
3.21932935714722

> <r_mmod_Van_der_Waal_Energy-OPLS-2005>
151.736587524414

> <r_mmod_Electrostatic_Energy-OPLS-2005>
-300.123718261719

> <r_mmod_Solvation_Energy-OPLS-2005>
-447.757995605469

> <b_mmod_Minimization_Converged-OPLS-2005>
0

> <r_mmod_RMS_Derivative-OPLS-2005>
2.42130041122437

$$$$
72
                    3D
 Structure written by MMmdl.
163172  0  0  1  0            999 V2000
  -30.6302  -14.7228   20.5022 C   0  0  0  0  0  0
  -30.4395  -12.4645   19.4292 C   0  0  0  0  0  0
  -29.4958  -12.5153   18.2087 C   0  0  0  0  0  0
  -28.0238  -12.3272   18.6404 C   0  0  0  0  0  0
  -27.6473  -13.1969   19.8702 C   0  0  2  0  0  0
  -28.7182  -13.0212   20.9790 C   0  0  0  0  0  0
  -25.2502  -13.8080   20.5700 C   0  0  0  0  0  0
  -24.1787  -13.0375   20.9237 C   0  0  0  0  0  0
  -24.6354  -11.6836   20.8816 C   0  0  0  0  0  0
  -23.9048  -10.4225   21.0478 C   0  0  0  0  0  0
  -24.3595   -9.4134   21.9249 C   0  0  0  0  0  0
  -23.6237   -8.2178   22.0758 C   0  0  0  0  0  0
  -22.4219   -8.0236   21.3525 C   0  0  0  0  0  0
  -21.9890   -9.0242   20.4641 C   0  0  0  0  0  0
  -22.7240  -10.2108   20.3099 C   0  0  0  0  0  0
  -21.6798   -6.0698   22.5259 C   0  0  0  0  0  0
  -21.3977   -6.5623   23.8195 C   0  0  0  0  0  0
  -21.3698   -5.6791   24.9165 C   0  0  0  0  0  0
  -21.6081   -4.3048   24.7221 C   0  0  0  0  0  0
  -21.8811   -3.8116   23.4342 C   0  0  0  0  0  0
  -21.9154   -4.6921   22.3389 C   0  0  0  0  0  0
  -22.7808  -13.5157   21.1874 C   0  0  0  0  0  0
  -22.1613   -4.2099   21.0967 F   0  0  0  0  0  0
  -21.5696   -3.4550   25.7755 F   0  0  0  0  0  0
  -29.9815  -13.4979   20.3943 N   0  0  0  0  0  0
  -26.2947  -12.9238   20.3413 N   0  0  0  0  0  0
  -25.9289  -11.6411   20.5889 N   0  0  0  0  0  0
  -22.0442  -12.8165   22.0425 N   0  0  0  0  0  0
  -25.4150  -15.1807   20.4002 N   0  0  0  0  0  0
  -31.8260  -14.7550   20.1859 O   0  0  0  0  0  0
  -21.6560   -6.8855   21.4222 O   0  0  0  0  0  0
  -22.3521  -14.5458   20.6657 O   0  0  0  0  0  0
  -24.6227  -31.8604   23.2059 C   0  0  0  0  0  0
  -25.9067  -32.4797   23.8404 C   0  0  1  0  0  0
  -27.2464  -27.3350   20.1193 C   0  0  0  0  0  0
  -25.5865  -33.8604   24.2283 N   0  0  0  0  0  0
  -23.4236  -30.4777   21.5483 C   0  0  2  0  0  0
  -24.8763  -28.9304   20.1172 C   0  0  0  0  0  0
  -22.7479  -29.4616   22.4970 C   0  0  0  0  0  0
  -18.0280  -28.1409   22.8537 C   0  0  0  0  0  0
  -24.1465  -36.7337   23.2668 C   0  0  0  0  0  0
  -25.9638  -30.7886   21.3841 C   0  0  0  0  0  0
  -26.0430  -29.4189   20.7213 C   0  0  0  0  0  0
  -27.2327  -28.6332   20.7124 C   0  0  0  0  0  0
  -26.0630  -26.8964   19.4862 C   0  0  0  0  0  0
  -24.8862  -27.6719   19.4913 C   0  0  0  0  0  0
  -23.6394  -29.8078   20.1654 C   0  0  0  0  0  0
  -25.4112  -36.3111   24.0314 C   0  0  1  0  0  0
  -20.5874  -28.3734   23.1299 C   0  0  2  0  0  0
  -20.6785  -26.9452   22.5433 C   0  0  0  0  0  0
  -19.5741  -26.6397   21.5270 C   0  0  0  0  0  0
  -18.1914  -26.7960   22.1665 C   0  0  0  0  0  0
  -19.1529  -28.8884   23.2909 C   0  0  0  0  0  0
  -18.9455  -30.1491   23.8903 C   0  0  0  0  0  0
  -17.6453  -30.6622   24.0575 C   0  0  0  0  0  0
  -25.9047  -34.9464   23.5110 C   0  0  0  0  0  0
  -16.5346  -29.9113   23.6335 C   0  0  0  0  0  0
  -16.7264  -28.6516   23.0387 C   0  0  0  0  0  0
  -26.4461  -31.6667   25.0818 C   0  0  0  0  0  0
  -25.3668  -31.3764   26.1515 C   0  0  0  0  0  0
  -27.0427  -30.3121   24.6381 C   0  0  0  0  0  0
  -27.5972  -32.4505   25.7558 C   0  0  0  0  0  0
  -27.5564  -37.1805   24.8480 C   0  0  0  0  0  0
  -21.4186  -29.3062   22.3686 N   0  0  0  0  0  0
  -26.4305  -37.3800   23.9397 N   0  0  0  0  0  0
  -24.6884  -31.0598   22.1015 N   0  0  0  0  0  0
  -23.4180  -28.8151   23.3074 O   0  0  0  0  0  0
  -28.3498  -26.4710   20.1349 O   0  0  0  0  0  0
  -26.5649  -34.8910   22.4694 O   0  0  0  0  0  0
  -23.5384  -32.1391   23.7366 O   0  0  0  0  0  0
  -29.2948  -23.0437   21.6842 C   0  0  0  0  0  0
  -29.4653  -21.9502   19.1435 C   0  0  0  0  0  0
  -28.8781  -23.8726   20.6049 C   0  0  0  0  0  0
  -29.9007  -21.1149   20.2200 C   0  0  0  0  0  0
  -29.7903  -21.7174   21.5085 C   0  0  0  0  0  0
  -28.9774  -23.2835   19.3184 C   0  0  0  0  0  0
  -30.7948  -19.1801   18.8002 C   0  0  0  0  0  0
  -31.5359  -19.7207   17.8066 C   0  0  0  0  0  0
  -30.4531  -17.6942   18.8399 C   0  0  0  0  0  0
  -30.2341  -18.6836   21.0107 C   0  0  0  0  0  0
  -30.6069  -17.2944   20.3161 C   0  0  1  0  0  0
  -32.1413  -21.1114   17.7356 C   0  0  0  0  0  0
  -28.5482  -16.1482   21.0799 C   0  0  0  0  0  0
  -28.1430  -25.2325   20.9146 C   0  0  0  0  0  0
  -30.4008  -19.7673   20.0044 N   0  0  0  0  0  0
  -29.9534  -15.9488   20.6690 N   0  0  0  0  0  0
  -30.1563  -21.0259   22.6174 F   0  0  0  0  0  0
  -28.5659  -23.9787   18.2316 F   0  0  0  0  0  0
  -31.4715  -12.6058   19.1055 H   0  0  0  0  0  0
  -30.4198  -11.4700   19.8799 H   0  0  0  0  0  0
  -29.7730  -11.7420   17.4904 H   0  0  0  0  0  0
  -29.6141  -13.4672   17.6879 H   0  0  0  0  0  0
  -27.8934  -11.2740   18.8951 H   0  0  0  0  0  0
  -27.3500  -12.5265   17.8057 H   0  0  0  0  0  0
  -27.6626  -14.2232   19.5132 H   0  0  0  0  0  0
  -28.7965  -11.9634   21.2332 H   0  0  0  0  0  0
  -28.4954  -13.4576   21.9478 H   0  0  0  0  0  0
  -25.2727   -9.5575   22.4851 H   0  0  0  0  0  0
  -23.9907   -7.4560   22.7488 H   0  0  0  0  0  0
  -21.0823   -8.8825   19.8941 H   0  0  0  0  0  0
  -22.3736  -10.9689   19.6229 H   0  0  0  0  0  0
  -21.1933   -7.6131   23.9682 H   0  0  0  0  0  0
  -21.1601   -6.0519   25.9084 H   0  0  0  0  0  0
  -22.0571   -2.7568   23.2844 H   0  0  0  0  0  0
  -22.4069  -11.9849   22.4865 H   0  0  0  0  0  0
  -21.1027  -13.1148   22.2582 H   0  0  0  0  0  0
  -24.6563  -15.8412   20.5311 H   0  0  0  0  0  0
  -26.2684  -15.6143   20.0769 H   0  0  0  0  0  0
  -26.7145  -32.5474   23.1171 H   0  0  0  0  0  0
  -24.9891  -33.9761   25.0333 H   0  0  0  0  0  0
  -22.7208  -31.2991   21.4066 H   0  0  0  0  0  0
  -23.3733  -35.9663   23.3337 H   0  0  0  0  0  0
  -24.3499  -36.9019   22.2082 H   0  0  0  0  0  0
  -23.7216  -37.6509   23.6757 H   0  0  0  0  0  0
  -26.1096  -31.5575   20.6228 H   0  0  0  0  0  0
  -26.8373  -30.8254   22.0255 H   0  0  0  0  0  0
  -28.1291  -29.0034   21.1931 H   0  0  0  0  0  0
  -26.0498  -25.9293   19.0009 H   0  0  0  0  0  0
  -23.9939  -27.2921   19.0134 H   0  0  0  0  0  0
  -23.7519  -30.5839   19.4076 H   0  0  0  0  0  0
  -22.7612  -29.2301   19.8729 H   0  0  0  0  0  0
  -25.1280  -36.1973   25.0803 H   0  0  0  0  0  0
  -20.9964  -28.3341   24.1431 H   0  0  0  0  0  0
  -20.5795  -26.2322   23.3645 H   0  0  0  0  0  0
  -21.6645  -26.7544   22.1175 H   0  0  0  0  0  0
  -19.6901  -25.6308   21.1304 H   0  0  0  0  0  0
  -19.6632  -27.3189   20.6793 H   0  0  0  0  0  0
  -17.4190  -26.6766   21.4045 H   0  0  0  0  0  0
  -18.0228  -26.0089   22.9038 H   0  0  0  0  0  0
  -19.7920  -30.7336   24.2245 H   0  0  0  0  0  0
  -17.5010  -31.6282   24.5235 H   0  0  0  0  0  0
  -15.5343  -30.3035   23.7658 H   0  0  0  0  0  0
  -15.8667  -28.0839   22.7115 H   0  0  0  0  0  0
  -24.5791  -30.7215   25.7786 H   0  0  0  0  0  0
  -24.8895  -32.2911   26.5046 H   0  0  0  0  0  0
  -25.7929  -30.8815   27.0252 H   0  0  0  0  0  0
  -26.3083  -29.6754   24.1451 H   0  0  0  0  0  0
  -27.4172  -29.7515   25.4957 H   0  0  0  0  0  0
  -27.8898  -30.4469   23.9656 H   0  0  0  0  0  0
  -27.2532  -33.3822   26.2071 H   0  0  0  0  0  0
  -28.3736  -32.7082   25.0346 H   0  0  0  0  0  0
  -28.0716  -31.8740   26.5510 H   0  0  0  0  0  0
  -28.2617  -38.0075   24.7525 H   0  0  0  0  0  0
  -28.1018  -36.2593   24.6342 H   0  0  0  0  0  0
  -27.2249  -37.1505   25.8879 H   0  0  0  0  0  0
  -20.9389  -29.8725   21.6829 H   0  0  0  0  0  0
  -26.0188  -38.2877   24.1397 H   0  0  0  0  0  0
  -29.1975  -23.4144   22.6935 H   0  0  0  0  0  0
  -29.4881  -21.5688   18.1344 H   0  0  0  0  0  0
  -31.7784  -19.0948   16.9575 H   0  0  0  0  0  0
  -31.1015  -17.0981   18.1968 H   0  0  0  0  0  0
  -29.4269  -17.5645   18.4925 H   0  0  0  0  0  0
  -30.9105  -18.8517   21.8507 H   0  0  0  0  0  0
  -29.2180  -18.7621   21.3856 H   0  0  0  0  0  0
  -31.6808  -17.1912   20.4919 H   0  0  0  0  0  0
  -32.1681  -21.5958   18.7101 H   0  0  0  0  0  0
  -31.5888  -21.7397   17.0363 H   0  0  0  0  0  0
  -33.1738  -21.0436   17.3871 H   0  0  0  0  0  0
  -28.4020  -16.9732   21.7741 H   0  0  0  0  0  0
  -28.0826  -15.3498   21.6296 H   0  0  0  0  0  0
  -27.9421  -16.3506   20.1927 H   0  0  0  0  0  0
  -28.3880  -25.5052   21.9410 H   0  0  0  0  0  0
  -27.0841  -24.9799   20.9430 H   0  0  0  0  0  0
  1 25  1  0  0  0
  1 30  2  0  0  0
  1 86  1  0  0  0
  2  3  1  0  0  0
  2 25  1  0  0  0
  2 89  1  0  0  0
  2 90  1  0  0  0
  3  4  1  0  0  0
  3 91  1  0  0  0
  3 92  1  0  0  0
  4  5  1  0  0  0
  4 93  1  0  0  0
  4 94  1  0  0  0
  5  6  1  0  0  0
  5 26  1  0  0  0
  5 95  1  0  0  0
  6 25  1  0  0  0
  6 96  1  0  0  0
  6 97  1  0  0  0
  7  8  2  0  0  0
  7 26  1  0  0  0
  7 29  1  0  0  0
  8  9  1  0  0  0
  8 22  1  0  0  0
  9 10  1  0  0  0
  9 27  2  0  0  0
 10 11  2  0  0  0
 10 15  1  0  0  0
 11 12  1  0  0  0
 11 98  1  0  0  0
 12 13  2  0  0  0
 12 99  1  0  0  0
 13 14  1  0  0  0
 13 31  1  0  0  0
 14 15  2  0  0  0
 14100  1  0  0  0
 15101  1  0  0  0
 16 17  2  0  0  0
 16 21  1  0  0  0
 16 31  1  0  0  0
 17 18  1  0  0  0
 17102  1  0  0  0
 18 19  2  0  0  0
 18103  1  0  0  0
 19 20  1  0  0  0
 19 24  1  0  0  0
 20 21  2  0  0  0
 20104  1  0  0  0
 21 23  1  0  0  0
 22 28  1  0  0  0
 22 32  2  0  0  0
 26 27  1  0  0  0
 28105  1  0  0  0
 28106  1  0  0  0
 29107  1  0  0  0
 29108  1  0  0  0
 33 34  1  0  0  0
 33 66  1  0  0  0
 33 70  2  0  0  0
 34 36  1  0  0  0
 34 59  1  0  0  0
 34109  1  0  0  0
 35 44  2  0  0  0
 35 45  1  0  0  0
 35 68  1  0  0  0
 36 56  1  0  0  0
 36110  1  0  0  0
 37 39  1  0  0  0
 37 47  1  0  0  0
 37 66  1  0  0  0
 37111  1  0  0  0
 38 43  2  0  0  0
 38 46  1  0  0  0
 38 47  1  0  0  0
 39 64  1  0  0  0
 39 67  2  0  0  0
 40 52  1  0  0  0
 40 53  2  0  0  0
 40 58  1  0  0  0
 41112  1  0  0  0
 41113  1  0  0  0
 41114  1  0  0  0
 41 48  1  0  0  0
 42 43  1  0  0  0
 42 66  1  0  0  0
 42115  1  0  0  0
 42116  1  0  0  0
 43 44  1  0  0  0
 44117  1  0  0  0
 45 46  2  0  0  0
 45118  1  0  0  0
 46119  1  0  0  0
 47120  1  0  0  0
 47121  1  0  0  0
 48 56  1  0  0  0
 48 65  1  0  0  0
 48122  1  0  0  0
 49 50  1  0  0  0
 49 53  1  0  0  0
 49 64  1  0  0  0
 49123  1  0  0  0
 50 51  1  0  0  0
 50124  1  0  0  0
 50125  1  0  0  0
 51 52  1  0  0  0
 51126  1  0  0  0
 51127  1  0  0  0
 52128  1  0  0  0
 52129  1  0  0  0
 53 54  1  0  0  0
 54 55  2  0  0  0
 54130  1  0  0  0
 55 57  1  0  0  0
 55131  1  0  0  0
 56 69  2  0  0  0
 57 58  2  0  0  0
 57132  1  0  0  0
 58133  1  0  0  0
 59 60  1  0  0  0
 59 61  1  0  0  0
 59 62  1  0  0  0
 60134  1  0  0  0
 60135  1  0  0  0
 60136  1  0  0  0
 61137  1  0  0  0
 61138  1  0  0  0
 61139  1  0  0  0
 62140  1  0  0  0
 62141  1  0  0  0
 62142  1  0  0  0
 63 65  1  0  0  0
 63143  1  0  0  0
 63144  1  0  0  0
 63145  1  0  0  0
 64146  1  0  0  0
 65147  1  0  0  0
 68 84  1  0  0  0
 71 73  2  0  0  0
 71 75  1  0  0  0
 71148  1  0  0  0
 72 74  1  0  0  0
 72 76  2  0  0  0
 72149  1  0  0  0
 73 76  1  0  0  0
 73 84  1  0  0  0
 74 75  2  0  0  0
 74 85  1  0  0  0
 75 87  1  0  0  0
 76 88  1  0  0  0
 77 78  2  0  0  0
 77 79  1  0  0  0
 77 85  1  0  0  0
 78 82  1  0  0  0
 78150  1  0  0  0
 79 81  1  0  0  0
 79151  1  0  0  0
 79152  1  0  0  0
 80 81  1  0  0  0
 80 85  1  0  0  0
 80153  1  0  0  0
 80154  1  0  0  0
 81 86  1  0  0  0
 81155  1  0  0  0
 82156  1  0  0  0
 82157  1  0  0  0
 82158  1  0  0  0
 83 86  1  0  0  0
 83159  1  0  0  0
 83160  1  0  0  0
 83161  1  0  0  0
 84162  1  0  0  0
 84163  1  0  0  0
M  ISO  4   1 100  68 101  84 101  86 100
M  END
> <chiral flag>
0

> <version>
0

> <s_m_source_file>
/data/baiqing/PycharmProjects/Reinvent-master-3.2/result/LINK_invent/BTK/process_docking_weight1_custom_product_contain_oxygen_bond_distance_aromatic_linkinvent_7_9_3/rearranged_h_0028.sdf

> <i_m_source_file_index>
73

> <r_mmod_Potential_Energy-OPLS-2005>
373.560241699219

> <r_mmod_Stretch_Energy-OPLS-2005>
102.475028991699

> <r_mmod_Bend_Energy-OPLS-2005>
230.676712036133

> <r_mmod_Torsional_Energy-OPLS-2005>
323.310089111328

> <r_mmod_Improper_Torsional_Energy-OPLS-2005>
8.64037799835205

> <r_mmod_Van_der_Waal_Energy-OPLS-2005>
163.050689697266

> <r_mmod_Electrostatic_Energy-OPLS-2005>
-320.292724609375

> <r_mmod_Solvation_Energy-OPLS-2005>
-193.414260864258

> <b_mmod_Minimization_Converged-OPLS-2005>
0

> <r_mmod_RMS_Derivative-OPLS-2005>
4.37351703643799

$$$$
73
                    3D
 Structure written by MMmdl.
153162  0  0  1  0            999 V2000
  -30.6458  -14.7093   20.4703 C   0  0  0  0  0  0
  -30.4226  -12.4377   19.4657 C   0  0  0  0  0  0
  -29.5025  -12.5006   18.2288 C   0  0  0  0  0  0
  -28.0292  -12.3316   18.6457 C   0  0  0  0  0  0
  -27.6392  -13.2332   19.8480 C   0  0  2  0  0  0
  -28.6849  -13.1696   20.9816 C   0  0  0  0  0  0
  -25.2498  -13.8204   20.5700 C   0  0  0  0  0  0
  -24.1792  -13.0443   20.9207 C   0  0  0  0  0  0
  -24.6389  -11.6922   20.8749 C   0  0  0  0  0  0
  -23.9070  -10.4295   21.0408 C   0  0  0  0  0  0
  -24.3621   -9.4209   21.9184 C   0  0  0  0  0  0
  -23.6295   -8.2245   22.0754 C   0  0  0  0  0  0
  -22.4277   -8.0282   21.3544 C   0  0  0  0  0  0
  -21.9914   -9.0256   20.4646 C   0  0  0  0  0  0
  -22.7242  -10.2135   20.3056 C   0  0  0  0  0  0
  -21.6854   -6.0736   22.5279 C   0  0  0  0  0  0
  -21.4015   -6.5640   23.8212 C   0  0  0  0  0  0
  -21.3660   -5.6793   24.9174 C   0  0  0  0  0  0
  -21.6044   -4.3055   24.7225 C   0  0  0  0  0  0
  -21.8819   -3.8147   23.4346 C   0  0  0  0  0  0
  -21.9193   -4.6964   22.3402 C   0  0  0  0  0  0
  -22.7814  -13.5221   21.1868 C   0  0  0  0  0  0
  -22.1661   -4.2149   21.0980 F   0  0  0  0  0  0
  -21.5628   -3.4539   25.7738 F   0  0  0  0  0  0
  -29.9853  -13.5062   20.3923 N   0  0  0  0  0  0
  -26.2925  -12.9416   20.3284 N   0  0  0  0  0  0
  -25.9319  -11.6555   20.5757 N   0  0  0  0  0  0
  -22.0465  -12.8208   22.0426 N   0  0  0  0  0  0
  -25.4178  -15.1929   20.4128 N   0  0  0  0  0  0
  -31.8401  -14.7669   20.1688 O   0  0  0  0  0  0
  -21.6641   -6.8879   21.4241 O   0  0  0  0  0  0
  -22.3493  -14.5524   20.6715 O   0  0  0  0  0  0
  -24.6299  -31.8562   23.1991 C   0  0  0  0  0  0
  -25.9131  -32.4758   23.8332 C   0  0  1  0  0  0
  -27.2195  -27.2760   20.1195 C   0  0  0  0  0  0
  -25.5931  -33.8561   24.2257 N   0  0  0  0  0  0
  -23.4250  -30.4795   21.5428 C   0  0  2  0  0  0
  -24.8699  -28.9271   20.1110 C   0  0  0  0  0  0
  -22.7492  -29.4608   22.4921 C   0  0  0  0  0  0
  -18.0290  -28.1386   22.8485 C   0  0  0  0  0  0
  -24.1490  -36.7286   23.2640 C   0  0  0  0  0  0
  -25.9697  -30.7734   21.3758 C   0  0  0  0  0  0
  -26.0412  -29.3971   20.7172 C   0  0  0  0  0  0
  -27.2172  -28.5834   20.7105 C   0  0  0  0  0  0
  -26.0185  -26.8635   19.4986 C   0  0  0  0  0  0
  -24.8627  -27.6676   19.4934 C   0  0  0  0  0  0
  -23.6412  -29.8135   20.1587 C   0  0  0  0  0  0
  -25.4117  -36.3072   24.0326 C   0  0  1  0  0  0
  -20.5892  -28.3695   23.1275 C   0  0  2  0  0  0
  -20.6778  -26.9414   22.5409 C   0  0  0  0  0  0
  -19.5753  -26.6383   21.5213 C   0  0  0  0  0  0
  -18.1934  -26.7928   22.1625 C   0  0  0  0  0  0
  -19.1543  -28.8857   23.2875 C   0  0  0  0  0  0
  -18.9464  -30.1459   23.8893 C   0  0  0  0  0  0
  -17.6463  -30.6588   24.0562 C   0  0  0  0  0  0
  -25.9057  -34.9442   23.5094 C   0  0  0  0  0  0
  -16.5354  -29.9085   23.6331 C   0  0  0  0  0  0
  -16.7276  -28.6502   23.0352 C   0  0  0  0  0  0
  -26.4501  -31.6582   25.0719 C   0  0  0  0  0  0
  -25.3724  -31.3730   26.1439 C   0  0  0  0  0  0
  -27.0351  -30.3001   24.6202 C   0  0  0  0  0  0
  -27.6052  -32.4325   25.7495 C   0  0  0  0  0  0
  -27.5579  -37.1800   24.8465 C   0  0  0  0  0  0
  -21.4201  -29.3043   22.3665 N   0  0  0  0  0  0
  -26.4292  -37.3770   23.9406 N   0  0  0  0  0  0
  -24.6941  -31.0541   22.0958 N   0  0  0  0  0  0
  -23.4200  -28.8150   23.3016 O   0  0  0  0  0  0
  -28.3367  -26.4151   20.1742 O   0  0  0  0  0  0
  -26.5630  -34.8916   22.4664 O   0  0  0  0  0  0
  -23.5454  -32.1379   23.7297 O   0  0  0  0  0  0
  -28.2267  -20.5261   20.6861 C   0  0  0  0  0  0
  -30.3429  -21.0562   19.8025 C   0  0  0  0  0  0
  -29.9306  -18.6890   20.5353 C   0  0  0  0  0  0
  -29.0538  -21.5590   20.1347 C   0  0  0  0  0  0
  -28.6317  -19.1558   20.8841 C   0  0  0  0  0  0
  -30.7690  -19.7051   19.9912 C   0  0  0  0  0  0
  -29.5439  -24.1029   19.6739 C   0  0  0  0  0  0
  -27.6821  -23.8053   20.5376 C   0  0  0  0  0  0
  -28.2579  -25.0008   19.6849 C   0  0  0  0  0  0
  -30.5568  -17.2578   20.8832 C   0  0  0  0  0  0
  -28.6377  -22.9470   19.8091 N   0  0  0  0  0  0
  -29.9354  -15.8764   20.7001 N   0  0  0  0  0  0
  -27.7539  -18.2888   21.4442 F   0  0  0  0  0  0
  -32.0441  -19.3971   19.6495 F   0  0  0  0  0  0
  -31.4650  -12.5471   19.1618 H   0  0  0  0  0  0
  -30.3545  -11.4624   19.9504 H   0  0  0  0  0  0
  -29.7793  -11.7272   17.5111 H   0  0  0  0  0  0
  -29.6342  -13.4555   17.7176 H   0  0  0  0  0  0
  -27.8827  -11.2833   18.9085 H   0  0  0  0  0  0
  -27.3710  -12.5259   17.7980 H   0  0  0  0  0  0
  -27.6336  -14.2548   19.4672 H   0  0  0  0  0  0
  -28.7145  -12.1757   21.4304 H   0  0  0  0  0  0
  -28.4274  -13.8620   21.7847 H   0  0  0  0  0  0
  -25.2765   -9.5686   22.4760 H   0  0  0  0  0  0
  -24.0005   -7.4636   22.7473 H   0  0  0  0  0  0
  -21.0845   -8.8775   19.8952 H   0  0  0  0  0  0
  -22.3700  -10.9674   19.6167 H   0  0  0  0  0  0
  -21.2009   -7.6148   23.9716 H   0  0  0  0  0  0
  -21.1482   -6.0523   25.9077 H   0  0  0  0  0  0
  -22.0598   -2.7609   23.2846 H   0  0  0  0  0  0
  -22.4090  -11.9873   22.4814 H   0  0  0  0  0  0
  -21.1081  -13.1226   22.2635 H   0  0  0  0  0  0
  -24.6529  -15.8468   20.5380 H   0  0  0  0  0  0
  -26.2704  -15.6405   20.1022 H   0  0  0  0  0  0
  -26.7196  -32.5410   23.1072 H   0  0  0  0  0  0
  -25.0070  -33.9698   25.0397 H   0  0  0  0  0  0
  -22.7209  -31.3014   21.3981 H   0  0  0  0  0  0
  -23.3753  -35.9618   23.3302 H   0  0  0  0  0  0
  -24.3579  -36.8911   22.2054 H   0  0  0  0  0  0
  -23.7244  -37.6487   23.6666 H   0  0  0  0  0  0
  -26.1074  -31.5352   20.6073 H   0  0  0  0  0  0
  -26.8479  -30.8210   22.0083 H   0  0  0  0  0  0
  -28.1160  -28.9405   21.1936 H   0  0  0  0  0  0
  -25.9315  -25.8966   19.0279 H   0  0  0  0  0  0
  -23.9625  -27.2994   19.0206 H   0  0  0  0  0  0
  -23.7652  -30.5897   19.4027 H   0  0  0  0  0  0
  -22.7592  -29.2470   19.8545 H   0  0  0  0  0  0
  -25.1300  -36.1920   25.0818 H   0  0  0  0  0  0
  -20.9984  -28.3272   24.1395 H   0  0  0  0  0  0
  -20.5679  -26.2305   23.3612 H   0  0  0  0  0  0
  -21.6646  -26.7441   22.1202 H   0  0  0  0  0  0
  -19.6916  -25.6293   21.1245 H   0  0  0  0  0  0
  -19.6690  -27.3192   20.6741 H   0  0  0  0  0  0
  -17.4203  -26.6674   21.4028 H   0  0  0  0  0  0
  -18.0336  -26.0071   22.9023 H   0  0  0  0  0  0
  -19.7940  -30.7276   24.2260 H   0  0  0  0  0  0
  -17.5017  -31.6267   24.5164 H   0  0  0  0  0  0
  -15.5355  -30.2985   23.7657 H   0  0  0  0  0  0
  -15.8677  -28.0820   22.7069 H   0  0  0  0  0  0
  -24.5902  -30.7076   25.7765 H   0  0  0  0  0  0
  -24.8911  -32.2898   26.4853 H   0  0  0  0  0  0
  -25.8039  -30.8914   27.0222 H   0  0  0  0  0  0
  -26.2936  -29.6744   24.1220 H   0  0  0  0  0  0
  -27.4029  -29.7267   25.4721 H   0  0  0  0  0  0
  -27.8814  -30.4278   23.9447 H   0  0  0  0  0  0
  -27.2655  -33.3626   26.2064 H   0  0  0  0  0  0
  -28.3867  -32.6886   25.0328 H   0  0  0  0  0  0
  -28.0716  -31.8458   26.5419 H   0  0  0  0  0  0
  -28.2597  -38.0096   24.7509 H   0  0  0  0  0  0
  -28.1075  -36.2627   24.6297 H   0  0  0  0  0  0
  -27.2296  -37.1455   25.8868 H   0  0  0  0  0  0
  -20.9385  -29.8765   21.6870 H   0  0  0  0  0  0
  -26.0171  -38.2845   24.1402 H   0  0  0  0  0  0
  -27.2155  -20.7847   20.9638 H   0  0  0  0  0  0
  -31.0581  -21.7352   19.3624 H   0  0  0  0  0  0
  -30.1899  -24.2432   20.5429 H   0  0  0  0  0  0
  -30.1017  -24.1329   18.7370 H   0  0  0  0  0  0
  -26.6330  -23.5798   20.3425 H   0  0  0  0  0  0
  -27.8986  -23.8771   21.6053 H   0  0  0  0  0  0
  -27.8496  -24.9981   18.6717 H   0  0  0  0  0  0
  -30.8110  -17.3162   21.9419 H   0  0  0  0  0  0
  -31.5242  -17.2293   20.3825 H   0  0  0  0  0  0
  -28.9447  -15.7903   20.8689 H   0  0  0  0  0  0
  1 25  1  0  0  0
  1 30  2  0  0  0
  1 82  1  0  0  0
  2  3  1  0  0  0
  2 25  1  0  0  0
  2 85  1  0  0  0
  2 86  1  0  0  0
  3  4  1  0  0  0
  3 87  1  0  0  0
  3 88  1  0  0  0
  4  5  1  0  0  0
  4 89  1  0  0  0
  4 90  1  0  0  0
  5  6  1  0  0  0
  5 26  1  0  0  0
  5 91  1  0  0  0
  6 25  1  0  0  0
  6 92  1  0  0  0
  6 93  1  0  0  0
  7  8  2  0  0  0
  7 26  1  0  0  0
  7 29  1  0  0  0
  8  9  1  0  0  0
  8 22  1  0  0  0
  9 10  1  0  0  0
  9 27  2  0  0  0
 10 11  2  0  0  0
 10 15  1  0  0  0
 11 12  1  0  0  0
 11 94  1  0  0  0
 12 13  2  0  0  0
 12 95  1  0  0  0
 13 14  1  0  0  0
 13 31  1  0  0  0
 14 15  2  0  0  0
 14 96  1  0  0  0
 15 97  1  0  0  0
 16 17  2  0  0  0
 16 21  1  0  0  0
 16 31  1  0  0  0
 17 18  1  0  0  0
 17 98  1  0  0  0
 18 19  2  0  0  0
 18 99  1  0  0  0
 19 20  1  0  0  0
 19 24  1  0  0  0
 20 21  2  0  0  0
 20100  1  0  0  0
 21 23  1  0  0  0
 22 28  1  0  0  0
 22 32  2  0  0  0
 26 27  1  0  0  0
 28101  1  0  0  0
 28102  1  0  0  0
 29103  1  0  0  0
 29104  1  0  0  0
 33 34  1  0  0  0
 33 66  1  0  0  0
 33 70  2  0  0  0
 34 36  1  0  0  0
 34 59  1  0  0  0
 34105  1  0  0  0
 35 44  2  0  0  0
 35 45  1  0  0  0
 35 68  1  0  0  0
 36 56  1  0  0  0
 36106  1  0  0  0
 37 39  1  0  0  0
 37 47  1  0  0  0
 37 66  1  0  0  0
 37107  1  0  0  0
 38 43  2  0  0  0
 38 46  1  0  0  0
 38 47  1  0  0  0
 39 64  1  0  0  0
 39 67  2  0  0  0
 40 52  1  0  0  0
 40 53  2  0  0  0
 40 58  1  0  0  0
 41108  1  0  0  0
 41109  1  0  0  0
 41110  1  0  0  0
 41 48  1  0  0  0
 42 43  1  0  0  0
 42 66  1  0  0  0
 42111  1  0  0  0
 42112  1  0  0  0
 43 44  1  0  0  0
 44113  1  0  0  0
 45 46  2  0  0  0
 45114  1  0  0  0
 46115  1  0  0  0
 47116  1  0  0  0
 47117  1  0  0  0
 48 56  1  0  0  0
 48 65  1  0  0  0
 48118  1  0  0  0
 49 50  1  0  0  0
 49 53  1  0  0  0
 49 64  1  0  0  0
 49119  1  0  0  0
 50 51  1  0  0  0
 50120  1  0  0  0
 50121  1  0  0  0
 51 52  1  0  0  0
 51122  1  0  0  0
 51123  1  0  0  0
 52124  1  0  0  0
 52125  1  0  0  0
 53 54  1  0  0  0
 54 55  2  0  0  0
 54126  1  0  0  0
 55 57  1  0  0  0
 55127  1  0  0  0
 56 69  2  0  0  0
 57 58  2  0  0  0
 57128  1  0  0  0
 58129  1  0  0  0
 59 60  1  0  0  0
 59 61  1  0  0  0
 59 62  1  0  0  0
 60130  1  0  0  0
 60131  1  0  0  0
 60132  1  0  0  0
 61133  1  0  0  0
 61134  1  0  0  0
 61135  1  0  0  0
 62136  1  0  0  0
 62137  1  0  0  0
 62138  1  0  0  0
 63 65  1  0  0  0
 63139  1  0  0  0
 63140  1  0  0  0
 63141  1  0  0  0
 64142  1  0  0  0
 65143  1  0  0  0
 68 79  1  0  0  0
 71 74  2  0  0  0
 71 75  1  0  0  0
 71144  1  0  0  0
 72 74  1  0  0  0
 72 76  2  0  0  0
 72145  1  0  0  0
 73 75  2  0  0  0
 73 76  1  0  0  0
 73 80  1  0  0  0
 74 81  1  0  0  0
 75 83  1  0  0  0
 76 84  1  0  0  0
 77 79  1  0  0  0
 77 81  1  0  0  0
 77146  1  0  0  0
 77147  1  0  0  0
 78 79  1  0  0  0
 78 81  1  0  0  0
 78148  1  0  0  0
 78149  1  0  0  0
 79150  1  0  0  0
 80 82  1  0  0  0
 80151  1  0  0  0
 80152  1  0  0  0
 82153  1  0  0  0
M  ISO  4   1 100  68 101  79 101  82 100
M  END
> <chiral flag>
0

> <version>
0

> <s_m_source_file>
/data/baiqing/PycharmProjects/Reinvent-master-3.2/result/LINK_invent/BTK/process_docking_weight1_custom_product_contain_oxygen_bond_distance_aromatic_linkinvent_7_9_3/rearranged_h_0028.sdf

> <i_m_source_file_index>
74

> <r_mmod_Potential_Energy-OPLS-2005>
208.656005859375

> <r_mmod_Stretch_Energy-OPLS-2005>
102.707336425781

> <r_mmod_Bend_Energy-OPLS-2005>
240.870712280273

> <r_mmod_Torsional_Energy-OPLS-2005>
216.946304321289

> <r_mmod_Improper_Torsional_Energy-OPLS-2005>
11.2101039886475

> <r_mmod_Van_der_Waal_Energy-OPLS-2005>
144.857955932617

> <r_mmod_Electrostatic_Energy-OPLS-2005>
-359.823059082031

> <r_mmod_Solvation_Energy-OPLS-2005>
-221.443054199219

> <b_mmod_Minimization_Converged-OPLS-2005>
1

> <r_mmod_RMS_Derivative-OPLS-2005>
0.0167735647410154

$$$$
74
                    3D
 Structure written by MMmdl.
165174  0  0  1  0            999 V2000
  -30.7253  -14.6023   20.4736 C   0  0  0  0  0  0
  -30.4208  -12.3667   19.4562 C   0  0  0  0  0  0
  -29.5010  -12.4821   18.2245 C   0  0  0  0  0  0
  -28.0294  -12.3244   18.6501 C   0  0  0  0  0  0
  -27.6535  -13.2246   19.8595 C   0  0  2  0  0  0
  -28.7081  -13.1405   20.9885 C   0  0  0  0  0  0
  -25.2597  -13.8204   20.5733 C   0  0  0  0  0  0
  -24.1862  -13.0482   20.9235 C   0  0  0  0  0  0
  -24.6412  -11.6942   20.8787 C   0  0  0  0  0  0
  -23.9095  -10.4312   21.0439 C   0  0  0  0  0  0
  -24.3626   -9.4224   21.9224 C   0  0  0  0  0  0
  -23.6296   -8.2266   22.0787 C   0  0  0  0  0  0
  -22.4293   -8.0302   21.3551 C   0  0  0  0  0  0
  -21.9935   -9.0294   20.4666 C   0  0  0  0  0  0
  -22.7272  -10.2170   20.3080 C   0  0  0  0  0  0
  -21.6852   -6.0783   22.5297 C   0  0  0  0  0  0
  -21.4010   -6.5672   23.8236 C   0  0  0  0  0  0
  -21.3638   -5.6810   24.9189 C   0  0  0  0  0  0
  -21.6035   -4.3078   24.7225 C   0  0  0  0  0  0
  -21.8805   -3.8185   23.4344 C   0  0  0  0  0  0
  -21.9185   -4.7013   22.3407 C   0  0  0  0  0  0
  -22.7878  -13.5275   21.1875 C   0  0  0  0  0  0
  -22.1648   -4.2204   21.0988 F   0  0  0  0  0  0
  -21.5623   -3.4547   25.7729 F   0  0  0  0  0  0
  -30.0164  -13.4333   20.3902 N   0  0  0  0  0  0
  -26.3038  -12.9392   20.3396 N   0  0  0  0  0  0
  -25.9355  -11.6551   20.5859 N   0  0  0  0  0  0
  -22.0484  -12.8268   22.0402 N   0  0  0  0  0  0
  -25.4351  -15.1932   20.4108 N   0  0  0  0  0  0
  -31.9401  -14.6079   20.2643 O   0  0  0  0  0  0
  -21.6637   -6.8926   21.4255 O   0  0  0  0  0  0
  -22.3585  -14.5598   20.6751 O   0  0  0  0  0  0
  -24.6147  -31.8638   23.2093 C   0  0  0  0  0  0
  -25.9001  -32.4799   23.8424 C   0  0  1  0  0  0
  -27.2319  -27.3573   20.1511 C   0  0  0  0  0  0
  -25.5824  -33.8616   24.2310 N   0  0  0  0  0  0
  -23.4110  -30.4861   21.5423 C   0  0  2  0  0  0
  -24.8705  -28.9510   20.1071 C   0  0  0  0  0  0
  -22.7432  -29.4634   22.4914 C   0  0  0  0  0  0
  -18.0259  -28.1403   22.8514 C   0  0  0  0  0  0
  -24.1463  -36.7297   23.2657 C   0  0  0  0  0  0
  -25.9483  -30.8077   21.3823 C   0  0  0  0  0  0
  -26.0259  -29.4360   20.7331 C   0  0  0  0  0  0
  -27.2103  -28.6475   20.7506 C   0  0  0  0  0  0
  -26.0697  -26.9258   19.4757 C   0  0  0  0  0  0
  -24.8931  -27.7040   19.4629 C   0  0  0  0  0  0
  -23.6305  -29.8211   20.1569 C   0  0  0  0  0  0
  -25.4091  -36.3087   24.0335 C   0  0  1  0  0  0
  -20.5870  -28.3697   23.1304 C   0  0  2  0  0  0
  -20.6767  -26.9424   22.5409 C   0  0  0  0  0  0
  -19.5717  -26.6395   21.5241 C   0  0  0  0  0  0
  -18.1893  -26.7941   22.1657 C   0  0  0  0  0  0
  -19.1519  -28.8864   23.2908 C   0  0  0  0  0  0
  -18.9450  -30.1481   23.8913 C   0  0  0  0  0  0
  -17.6454  -30.6615   24.0589 C   0  0  0  0  0  0
  -25.9023  -34.9459   23.5133 C   0  0  0  0  0  0
  -16.5345  -29.9115   23.6357 C   0  0  0  0  0  0
  -16.7256  -28.6536   23.0371 C   0  0  0  0  0  0
  -26.4429  -31.6624   25.0787 C   0  0  0  0  0  0
  -25.3674  -31.3716   26.1519 C   0  0  0  0  0  0
  -27.0348  -30.3062   24.6258 C   0  0  0  0  0  0
  -27.5941  -32.4455   25.7537 C   0  0  0  0  0  0
  -27.5557  -37.1801   24.8468 C   0  0  0  0  0  0
  -21.4139  -29.3058   22.3681 N   0  0  0  0  0  0
  -26.4273  -37.3775   23.9416 N   0  0  0  0  0  0
  -24.6747  -31.0700   22.1014 N   0  0  0  0  0  0
  -23.4174  -28.8165   23.2974 O   0  0  0  0  0  0
  -28.3600  -26.5387   20.2012 O   0  0  0  0  0  0
  -26.5629  -34.8903   22.4719 O   0  0  0  0  0  0
  -23.5315  -32.1427   23.7432 O   0  0  0  0  0  0
  -30.8050  -18.1557   22.5076 C   0  0  0  0  0  0
  -31.2655  -19.3783   23.0119 C   0  0  0  0  0  0
  -30.0051  -18.1040   21.3496 C   0  0  0  0  0  0
  -29.7617  -19.3449   20.6384 C   0  0  0  0  0  0
  -30.2946  -20.6080   21.1086 C   0  0  0  0  0  0
  -30.9945  -20.5858   22.3504 C   0  0  0  0  0  0
  -30.5701  -24.1256   20.9959 C   0  0  0  0  0  0
  -31.2588  -22.8556   20.4761 C   0  0  0  0  0  0
  -28.9528  -22.5953   20.1272 C   0  0  0  0  0  0
  -29.2820  -24.1320   20.1769 C   0  0  1  0  0  0
  -28.9400  -19.3331   19.3575 C   0  0  0  0  0  0
  -30.4017  -16.3696   18.8460 C   0  0  0  0  0  0
  -29.3628  -16.7044   21.0430 C   0  0  0  0  0  0
  -28.1644  -25.1463   20.6306 C   0  0  0  0  0  0
  -30.2057  -21.8430   20.3623 N   0  0  0  0  0  0
  -30.0450  -15.7437   20.1253 N   0  0  0  0  0  0
  -31.4135  -21.7215   22.9604 F   0  0  0  0  0  0
  -31.4671  -12.4441   19.1564 H   0  0  0  0  0  0
  -30.3156  -11.3884   19.9287 H   0  0  0  0  0  0
  -29.7616  -11.7241   17.4855 H   0  0  0  0  0  0
  -29.6463  -13.4479   17.7398 H   0  0  0  0  0  0
  -27.8831  -11.2762   18.9174 H   0  0  0  0  0  0
  -27.3616  -12.5193   17.8095 H   0  0  0  0  0  0
  -27.6576  -14.2495   19.4887 H   0  0  0  0  0  0
  -28.7148  -12.1489   21.4427 H   0  0  0  0  0  0
  -28.4768  -13.8452   21.7881 H   0  0  0  0  0  0
  -25.2755   -9.5728   22.4825 H   0  0  0  0  0  0
  -24.0008   -7.4671   22.7506 H   0  0  0  0  0  0
  -21.0885   -8.8830   19.8955 H   0  0  0  0  0  0
  -22.3741  -10.9734   19.6205 H   0  0  0  0  0  0
  -21.1985   -7.6167   23.9763 H   0  0  0  0  0  0
  -21.1467   -6.0532   25.9096 H   0  0  0  0  0  0
  -22.0580   -2.7651   23.2832 H   0  0  0  0  0  0
  -22.4013  -11.9864   22.4716 H   0  0  0  0  0  0
  -21.1135  -13.1391   22.2641 H   0  0  0  0  0  0
  -24.6793  -15.8600   20.5182 H   0  0  0  0  0  0
  -26.2919  -15.6157   20.0780 H   0  0  0  0  0  0
  -26.7072  -32.5510   23.1190 H   0  0  0  0  0  0
  -24.9911  -33.9805   25.0407 H   0  0  0  0  0  0
  -22.6988  -31.3009   21.3964 H   0  0  0  0  0  0
  -23.3718  -35.9633   23.3330 H   0  0  0  0  0  0
  -24.3554  -36.8936   22.2074 H   0  0  0  0  0  0
  -23.7245  -37.6497   23.6711 H   0  0  0  0  0  0
  -26.0773  -31.5733   20.6160 H   0  0  0  0  0  0
  -26.8267  -30.8629   22.0147 H   0  0  0  0  0  0
  -28.0939  -29.0057   21.2612 H   0  0  0  0  0  0
  -26.0679  -25.9847   18.9451 H   0  0  0  0  0  0
  -24.0186  -27.3447   18.9405 H   0  0  0  0  0  0
  -23.7305  -30.5974   19.3983 H   0  0  0  0  0  0
  -22.7592  -29.2349   19.8603 H   0  0  0  0  0  0
  -25.1272  -36.1933   25.0826 H   0  0  0  0  0  0
  -20.9988  -28.3297   24.1424 H   0  0  0  0  0  0
  -20.5737  -26.2308   23.3608 H   0  0  0  0  0  0
  -21.6616  -26.7495   22.1152 H   0  0  0  0  0  0
  -19.6880  -25.6307   21.1262 H   0  0  0  0  0  0
  -19.6642  -27.3227   20.6786 H   0  0  0  0  0  0
  -17.4159  -26.6725   21.4045 H   0  0  0  0  0  0
  -18.0274  -26.0064   22.9039 H   0  0  0  0  0  0
  -19.7926  -30.7304   24.2268 H   0  0  0  0  0  0
  -17.5007  -31.6286   24.5197 H   0  0  0  0  0  0
  -15.5356  -30.3037   23.7673 H   0  0  0  0  0  0
  -15.8651  -28.0882   22.7096 H   0  0  0  0  0  0
  -24.5789  -30.7143   25.7819 H   0  0  0  0  0  0
  -24.8923  -32.2868   26.5048 H   0  0  0  0  0  0
  -25.7990  -30.8785   27.0233 H   0  0  0  0  0  0
  -26.2980  -29.6764   24.1251 H   0  0  0  0  0  0
  -27.4020  -29.7358   25.4797 H   0  0  0  0  0  0
  -27.8820  -30.4359   23.9528 H   0  0  0  0  0  0
  -27.2467  -33.3757   26.2035 H   0  0  0  0  0  0
  -28.3732  -32.7057   25.0368 H   0  0  0  0  0  0
  -28.0600  -31.8675   26.5511 H   0  0  0  0  0  0
  -28.2543  -38.0128   24.7558 H   0  0  0  0  0  0
  -28.1095  -36.2663   24.6254 H   0  0  0  0  0  0
  -27.2286  -37.1408   25.8874 H   0  0  0  0  0  0
  -20.9296  -29.8806   21.6928 H   0  0  0  0  0  0
  -26.0133  -38.2832   24.1443 H   0  0  0  0  0  0
  -31.0266  -17.2569   23.0671 H   0  0  0  0  0  0
  -31.8226  -19.4044   23.9368 H   0  0  0  0  0  0
  -31.1687  -25.0235   20.8466 H   0  0  0  0  0  0
  -30.3534  -24.0344   22.0627 H   0  0  0  0  0  0
  -32.1260  -22.5748   21.0719 H   0  0  0  0  0  0
  -31.6445  -23.0500   19.4749 H   0  0  0  0  0  0
  -28.5844  -22.3659   19.1258 H   0  0  0  0  0  0
  -28.1861  -22.3099   20.8457 H   0  0  0  0  0  0
  -29.5505  -24.4177   19.1597 H   0  0  0  0  0  0
  -28.3394  -18.4361   19.2437 H   0  0  0  0  0  0
  -29.5939  -19.4157   18.4905 H   0  0  0  0  0  0
  -28.2331  -20.1598   19.3391 H   0  0  0  0  0  0
  -29.5114  -16.7603   18.3546 H   0  0  0  0  0  0
  -30.8581  -15.6695   18.1420 H   0  0  0  0  0  0
  -31.1087  -17.1866   18.9931 H   0  0  0  0  0  0
  -28.3453  -16.8522   20.6859 H   0  0  0  0  0  0
  -29.2162  -16.2039   22.0018 H   0  0  0  0  0  0
  -28.0874  -25.1292   21.7205 H   0  0  0  0  0  0
  -27.2077  -24.7454   20.2954 H   0  0  0  0  0  0
  1 25  1  0  0  0
  1 30  2  0  0  0
  1 86  1  0  0  0
  2  3  1  0  0  0
  2 25  1  0  0  0
  2 88  1  0  0  0
  2 89  1  0  0  0
  3  4  1  0  0  0
  3 90  1  0  0  0
  3 91  1  0  0  0
  4  5  1  0  0  0
  4 92  1  0  0  0
  4 93  1  0  0  0
  5  6  1  0  0  0
  5 26  1  0  0  0
  5 94  1  0  0  0
  6 25  1  0  0  0
  6 95  1  0  0  0
  6 96  1  0  0  0
  7  8  2  0  0  0
  7 26  1  0  0  0
  7 29  1  0  0  0
  8  9  1  0  0  0
  8 22  1  0  0  0
  9 10  1  0  0  0
  9 27  2  0  0  0
 10 11  2  0  0  0
 10 15  1  0  0  0
 11 12  1  0  0  0
 11 97  1  0  0  0
 12 13  2  0  0  0
 12 98  1  0  0  0
 13 14  1  0  0  0
 13 31  1  0  0  0
 14 15  2  0  0  0
 14 99  1  0  0  0
 15100  1  0  0  0
 16 17  2  0  0  0
 16 21  1  0  0  0
 16 31  1  0  0  0
 17 18  1  0  0  0
 17101  1  0  0  0
 18 19  2  0  0  0
 18102  1  0  0  0
 19 20  1  0  0  0
 19 24  1  0  0  0
 20 21  2  0  0  0
 20103  1  0  0  0
 21 23  1  0  0  0
 22 28  1  0  0  0
 22 32  2  0  0  0
 26 27  1  0  0  0
 28104  1  0  0  0
 28105  1  0  0  0
 29106  1  0  0  0
 29107  1  0  0  0
 33 34  1  0  0  0
 33 66  1  0  0  0
 33 70  2  0  0  0
 34 36  1  0  0  0
 34 59  1  0  0  0
 34108  1  0  0  0
 35 44  2  0  0  0
 35 45  1  0  0  0
 35 68  1  0  0  0
 36 56  1  0  0  0
 36109  1  0  0  0
 37 39  1  0  0  0
 37 47  1  0  0  0
 37 66  1  0  0  0
 37110  1  0  0  0
 38 43  2  0  0  0
 38 46  1  0  0  0
 38 47  1  0  0  0
 39 64  1  0  0  0
 39 67  2  0  0  0
 40 52  1  0  0  0
 40 53  2  0  0  0
 40 58  1  0  0  0
 41111  1  0  0  0
 41112  1  0  0  0
 41113  1  0  0  0
 41 48  1  0  0  0
 42 43  1  0  0  0
 42 66  1  0  0  0
 42114  1  0  0  0
 42115  1  0  0  0
 43 44  1  0  0  0
 44116  1  0  0  0
 45 46  2  0  0  0
 45117  1  0  0  0
 46118  1  0  0  0
 47119  1  0  0  0
 47120  1  0  0  0
 48 56  1  0  0  0
 48 65  1  0  0  0
 48121  1  0  0  0
 49 50  1  0  0  0
 49 53  1  0  0  0
 49 64  1  0  0  0
 49122  1  0  0  0
 50 51  1  0  0  0
 50123  1  0  0  0
 50124  1  0  0  0
 51 52  1  0  0  0
 51125  1  0  0  0
 51126  1  0  0  0
 52127  1  0  0  0
 52128  1  0  0  0
 53 54  1  0  0  0
 54 55  2  0  0  0
 54129  1  0  0  0
 55 57  1  0  0  0
 55130  1  0  0  0
 56 69  2  0  0  0
 57 58  2  0  0  0
 57131  1  0  0  0
 58132  1  0  0  0
 59 60  1  0  0  0
 59 61  1  0  0  0
 59 62  1  0  0  0
 60133  1  0  0  0
 60134  1  0  0  0
 60135  1  0  0  0
 61136  1  0  0  0
 61137  1  0  0  0
 61138  1  0  0  0
 62139  1  0  0  0
 62140  1  0  0  0
 62141  1  0  0  0
 63 65  1  0  0  0
 63142  1  0  0  0
 63143  1  0  0  0
 63144  1  0  0  0
 64145  1  0  0  0
 65146  1  0  0  0
 68 84  1  0  0  0
 71 72  2  0  0  0
 71 73  1  0  0  0
 71147  1  0  0  0
 72 76  1  0  0  0
 72148  1  0  0  0
 73 74  2  0  0  0
 73 83  1  0  0  0
 74 75  1  0  0  0
 74 81  1  0  0  0
 75 76  2  0  0  0
 75 85  1  0  0  0
 76 87  1  0  0  0
 77 78  1  0  0  0
 77 80  1  0  0  0
 77149  1  0  0  0
 77150  1  0  0  0
 78 85  1  0  0  0
 78151  1  0  0  0
 78152  1  0  0  0
 79 80  1  0  0  0
 79 85  1  0  0  0
 79153  1  0  0  0
 79154  1  0  0  0
 80 84  1  0  0  0
 80155  1  0  0  0
 81156  1  0  0  0
 81157  1  0  0  0
 81158  1  0  0  0
 82 86  1  0  0  0
 82159  1  0  0  0
 82160  1  0  0  0
 82161  1  0  0  0
 83 86  1  0  0  0
 83162  1  0  0  0
 83163  1  0  0  0
 84164  1  0  0  0
 84165  1  0  0  0
M  ISO  4   1 100  68 101  84 101  86 100
M  END
> <chiral flag>
0

> <version>
0

> <s_m_source_file>
/data/baiqing/PycharmProjects/Reinvent-master-3.2/result/LINK_invent/BTK/process_docking_weight1_custom_product_contain_oxygen_bond_distance_aromatic_linkinvent_7_9_3/rearranged_h_0028.sdf

> <i_m_source_file_index>
75

> <r_mmod_Potential_Energy-OPLS-2005>
360.883270263672

> <r_mmod_Stretch_Energy-OPLS-2005>
74.2336120605469

> <r_mmod_Bend_Energy-OPLS-2005>
179.26416015625

> <r_mmod_Torsional_Energy-OPLS-2005>
366.988220214844

> <r_mmod_Improper_Torsional_Energy-OPLS-2005>
29.0612926483154

> <r_mmod_Van_der_Waal_Energy-OPLS-2005>
149.856018066406

> <r_mmod_Electrostatic_Energy-OPLS-2005>
-279.103851318359

> <r_mmod_Solvation_Energy-OPLS-2005>
-207.952941894531

> <b_mmod_Minimization_Converged-OPLS-2005>
0

> <r_mmod_RMS_Derivative-OPLS-2005>
4.82634973526001

$$$$
75
                    3D
 Structure written by MMmdl.
165175  0  0  1  0            999 V2000
  -30.5589  -14.9940   20.4360 C   0  0  0  0  0  0
  -30.4353  -12.6160   19.5295 C   0  0  0  0  0  0
  -29.5323  -12.5488   18.2760 C   0  0  0  0  0  0
  -28.0703  -12.3149   18.6911 C   0  0  0  0  0  0
  -27.6326  -13.2561   19.8457 C   0  0  2  0  0  0
  -28.6668  -13.3164   20.9923 C   0  0  0  0  0  0
  -25.2486  -13.8219   20.5738 C   0  0  0  0  0  0
  -24.1784  -13.0443   20.9185 C   0  0  0  0  0  0
  -24.6394  -11.6933   20.8708 C   0  0  0  0  0  0
  -23.9076  -10.4310   21.0378 C   0  0  0  0  0  0
  -24.3616   -9.4235   21.9176 C   0  0  0  0  0  0
  -23.6283   -8.2271   22.0771 C   0  0  0  0  0  0
  -22.4263   -8.0302   21.3560 C   0  0  0  0  0  0
  -21.9893   -9.0279   20.4663 C   0  0  0  0  0  0
  -22.7231  -10.2144   20.3054 C   0  0  0  0  0  0
  -21.6855   -6.0732   22.5273 C   0  0  0  0  0  0
  -21.4019   -6.5623   23.8208 C   0  0  0  0  0  0
  -21.3664   -5.6778   24.9164 C   0  0  0  0  0  0
  -21.6045   -4.3048   24.7209 C   0  0  0  0  0  0
  -21.8822   -3.8134   23.4338 C   0  0  0  0  0  0
  -21.9204   -4.6958   22.3393 C   0  0  0  0  0  0
  -22.7815  -13.5238   21.1839 C   0  0  0  0  0  0
  -22.1678   -4.2145   21.0973 F   0  0  0  0  0  0
  -21.5625   -3.4531   25.7724 F   0  0  0  0  0  0
  -29.9472  -13.7329   20.4022 N   0  0  0  0  0  0
  -26.2911  -12.9464   20.3255 N   0  0  0  0  0  0
  -25.9320  -11.6586   20.5676 N   0  0  0  0  0  0
  -22.0459  -12.8241   22.0393 N   0  0  0  0  0  0
  -25.4216  -15.1945   20.4267 N   0  0  0  0  0  0
  -31.7261  -15.0357   20.0303 O   0  0  0  0  0  0
  -21.6645   -6.8882   21.4243 O   0  0  0  0  0  0
  -22.3522  -14.5561   20.6710 O   0  0  0  0  0  0
  -24.6478  -31.8373   23.1814 C   0  0  0  0  0  0
  -25.9231  -32.4654   23.8217 C   0  0  1  0  0  0
  -27.2335  -27.0963   20.1461 C   0  0  0  0  0  0
  -25.5969  -33.8457   24.2160 N   0  0  0  0  0  0
  -23.4540  -30.4516   21.5266 C   0  0  2  0  0  0
  -24.9048  -28.8622   20.1066 C   0  0  0  0  0  0
  -22.7594  -29.4506   22.4837 C   0  0  0  0  0  0
  -18.0320  -28.1405   22.8467 C   0  0  0  0  0  0
  -24.1490  -36.7237   23.2641 C   0  0  0  0  0  0
  -26.0105  -30.6946   21.3860 C   0  0  0  0  0  0
  -26.0799  -29.3014   20.7269 C   0  0  0  0  0  0
  -27.2376  -28.4328   20.7305 C   0  0  0  0  0  0
  -26.0311  -26.7593   19.4893 C   0  0  0  0  0  0
  -24.8951  -27.6064   19.4728 C   0  0  0  0  0  0
  -23.6831  -29.7722   20.1480 C   0  0  0  0  0  0
  -25.4122  -36.3010   24.0318 C   0  0  1  0  0  0
  -20.5932  -28.3734   23.1236 C   0  0  2  0  0  0
  -20.6802  -26.9432   22.5410 C   0  0  0  0  0  0
  -19.5779  -26.6387   21.5213 C   0  0  0  0  0  0
  -18.1959  -26.7935   22.1620 C   0  0  0  0  0  0
  -19.1571  -28.8886   23.2837 C   0  0  0  0  0  0
  -18.9480  -30.1483   23.8870 C   0  0  0  0  0  0
  -17.6472  -30.6589   24.0562 C   0  0  0  0  0  0
  -25.9086  -34.9385   23.5057 C   0  0  0  0  0  0
  -16.5372  -29.9084   23.6334 C   0  0  0  0  0  0
  -16.7296  -28.6509   23.0335 C   0  0  0  0  0  0
  -26.4538  -31.6533   25.0675 C   0  0  0  0  0  0
  -25.3722  -31.3740   26.1379 C   0  0  0  0  0  0
  -27.0402  -30.2920   24.6295 C   0  0  0  0  0  0
  -27.6070  -32.4291   25.7456 C   0  0  0  0  0  0
  -27.5580  -37.1771   24.8465 C   0  0  0  0  0  0
  -21.4279  -29.3040   22.3594 N   0  0  0  0  0  0
  -26.4289  -37.3727   23.9416 N   0  0  0  0  0  0
  -24.7237  -31.0178   22.0867 N   0  0  0  0  0  0
  -23.4225  -28.8071   23.3008 O   0  0  0  0  0  0
  -28.3159  -26.1379   20.2569 O   0  0  0  0  0  0
  -26.5662  -34.8891   22.4640 O   0  0  0  0  0  0
  -23.5586  -32.1280   23.7015 O   0  0  0  0  0  0
  -30.7222  -20.3757   22.3642 C   0  0  0  0  0  0
  -31.7206  -20.4149   23.3527 C   0  0  0  0  0  0
  -31.6340  -17.9875   23.5427 C   0  0  0  0  0  0
  -30.2057  -19.1379   21.9229 C   0  0  0  0  0  0
  -30.6232  -17.9326   22.5567 C   0  0  0  0  0  0
  -32.2015  -19.2204   23.9174 C   0  0  0  0  0  0
  -30.1022  -22.6453   19.6203 C   0  0  0  0  0  0
  -31.2355  -21.9586   19.3970 C   0  0  0  0  0  0
  -29.9772  -16.5680   22.2229 C   0  0  0  0  0  0
  -29.8968  -24.1966   19.5695 C   0  0  0  0  0  0
  -29.6056  -17.5554   19.9808 C   0  0  0  0  0  0
  -27.9702  -23.2142   20.5077 C   0  0  0  0  0  0
  -29.2596  -19.0320   20.7388 C   0  0  2  0  0  0
  -28.4057  -24.6319   19.7852 C   0  0  1  0  0  0
  -28.4704  -20.4383   20.1123 C   0  0  0  0  0  0
  -29.8731  -16.2134   20.7922 N   0  0  0  0  0  0
  -28.7954  -22.0124   19.9479 N   0  3  2  0  0  0
  -33.4786  -19.2698   25.0769 Cl  0  0  0  0  0  0
  -31.4760  -12.7470   19.2308 H   0  0  0  0  0  0
  -30.4087  -11.6692   20.0703 H   0  0  0  0  0  0
  -29.8683  -11.7605   17.6002 H   0  0  0  0  0  0
  -29.6115  -13.4816   17.7159 H   0  0  0  0  0  0
  -27.9817  -11.2754   19.0095 H   0  0  0  0  0  0
  -27.4075  -12.4316   17.8336 H   0  0  0  0  0  0
  -27.5908  -14.2538   19.4069 H   0  0  0  0  0  0
  -28.7564  -12.3523   21.4942 H   0  0  0  0  0  0
  -28.3439  -14.0302   21.7520 H   0  0  0  0  0  0
  -25.2766   -9.5691   22.4741 H   0  0  0  0  0  0
  -23.9996   -7.4646   22.7474 H   0  0  0  0  0  0
  -21.0837   -8.8797   19.8946 H   0  0  0  0  0  0
  -22.3714  -10.9682   19.6154 H   0  0  0  0  0  0
  -21.2015   -7.6135   23.9704 H   0  0  0  0  0  0
  -21.1479   -6.0507   25.9067 H   0  0  0  0  0  0
  -22.0593   -2.7598   23.2835 H   0  0  0  0  0  0
  -22.4084  -11.9908   22.4779 H   0  0  0  0  0  0
  -21.1090  -13.1294   22.2594 H   0  0  0  0  0  0
  -24.6590  -15.8503   20.5554 H   0  0  0  0  0  0
  -26.2865  -15.6375   20.1439 H   0  0  0  0  0  0
  -26.7294  -32.5230   23.0929 H   0  0  0  0  0  0
  -25.0100  -33.9542   25.0298 H   0  0  0  0  0  0
  -22.7583  -31.2781   21.3670 H   0  0  0  0  0  0
  -23.3761  -35.9557   23.3273 H   0  0  0  0  0  0
  -24.3588  -36.8894   22.2060 H   0  0  0  0  0  0
  -23.7226  -37.6421   23.6691 H   0  0  0  0  0  0
  -26.1762  -31.4452   20.6120 H   0  0  0  0  0  0
  -26.8789  -30.7454   22.0325 H   0  0  0  0  0  0
  -28.1322  -28.7637   21.2374 H   0  0  0  0  0  0
  -25.9334  -25.7956   19.0109 H   0  0  0  0  0  0
  -23.9977  -27.2646   18.9753 H   0  0  0  0  0  0
  -23.8255  -30.5451   19.3905 H   0  0  0  0  0  0
  -22.7951  -29.2190   19.8361 H   0  0  0  0  0  0
  -25.1305  -36.1838   25.0807 H   0  0  0  0  0  0
  -21.0017  -28.3328   24.1360 H   0  0  0  0  0  0
  -20.5712  -26.2334   23.3628 H   0  0  0  0  0  0
  -21.6660  -26.7434   22.1200 H   0  0  0  0  0  0
  -19.6935  -25.6294   21.1253 H   0  0  0  0  0  0
  -19.6707  -27.3187   20.6737 H   0  0  0  0  0  0
  -17.4220  -26.6664   21.4032 H   0  0  0  0  0  0
  -18.0357  -26.0105   22.9044 H   0  0  0  0  0  0
  -19.7952  -30.7304   24.2221 H   0  0  0  0  0  0
  -17.5024  -31.6260   24.5175 H   0  0  0  0  0  0
  -15.5369  -30.2969   23.7668 H   0  0  0  0  0  0
  -15.8701  -28.0823   22.7045 H   0  0  0  0  0  0
  -24.5898  -30.7090   25.7706 H   0  0  0  0  0  0
  -24.8913  -32.2924   26.4756 H   0  0  0  0  0  0
  -25.8006  -30.8940   27.0191 H   0  0  0  0  0  0
  -26.3022  -29.6620   24.1319 H   0  0  0  0  0  0
  -27.4019  -29.7240   25.4880 H   0  0  0  0  0  0
  -27.8929  -30.4124   23.9609 H   0  0  0  0  0  0
  -27.2692  -33.3636   26.1946 H   0  0  0  0  0  0
  -28.3931  -32.6782   25.0310 H   0  0  0  0  0  0
  -28.0692  -31.8470   26.5444 H   0  0  0  0  0  0
  -28.2584  -38.0082   24.7533 H   0  0  0  0  0  0
  -28.1097  -36.2619   24.6267 H   0  0  0  0  0  0
  -27.2309  -37.1379   25.8871 H   0  0  0  0  0  0
  -20.9522  -29.8731   21.6737 H   0  0  0  0  0  0
  -26.0156  -38.2800   24.1418 H   0  0  0  0  0  0
  -30.3826  -21.3077   21.9470 H   0  0  0  0  0  0
  -32.1303  -21.3644   23.6639 H   0  0  0  0  0  0
  -31.9906  -17.0853   24.0173 H   0  0  0  0  0  0
  -32.1568  -22.4680   19.1540 H   0  0  0  0  0  0
  -31.2716  -20.8806   19.4583 H   0  0  0  0  0  0
  -28.9694  -16.5662   22.6379 H   0  0  0  0  0  0
  -30.5079  -15.7918   22.7812 H   0  0  0  0  0  0
  -30.2768  -24.5965   18.6289 H   0  0  0  0  0  0
  -30.5128  -24.6294   20.3577 H   0  0  0  0  0  0
  -30.4985  -17.7102   19.3729 H   0  0  0  0  0  0
  -28.8106  -17.3410   19.2665 H   0  0  0  0  0  0
  -26.9025  -23.0345   20.3846 H   0  0  0  0  0  0
  -28.1631  -23.2836   21.5773 H   0  0  0  0  0  0
  -28.3839  -18.6759   21.2868 H   0  0  0  0  0  0
  -27.9434  -24.6168   18.7985 H   0  0  0  0  0  0
  -27.5134  -20.4755   20.6305 H   0  0  0  0  0  0
  -28.1901  -20.1456   19.1016 H   0  0  0  0  0  0
  -28.3596  -22.0159   19.0357 H   0  0  0  0  0  0
  1 25  1  0  0  0
  1 30  2  0  0  0
  1 86  1  0  0  0
  2  3  1  0  0  0
  2 25  1  0  0  0
  2 89  1  0  0  0
  2 90  1  0  0  0
  3  4  1  0  0  0
  3 91  1  0  0  0
  3 92  1  0  0  0
  4  5  1  0  0  0
  4 93  1  0  0  0
  4 94  1  0  0  0
  5  6  1  0  0  0
  5 26  1  0  0  0
  5 95  1  0  0  0
  6 25  1  0  0  0
  6 96  1  0  0  0
  6 97  1  0  0  0
  7  8  2  0  0  0
  7 26  1  0  0  0
  7 29  1  0  0  0
  8  9  1  0  0  0
  8 22  1  0  0  0
  9 10  1  0  0  0
  9 27  2  0  0  0
 10 11  2  0  0  0
 10 15  1  0  0  0
 11 12  1  0  0  0
 11 98  1  0  0  0
 12 13  2  0  0  0
 12 99  1  0  0  0
 13 14  1  0  0  0
 13 31  1  0  0  0
 14 15  2  0  0  0
 14100  1  0  0  0
 15101  1  0  0  0
 16 17  2  0  0  0
 16 21  1  0  0  0
 16 31  1  0  0  0
 17 18  1  0  0  0
 17102  1  0  0  0
 18 19  2  0  0  0
 18103  1  0  0  0
 19 20  1  0  0  0
 19 24  1  0  0  0
 20 21  2  0  0  0
 20104  1  0  0  0
 21 23  1  0  0  0
 22 28  1  0  0  0
 22 32  2  0  0  0
 26 27  1  0  0  0
 28105  1  0  0  0
 28106  1  0  0  0
 29107  1  0  0  0
 29108  1  0  0  0
 33 34  1  0  0  0
 33 66  1  0  0  0
 33 70  2  0  0  0
 34 36  1  0  0  0
 34 59  1  0  0  0
 34109  1  0  0  0
 35 44  2  0  0  0
 35 45  1  0  0  0
 35 68  1  0  0  0
 36 56  1  0  0  0
 36110  1  0  0  0
 37 39  1  0  0  0
 37 47  1  0  0  0
 37 66  1  0  0  0
 37111  1  0  0  0
 38 43  2  0  0  0
 38 46  1  0  0  0
 38 47  1  0  0  0
 39 64  1  0  0  0
 39 67  2  0  0  0
 40 52  1  0  0  0
 40 53  2  0  0  0
 40 58  1  0  0  0
 41112  1  0  0  0
 41113  1  0  0  0
 41114  1  0  0  0
 41 48  1  0  0  0
 42 43  1  0  0  0
 42 66  1  0  0  0
 42115  1  0  0  0
 42116  1  0  0  0
 43 44  1  0  0  0
 44117  1  0  0  0
 45 46  2  0  0  0
 45118  1  0  0  0
 46119  1  0  0  0
 47120  1  0  0  0
 47121  1  0  0  0
 48 56  1  0  0  0
 48 65  1  0  0  0
 48122  1  0  0  0
 49 50  1  0  0  0
 49 53  1  0  0  0
 49 64  1  0  0  0
 49123  1  0  0  0
 50 51  1  0  0  0
 50124  1  0  0  0
 50125  1  0  0  0
 51 52  1  0  0  0
 51126  1  0  0  0
 51127  1  0  0  0
 52128  1  0  0  0
 52129  1  0  0  0
 53 54  1  0  0  0
 54 55  2  0  0  0
 54130  1  0  0  0
 55 57  1  0  0  0
 55131  1  0  0  0
 56 69  2  0  0  0
 57 58  2  0  0  0
 57132  1  0  0  0
 58133  1  0  0  0
 59 60  1  0  0  0
 59 61  1  0  0  0
 59 62  1  0  0  0
 60134  1  0  0  0
 60135  1  0  0  0
 60136  1  0  0  0
 61137  1  0  0  0
 61138  1  0  0  0
 61139  1  0  0  0
 62140  1  0  0  0
 62141  1  0  0  0
 62142  1  0  0  0
 63 65  1  0  0  0
 63143  1  0  0  0
 63144  1  0  0  0
 63145  1  0  0  0
 64146  1  0  0  0
 65147  1  0  0  0
 68 84  1  0  0  0
 71 72  2  0  0  0
 71 74  1  0  0  0
 71148  1  0  0  0
 72 76  1  0  0  0
 72149  1  0  0  0
 73 75  1  0  0  0
 73 76  2  0  0  0
 73150  1  0  0  0
 74 75  2  0  0  0
 74 83  1  0  0  0
 75 79  1  0  0  0
 76 88  1  0  0  0
 77 78  2  0  0  0
 77 80  1  0  0  0
 77 87  1  0  0  0
 78151  1  0  0  0
 78152  1  0  0  0
 79 86  1  0  0  0
 79153  1  0  0  0
 79154  1  0  0  0
 80 84  1  0  0  0
 80155  1  0  0  0
 80156  1  0  0  0
 81 83  1  0  0  0
 81 86  1  0  0  0
 81157  1  0  0  0
 81158  1  0  0  0
 82 84  1  0  0  0
 82 87  1  0  0  0
 82159  1  0  0  0
 82160  1  0  0  0
 83 85  1  0  0  0
 83161  1  0  0  0
 84162  1  0  0  0
 85163  1  0  0  0
 85164  1  0  0  0
 85 87  1  0  0  0
 87165  1  0  0  0
M  CHG  1  87   1
M  ISO  4   1 100  68 101  84 101  86 100
M  END
> <chiral flag>
0

> <version>
0

> <s_m_source_file>
/data/baiqing/PycharmProjects/Reinvent-master-3.2/result/LINK_invent/BTK/process_docking_weight1_custom_product_contain_oxygen_bond_distance_aromatic_linkinvent_7_9_3/rearranged_h_0028.sdf

> <i_m_source_file_index>
76

> <r_mmod_Potential_Energy-OPLS-2005>
845.181030273438

> <r_mmod_Stretch_Energy-OPLS-2005>
310.233489990234

> <r_mmod_Bend_Energy-OPLS-2005>
474.665252685547

> <r_mmod_Torsional_Energy-OPLS-2005>
351.734527587891

> <r_mmod_Improper_Torsional_Energy-OPLS-2005>
4.98802471160889

> <r_mmod_Van_der_Waal_Energy-OPLS-2005>
125.19075012207

> <r_mmod_Electrostatic_Energy-OPLS-2005>
-194.897445678711

> <r_mmod_Solvation_Energy-OPLS-2005>
-448.096801757812

> <b_mmod_Minimization_Converged-OPLS-2005>
0

> <r_mmod_RMS_Derivative-OPLS-2005>
3.20410943031311

$$$$
76
                    3D
 Structure written by MMmdl.
158167  0  0  1  0            999 V2000
  -30.6972  -14.4764   20.5724 C   0  0  0  0  0  0
  -30.4272  -12.3108   19.4164 C   0  0  0  0  0  0
  -29.4937  -12.5055   18.2030 C   0  0  0  0  0  0
  -28.0145  -12.3685   18.6172 C   0  0  0  0  0  0
  -27.6631  -13.2053   19.8770 C   0  0  2  0  0  0
  -28.7076  -12.9781   20.9938 C   0  0  0  0  0  0
  -25.2595  -13.8152   20.5686 C   0  0  0  0  0  0
  -24.1836  -13.0433   20.9158 C   0  0  0  0  0  0
  -24.6387  -11.6900   20.8720 C   0  0  0  0  0  0
  -23.9055  -10.4290   21.0398 C   0  0  0  0  0  0
  -24.3610   -9.4207   21.9180 C   0  0  0  0  0  0
  -23.6287   -8.2244   22.0752 C   0  0  0  0  0  0
  -22.4268   -8.0279   21.3546 C   0  0  0  0  0  0
  -21.9903   -9.0247   20.4646 C   0  0  0  0  0  0
  -22.7228  -10.2128   20.3051 C   0  0  0  0  0  0
  -21.6855   -6.0735   22.5281 C   0  0  0  0  0  0
  -21.4008   -6.5639   23.8213 C   0  0  0  0  0  0
  -21.3659   -5.6793   24.9176 C   0  0  0  0  0  0
  -21.6045   -4.3055   24.7226 C   0  0  0  0  0  0
  -21.8821   -3.8149   23.4346 C   0  0  0  0  0  0
  -21.9190   -4.6963   22.3403 C   0  0  0  0  0  0
  -22.7864  -13.5236   21.1832 C   0  0  0  0  0  0
  -22.1664   -4.2152   21.0981 F   0  0  0  0  0  0
  -21.5630   -3.4535   25.7736 F   0  0  0  0  0  0
  -30.0383  -13.2918   20.4413 N   0  0  0  0  0  0
  -26.3036  -12.9322   20.3391 N   0  0  0  0  0  0
  -25.9319  -11.6481   20.5777 N   0  0  0  0  0  0
  -22.0506  -12.8228   22.0390 N   0  0  0  0  0  0
  -25.4316  -15.1873   20.4153 N   0  0  0  0  0  0
  -31.8217  -14.6666   20.1010 O   0  0  0  0  0  0
  -21.6641   -6.8872   21.4240 O   0  0  0  0  0  0
  -22.3546  -14.5546   20.6692 O   0  0  0  0  0  0
  -24.6165  -31.8668   23.2097 C   0  0  0  0  0  0
  -25.9045  -32.4822   23.8397 C   0  0  1  0  0  0
  -27.2312  -27.4172   20.0929 C   0  0  0  0  0  0
  -25.5895  -33.8620   24.2326 N   0  0  0  0  0  0
  -23.4046  -30.4938   21.5502 C   0  0  2  0  0  0
  -24.8488  -28.9606   20.1133 C   0  0  0  0  0  0
  -22.7421  -29.4665   22.4970 C   0  0  0  0  0  0
  -18.0272  -28.1389   22.8510 C   0  0  0  0  0  0
  -24.1476  -36.7300   23.2640 C   0  0  0  0  0  0
  -25.9369  -30.8283   21.3641 C   0  0  0  0  0  0
  -26.0130  -29.4629   20.7077 C   0  0  0  0  0  0
  -27.2073  -28.7007   20.6919 C   0  0  0  0  0  0
  -26.0435  -26.9389   19.4885 C   0  0  0  0  0  0
  -24.8601  -27.6981   19.5000 C   0  0  0  0  0  0
  -23.6126  -29.8297   20.1639 C   0  0  0  0  0  0
  -25.4099  -36.3112   24.0344 C   0  0  1  0  0  0
  -20.5870  -28.3671   23.1310 C   0  0  2  0  0  0
  -20.6764  -26.9400   22.5421 C   0  0  0  0  0  0
  -19.5742  -26.6398   21.5220 C   0  0  0  0  0  0
  -18.1919  -26.7942   22.1631 C   0  0  0  0  0  0
  -19.1525  -28.8846   23.2914 C   0  0  0  0  0  0
  -18.9454  -30.1457   23.8919 C   0  0  0  0  0  0
  -17.6458  -30.6597   24.0577 C   0  0  0  0  0  0
  -25.9036  -34.9480   23.5132 C   0  0  0  0  0  0
  -16.5347  -29.9100   23.6339 C   0  0  0  0  0  0
  -16.7264  -28.6514   23.0363 C   0  0  0  0  0  0
  -26.4470  -31.6605   25.0724 C   0  0  0  0  0  0
  -25.3732  -31.3713   26.1467 C   0  0  0  0  0  0
  -27.0299  -30.3047   24.6095 C   0  0  0  0  0  0
  -27.6049  -32.4320   25.7483 C   0  0  0  0  0  0
  -27.5575  -37.1803   24.8469 C   0  0  0  0  0  0
  -21.4144  -29.3037   22.3706 N   0  0  0  0  0  0
  -26.4283  -37.3795   23.9415 N   0  0  0  0  0  0
  -24.6715  -31.0763   22.0998 N   0  0  0  0  0  0
  -23.4184  -28.8204   23.3016 O   0  0  0  0  0  0
  -28.3947  -26.6625   20.1154 O   0  0  0  0  0  0
  -26.5597  -34.8926   22.4695 O   0  0  0  0  0  0
  -23.5352  -32.1424   23.7479 O   0  0  0  0  0  0
  -29.1905  -19.0831   21.6127 C   0  0  0  0  0  0
  -31.4584  -17.5072   21.0724 C   0  0  0  0  0  0
  -30.4560  -19.7049   21.5457 C   0  0  0  0  0  0
  -30.1956  -16.8758   21.1952 C   0  0  0  0  0  0
  -29.0659  -17.6854   21.4479 C   0  0  0  0  0  0
  -31.5853  -18.9048   21.2461 C   0  0  0  0  0  0
  -29.3173  -23.2165   21.3462 C   0  0  0  0  0  0
  -30.3722  -23.8714   19.3098 C   0  0  0  0  0  0
  -30.9717  -22.5620   19.8584 C   0  0  0  0  0  0
  -29.5275  -24.4509   20.4562 C   0  0  1  0  0  0
  -30.6275  -21.1742   21.9552 C   0  0  0  0  0  0
  -28.2448  -25.2270   20.0341 C   0  0  0  0  0  0
  -30.1672  -22.2227   21.0251 N   0  0  0  0  0  0
  -29.9710  -15.4611   21.1363 N   0  0  0  0  0  0
  -28.5283  -23.2002   22.2956 O   0  0  0  0  0  0
  -27.8483  -17.1023   21.5615 F   0  0  0  0  0  0
  -32.8134  -19.4708   21.1691 F   0  0  0  0  0  0
  -31.4698  -12.4164   19.1119 H   0  0  0  0  0  0
  -30.3351  -11.2980   19.8120 H   0  0  0  0  0  0
  -29.7311  -11.7782   17.4254 H   0  0  0  0  0  0
  -29.6614  -13.4890   17.7611 H   0  0  0  0  0  0
  -27.8219  -11.3123   18.8096 H   0  0  0  0  0  0
  -27.3638  -12.6468   17.7873 H   0  0  0  0  0  0
  -27.7082  -14.2548   19.5843 H   0  0  0  0  0  0
  -28.6867  -11.9377   21.3223 H   0  0  0  0  0  0
  -28.4676  -13.5641   21.8822 H   0  0  0  0  0  0
  -25.2758   -9.5687   22.4751 H   0  0  0  0  0  0
  -24.0002   -7.4634   22.7470 H   0  0  0  0  0  0
  -21.0835   -8.8751   19.8954 H   0  0  0  0  0  0
  -22.3677  -10.9657   19.6155 H   0  0  0  0  0  0
  -21.1998   -7.6147   23.9712 H   0  0  0  0  0  0
  -21.1483   -6.0527   25.9079 H   0  0  0  0  0  0
  -22.0600   -2.7611   23.2843 H   0  0  0  0  0  0
  -22.4122  -11.9885   22.4769 H   0  0  0  0  0  0
  -21.1127  -13.1260   22.2607 H   0  0  0  0  0  0
  -24.6749  -15.8455   20.5631 H   0  0  0  0  0  0
  -26.3122  -15.6414   20.2071 H   0  0  0  0  0  0
  -26.7117  -32.5521   23.1163 H   0  0  0  0  0  0
  -25.0061  -33.9789   25.0484 H   0  0  0  0  0  0
  -22.6949  -31.3123   21.4137 H   0  0  0  0  0  0
  -23.3751  -35.9619   23.3321 H   0  0  0  0  0  0
  -24.3580  -36.8891   22.2052 H   0  0  0  0  0  0
  -23.7214  -37.6505   23.6640 H   0  0  0  0  0  0
  -26.0525  -31.5948   20.5972 H   0  0  0  0  0  0
  -26.8243  -30.8784   21.9832 H   0  0  0  0  0  0
  -28.1051  -29.0850   21.1566 H   0  0  0  0  0  0
  -26.0070  -25.9781   18.9971 H   0  0  0  0  0  0
  -23.9650  -27.3087   19.0346 H   0  0  0  0  0  0
  -23.7208  -30.6062   19.4061 H   0  0  0  0  0  0
  -22.7346  -29.2521   19.8666 H   0  0  0  0  0  0
  -25.1282  -36.1980   25.0839 H   0  0  0  0  0  0
  -20.9971  -28.3231   24.1428 H   0  0  0  0  0  0
  -20.5673  -26.2270   23.3614 H   0  0  0  0  0  0
  -21.6634  -26.7445   22.1206 H   0  0  0  0  0  0
  -19.6897  -25.6312   21.1234 H   0  0  0  0  0  0
  -19.6689  -27.3233   20.6768 H   0  0  0  0  0  0
  -17.4197  -26.6713   21.4021 H   0  0  0  0  0  0
  -18.0305  -26.0079   22.9022 H   0  0  0  0  0  0
  -19.7929  -30.7275   24.2284 H   0  0  0  0  0  0
  -17.5016  -31.6277   24.5182 H   0  0  0  0  0  0
  -15.5352  -30.3015   23.7653 H   0  0  0  0  0  0
  -15.8664  -28.0848   22.7058 H   0  0  0  0  0  0
  -24.5911  -30.7052   25.7807 H   0  0  0  0  0  0
  -24.8913  -32.2867   26.4905 H   0  0  0  0  0  0
  -25.8081  -30.8895   27.0231 H   0  0  0  0  0  0
  -26.2836  -29.6814   24.1146 H   0  0  0  0  0  0
  -27.4077  -29.7277   25.4546 H   0  0  0  0  0  0
  -27.8674  -30.4384   23.9242 H   0  0  0  0  0  0
  -27.2682  -33.3624   26.2066 H   0  0  0  0  0  0
  -28.3850  -32.6865   25.0301 H   0  0  0  0  0  0
  -28.0720  -31.8437   26.5393 H   0  0  0  0  0  0
  -28.2605  -38.0091   24.7522 H   0  0  0  0  0  0
  -28.1067  -36.2630   24.6293 H   0  0  0  0  0  0
  -27.2305  -37.1436   25.8876 H   0  0  0  0  0  0
  -20.9297  -29.8761   21.6937 H   0  0  0  0  0  0
  -26.0182  -38.2870   24.1439 H   0  0  0  0  0  0
  -28.3129  -19.6667   21.8492 H   0  0  0  0  0  0
  -32.3552  -16.9358   20.8882 H   0  0  0  0  0  0
  -29.7499  -23.6480   18.4422 H   0  0  0  0  0  0
  -31.1468  -24.5667   18.9838 H   0  0  0  0  0  0
  -32.0092  -22.7138   20.1613 H   0  0  0  0  0  0
  -30.9497  -21.7594   19.1192 H   0  0  0  0  0  0
  -30.1507  -25.1185   21.0528 H   0  0  0  0  0  0
  -31.6790  -21.3652   22.1700 H   0  0  0  0  0  0
  -30.1340  -21.2917   22.9217 H   0  0  0  0  0  0
  -27.4107  -24.9243   20.6708 H   0  0  0  0  0  0
  -27.9712  -24.9495   19.0154 H   0  0  0  0  0  0
  -29.0499  -15.1773   21.4358 H   0  0  0  0  0  0
  1 25  1  0  0  0
  1 30  2  0  0  0
  1 84  1  0  0  0
  2  3  1  0  0  0
  2 25  1  0  0  0
  2 88  1  0  0  0
  2 89  1  0  0  0
  3  4  1  0  0  0
  3 90  1  0  0  0
  3 91  1  0  0  0
  4  5  1  0  0  0
  4 92  1  0  0  0
  4 93  1  0  0  0
  5  6  1  0  0  0
  5 26  1  0  0  0
  5 94  1  0  0  0
  6 25  1  0  0  0
  6 95  1  0  0  0
  6 96  1  0  0  0
  7  8  2  0  0  0
  7 26  1  0  0  0
  7 29  1  0  0  0
  8  9  1  0  0  0
  8 22  1  0  0  0
  9 10  1  0  0  0
  9 27  2  0  0  0
 10 11  2  0  0  0
 10 15  1  0  0  0
 11 12  1  0  0  0
 11 97  1  0  0  0
 12 13  2  0  0  0
 12 98  1  0  0  0
 13 14  1  0  0  0
 13 31  1  0  0  0
 14 15  2  0  0  0
 14 99  1  0  0  0
 15100  1  0  0  0
 16 17  2  0  0  0
 16 21  1  0  0  0
 16 31  1  0  0  0
 17 18  1  0  0  0
 17101  1  0  0  0
 18 19  2  0  0  0
 18102  1  0  0  0
 19 20  1  0  0  0
 19 24  1  0  0  0
 20 21  2  0  0  0
 20103  1  0  0  0
 21 23  1  0  0  0
 22 28  1  0  0  0
 22 32  2  0  0  0
 26 27  1  0  0  0
 28104  1  0  0  0
 28105  1  0  0  0
 29106  1  0  0  0
 29107  1  0  0  0
 33 34  1  0  0  0
 33 66  1  0  0  0
 33 70  2  0  0  0
 34 36  1  0  0  0
 34 59  1  0  0  0
 34108  1  0  0  0
 35 44  2  0  0  0
 35 45  1  0  0  0
 35 68  1  0  0  0
 36 56  1  0  0  0
 36109  1  0  0  0
 37 39  1  0  0  0
 37 47  1  0  0  0
 37 66  1  0  0  0
 37110  1  0  0  0
 38 43  2  0  0  0
 38 46  1  0  0  0
 38 47  1  0  0  0
 39 64  1  0  0  0
 39 67  2  0  0  0
 40 52  1  0  0  0
 40 53  2  0  0  0
 40 58  1  0  0  0
 41111  1  0  0  0
 41112  1  0  0  0
 41113  1  0  0  0
 41 48  1  0  0  0
 42 43  1  0  0  0
 42 66  1  0  0  0
 42114  1  0  0  0
 42115  1  0  0  0
 43 44  1  0  0  0
 44116  1  0  0  0
 45 46  2  0  0  0
 45117  1  0  0  0
 46118  1  0  0  0
 47119  1  0  0  0
 47120  1  0  0  0
 48 56  1  0  0  0
 48 65  1  0  0  0
 48121  1  0  0  0
 49 50  1  0  0  0
 49 53  1  0  0  0
 49 64  1  0  0  0
 49122  1  0  0  0
 50 51  1  0  0  0
 50123  1  0  0  0
 50124  1  0  0  0
 51 52  1  0  0  0
 51125  1  0  0  0
 51126  1  0  0  0
 52127  1  0  0  0
 52128  1  0  0  0
 53 54  1  0  0  0
 54 55  2  0  0  0
 54129  1  0  0  0
 55 57  1  0  0  0
 55130  1  0  0  0
 56 69  2  0  0  0
 57 58  2  0  0  0
 57131  1  0  0  0
 58132  1  0  0  0
 59 60  1  0  0  0
 59 61  1  0  0  0
 59 62  1  0  0  0
 60133  1  0  0  0
 60134  1  0  0  0
 60135  1  0  0  0
 61136  1  0  0  0
 61137  1  0  0  0
 61138  1  0  0  0
 62139  1  0  0  0
 62140  1  0  0  0
 62141  1  0  0  0
 63 65  1  0  0  0
 63142  1  0  0  0
 63143  1  0  0  0
 63144  1  0  0  0
 64145  1  0  0  0
 65146  1  0  0  0
 68 82  1  0  0  0
 71 73  2  0  0  0
 71 75  1  0  0  0
 71147  1  0  0  0
 72 74  1  0  0  0
 72 76  2  0  0  0
 72148  1  0  0  0
 73 76  1  0  0  0
 73 81  1  0  0  0
 74 75  2  0  0  0
 74 84  1  0  0  0
 75 86  1  0  0  0
 76 87  1  0  0  0
 77 80  1  0  0  0
 77 83  1  0  0  0
 77 85  2  0  0  0
 78 79  1  0  0  0
 78 80  1  0  0  0
 78149  1  0  0  0
 78150  1  0  0  0
 79 83  1  0  0  0
 79151  1  0  0  0
 79152  1  0  0  0
 80 82  1  0  0  0
 80153  1  0  0  0
 81 83  1  0  0  0
 81154  1  0  0  0
 81155  1  0  0  0
 82156  1  0  0  0
 82157  1  0  0  0
 84158  1  0  0  0
M  ISO  4   1 100  68 101  82 101  84 100
M  END
> <chiral flag>
0

> <version>
0

> <s_m_source_file>
/data/baiqing/PycharmProjects/Reinvent-master-3.2/result/LINK_invent/BTK/process_docking_weight1_custom_product_contain_oxygen_bond_distance_aromatic_linkinvent_7_9_3/rearranged_h_0028.sdf

> <i_m_source_file_index>
77

> <r_mmod_Potential_Energy-OPLS-2005>
-37.6426658630371

> <r_mmod_Stretch_Energy-OPLS-2005>
40.3779144287109

> <r_mmod_Bend_Energy-OPLS-2005>
128.777847290039

> <r_mmod_Torsional_Energy-OPLS-2005>
253.989181518555

> <r_mmod_Improper_Torsional_Energy-OPLS-2005>
5.86262655258179

> <r_mmod_Van_der_Waal_Energy-OPLS-2005>
153.428817749023

> <r_mmod_Electrostatic_Energy-OPLS-2005>
-418.374176025391

> <r_mmod_Solvation_Energy-OPLS-2005>
-215.785034179688

> <b_mmod_Minimization_Converged-OPLS-2005>
0

> <r_mmod_RMS_Derivative-OPLS-2005>
1.38072323799133

$$$$
77
                    3D
 Structure written by MMmdl.
163172  0  0  1  0            999 V2000
  -29.6975  -16.9387   20.2571 C   0  0  0  0  0  0
  -30.1926  -14.1022   19.4879 C   0  0  0  0  0  0
  -29.5431  -13.0830   18.4413 C   0  0  0  0  0  0
  -28.2593  -12.4363   18.9509 C   0  0  0  0  0  0
  -27.5462  -13.4745   19.8218 C   0  0  2  0  0  0
  -28.4346  -14.3207   20.8260 C   0  0  0  0  0  0
  -25.2000  -13.8585   20.5997 C   0  0  0  0  0  0
  -24.1603  -13.0488   20.9387 C   0  0  0  0  0  0
  -24.6564  -11.7083   20.8758 C   0  0  0  0  0  0
  -23.9302  -10.4354   21.0342 C   0  0  0  0  0  0
  -24.3773   -9.4266   21.9159 C   0  0  0  0  0  0
  -23.6401   -8.2314   22.0751 C   0  0  0  0  0  0
  -22.4374   -8.0347   21.3541 C   0  0  0  0  0  0
  -22.0058   -9.0334   20.4631 C   0  0  0  0  0  0
  -22.7439  -10.2189   20.3023 C   0  0  0  0  0  0
  -21.6910   -6.0789   22.5273 C   0  0  0  0  0  0
  -21.4054   -6.5684   23.8206 C   0  0  0  0  0  0
  -21.3643   -5.6824   24.9155 C   0  0  0  0  0  0
  -21.6048   -4.3089   24.7200 C   0  0  0  0  0  0
  -21.8809   -3.8185   23.4316 C   0  0  0  0  0  0
  -21.9207   -4.7011   22.3381 C   0  0  0  0  0  0
  -22.7561  -13.5054   21.1950 C   0  0  0  0  0  0
  -22.1672   -4.2216   21.0952 F   0  0  0  0  0  0
  -21.5599   -3.4544   25.7690 F   0  0  0  0  0  0
  -29.3104  -15.3570   20.0722 N   0  0  0  0  0  0
  -26.2673  -13.0265   20.3550 N   0  0  0  0  0  0
  -25.9578  -11.7136   20.5693 N   0  0  0  0  0  0
  -22.0292  -12.7999   22.0512 N   0  0  0  0  0  0
  -25.3269  -15.2344   20.4333 N   0  0  0  0  0  0
  -30.9340  -16.5696   20.3008 O   0  0  0  0  0  0
  -21.6693   -6.8957   21.4251 O   0  0  0  0  0  0
  -22.3172  -14.5340   20.6808 O   0  0  0  0  0  0
  -24.7241  -31.6842   23.0484 C   0  0  0  0  0  0
  -25.9525  -32.3894   23.7344 C   0  0  1  0  0  0
  -28.0484  -26.1396   20.3268 C   0  0  0  0  0  0
  -25.5854  -33.7777   24.1279 N   0  0  0  0  0  0
  -23.5750  -30.1635   21.4473 C   0  0  2  0  0  0
  -24.8929  -28.0424   20.2409 C   0  0  0  0  0  0
  -22.7772  -29.3647   22.4945 C   0  0  0  0  0  0
  -18.0274  -28.1453   22.8457 C   0  0  0  0  0  0
  -24.1494  -36.6937   23.2687 C   0  0  0  0  0  0
  -26.1255  -30.1964   21.3587 C   0  0  0  0  0  0
  -26.2693  -28.6276   20.8575 C   0  0  0  0  0  0
  -27.7401  -27.8146   20.9138 C   0  0  0  0  0  0
  -25.8515  -25.2066   19.3692 C   0  0  0  0  0  0
  -24.6110  -26.5119   19.5512 C   0  0  0  0  0  0
  -23.7999  -29.2032   20.1950 C   0  0  0  0  0  0
  -25.4178  -36.2590   24.0220 C   0  0  1  0  0  0
  -20.5871  -28.3713   23.1233 C   0  0  2  0  0  0
  -20.6657  -26.9347   22.5535 C   0  0  0  0  0  0
  -19.5696  -26.6358   21.5255 C   0  0  0  0  0  0
  -18.1862  -26.7985   22.1617 C   0  0  0  0  0  0
  -19.1539  -28.8940   23.2795 C   0  0  0  0  0  0
  -18.9482  -30.1529   23.8838 C   0  0  0  0  0  0
  -17.6472  -30.6640   24.0541 C   0  0  0  0  0  0
  -25.9173  -34.9000   23.4706 C   0  0  0  0  0  0
  -16.5357  -29.9136   23.6337 C   0  0  0  0  0  0
  -16.7265  -28.6559   23.0366 C   0  0  0  0  0  0
  -26.4628  -31.6325   25.0282 C   0  0  0  0  0  0
  -25.3588  -31.3757   26.0841 C   0  0  0  0  0  0
  -27.0701  -30.2674   24.6486 C   0  0  0  0  0  0
  -27.5940  -32.4402   25.7166 C   0  0  0  0  0  0
  -27.5571  -37.1577   24.8440 C   0  0  0  0  0  0
  -21.4431  -29.2774   22.3532 N   0  0  0  0  0  0
  -26.4240  -37.3454   23.9417 N   0  0  0  0  0  0
  -24.8406  -30.7395   22.0110 N   0  0  0  0  0  0
  -23.3834  -28.7775   23.3897 O   0  0  0  0  0  0
  -29.3368  -25.8238   20.1614 O   0  0  0  0  0  0
  -26.6018  -34.8798   22.4452 O   0  0  0  0  0  0
  -23.6201  -32.0330   23.5114 O   0  0  0  0  0  0
  -27.9805  -24.0858   18.7531 C   0  0  0  0  0  0
  -26.8375  -24.2612   21.3134 C   0  0  0  0  0  0
  -27.6767  -23.0981   20.1528 C   0  0  0  0  0  0
  -27.7048  -25.7141   18.0551 C   0  0  0  0  0  0
  -26.7793  -27.0811   18.8771 C   0  0  0  0  0  0
  -26.1489  -26.0683   21.2993 C   0  0  0  0  0  0
  -29.8794  -27.7058   18.3730 C   0  0  0  0  0  0
  -30.7713  -25.8689   18.2310 C   0  0  0  0  0  0
  -30.2636  -26.6692   19.4444 C   0  0  2  0  0  0
  -26.5526  -28.3966   18.0544 C   0  0  0  0  0  0
  -30.5081  -19.3883   19.9581 C   0  0  0  0  0  0
  -28.2039  -20.7979   20.3382 C   0  0  0  0  0  0
  -28.6195  -26.0636   16.8841 C   0  0  0  0  0  0
  -29.1813  -18.7709   20.1385 N   0  0  0  0  0  0
  -29.9170  -26.6677   17.3396 N   0  3  1  0  0  0
  -25.5154  -26.6100   22.3797 F   0  0  0  0  0  0
  -31.0286  -14.5429   18.9432 H   0  0  0  0  0  0
  -30.6944  -13.5569   20.2906 H   0  0  0  0  0  0
  -30.2625  -12.3157   18.1487 H   0  0  0  0  0  0
  -29.3107  -13.6362   17.5311 H   0  0  0  0  0  0
  -28.5082  -11.5623   19.5537 H   0  0  0  0  0  0
  -27.6314  -12.0946   18.1277 H   0  0  0  0  0  0
  -27.2538  -14.2089   19.0707 H   0  0  0  0  0  0
  -28.9715  -13.6968   21.5460 H   0  0  0  0  0  0
  -27.7775  -14.9223   21.4517 H   0  0  0  0  0  0
  -25.2895   -9.5732   22.4775 H   0  0  0  0  0  0
  -24.0082   -7.4718   22.7503 H   0  0  0  0  0  0
  -21.0986   -8.8892   19.8936 H   0  0  0  0  0  0
  -22.3910  -10.9732   19.6136 H   0  0  0  0  0  0
  -21.2094   -7.6198   23.9738 H   0  0  0  0  0  0
  -21.1455   -6.0535   25.9062 H   0  0  0  0  0  0
  -22.0606   -2.7657   23.2779 H   0  0  0  0  0  0
  -22.4003  -11.9689   22.4865 H   0  0  0  0  0  0
  -21.0872  -13.0905   22.2710 H   0  0  0  0  0  0
  -24.5426  -15.8688   20.5357 H   0  0  0  0  0  0
  -26.1695  -15.6904   20.1102 H   0  0  0  0  0  0
  -26.7706  -32.4321   23.0134 H   0  0  0  0  0  0
  -24.9771  -33.8635   24.9296 H   0  0  0  0  0  0
  -22.9524  -30.9996   21.1207 H   0  0  0  0  0  0
  -23.3852  -35.9163   23.3091 H   0  0  0  0  0  0
  -24.3563  -36.8923   22.2163 H   0  0  0  0  0  0
  -23.7141  -37.5945   23.7015 H   0  0  0  0  0  0
  -26.2955  -30.8079   20.4718 H   0  0  0  0  0  0
  -26.9868  -30.4068   21.9855 H   0  0  0  0  0  0
  -28.5906  -28.3815   21.2622 H   0  0  0  0  0  0
  -25.6234  -24.2743   18.8668 H   0  0  0  0  0  0
  -23.6239  -26.3039   19.1566 H   0  0  0  0  0  0
  -24.0299  -29.8222   19.3270 H   0  0  0  0  0  0
  -22.8522  -28.7239   19.9441 H   0  0  0  0  0  0
  -25.1431  -36.1210   25.0710 H   0  0  0  0  0  0
  -20.9892  -28.3327   24.1375 H   0  0  0  0  0  0
  -20.5359  -26.2333   23.3795 H   0  0  0  0  0  0
  -21.6529  -26.7139   22.1447 H   0  0  0  0  0  0
  -19.6781  -25.6240   21.1325 H   0  0  0  0  0  0
  -19.6717  -27.3145   20.6767 H   0  0  0  0  0  0
  -17.4145  -26.6799   21.3997 H   0  0  0  0  0  0
  -18.0158  -26.0148   22.9021 H   0  0  0  0  0  0
  -19.7965  -30.7345   24.2204 H   0  0  0  0  0  0
  -17.5027  -31.6310   24.5156 H   0  0  0  0  0  0
  -15.5359  -30.3035   23.7685 H   0  0  0  0  0  0
  -15.8666  -28.0866   22.7124 H   0  0  0  0  0  0
  -24.5883  -30.7002   25.7107 H   0  0  0  0  0  0
  -24.8639  -32.2988   26.3879 H   0  0  0  0  0  0
  -25.7663  -30.9177   26.9864 H   0  0  0  0  0  0
  -26.3421  -29.6032   24.1825 H   0  0  0  0  0  0
  -27.4397  -29.7450   25.5322 H   0  0  0  0  0  0
  -27.9216  -30.3766   23.9770 H   0  0  0  0  0  0
  -27.2370  -33.3851   26.1300 H   0  0  0  0  0  0
  -28.3955  -32.6773   25.0146 H   0  0  0  0  0  0
  -28.0414  -31.8866   26.5445 H   0  0  0  0  0  0
  -28.2412  -38.0039   24.7628 H   0  0  0  0  0  0
  -28.1247  -36.2555   24.6084 H   0  0  0  0  0  0
  -27.2312  -37.0962   25.8843 H   0  0  0  0  0  0
  -21.0014  -29.8013   21.6119 H   0  0  0  0  0  0
  -25.9998  -38.2456   24.1500 H   0  0  0  0  0  0
  -28.5434  -23.4838   18.0509 H   0  0  0  0  0  0
  -26.6281  -23.7747   22.2535 H   0  0  0  0  0  0
  -30.6794  -28.4276   18.2036 H   0  0  0  0  0  0
  -28.9712  -28.2579   18.5039 H   0  0  0  0  0  0
  -31.8247  -26.0385   18.0148 H   0  0  0  0  0  0
  -30.5500  -24.8028   18.2460 H   0  0  0  0  0  0
  -31.0594  -27.0296   20.0931 H   0  0  0  0  0  0
  -26.9972  -28.3236   17.0663 H   0  0  0  0  0  0
  -26.9959  -29.2791   18.5111 H   0  0  0  0  0  0
  -25.5022  -28.6102   17.8657 H   0  0  0  0  0  0
  -30.4842  -20.2511   19.2960 H   0  0  0  0  0  0
  -31.2635  -18.7530   19.4997 H   0  0  0  0  0  0
  -30.9052  -19.7271   20.9174 H   0  0  0  0  0  0
  -28.5485  -20.9757   19.3203 H   0  0  0  0  0  0
  -28.9139  -21.0659   21.1199 H   0  0  0  0  0  0
  -28.1286  -26.7348   16.1827 H   0  0  0  0  0  0
  -28.8442  -25.1569   16.3192 H   0  0  0  0  0  0
  -30.4288  -26.9917   16.5329 H   0  0  0  0  0  0
  1 25  1  0  0  0
  1 30  2  0  0  0
  1 84  1  0  0  0
  2  3  1  0  0  0
  2 25  1  0  0  0
  2 87  1  0  0  0
  2 88  1  0  0  0
  3  4  1  0  0  0
  3 89  1  0  0  0
  3 90  1  0  0  0
  4  5  1  0  0  0
  4 91  1  0  0  0
  4 92  1  0  0  0
  5  6  1  0  0  0
  5 26  1  0  0  0
  5 93  1  0  0  0
  6 25  1  0  0  0
  6 94  1  0  0  0
  6 95  1  0  0  0
  7  8  2  0  0  0
  7 26  1  0  0  0
  7 29  1  0  0  0
  8  9  1  0  0  0
  8 22  1  0  0  0
  9 10  1  0  0  0
  9 27  2  0  0  0
 10 11  2  0  0  0
 10 15  1  0  0  0
 11 12  1  0  0  0
 11 96  1  0  0  0
 12 13  2  0  0  0
 12 97  1  0  0  0
 13 14  1  0  0  0
 13 31  1  0  0  0
 14 15  2  0  0  0
 14 98  1  0  0  0
 15 99  1  0  0  0
 16 17  2  0  0  0
 16 21  1  0  0  0
 16 31  1  0  0  0
 17 18  1  0  0  0
 17100  1  0  0  0
 18 19  2  0  0  0
 18101  1  0  0  0
 19 20  1  0  0  0
 19 24  1  0  0  0
 20 21  2  0  0  0
 20102  1  0  0  0
 21 23  1  0  0  0
 22 28  1  0  0  0
 22 32  2  0  0  0
 26 27  1  0  0  0
 28103  1  0  0  0
 28104  1  0  0  0
 29105  1  0  0  0
 29106  1  0  0  0
 33 34  1  0  0  0
 33 66  1  0  0  0
 33 70  2  0  0  0
 34 36  1  0  0  0
 34 59  1  0  0  0
 34107  1  0  0  0
 35 44  2  0  0  0
 35 45  1  0  0  0
 35 68  1  0  0  0
 36 56  1  0  0  0
 36108  1  0  0  0
 37 39  1  0  0  0
 37 47  1  0  0  0
 37 66  1  0  0  0
 37109  1  0  0  0
 38 43  2  0  0  0
 38 46  1  0  0  0
 38 47  1  0  0  0
 39 64  1  0  0  0
 39 67  2  0  0  0
 40 52  1  0  0  0
 40 53  2  0  0  0
 40 58  1  0  0  0
 41110  1  0  0  0
 41111  1  0  0  0
 41112  1  0  0  0
 41 48  1  0  0  0
 42 43  1  0  0  0
 42 66  1  0  0  0
 42113  1  0  0  0
 42114  1  0  0  0
 43 44  1  0  0  0
 44115  1  0  0  0
 45 46  2  0  0  0
 45116  1  0  0  0
 46117  1  0  0  0
 47118  1  0  0  0
 47119  1  0  0  0
 48 56  1  0  0  0
 48 65  1  0  0  0
 48120  1  0  0  0
 49 50  1  0  0  0
 49 53  1  0  0  0
 49 64  1  0  0  0
 49121  1  0  0  0
 50 51  1  0  0  0
 50122  1  0  0  0
 50123  1  0  0  0
 51 52  1  0  0  0
 51124  1  0  0  0
 51125  1  0  0  0
 52126  1  0  0  0
 52127  1  0  0  0
 53 54  1  0  0  0
 54 55  2  0  0  0
 54128  1  0  0  0
 55 57  1  0  0  0
 55129  1  0  0  0
 56 69  2  0  0  0
 57 58  2  0  0  0
 57130  1  0  0  0
 58131  1  0  0  0
 59 60  1  0  0  0
 59 61  1  0  0  0
 59 62  1  0  0  0
 60132  1  0  0  0
 60133  1  0  0  0
 60134  1  0  0  0
 61135  1  0  0  0
 61136  1  0  0  0
 61137  1  0  0  0
 62138  1  0  0  0
 62139  1  0  0  0
 62140  1  0  0  0
 63 65  1  0  0  0
 63141  1  0  0  0
 63142  1  0  0  0
 63143  1  0  0  0
 64144  1  0  0  0
 65145  1  0  0  0
 68 79  1  0  0  0
 71 73  2  0  0  0
 71 74  1  0  0  0
 71146  1  0  0  0
 72 73  1  0  0  0
 72 76  2  0  0  0
 72147  1  0  0  0
 73 82  1  0  0  0
 74 75  2  0  0  0
 74 83  1  0  0  0
 75 76  1  0  0  0
 75 80  1  0  0  0
 76 86  1  0  0  0
 77 79  1  0  0  0
 77 85  1  0  0  0
 77148  1  0  0  0
 77149  1  0  0  0
 78 79  1  0  0  0
 78 85  1  0  0  0
 78150  1  0  0  0
 78151  1  0  0  0
 79152  1  0  0  0
 80153  1  0  0  0
 80154  1  0  0  0
 80155  1  0  0  0
 81 84  1  0  0  0
 81156  1  0  0  0
 81157  1  0  0  0
 81158  1  0  0  0
 82 84  1  0  0  0
 82159  1  0  0  0
 82160  1  0  0  0
 83161  1  0  0  0
 83162  1  0  0  0
 83 85  1  0  0  0
 85163  1  0  0  0
M  CHG  1  85   1
M  ISO  4   1 100  68 101  79 101  84 100
M  END
> <chiral flag>
0

> <version>
0

> <s_m_source_file>
/data/baiqing/PycharmProjects/Reinvent-master-3.2/result/LINK_invent/BTK/process_docking_weight1_custom_product_contain_oxygen_bond_distance_aromatic_linkinvent_7_9_3/rearranged_h_0028.sdf

> <i_m_source_file_index>
78

> <r_mmod_Potential_Energy-OPLS-2005>
20231.8984375

> <r_mmod_Stretch_Energy-OPLS-2005>
11897.8720703125

> <r_mmod_Bend_Energy-OPLS-2005>
1406.51672363281

> <r_mmod_Torsional_Energy-OPLS-2005>
331.444061279297

> <r_mmod_Improper_Torsional_Energy-OPLS-2005>
23.7139778137207

> <r_mmod_Van_der_Waal_Energy-OPLS-2005>
3579.32568359375

> <r_mmod_Electrostatic_Energy-OPLS-2005>
-248.294570922852

> <r_mmod_Solvation_Energy-OPLS-2005>
-491.092224121094

> <b_mmod_Minimization_Converged-OPLS-2005>
0

> <r_mmod_RMS_Derivative-OPLS-2005>
12.264139175415

$$$$
78
                    3D
 Structure written by MMmdl.
176185  0  0  1  0            999 V2000
  -30.5818  -14.7049   20.4910 C   0  0  0  0  0  0
  -30.4437  -12.4307   19.4672 C   0  0  0  0  0  0
  -29.5124  -12.5029   18.2347 C   0  0  0  0  0  0
  -28.0374  -12.3235   18.6481 C   0  0  0  0  0  0
  -27.6487  -13.2124   19.8584 C   0  0  2  0  0  0
  -28.6905  -13.0970   20.9927 C   0  0  0  0  0  0
  -25.2555  -13.8164   20.5664 C   0  0  0  0  0  0
  -24.1813  -13.0447   20.9184 C   0  0  0  0  0  0
  -24.6361  -11.6909   20.8734 C   0  0  0  0  0  0
  -23.9021  -10.4298   21.0406 C   0  0  0  0  0  0
  -24.3584   -9.4216   21.9183 C   0  0  0  0  0  0
  -23.6274   -8.2247   22.0749 C   0  0  0  0  0  0
  -22.4259   -8.0275   21.3539 C   0  0  0  0  0  0
  -21.9877   -9.0251   20.4645 C   0  0  0  0  0  0
  -22.7188  -10.2141   20.3060 C   0  0  0  0  0  0
  -21.6856   -6.0727   22.5265 C   0  0  0  0  0  0
  -21.4021   -6.5635   23.8199 C   0  0  0  0  0  0
  -21.3651   -5.6785   24.9158 C   0  0  0  0  0  0
  -21.6043   -4.3049   24.7214 C   0  0  0  0  0  0
  -21.8822   -3.8134   23.4338 C   0  0  0  0  0  0
  -21.9189   -4.6948   22.3389 C   0  0  0  0  0  0
  -22.7844  -13.5265   21.1837 C   0  0  0  0  0  0
  -22.1668   -4.2136   21.0969 F   0  0  0  0  0  0
  -21.5611   -3.4529   25.7726 F   0  0  0  0  0  0
  -30.0007  -13.4610   20.4299 N   0  0  0  0  0  0
  -26.2952  -12.9315   20.3282 N   0  0  0  0  0  0
  -25.9286  -11.6490   20.5755 N   0  0  0  0  0  0
  -22.0472  -12.8288   22.0400 N   0  0  0  0  0  0
  -25.4334  -15.1876   20.4083 N   0  0  0  0  0  0
  -31.7465  -14.8786   20.1165 O   0  0  0  0  0  0
  -21.6635   -6.8864   21.4231 O   0  0  0  0  0  0
  -22.3544  -14.5571   20.6655 O   0  0  0  0  0  0
  -24.6284  -31.8578   23.1992 C   0  0  0  0  0  0
  -25.9114  -32.4769   23.8337 C   0  0  1  0  0  0
  -27.2332  -27.2964   20.1302 C   0  0  0  0  0  0
  -25.5913  -33.8566   24.2274 N   0  0  0  0  0  0
  -23.4239  -30.4777   21.5439 C   0  0  2  0  0  0
  -24.8719  -28.9251   20.1161 C   0  0  0  0  0  0
  -22.7494  -29.4605   22.4945 C   0  0  0  0  0  0
  -18.0293  -28.1381   22.8482 C   0  0  0  0  0  0
  -24.1483  -36.7287   23.2634 C   0  0  0  0  0  0
  -25.9653  -30.7847   21.3697 C   0  0  0  0  0  0
  -26.0416  -29.4072   20.7167 C   0  0  0  0  0  0
  -27.2248  -28.6070   20.7084 C   0  0  0  0  0  0
  -26.0366  -26.8680   19.5126 C   0  0  0  0  0  0
  -24.8727  -27.6614   19.5048 C   0  0  0  0  0  0
  -23.6394  -29.8067   20.1615 C   0  0  0  0  0  0
  -25.4104  -36.3077   24.0332 C   0  0  1  0  0  0
  -20.5892  -28.3682   23.1288 C   0  0  2  0  0  0
  -20.6774  -26.9398   22.5426 C   0  0  0  0  0  0
  -19.5757  -26.6376   21.5221 C   0  0  0  0  0  0
  -18.1933  -26.7923   22.1619 C   0  0  0  0  0  0
  -19.1544  -28.8852   23.2875 C   0  0  0  0  0  0
  -18.9463  -30.1456   23.8890 C   0  0  0  0  0  0
  -17.6460  -30.6573   24.0564 C   0  0  0  0  0  0
  -25.9053  -34.9447   23.5113 C   0  0  0  0  0  0
  -16.5355  -29.9073   23.6320 C   0  0  0  0  0  0
  -16.7283  -28.6495   23.0336 C   0  0  0  0  0  0
  -26.4482  -31.6573   25.0707 C   0  0  0  0  0  0
  -25.3717  -31.3747   26.1448 C   0  0  0  0  0  0
  -27.0290  -30.2985   24.6158 C   0  0  0  0  0  0
  -27.6080  -32.4276   25.7438 C   0  0  0  0  0  0
  -27.5591  -37.1771   24.8442 C   0  0  0  0  0  0
  -21.4207  -29.3026   22.3686 N   0  0  0  0  0  0
  -26.4273  -37.3784   23.9432 N   0  0  0  0  0  0
  -24.6918  -31.0571   22.0949 N   0  0  0  0  0  0
  -23.4210  -28.8160   23.3045 O   0  0  0  0  0  0
  -28.3657  -26.4595   20.1585 O   0  0  0  0  0  0
  -26.5639  -34.8916   22.4692 O   0  0  0  0  0  0
  -23.5438  -32.1381   23.7306 O   0  0  0  0  0  0
  -30.3006  -18.1061   21.6000 C   0  0  0  0  0  0
  -29.0410  -17.8164   19.5909 C   0  0  0  0  0  0
  -30.0677  -19.5223   21.5487 C   0  0  0  0  0  0
  -28.7988  -19.2308   19.5190 C   0  0  0  0  0  0
  -29.2787  -20.1376   20.5225 C   0  0  0  0  0  0
  -29.7783  -17.2017   20.6386 C   0  0  0  0  0  0
  -29.5803  -24.1783   20.0833 C   0  0  0  0  0  0
  -23.6263  -19.9276   18.3136 C   0  0  0  0  0  0
  -24.4490  -21.2029   18.0841 C   0  0  0  0  0  0
  -24.3345  -19.0210   19.3297 C   0  0  0  0  0  0
  -25.8897  -20.8583   17.6652 C   0  0  0  0  0  0
  -25.7880  -18.7289   18.9098 C   0  0  0  0  0  0
  -30.6391  -20.3708   22.6721 C   0  0  0  0  0  0
  -31.0022  -22.2832   19.4547 C   0  0  0  0  0  0
  -28.8593  -21.6898   20.5693 C   0  0  0  0  0  0
  -27.9856  -19.7504   18.3344 C   0  0  0  0  0  0
  -28.2140  -24.9682   20.2161 C   0  0  0  0  0  0
  -29.7474  -15.7427   20.8454 N   0  0  0  0  0  0
  -29.7341  -22.7888   20.0132 N   0  0  0  0  0  0
  -26.5549  -19.9809   18.6660 N   0  3  0  0  0  0
  -30.5773  -24.8995   19.9503 O   0  0  0  0  0  0
  -31.4823  -12.5775   19.1649 H   0  0  0  0  0  0
  -30.4024  -11.4429   19.9303 H   0  0  0  0  0  0
  -29.7909  -11.7369   17.5099 H   0  0  0  0  0  0
  -29.6375  -13.4625   17.7293 H   0  0  0  0  0  0
  -27.8953  -11.2731   18.9063 H   0  0  0  0  0  0
  -27.3788  -12.5197   17.8022 H   0  0  0  0  0  0
  -27.6566  -14.2400   19.4958 H   0  0  0  0  0  0
  -28.7183  -12.0795   21.3856 H   0  0  0  0  0  0
  -28.4205  -13.7343   21.8362 H   0  0  0  0  0  0
  -25.2731   -9.5685   22.4768 H   0  0  0  0  0  0
  -23.9969   -7.4638   22.7477 H   0  0  0  0  0  0
  -21.0796   -8.8762   19.8977 H   0  0  0  0  0  0
  -22.3623  -10.9682   19.6179 H   0  0  0  0  0  0
  -21.2042   -7.6152   23.9698 H   0  0  0  0  0  0
  -21.1467   -6.0520   25.9057 H   0  0  0  0  0  0
  -22.0609   -2.7595   23.2842 H   0  0  0  0  0  0
  -22.4050  -11.9945   22.4808 H   0  0  0  0  0  0
  -21.1098  -13.1353   22.2590 H   0  0  0  0  0  0
  -24.6737  -15.8468   20.5270 H   0  0  0  0  0  0
  -26.2935  -15.6126   20.0912 H   0  0  0  0  0  0
  -26.7190  -32.5444   23.1093 H   0  0  0  0  0  0
  -25.0015  -33.9695   25.0388 H   0  0  0  0  0  0
  -22.7186  -31.2983   21.3971 H   0  0  0  0  0  0
  -23.3760  -35.9600   23.3240 H   0  0  0  0  0  0
  -24.3602  -36.8962   22.2061 H   0  0  0  0  0  0
  -23.7193  -37.6452   23.6694 H   0  0  0  0  0  0
  -26.0918  -31.5443   20.5969 H   0  0  0  0  0  0
  -26.8483  -30.8412   21.9953 H   0  0  0  0  0  0
  -28.1241  -28.9779   21.1809 H   0  0  0  0  0  0
  -25.9736  -25.9064   19.0283 H   0  0  0  0  0  0
  -23.9766  -27.2841   19.0314 H   0  0  0  0  0  0
  -23.7571  -30.5807   19.4019 H   0  0  0  0  0  0
  -22.7596  -29.2341   19.8611 H   0  0  0  0  0  0
  -25.1269  -36.1924   25.0819 H   0  0  0  0  0  0
  -20.9978  -28.3258   24.1411 H   0  0  0  0  0  0
  -20.5653  -26.2298   23.3634 H   0  0  0  0  0  0
  -21.6648  -26.7406   22.1243 H   0  0  0  0  0  0
  -19.6917  -25.6292   21.1238 H   0  0  0  0  0  0
  -19.6696  -27.3198   20.6765 H   0  0  0  0  0  0
  -17.4211  -26.6683   21.4011 H   0  0  0  0  0  0
  -18.0313  -26.0063   22.9008 H   0  0  0  0  0  0
  -19.7940  -30.7277   24.2248 H   0  0  0  0  0  0
  -17.5008  -31.6249   24.5179 H   0  0  0  0  0  0
  -15.5353  -30.2968   23.7638 H   0  0  0  0  0  0
  -15.8689  -28.0817   22.7032 H   0  0  0  0  0  0
  -24.5887  -30.7087   25.7798 H   0  0  0  0  0  0
  -24.8914  -32.2930   26.4842 H   0  0  0  0  0  0
  -25.8041  -30.8952   27.0241 H   0  0  0  0  0  0
  -26.2849  -29.6747   24.1195 H   0  0  0  0  0  0
  -27.3985  -29.7229   25.4651 H   0  0  0  0  0  0
  -27.8723  -30.4250   23.9368 H   0  0  0  0  0  0
  -27.2754  -33.3603   26.2006 H   0  0  0  0  0  0
  -28.3877  -32.6780   25.0229 H   0  0  0  0  0  0
  -28.0757  -31.8390   26.5340 H   0  0  0  0  0  0
  -28.2561  -38.0117   24.7573 H   0  0  0  0  0  0
  -28.1131  -36.2659   24.6139 H   0  0  0  0  0  0
  -27.2346  -37.1264   25.8849 H   0  0  0  0  0  0
  -20.9402  -29.8743   21.6876 H   0  0  0  0  0  0
  -26.0150  -38.2842   24.1496 H   0  0  0  0  0  0
  -30.8442  -17.6979   22.4414 H   0  0  0  0  0  0
  -28.6029  -17.1748   18.8385 H   0  0  0  0  0  0
  -23.4988  -19.3969   17.3684 H   0  0  0  0  0  0
  -22.6252  -20.1803   18.6655 H   0  0  0  0  0  0
  -24.4611  -21.8066   18.9928 H   0  0  0  0  0  0
  -23.9778  -21.8180   17.3162 H   0  0  0  0  0  0
  -23.7887  -18.0826   19.4324 H   0  0  0  0  0  0
  -24.3207  -19.4879   20.3158 H   0  0  0  0  0  0
  -26.4560  -21.7830   17.5437 H   0  0  0  0  0  0
  -25.8864  -20.3640   16.6927 H   0  0  0  0  0  0
  -25.7988  -18.1089   18.0111 H   0  0  0  0  0  0
  -26.2639  -18.1457   19.6981 H   0  0  0  0  0  0
  -31.3647  -19.8110   23.2623 H   0  0  0  0  0  0
  -29.8471  -20.7012   23.3441 H   0  0  0  0  0  0
  -31.1497  -21.2500   22.2815 H   0  0  0  0  0  0
  -31.4136  -22.9430   18.6888 H   0  0  0  0  0  0
  -30.8947  -21.3177   18.9632 H   0  0  0  0  0  0
  -31.7540  -22.1837   20.2369 H   0  0  0  0  0  0
  -28.6913  -21.9387   21.6178 H   0  0  0  0  0  0
  -27.8744  -21.8129   20.1234 H   0  0  0  0  0  0
  -28.0642  -19.0641   17.4898 H   0  0  0  0  0  0
  -28.4482  -20.6779   17.9952 H   0  0  0  0  0  0
  -27.7327  -24.6909   21.1547 H   0  0  0  0  0  0
  -27.5839  -24.6077   19.4055 H   0  0  0  0  0  0
  -28.8477  -15.3984   21.1473 H   0  0  0  0  0  0
  -26.5512  -20.4876   19.5366 H   0  0  0  0  0  0
  1 25  1  0  0  0
  1 30  2  0  0  0
  1 88  1  0  0  0
  2  3  1  0  0  0
  2 25  1  0  0  0
  2 92  1  0  0  0
  2 93  1  0  0  0
  3  4  1  0  0  0
  3 94  1  0  0  0
  3 95  1  0  0  0
  4  5  1  0  0  0
  4 96  1  0  0  0
  4 97  1  0  0  0
  5  6  1  0  0  0
  5 26  1  0  0  0
  5 98  1  0  0  0
  6 25  1  0  0  0
  6 99  1  0  0  0
  6100  1  0  0  0
  7  8  2  0  0  0
  7 26  1  0  0  0
  7 29  1  0  0  0
  8  9  1  0  0  0
  8 22  1  0  0  0
  9 10  1  0  0  0
  9 27  2  0  0  0
 10 11  2  0  0  0
 10 15  1  0  0  0
 11 12  1  0  0  0
 11101  1  0  0  0
 12 13  2  0  0  0
 12102  1  0  0  0
 13 14  1  0  0  0
 13 31  1  0  0  0
 14 15  2  0  0  0
 14103  1  0  0  0
 15104  1  0  0  0
 16 17  2  0  0  0
 16 21  1  0  0  0
 16 31  1  0  0  0
 17 18  1  0  0  0
 17105  1  0  0  0
 18 19  2  0  0  0
 18106  1  0  0  0
 19 20  1  0  0  0
 19 24  1  0  0  0
 20 21  2  0  0  0
 20107  1  0  0  0
 21 23  1  0  0  0
 22 28  1  0  0  0
 22 32  2  0  0  0
 26 27  1  0  0  0
 28108  1  0  0  0
 28109  1  0  0  0
 29110  1  0  0  0
 29111  1  0  0  0
 33 34  1  0  0  0
 33 66  1  0  0  0
 33 70  2  0  0  0
 34 36  1  0  0  0
 34 59  1  0  0  0
 34112  1  0  0  0
 35 44  2  0  0  0
 35 45  1  0  0  0
 35 68  1  0  0  0
 36 56  1  0  0  0
 36113  1  0  0  0
 37 39  1  0  0  0
 37 47  1  0  0  0
 37 66  1  0  0  0
 37114  1  0  0  0
 38 43  2  0  0  0
 38 46  1  0  0  0
 38 47  1  0  0  0
 39 64  1  0  0  0
 39 67  2  0  0  0
 40 52  1  0  0  0
 40 53  2  0  0  0
 40 58  1  0  0  0
 41115  1  0  0  0
 41116  1  0  0  0
 41117  1  0  0  0
 41 48  1  0  0  0
 42 43  1  0  0  0
 42 66  1  0  0  0
 42118  1  0  0  0
 42119  1  0  0  0
 43 44  1  0  0  0
 44120  1  0  0  0
 45 46  2  0  0  0
 45121  1  0  0  0
 46122  1  0  0  0
 47123  1  0  0  0
 47124  1  0  0  0
 48 56  1  0  0  0
 48 65  1  0  0  0
 48125  1  0  0  0
 49 50  1  0  0  0
 49 53  1  0  0  0
 49 64  1  0  0  0
 49126  1  0  0  0
 50 51  1  0  0  0
 50127  1  0  0  0
 50128  1  0  0  0
 51 52  1  0  0  0
 51129  1  0  0  0
 51130  1  0  0  0
 52131  1  0  0  0
 52132  1  0  0  0
 53 54  1  0  0  0
 54 55  2  0  0  0
 54133  1  0  0  0
 55 57  1  0  0  0
 55134  1  0  0  0
 56 69  2  0  0  0
 57 58  2  0  0  0
 57135  1  0  0  0
 58136  1  0  0  0
 59 60  1  0  0  0
 59 61  1  0  0  0
 59 62  1  0  0  0
 60137  1  0  0  0
 60138  1  0  0  0
 60139  1  0  0  0
 61140  1  0  0  0
 61141  1  0  0  0
 61142  1  0  0  0
 62143  1  0  0  0
 62144  1  0  0  0
 62145  1  0  0  0
 63 65  1  0  0  0
 63146  1  0  0  0
 63147  1  0  0  0
 63148  1  0  0  0
 64149  1  0  0  0
 65150  1  0  0  0
 68 87  1  0  0  0
 71 73  2  0  0  0
 71 76  1  0  0  0
 71151  1  0  0  0
 72 74  1  0  0  0
 72 76  2  0  0  0
 72152  1  0  0  0
 73 75  1  0  0  0
 73 83  1  0  0  0
 74 75  2  0  0  0
 74 86  1  0  0  0
 75 85  1  0  0  0
 76 88  1  0  0  0
 77 87  1  0  0  0
 77 89  1  0  0  0
 77 91  2  0  0  0
 78 79  1  0  0  0
 78 80  1  0  0  0
 78153  1  0  0  0
 78154  1  0  0  0
 79 81  1  0  0  0
 79155  1  0  0  0
 79156  1  0  0  0
 80 82  1  0  0  0
 80157  1  0  0  0
 80158  1  0  0  0
 81 90  1  0  0  0
 81159  1  0  0  0
 81160  1  0  0  0
 82 90  1  0  0  0
 82161  1  0  0  0
 82162  1  0  0  0
 83163  1  0  0  0
 83164  1  0  0  0
 83165  1  0  0  0
 84 89  1  0  0  0
 84166  1  0  0  0
 84167  1  0  0  0
 84168  1  0  0  0
 85 89  1  0  0  0
 85169  1  0  0  0
 85170  1  0  0  0
 86171  1  0  0  0
 86172  1  0  0  0
 86 90  1  0  0  0
 87173  1  0  0  0
 87174  1  0  0  0
 88175  1  0  0  0
 90176  1  0  0  0
M  CHG  1  90   1
M  ISO  4   1 100  68 101  87 101  88 100
M  END
> <chiral flag>
0

> <version>
0

> <s_m_source_file>
/data/baiqing/PycharmProjects/Reinvent-master-3.2/result/LINK_invent/BTK/process_docking_weight1_custom_product_contain_oxygen_bond_distance_aromatic_linkinvent_7_9_3/rearranged_h_0028.sdf

> <i_m_source_file_index>
79

> <r_mmod_Potential_Energy-OPLS-2005>
79.5890121459961

> <r_mmod_Stretch_Energy-OPLS-2005>
108.345840454102

> <r_mmod_Bend_Energy-OPLS-2005>
163.040664672852

> <r_mmod_Torsional_Energy-OPLS-2005>
298.82861328125

> <r_mmod_Improper_Torsional_Energy-OPLS-2005>
6.80070829391479

> <r_mmod_Van_der_Waal_Energy-OPLS-2005>
141.161880493164

> <r_mmod_Electrostatic_Energy-OPLS-2005>
-201.125610351562

> <r_mmod_Solvation_Energy-OPLS-2005>
-502.173156738281

> <b_mmod_Minimization_Converged-OPLS-2005>
0

> <r_mmod_RMS_Derivative-OPLS-2005>
2.03459239006042

$$$$
79
                    3D
 Structure written by MMmdl.
158167  0  0  1  0            999 V2000
  -30.6220  -14.7548   20.4707 C   0  0  0  0  0  0
  -30.4296  -12.4590   19.4886 C   0  0  0  0  0  0
  -29.5146  -12.5016   18.2459 C   0  0  0  0  0  0
  -28.0385  -12.3293   18.6575 C   0  0  0  0  0  0
  -27.6413  -13.2331   19.8551 C   0  0  2  0  0  0
  -28.6844  -13.1801   20.9923 C   0  0  0  0  0  0
  -25.2505  -13.8200   20.5701 C   0  0  0  0  0  0
  -24.1790  -13.0456   20.9212 C   0  0  0  0  0  0
  -24.6378  -11.6923   20.8770 C   0  0  0  0  0  0
  -23.9054  -10.4303   21.0428 C   0  0  0  0  0  0
  -24.3601   -9.4220   21.9212 C   0  0  0  0  0  0
  -23.6271   -8.2261   22.0777 C   0  0  0  0  0  0
  -22.4257   -8.0301   21.3563 C   0  0  0  0  0  0
  -21.9886   -9.0281   20.4678 C   0  0  0  0  0  0
  -22.7219  -10.2157   20.3086 C   0  0  0  0  0  0
  -21.6851   -6.0730   22.5274 C   0  0  0  0  0  0
  -21.4020   -6.5637   23.8207 C   0  0  0  0  0  0
  -21.3661   -5.6793   24.9172 C   0  0  0  0  0  0
  -21.6033   -4.3053   24.7226 C   0  0  0  0  0  0
  -21.8822   -3.8143   23.4349 C   0  0  0  0  0  0
  -21.9185   -4.6959   22.3401 C   0  0  0  0  0  0
  -22.7811  -13.5260   21.1846 C   0  0  0  0  0  0
  -22.1659   -4.2146   21.0977 F   0  0  0  0  0  0
  -21.5618   -3.4540   25.7747 F   0  0  0  0  0  0
  -29.9820  -13.5343   20.4053 N   0  0  0  0  0  0
  -26.2923  -12.9401   20.3302 N   0  0  0  0  0  0
  -25.9307  -11.6543   20.5796 N   0  0  0  0  0  0
  -22.0413  -12.8306   22.0411 N   0  0  0  0  0  0
  -25.4229  -15.1923   20.4109 N   0  0  0  0  0  0
  -31.8099  -14.8133   20.1468 O   0  0  0  0  0  0
  -21.6634   -6.8879   21.4242 O   0  0  0  0  0  0
  -22.3523  -14.5554   20.6662 O   0  0  0  0  0  0
  -24.6311  -31.8533   23.1954 C   0  0  0  0  0  0
  -25.9125  -32.4744   23.8322 C   0  0  1  0  0  0
  -27.2249  -27.2463   20.1391 C   0  0  0  0  0  0
  -25.5908  -33.8547   24.2243 N   0  0  0  0  0  0
  -23.4298  -30.4732   21.5380 C   0  0  2  0  0  0
  -24.8784  -28.9140   20.1081 C   0  0  0  0  0  0
  -22.7508  -29.4583   22.4894 C   0  0  0  0  0  0
  -18.0293  -28.1390   22.8484 C   0  0  0  0  0  0
  -24.1484  -36.7286   23.2644 C   0  0  0  0  0  0
  -25.9756  -30.7623   21.3767 C   0  0  0  0  0  0
  -26.0474  -29.3830   20.7181 C   0  0  0  0  0  0
  -27.2198  -28.5623   20.7175 C   0  0  0  0  0  0
  -26.0292  -26.8399   19.5057 C   0  0  0  0  0  0
  -24.8759  -27.6529   19.4897 C   0  0  0  0  0  0
  -23.6499  -29.8035   20.1545 C   0  0  0  0  0  0
  -25.4110  -36.3063   24.0327 C   0  0  1  0  0  0
  -20.5897  -28.3706   23.1270 C   0  0  2  0  0  0
  -20.6782  -26.9413   22.5421 C   0  0  0  0  0  0
  -19.5758  -26.6380   21.5224 C   0  0  0  0  0  0
  -18.1932  -26.7936   22.1619 C   0  0  0  0  0  0
  -19.1544  -28.8863   23.2878 C   0  0  0  0  0  0
  -18.9460  -30.1462   23.8900 C   0  0  0  0  0  0
  -17.6458  -30.6588   24.0561 C   0  0  0  0  0  0
  -25.9048  -34.9431   23.5092 C   0  0  0  0  0  0
  -16.5353  -29.9081   23.6324 C   0  0  0  0  0  0
  -16.7280  -28.6498   23.0352 C   0  0  0  0  0  0
  -26.4488  -31.6579   25.0721 C   0  0  0  0  0  0
  -25.3711  -31.3744   26.1447 C   0  0  0  0  0  0
  -27.0339  -30.2986   24.6234 C   0  0  0  0  0  0
  -27.6032  -32.4344   25.7493 C   0  0  0  0  0  0
  -27.5578  -37.1793   24.8456 C   0  0  0  0  0  0
  -21.4209  -29.3044   22.3647 N   0  0  0  0  0  0
  -26.4283  -37.3760   23.9400 N   0  0  0  0  0  0
  -24.6978  -31.0493   22.0923 N   0  0  0  0  0  0
  -23.4203  -28.8128   23.3004 O   0  0  0  0  0  0
  -28.3489  -26.3886   20.2284 O   0  0  0  0  0  0
  -26.5632  -34.8908   22.4671 O   0  0  0  0  0  0
  -23.5460  -32.1358   23.7245 O   0  0  0  0  0  0
  -29.3682  -18.5096   20.6871 C   0  0  0  0  0  0
  -31.6183  -17.6731   21.0466 C   0  0  0  0  0  0
  -29.7812  -19.9027   20.8958 C   0  0  0  0  0  0
  -30.2687  -17.3556   20.7723 C   0  0  0  0  0  0
  -32.0440  -18.9937   21.2709 C   0  0  0  0  0  0
  -31.1485  -20.0813   21.2347 C   0  0  0  0  0  0
  -29.9050  -22.9863   19.3999 C   0  0  0  0  0  0
  -30.7511  -22.2515   18.6593 C   0  0  0  0  0  0
  -29.8321  -24.5235   19.4543 C   0  0  0  0  0  0
  -28.0425  -23.6837   20.6992 C   0  0  0  0  0  0
  -28.3879  -24.9424   19.7864 C   0  0  1  0  0  0
  -28.8027  -21.1757   21.0472 C   0  0  0  0  0  0
  -29.8665  -15.9152   20.6679 N   0  0  0  0  0  0
  -28.7189  -22.4315   20.1281 N   0  3  2  0  0  0
  -33.3462  -19.2105   21.5777 F   0  0  0  0  0  0
  -31.7580  -21.6292   21.7174 Cl  0  0  0  0  0  0
  -31.4744  -12.5692   19.1950 H   0  0  0  0  0  0
  -30.3653  -11.4891   19.9841 H   0  0  0  0  0  0
  -29.7974  -11.7195   17.5390 H   0  0  0  0  0  0
  -29.6486  -13.4479   17.7197 H   0  0  0  0  0  0
  -27.8948  -11.2816   18.9260 H   0  0  0  0  0  0
  -27.3824  -12.5200   17.8080 H   0  0  0  0  0  0
  -27.6340  -14.2530   19.4693 H   0  0  0  0  0  0
  -28.7255  -12.1861   21.4407 H   0  0  0  0  0  0
  -28.4181  -13.8664   21.7982 H   0  0  0  0  0  0
  -25.2745   -9.5692   22.4790 H   0  0  0  0  0  0
  -23.9984   -7.4644   22.7484 H   0  0  0  0  0  0
  -21.0818   -8.8802   19.8982 H   0  0  0  0  0  0
  -22.3681  -10.9702   19.6202 H   0  0  0  0  0  0
  -21.2037   -7.6150   23.9709 H   0  0  0  0  0  0
  -21.1471   -6.0526   25.9069 H   0  0  0  0  0  0
  -22.0597   -2.7605   23.2844 H   0  0  0  0  0  0
  -22.3972  -11.9984   22.4864 H   0  0  0  0  0  0
  -21.1038  -13.1388   22.2542 H   0  0  0  0  0  0
  -24.6549  -15.8472   20.5104 H   0  0  0  0  0  0
  -26.2608  -15.6237   20.0408 H   0  0  0  0  0  0
  -26.7188  -32.5385   23.1064 H   0  0  0  0  0  0
  -25.0027  -33.9684   25.0367 H   0  0  0  0  0  0
  -22.7270  -31.2953   21.3894 H   0  0  0  0  0  0
  -23.3741  -35.9621   23.3297 H   0  0  0  0  0  0
  -24.3577  -36.8923   22.2060 H   0  0  0  0  0  0
  -23.7243  -37.6484   23.6685 H   0  0  0  0  0  0
  -26.1194  -31.5227   20.6084 H   0  0  0  0  0  0
  -26.8512  -30.8103   22.0124 H   0  0  0  0  0  0
  -28.1179  -28.9187   21.2020 H   0  0  0  0  0  0
  -25.9477  -25.8714   19.0379 H   0  0  0  0  0  0
  -23.9773  -27.2878   19.0118 H   0  0  0  0  0  0
  -23.7758  -30.5791   19.3983 H   0  0  0  0  0  0
  -22.7676  -29.2387   19.8498 H   0  0  0  0  0  0
  -25.1287  -36.1912   25.0819 H   0  0  0  0  0  0
  -20.9998  -28.3291   24.1390 H   0  0  0  0  0  0
  -20.5680  -26.2311   23.3632 H   0  0  0  0  0  0
  -21.6652  -26.7433   22.1216 H   0  0  0  0  0  0
  -19.6917  -25.6284   21.1265 H   0  0  0  0  0  0
  -19.6697  -27.3184   20.6748 H   0  0  0  0  0  0
  -17.4208  -26.6699   21.4011 H   0  0  0  0  0  0
  -18.0302  -26.0080   22.9010 H   0  0  0  0  0  0
  -19.7934  -30.7279   24.2277 H   0  0  0  0  0  0
  -17.5006  -31.6267   24.5158 H   0  0  0  0  0  0
  -15.5352  -30.2982   23.7646 H   0  0  0  0  0  0
  -15.8682  -28.0816   22.7076 H   0  0  0  0  0  0
  -24.5853  -30.7133   25.7769 H   0  0  0  0  0  0
  -24.8951  -32.2928   26.4895 H   0  0  0  0  0  0
  -25.8020  -30.8885   27.0209 H   0  0  0  0  0  0
  -26.2928  -29.6734   24.1236 H   0  0  0  0  0  0
  -27.3968  -29.7255   25.4779 H   0  0  0  0  0  0
  -27.8831  -30.4240   23.9513 H   0  0  0  0  0  0
  -27.2602  -33.3625   26.2082 H   0  0  0  0  0  0
  -28.3821  -32.6947   25.0312 H   0  0  0  0  0  0
  -28.0727  -31.8481   26.5402 H   0  0  0  0  0  0
  -28.2582  -38.0100   24.7499 H   0  0  0  0  0  0
  -28.1082  -36.2633   24.6268 H   0  0  0  0  0  0
  -27.2306  -37.1432   25.8860 H   0  0  0  0  0  0
  -20.9397  -29.8744   21.6826 H   0  0  0  0  0  0
  -26.0164  -38.2830   24.1397 H   0  0  0  0  0  0
  -28.3185  -18.3176   20.5116 H   0  0  0  0  0  0
  -32.3705  -16.9069   21.1452 H   0  0  0  0  0  0
  -31.5399  -22.7220   18.0897 H   0  0  0  0  0  0
  -30.6757  -21.1763   18.5994 H   0  0  0  0  0  0
  -30.1608  -24.9676   18.5152 H   0  0  0  0  0  0
  -30.5121  -24.8691   20.2340 H   0  0  0  0  0  0
  -26.9672  -23.5407   20.8038 H   0  0  0  0  0  0
  -28.4376  -23.8618   21.7002 H   0  0  0  0  0  0
  -27.8246  -24.8489   18.8579 H   0  0  0  0  0  0
  -29.0002  -21.5591   22.0483 H   0  0  0  0  0  0
  -27.7884  -20.7832   21.1139 H   0  0  0  0  0  0
  -28.8780  -15.7397   20.7604 H   0  0  0  0  0  0
  -28.0908  -22.1104   19.4052 H   0  0  0  0  0  0
  1 25  1  0  0  0
  1 30  2  0  0  0
  1 83  1  0  0  0
  2  3  1  0  0  0
  2 25  1  0  0  0
  2 87  1  0  0  0
  2 88  1  0  0  0
  3  4  1  0  0  0
  3 89  1  0  0  0
  3 90  1  0  0  0
  4  5  1  0  0  0
  4 91  1  0  0  0
  4 92  1  0  0  0
  5  6  1  0  0  0
  5 26  1  0  0  0
  5 93  1  0  0  0
  6 25  1  0  0  0
  6 94  1  0  0  0
  6 95  1  0  0  0
  7  8  2  0  0  0
  7 26  1  0  0  0
  7 29  1  0  0  0
  8  9  1  0  0  0
  8 22  1  0  0  0
  9 10  1  0  0  0
  9 27  2  0  0  0
 10 11  2  0  0  0
 10 15  1  0  0  0
 11 12  1  0  0  0
 11 96  1  0  0  0
 12 13  2  0  0  0
 12 97  1  0  0  0
 13 14  1  0  0  0
 13 31  1  0  0  0
 14 15  2  0  0  0
 14 98  1  0  0  0
 15 99  1  0  0  0
 16 17  2  0  0  0
 16 21  1  0  0  0
 16 31  1  0  0  0
 17 18  1  0  0  0
 17100  1  0  0  0
 18 19  2  0  0  0
 18101  1  0  0  0
 19 20  1  0  0  0
 19 24  1  0  0  0
 20 21  2  0  0  0
 20102  1  0  0  0
 21 23  1  0  0  0
 22 28  1  0  0  0
 22 32  2  0  0  0
 26 27  1  0  0  0
 28103  1  0  0  0
 28104  1  0  0  0
 29105  1  0  0  0
 29106  1  0  0  0
 33 34  1  0  0  0
 33 66  1  0  0  0
 33 70  2  0  0  0
 34 36  1  0  0  0
 34 59  1  0  0  0
 34107  1  0  0  0
 35 44  2  0  0  0
 35 45  1  0  0  0
 35 68  1  0  0  0
 36 56  1  0  0  0
 36108  1  0  0  0
 37 39  1  0  0  0
 37 47  1  0  0  0
 37 66  1  0  0  0
 37109  1  0  0  0
 38 43  2  0  0  0
 38 46  1  0  0  0
 38 47  1  0  0  0
 39 64  1  0  0  0
 39 67  2  0  0  0
 40 52  1  0  0  0
 40 53  2  0  0  0
 40 58  1  0  0  0
 41110  1  0  0  0
 41111  1  0  0  0
 41112  1  0  0  0
 41 48  1  0  0  0
 42 43  1  0  0  0
 42 66  1  0  0  0
 42113  1  0  0  0
 42114  1  0  0  0
 43 44  1  0  0  0
 44115  1  0  0  0
 45 46  2  0  0  0
 45116  1  0  0  0
 46117  1  0  0  0
 47118  1  0  0  0
 47119  1  0  0  0
 48 56  1  0  0  0
 48 65  1  0  0  0
 48120  1  0  0  0
 49 50  1  0  0  0
 49 53  1  0  0  0
 49 64  1  0  0  0
 49121  1  0  0  0
 50 51  1  0  0  0
 50122  1  0  0  0
 50123  1  0  0  0
 51 52  1  0  0  0
 51124  1  0  0  0
 51125  1  0  0  0
 52126  1  0  0  0
 52127  1  0  0  0
 53 54  1  0  0  0
 54 55  2  0  0  0
 54128  1  0  0  0
 55 57  1  0  0  0
 55129  1  0  0  0
 56 69  2  0  0  0
 57 58  2  0  0  0
 57130  1  0  0  0
 58131  1  0  0  0
 59 60  1  0  0  0
 59 61  1  0  0  0
 59 62  1  0  0  0
 60132  1  0  0  0
 60133  1  0  0  0
 60134  1  0  0  0
 61135  1  0  0  0
 61136  1  0  0  0
 61137  1  0  0  0
 62138  1  0  0  0
 62139  1  0  0  0
 62140  1  0  0  0
 63 65  1  0  0  0
 63141  1  0  0  0
 63142  1  0  0  0
 63143  1  0  0  0
 64144  1  0  0  0
 65145  1  0  0  0
 68 81  1  0  0  0
 71 73  2  0  0  0
 71 74  1  0  0  0
 71146  1  0  0  0
 72 74  2  0  0  0
 72 75  1  0  0  0
 72147  1  0  0  0
 73 76  1  0  0  0
 73 82  1  0  0  0
 74 83  1  0  0  0
 75 76  2  0  0  0
 75 85  1  0  0  0
 76 86  1  0  0  0
 77 78  2  0  0  0
 77 79  1  0  0  0
 77 84  1  0  0  0
 78148  1  0  0  0
 78149  1  0  0  0
 79 81  1  0  0  0
 79150  1  0  0  0
 79151  1  0  0  0
 80 81  1  0  0  0
 80 84  1  0  0  0
 80152  1  0  0  0
 80153  1  0  0  0
 81154  1  0  0  0
 82155  1  0  0  0
 82156  1  0  0  0
 82 84  1  0  0  0
 83157  1  0  0  0
 84158  1  0  0  0
M  CHG  1  84   1
M  ISO  4   1 100  68 101  81 101  83 100
M  END
> <chiral flag>
0

> <version>
0

> <s_m_source_file>
/data/baiqing/PycharmProjects/Reinvent-master-3.2/result/LINK_invent/BTK/process_docking_weight1_custom_product_contain_oxygen_bond_distance_aromatic_linkinvent_7_9_3/rearranged_h_0028.sdf

> <i_m_source_file_index>
80

> <r_mmod_Potential_Energy-OPLS-2005>
123.599815368652

> <r_mmod_Stretch_Energy-OPLS-2005>
137.723052978516

> <r_mmod_Bend_Energy-OPLS-2005>
236.237014770508

> <r_mmod_Torsional_Energy-OPLS-2005>
227.250396728516

> <r_mmod_Improper_Torsional_Energy-OPLS-2005>
7.47348165512085

> <r_mmod_Van_der_Waal_Energy-OPLS-2005>
137.603668212891

> <r_mmod_Electrostatic_Energy-OPLS-2005>
-256.707458496094

> <r_mmod_Solvation_Energy-OPLS-2005>
-455.190277099609

> <b_mmod_Minimization_Converged-OPLS-2005>
0

> <r_mmod_RMS_Derivative-OPLS-2005>
2.31354522705078

$$$$
80
                    3D
 Structure written by MMmdl.
157166  0  0  1  0            999 V2000
  -30.4039  -15.3140   20.3784 C   0  0  0  0  0  0
  -30.4336  -12.8467   19.5187 C   0  0  0  0  0  0
  -29.5300  -12.5876   18.2853 C   0  0  0  0  0  0
  -28.0775  -12.3103   18.7113 C   0  0  0  0  0  0
  -27.6040  -13.2820   19.8214 C   0  0  2  0  0  0
  -28.6410  -13.4620   20.9502 C   0  0  0  0  0  0
  -25.2344  -13.8261   20.5780 C   0  0  0  0  0  0
  -24.1713  -13.0428   20.9287 C   0  0  0  0  0  0
  -24.6379  -11.6941   20.8779 C   0  0  0  0  0  0
  -23.9087  -10.4288   21.0417 C   0  0  0  0  0  0
  -24.3635   -9.4201   21.9200 C   0  0  0  0  0  0
  -23.6303   -8.2243   22.0761 C   0  0  0  0  0  0
  -22.4287   -8.0285   21.3543 C   0  0  0  0  0  0
  -21.9922   -9.0259   20.4657 C   0  0  0  0  0  0
  -22.7251  -10.2135   20.3063 C   0  0  0  0  0  0
  -21.6857   -6.0743   22.5274 C   0  0  0  0  0  0
  -21.4004   -6.5639   23.8217 C   0  0  0  0  0  0
  -21.3655   -5.6786   24.9180 C   0  0  0  0  0  0
  -21.6033   -4.3051   24.7228 C   0  0  0  0  0  0
  -21.8824   -3.8143   23.4346 C   0  0  0  0  0  0
  -21.9189   -4.6970   22.3402 C   0  0  0  0  0  0
  -22.7736  -13.5186   21.1925 C   0  0  0  0  0  0
  -22.1667   -4.2161   21.0971 F   0  0  0  0  0  0
  -21.5628   -3.4529   25.7728 F   0  0  0  0  0  0
  -29.8567  -13.9961   20.3130 N   0  0  0  0  0  0
  -26.2775  -12.9548   20.3235 N   0  0  0  0  0  0
  -25.9319  -11.6639   20.5724 N   0  0  0  0  0  0
  -22.0380  -12.8170   22.0477 N   0  0  0  0  0  0
  -25.3901  -15.2003   20.4219 N   0  0  0  0  0  0
  -31.6351  -15.3118   20.2182 O   0  0  0  0  0  0
  -21.6633   -6.8900   21.4243 O   0  0  0  0  0  0
  -22.3421  -14.5498   20.6798 O   0  0  0  0  0  0
  -24.6724  -31.8174   23.1625 C   0  0  0  0  0  0
  -25.9381  -32.4529   23.8132 C   0  0  1  0  0  0
  -27.2158  -26.8549   20.2217 C   0  0  0  0  0  0
  -25.6056  -33.8336   24.2053 N   0  0  0  0  0  0
  -23.4881  -30.4230   21.5121 C   0  0  2  0  0  0
  -24.9418  -28.7896   20.1225 C   0  0  0  0  0  0
  -22.7709  -29.4385   22.4721 C   0  0  0  0  0  0
  -18.0330  -28.1444   22.8454 C   0  0  0  0  0  0
  -24.1458  -36.7130   23.2651 C   0  0  0  0  0  0
  -26.0594  -30.6015   21.3997 C   0  0  0  0  0  0
  -26.1279  -29.1792   20.7588 C   0  0  0  0  0  0
  -27.2618  -28.2385   20.7717 C   0  0  0  0  0  0
  -25.9948  -26.6251   19.5463 C   0  0  0  0  0  0
  -24.9039  -27.5337   19.4947 C   0  0  0  0  0  0
  -23.7345  -29.7299   20.1415 C   0  0  0  0  0  0
  -25.4103  -36.2900   24.0307 C   0  0  1  0  0  0
  -20.5954  -28.3788   23.1152 C   0  0  2  0  0  0
  -20.6807  -26.9451   22.5383 C   0  0  0  0  0  0
  -19.5782  -26.6400   21.5191 C   0  0  0  0  0  0
  -18.1966  -26.7989   22.1599 C   0  0  0  0  0  0
  -19.1604  -28.8936   23.2775 C   0  0  0  0  0  0
  -18.9523  -30.1522   23.8818 C   0  0  0  0  0  0
  -17.6516  -30.6634   24.0548 C   0  0  0  0  0  0
  -25.9080  -34.9309   23.4975 C   0  0  0  0  0  0
  -16.5397  -29.9112   23.6360 C   0  0  0  0  0  0
  -16.7313  -28.6543   23.0358 C   0  0  0  0  0  0
  -26.4621  -31.6501   25.0682 C   0  0  0  0  0  0
  -25.3746  -31.3757   26.1319 C   0  0  0  0  0  0
  -27.0547  -30.2869   24.6440 C   0  0  0  0  0  0
  -27.6068  -32.4351   25.7522 C   0  0  0  0  0  0
  -27.5523  -37.1717   24.8491 C   0  0  0  0  0  0
  -21.4369  -29.3076   22.3520 N   0  0  0  0  0  0
  -26.4229  -37.3666   23.9448 N   0  0  0  0  0  0
  -24.7619  -30.9760   22.0800 N   0  0  0  0  0  0
  -23.4224  -28.7941   23.2979 O   0  0  0  0  0  0
  -28.2443  -25.7540   20.2018 O   0  0  0  0  0  0
  -26.5658  -34.8885   22.4549 O   0  0  0  0  0  0
  -23.5777  -32.1162   23.6683 O   0  0  0  0  0  0
  -30.5807  -21.0685   21.1514 C   0  0  0  0  0  0
  -31.0232  -18.5845   21.1623 C   0  0  0  0  0  0
  -29.3325  -20.9749   20.4962 C   0  0  0  0  0  0
  -28.9820  -19.4972   20.2333 C   0  0  0  0  0  0
  -29.8154  -18.2052   20.5345 C   0  0  0  0  0  0
  -31.3751  -19.9289   21.4699 C   0  0  0  0  0  0
  -27.6011  -19.3903   19.5921 C   0  0  0  0  0  0
  -27.2241  -21.8779   19.3074 C   0  0  0  0  0  0
  -28.5141  -22.4413   19.9801 C   0  0  1  0  0  0
  -25.3035  -20.3191   19.6190 C   0  0  0  0  0  0
  -28.2072  -24.1318   20.6569 C   0  0  0  0  0  0
  -29.6054  -16.5874   20.3730 N   0  0  0  0  0  0
  -26.7351  -20.5810   19.9006 N   0  3  1  0  0  0
  -32.5507  -20.1352   22.1103 F   0  0  0  0  0  0
  -31.4485  -13.0612   19.1840 H   0  0  0  0  0  0
  -30.5152  -11.9473   20.1307 H   0  0  0  0  0  0
  -29.9134  -11.7544   17.6931 H   0  0  0  0  0  0
  -29.5547  -13.4636   17.6359 H   0  0  0  0  0  0
  -28.0272  -11.2841   19.0745 H   0  0  0  0  0  0
  -27.4112  -12.3640   17.8490 H   0  0  0  0  0  0
  -27.5113  -14.2486   19.3251 H   0  0  0  0  0  0
  -28.8251  -12.5226   21.4743 H   0  0  0  0  0  0
  -28.2776  -14.1698   21.6979 H   0  0  0  0  0  0
  -25.2770   -9.5679   22.4789 H   0  0  0  0  0  0
  -23.9999   -7.4629   22.7477 H   0  0  0  0  0  0
  -21.0848   -8.8794   19.8962 H   0  0  0  0  0  0
  -22.3710  -10.9695   19.6184 H   0  0  0  0  0  0
  -21.1991   -7.6144   23.9728 H   0  0  0  0  0  0
  -21.1466   -6.0508   25.9082 H   0  0  0  0  0  0
  -22.0601   -2.7610   23.2829 H   0  0  0  0  0  0
  -22.3979  -11.9782   22.4802 H   0  0  0  0  0  0
  -21.1024  -13.1224   22.2744 H   0  0  0  0  0  0
  -24.6035  -15.8323   20.5284 H   0  0  0  0  0  0
  -26.2122  -15.6465   20.0409 H   0  0  0  0  0  0
  -26.7451  -32.5061   23.0840 H   0  0  0  0  0  0
  -25.0330  -33.9424   25.0299 H   0  0  0  0  0  0
  -22.8052  -31.2548   21.3302 H   0  0  0  0  0  0
  -23.3751  -35.9431   23.3307 H   0  0  0  0  0  0
  -24.3523  -36.8794   22.2064 H   0  0  0  0  0  0
  -23.7218  -37.6316   23.6720 H   0  0  0  0  0  0
  -26.2341  -31.3359   20.6109 H   0  0  0  0  0  0
  -26.9188  -30.6705   22.0535 H   0  0  0  0  0  0
  -28.1688  -28.5433   21.2742 H   0  0  0  0  0  0
  -25.8597  -25.6678   19.0595 H   0  0  0  0  0  0
  -24.0039  -27.2289   18.9769 H   0  0  0  0  0  0
  -23.9066  -30.4936   19.3807 H   0  0  0  0  0  0
  -22.8438  -29.1909   19.8166 H   0  0  0  0  0  0
  -25.1291  -36.1649   25.0797 H   0  0  0  0  0  0
  -21.0021  -28.3426   24.1275 H   0  0  0  0  0  0
  -20.5738  -26.2402   23.3646 H   0  0  0  0  0  0
  -21.6664  -26.7468   22.1158 H   0  0  0  0  0  0
  -19.6955  -25.6291   21.1297 H   0  0  0  0  0  0
  -19.6750  -27.3172   20.6685 H   0  0  0  0  0  0
  -17.4238  -26.6747   21.3987 H   0  0  0  0  0  0
  -18.0294  -26.0140   22.8984 H   0  0  0  0  0  0
  -19.8009  -30.7327   24.2169 H   0  0  0  0  0  0
  -17.5095  -31.6316   24.5169 H   0  0  0  0  0  0
  -15.5407  -30.2996   23.7767 H   0  0  0  0  0  0
  -15.8699  -28.0866   22.7079 H   0  0  0  0  0  0
  -24.6005  -30.6999   25.7669 H   0  0  0  0  0  0
  -24.8841  -32.2940   26.4535 H   0  0  0  0  0  0
  -25.7994  -30.9135   27.0233 H   0  0  0  0  0  0
  -26.3238  -29.6489   24.1456 H   0  0  0  0  0  0
  -27.4095  -29.7269   25.5109 H   0  0  0  0  0  0
  -27.9165  -30.4049   23.9859 H   0  0  0  0  0  0
  -27.2631  -33.3787   26.1766 H   0  0  0  0  0  0
  -28.4056  -32.6682   25.0470 H   0  0  0  0  0  0
  -28.0499  -31.8682   26.5710 H   0  0  0  0  0  0
  -28.2491  -38.0033   24.7483 H   0  0  0  0  0  0
  -28.1044  -36.2568   24.6361 H   0  0  0  0  0  0
  -27.2233  -37.1377   25.8882 H   0  0  0  0  0  0
  -20.9648  -29.8818   21.6678 H   0  0  0  0  0  0
  -26.0047  -38.2694   24.1533 H   0  0  0  0  0  0
  -30.9698  -22.0450   21.4058 H   0  0  0  0  0  0
  -31.7157  -17.8094   21.4555 H   0  0  0  0  0  0
  -27.1305  -18.4791   19.9640 H   0  0  0  0  0  0
  -27.7171  -19.2785   18.5129 H   0  0  0  0  0  0
  -27.4127  -21.7056   18.2477 H   0  0  0  0  0  0
  -26.4419  -22.6376   19.3460 H   0  0  0  0  0  0
  -29.1694  -22.7042   19.1513 H   0  0  0  0  0  0
  -24.9530  -19.4442   20.1736 H   0  0  0  0  0  0
  -25.1164  -20.1400   18.5593 H   0  0  0  0  0  0
  -24.6844  -21.1586   19.9353 H   0  0  0  0  0  0
  -28.9357  -24.1608   21.4670 H   0  0  0  0  0  0
  -27.2666  -24.0436   21.2007 H   0  0  0  0  0  0
  -28.6323  -16.3450   20.2670 H   0  0  0  0  0  0
  -26.7837  -20.7013   20.9010 H   0  0  0  0  0  0
  1 25  1  0  0  0
  1 30  2  0  0  0
  1 82  1  0  0  0
  2  3  1  0  0  0
  2 25  1  0  0  0
  2 85  1  0  0  0
  2 86  1  0  0  0
  3  4  1  0  0  0
  3 87  1  0  0  0
  3 88  1  0  0  0
  4  5  1  0  0  0
  4 89  1  0  0  0
  4 90  1  0  0  0
  5  6  1  0  0  0
  5 26  1  0  0  0
  5 91  1  0  0  0
  6 25  1  0  0  0
  6 92  1  0  0  0
  6 93  1  0  0  0
  7  8  2  0  0  0
  7 26  1  0  0  0
  7 29  1  0  0  0
  8  9  1  0  0  0
  8 22  1  0  0  0
  9 10  1  0  0  0
  9 27  2  0  0  0
 10 11  2  0  0  0
 10 15  1  0  0  0
 11 12  1  0  0  0
 11 94  1  0  0  0
 12 13  2  0  0  0
 12 95  1  0  0  0
 13 14  1  0  0  0
 13 31  1  0  0  0
 14 15  2  0  0  0
 14 96  1  0  0  0
 15 97  1  0  0  0
 16 17  2  0  0  0
 16 21  1  0  0  0
 16 31  1  0  0  0
 17 18  1  0  0  0
 17 98  1  0  0  0
 18 19  2  0  0  0
 18 99  1  0  0  0
 19 20  1  0  0  0
 19 24  1  0  0  0
 20 21  2  0  0  0
 20100  1  0  0  0
 21 23  1  0  0  0
 22 28  1  0  0  0
 22 32  2  0  0  0
 26 27  1  0  0  0
 28101  1  0  0  0
 28102  1  0  0  0
 29103  1  0  0  0
 29104  1  0  0  0
 33 34  1  0  0  0
 33 66  1  0  0  0
 33 70  2  0  0  0
 34 36  1  0  0  0
 34 59  1  0  0  0
 34105  1  0  0  0
 35 44  2  0  0  0
 35 45  1  0  0  0
 35 68  1  0  0  0
 36 56  1  0  0  0
 36106  1  0  0  0
 37 39  1  0  0  0
 37 47  1  0  0  0
 37 66  1  0  0  0
 37107  1  0  0  0
 38 43  2  0  0  0
 38 46  1  0  0  0
 38 47  1  0  0  0
 39 64  1  0  0  0
 39 67  2  0  0  0
 40 52  1  0  0  0
 40 53  2  0  0  0
 40 58  1  0  0  0
 41108  1  0  0  0
 41109  1  0  0  0
 41110  1  0  0  0
 41 48  1  0  0  0
 42 43  1  0  0  0
 42 66  1  0  0  0
 42111  1  0  0  0
 42112  1  0  0  0
 43 44  1  0  0  0
 44113  1  0  0  0
 45 46  2  0  0  0
 45114  1  0  0  0
 46115  1  0  0  0
 47116  1  0  0  0
 47117  1  0  0  0
 48 56  1  0  0  0
 48 65  1  0  0  0
 48118  1  0  0  0
 49 50  1  0  0  0
 49 53  1  0  0  0
 49 64  1  0  0  0
 49119  1  0  0  0
 50 51  1  0  0  0
 50120  1  0  0  0
 50121  1  0  0  0
 51 52  1  0  0  0
 51122  1  0  0  0
 51123  1  0  0  0
 52124  1  0  0  0
 52125  1  0  0  0
 53 54  1  0  0  0
 54 55  2  0  0  0
 54126  1  0  0  0
 55 57  1  0  0  0
 55127  1  0  0  0
 56 69  2  0  0  0
 57 58  2  0  0  0
 57128  1  0  0  0
 58129  1  0  0  0
 59 60  1  0  0  0
 59 61  1  0  0  0
 59 62  1  0  0  0
 60130  1  0  0  0
 60131  1  0  0  0
 60132  1  0  0  0
 61133  1  0  0  0
 61134  1  0  0  0
 61135  1  0  0  0
 62136  1  0  0  0
 62137  1  0  0  0
 62138  1  0  0  0
 63 65  1  0  0  0
 63139  1  0  0  0
 63140  1  0  0  0
 63141  1  0  0  0
 64142  1  0  0  0
 65143  1  0  0  0
 68 81  1  0  0  0
 71 73  2  0  0  0
 71 76  1  0  0  0
 71144  1  0  0  0
 72 75  1  0  0  0
 72 76  2  0  0  0
 72145  1  0  0  0
 73 74  1  0  0  0
 73 79  1  0  0  0
 74 75  2  0  0  0
 74 77  1  0  0  0
 75 82  1  0  0  0
 76 84  1  0  0  0
 77 83  1  0  0  0
 77146  1  0  0  0
 77147  1  0  0  0
 78 79  1  0  0  0
 78 83  1  0  0  0
 78148  1  0  0  0
 78149  1  0  0  0
 79 81  1  0  0  0
 79150  1  0  0  0
 80151  1  0  0  0
 80152  1  0  0  0
 80153  1  0  0  0
 80 83  1  0  0  0
 81154  1  0  0  0
 81155  1  0  0  0
 82156  1  0  0  0
 83157  1  0  0  0
M  CHG  1  83   1
M  ISO  4   1 100  68 101  81 101  82 100
M  END
> <chiral flag>
0

> <version>
0

> <s_m_source_file>
/data/baiqing/PycharmProjects/Reinvent-master-3.2/result/LINK_invent/BTK/process_docking_weight1_custom_product_contain_oxygen_bond_distance_aromatic_linkinvent_7_9_3/rearranged_h_0028.sdf

> <i_m_source_file_index>
81

> <r_mmod_Potential_Energy-OPLS-2005>
1369.77038574219

> <r_mmod_Stretch_Energy-OPLS-2005>
665.545654296875

> <r_mmod_Bend_Energy-OPLS-2005>
475.821197509766

> <r_mmod_Torsional_Energy-OPLS-2005>
278.448974609375

> <r_mmod_Improper_Torsional_Energy-OPLS-2005>
6.30584812164307

> <r_mmod_Van_der_Waal_Energy-OPLS-2005>
127.217712402344

> <r_mmod_Electrostatic_Energy-OPLS-2005>
-218.351593017578

> <r_mmod_Solvation_Energy-OPLS-2005>
-493.576812744141

> <b_mmod_Minimization_Converged-OPLS-2005>
0

> <r_mmod_RMS_Derivative-OPLS-2005>
4.1761908531189

$$$$
81
                    3D
 Structure written by MMmdl.
173183  0  0  1  0            999 V2000
  -30.7635  -14.3834   20.6812 C   0  0  0  0  0  0
  -30.4131  -12.3001   19.3985 C   0  0  0  0  0  0
  -29.4803  -12.5200   18.1935 C   0  0  0  0  0  0
  -28.0068  -12.3598   18.6107 C   0  0  0  0  0  0
  -27.6592  -13.1914   19.8706 C   0  0  2  0  0  0
  -28.6980  -12.9528   20.9907 C   0  0  0  0  0  0
  -25.2593  -13.8135   20.5657 C   0  0  0  0  0  0
  -24.1835  -13.0430   20.9171 C   0  0  0  0  0  0
  -24.6367  -11.6891   20.8731 C   0  0  0  0  0  0
  -23.9035  -10.4286   21.0410 C   0  0  0  0  0  0
  -24.3595   -9.4208   21.9188 C   0  0  0  0  0  0
  -23.6278   -8.2241   22.0757 C   0  0  0  0  0  0
  -22.4263   -8.0274   21.3543 C   0  0  0  0  0  0
  -21.9892   -9.0246   20.4646 C   0  0  0  0  0  0
  -22.7211  -10.2129   20.3058 C   0  0  0  0  0  0
  -21.6848   -6.0733   22.5278 C   0  0  0  0  0  0
  -21.4009   -6.5639   23.8211 C   0  0  0  0  0  0
  -21.3657   -5.6793   24.9174 C   0  0  0  0  0  0
  -21.6046   -4.3055   24.7226 C   0  0  0  0  0  0
  -21.8821   -3.8147   23.4347 C   0  0  0  0  0  0
  -21.9191   -4.6962   22.3402 C   0  0  0  0  0  0
  -22.7867  -13.5249   21.1846 C   0  0  0  0  0  0
  -22.1662   -4.2149   21.0978 F   0  0  0  0  0  0
  -21.5628   -3.4538   25.7740 F   0  0  0  0  0  0
  -30.0376  -13.2538   20.4550 N   0  0  0  0  0  0
  -26.3000  -12.9267   20.3330 N   0  0  0  0  0  0
  -25.9280  -11.6444   20.5746 N   0  0  0  0  0  0
  -22.0500  -12.8242   22.0397 N   0  0  0  0  0  0
  -25.4340  -15.1850   20.4058 N   0  0  0  0  0  0
  -31.8142  -14.6255   20.0763 O   0  0  0  0  0  0
  -21.6629   -6.8874   21.4239 O   0  0  0  0  0  0
  -22.3560  -14.5560   20.6703 O   0  0  0  0  0  0
  -24.6113  -31.8694   23.2125 C   0  0  0  0  0  0
  -25.9022  -32.4827   23.8407 C   0  0  1  0  0  0
  -27.2364  -27.4648   20.0887 C   0  0  0  0  0  0
  -25.5896  -33.8627   24.2339 N   0  0  0  0  0  0
  -23.3964  -30.4927   21.5525 C   0  0  2  0  0  0
  -24.8414  -28.9597   20.1174 C   0  0  0  0  0  0
  -22.7381  -29.4666   22.5016 C   0  0  0  0  0  0
  -18.0266  -28.1374   22.8500 C   0  0  0  0  0  0
  -24.1485  -36.7313   23.2638 C   0  0  0  0  0  0
  -25.9219  -30.8435   21.3612 C   0  0  0  0  0  0
  -25.9986  -29.4804   20.7088 C   0  0  0  0  0  0
  -27.1982  -28.7408   20.6884 C   0  0  0  0  0  0
  -26.0631  -26.9513   19.4895 C   0  0  0  0  0  0
  -24.8671  -27.6934   19.5065 C   0  0  0  0  0  0
  -23.6021  -29.8225   20.1674 C   0  0  0  0  0  0
  -25.4108  -36.3114   24.0336 C   0  0  1  0  0  0
  -20.5849  -28.3651   23.1335 C   0  0  2  0  0  0
  -20.6751  -26.9389   22.5430 C   0  0  0  0  0  0
  -19.5736  -26.6382   21.5216 C   0  0  0  0  0  0
  -18.1908  -26.7930   22.1612 C   0  0  0  0  0  0
  -19.1512  -28.8833   23.2913 C   0  0  0  0  0  0
  -18.9442  -30.1446   23.8916 C   0  0  0  0  0  0
  -17.6444  -30.6582   24.0573 C   0  0  0  0  0  0
  -25.9032  -34.9478   23.5133 C   0  0  0  0  0  0
  -16.5338  -29.9082   23.6334 C   0  0  0  0  0  0
  -16.7257  -28.6502   23.0350 C   0  0  0  0  0  0
  -26.4463  -31.6600   25.0725 C   0  0  0  0  0  0
  -25.3737  -31.3685   26.1475 C   0  0  0  0  0  0
  -27.0301  -30.3052   24.6083 C   0  0  0  0  0  0
  -27.6043  -32.4316   25.7487 C   0  0  0  0  0  0
  -27.5585  -37.1807   24.8461 C   0  0  0  0  0  0
  -21.4114  -29.3021   22.3749 N   0  0  0  0  0  0
  -26.4294  -37.3797   23.9410 N   0  0  0  0  0  0
  -24.6610  -31.0823   22.1009 N   0  0  0  0  0  0
  -23.4174  -28.8211   23.3040 O   0  0  0  0  0  0
  -28.4328  -26.7885   20.0868 O   0  0  0  0  0  0
  -26.5588  -34.8921   22.4690 O   0  0  0  0  0  0
  -23.5317  -32.1430   23.7547 O   0  0  0  0  0  0
  -32.4523  -19.2566   20.3710 C   0  0  0  0  0  0
  -32.5925  -21.6729   20.2387 C   0  0  0  0  0  0
  -31.4578  -19.3443   21.3726 C   0  0  0  0  0  0
  -31.5723  -21.7988   21.2053 C   0  0  0  0  0  0
  -30.9916  -20.6296   21.7784 C   0  0  0  0  0  0
  -33.0243  -20.4092   19.8154 C   0  0  0  0  0  0
  -29.7989  -17.4654   21.0260 C   0  0  0  0  0  0
  -31.9557  -16.9795   22.2944 C   0  0  0  0  0  0
  -28.9348  -24.6939   18.9318 C   0  0  0  0  0  0
  -29.2630  -16.1215   21.5529 C   0  0  0  0  0  0
  -31.3223  -15.6384   22.7231 C   0  0  0  0  0  0
  -29.9937  -23.6841   19.4031 C   0  0  0  0  0  0
  -29.3816  -24.9449   21.3034 C   0  0  0  0  0  0
  -30.8826  -18.0447   21.9547 C   0  0  0  0  0  0
  -28.4080  -25.3671   20.2031 C   0  0  1  0  0  0
  -29.8742  -20.7377   22.8157 C   0  0  0  0  0  0
  -31.1393  -23.2132   21.5870 C   0  0  0  0  0  0
  -30.3626  -15.1596   21.7172 N   0  0  0  0  0  0
  -29.9042  -23.6320   20.8795 N   0  3  2  0  0  0
  -33.9883  -20.3023   18.8709 F   0  0  0  0  0  0
  -31.4551  -12.4010   19.0901 H   0  0  0  0  0  0
  -30.3177  -11.2795   19.7722 H   0  0  0  0  0  0
  -29.7209  -11.8150   17.3965 H   0  0  0  0  0  0
  -29.6396  -13.5169   17.7794 H   0  0  0  0  0  0
  -27.8251  -11.3014   18.8023 H   0  0  0  0  0  0
  -27.3496  -12.6360   17.7851 H   0  0  0  0  0  0
  -27.7037  -14.2337   19.5622 H   0  0  0  0  0  0
  -28.6681  -11.9116   21.3149 H   0  0  0  0  0  0
  -28.4446  -13.5319   21.8785 H   0  0  0  0  0  0
  -25.2740   -9.5686   22.4760 H   0  0  0  0  0  0
  -23.9990   -7.4633   22.7474 H   0  0  0  0  0  0
  -21.0827   -8.8760   19.8949 H   0  0  0  0  0  0
  -22.3673  -10.9668   19.6165 H   0  0  0  0  0  0
  -21.2001   -7.6147   23.9716 H   0  0  0  0  0  0
  -21.1477   -6.0522   25.9077 H   0  0  0  0  0  0
  -22.0604   -2.7610   23.2847 H   0  0  0  0  0  0
  -22.4099  -11.9889   22.4766 H   0  0  0  0  0  0
  -21.1128  -13.1285   22.2620 H   0  0  0  0  0  0
  -24.6693  -15.8421   20.5148 H   0  0  0  0  0  0
  -26.2882  -15.6223   20.0849 H   0  0  0  0  0  0
  -26.7097  -32.5546   23.1180 H   0  0  0  0  0  0
  -25.0093  -33.9804   25.0515 H   0  0  0  0  0  0
  -22.6839  -31.3084   21.4140 H   0  0  0  0  0  0
  -23.3753  -35.9640   23.3296 H   0  0  0  0  0  0
  -24.3582  -36.8933   22.2054 H   0  0  0  0  0  0
  -23.7225  -37.6509   23.6659 H   0  0  0  0  0  0
  -26.0323  -31.6117   20.5949 H   0  0  0  0  0  0
  -26.8108  -30.8945   21.9786 H   0  0  0  0  0  0
  -28.0954  -29.1435   21.1380 H   0  0  0  0  0  0
  -26.0630  -25.9929   18.9901 H   0  0  0  0  0  0
  -23.9772  -27.2898   19.0425 H   0  0  0  0  0  0
  -23.7064  -30.5952   19.4052 H   0  0  0  0  0  0
  -22.7276  -29.2379   19.8756 H   0  0  0  0  0  0
  -25.1286  -36.1983   25.0829 H   0  0  0  0  0  0
  -20.9942  -28.3214   24.1455 H   0  0  0  0  0  0
  -20.5646  -26.2259   23.3612 H   0  0  0  0  0  0
  -21.6627  -26.7426   22.1232 H   0  0  0  0  0  0
  -19.6888  -25.6295   21.1238 H   0  0  0  0  0  0
  -19.6687  -27.3208   20.6760 H   0  0  0  0  0  0
  -17.4187  -26.6720   21.3993 H   0  0  0  0  0  0
  -18.0274  -26.0057   22.8986 H   0  0  0  0  0  0
  -19.7916  -30.7270   24.2278 H   0  0  0  0  0  0
  -17.4992  -31.6260   24.5176 H   0  0  0  0  0  0
  -15.5339  -30.2987   23.7645 H   0  0  0  0  0  0
  -15.8660  -28.0831   22.7047 H   0  0  0  0  0  0
  -24.5987  -30.6927   25.7837 H   0  0  0  0  0  0
  -24.8831  -32.2819   26.4848 H   0  0  0  0  0  0
  -25.8120  -30.8957   27.0273 H   0  0  0  0  0  0
  -26.2844  -29.6814   24.1140 H   0  0  0  0  0  0
  -27.4085  -29.7280   25.4529 H   0  0  0  0  0  0
  -27.8666  -30.4383   23.9220 H   0  0  0  0  0  0
  -27.2667  -33.3606   26.2093 H   0  0  0  0  0  0
  -28.3842  -32.6889   25.0307 H   0  0  0  0  0  0
  -28.0724  -31.8420   26.5380 H   0  0  0  0  0  0
  -28.2597  -38.0111   24.7529 H   0  0  0  0  0  0
  -28.1090  -36.2644   24.6269 H   0  0  0  0  0  0
  -27.2308  -37.1440   25.8865 H   0  0  0  0  0  0
  -20.9267  -29.8750   21.6985 H   0  0  0  0  0  0
  -26.0184  -38.2872   24.1429 H   0  0  0  0  0  0
  -32.7950  -18.3018   20.0042 H   0  0  0  0  0  0
  -33.0474  -22.5500   19.8010 H   0  0  0  0  0  0
  -28.9769  -18.1748   20.9244 H   0  0  0  0  0  0
  -30.2046  -17.3275   20.0227 H   0  0  0  0  0  0
  -32.6024  -16.7781   21.4432 H   0  0  0  0  0  0
  -32.6096  -17.3522   23.0837 H   0  0  0  0  0  0
  -28.1241  -24.1996   18.3963 H   0  0  0  0  0  0
  -29.3793  -25.4199   18.2503 H   0  0  0  0  0  0
  -28.5042  -15.7541   20.8676 H   0  0  0  0  0  0
  -28.7578  -16.2623   22.5097 H   0  0  0  0  0  0
  -30.8098  -15.7548   23.6793 H   0  0  0  0  0  0
  -32.1025  -14.8929   22.8903 H   0  0  0  0  0  0
  -30.9818  -24.0364   19.1031 H   0  0  0  0  0  0
  -29.8497  -22.6971   18.9619 H   0  0  0  0  0  0
  -28.9069  -24.9065   22.2846 H   0  0  0  0  0  0
  -30.2043  -25.6601   21.3597 H   0  0  0  0  0  0
  -30.4053  -18.2606   22.9095 H   0  0  0  0  0  0
  -27.4265  -24.9635   20.4582 H   0  0  0  0  0  0
  -29.0611  -20.0497   22.5826 H   0  0  0  0  0  0
  -29.4154  -21.7213   22.8787 H   0  0  0  0  0  0
  -30.2563  -20.4907   23.8069 H   0  0  0  0  0  0
  -31.9427  -23.9169   21.3623 H   0  0  0  0  0  0
  -30.9991  -23.2791   22.6666 H   0  0  0  0  0  0
  -29.1946  -22.9472   21.0954 H   0  0  0  0  0  0
  1 25  1  0  0  0
  1 30  2  0  0  0
  1 88  1  0  0  0
  2  3  1  0  0  0
  2 25  1  0  0  0
  2 91  1  0  0  0
  2 92  1  0  0  0
  3  4  1  0  0  0
  3 93  1  0  0  0
  3 94  1  0  0  0
  4  5  1  0  0  0
  4 95  1  0  0  0
  4 96  1  0  0  0
  5  6  1  0  0  0
  5 26  1  0  0  0
  5 97  1  0  0  0
  6 25  1  0  0  0
  6 98  1  0  0  0
  6 99  1  0  0  0
  7  8  2  0  0  0
  7 26  1  0  0  0
  7 29  1  0  0  0
  8  9  1  0  0  0
  8 22  1  0  0  0
  9 10  1  0  0  0
  9 27  2  0  0  0
 10 11  2  0  0  0
 10 15  1  0  0  0
 11 12  1  0  0  0
 11100  1  0  0  0
 12 13  2  0  0  0
 12101  1  0  0  0
 13 14  1  0  0  0
 13 31  1  0  0  0
 14 15  2  0  0  0
 14102  1  0  0  0
 15103  1  0  0  0
 16 17  2  0  0  0
 16 21  1  0  0  0
 16 31  1  0  0  0
 17 18  1  0  0  0
 17104  1  0  0  0
 18 19  2  0  0  0
 18105  1  0  0  0
 19 20  1  0  0  0
 19 24  1  0  0  0
 20 21  2  0  0  0
 20106  1  0  0  0
 21 23  1  0  0  0
 22 28  1  0  0  0
 22 32  2  0  0  0
 26 27  1  0  0  0
 28107  1  0  0  0
 28108  1  0  0  0
 29109  1  0  0  0
 29110  1  0  0  0
 33 34  1  0  0  0
 33 66  1  0  0  0
 33 70  2  0  0  0
 34 36  1  0  0  0
 34 59  1  0  0  0
 34111  1  0  0  0
 35 44  2  0  0  0
 35 45  1  0  0  0
 35 68  1  0  0  0
 36 56  1  0  0  0
 36112  1  0  0  0
 37 39  1  0  0  0
 37 47  1  0  0  0
 37 66  1  0  0  0
 37113  1  0  0  0
 38 43  2  0  0  0
 38 46  1  0  0  0
 38 47  1  0  0  0
 39 64  1  0  0  0
 39 67  2  0  0  0
 40 52  1  0  0  0
 40 53  2  0  0  0
 40 58  1  0  0  0
 41114  1  0  0  0
 41115  1  0  0  0
 41116  1  0  0  0
 41 48  1  0  0  0
 42 43  1  0  0  0
 42 66  1  0  0  0
 42117  1  0  0  0
 42118  1  0  0  0
 43 44  1  0  0  0
 44119  1  0  0  0
 45 46  2  0  0  0
 45120  1  0  0  0
 46121  1  0  0  0
 47122  1  0  0  0
 47123  1  0  0  0
 48 56  1  0  0  0
 48 65  1  0  0  0
 48124  1  0  0  0
 49 50  1  0  0  0
 49 53  1  0  0  0
 49 64  1  0  0  0
 49125  1  0  0  0
 50 51  1  0  0  0
 50126  1  0  0  0
 50127  1  0  0  0
 51 52  1  0  0  0
 51128  1  0  0  0
 51129  1  0  0  0
 52130  1  0  0  0
 52131  1  0  0  0
 53 54  1  0  0  0
 54 55  2  0  0  0
 54132  1  0  0  0
 55 57  1  0  0  0
 55133  1  0  0  0
 56 69  2  0  0  0
 57 58  2  0  0  0
 57134  1  0  0  0
 58135  1  0  0  0
 59 60  1  0  0  0
 59 61  1  0  0  0
 59 62  1  0  0  0
 60136  1  0  0  0
 60137  1  0  0  0
 60138  1  0  0  0
 61139  1  0  0  0
 61140  1  0  0  0
 61141  1  0  0  0
 62142  1  0  0  0
 62143  1  0  0  0
 62144  1  0  0  0
 63 65  1  0  0  0
 63145  1  0  0  0
 63146  1  0  0  0
 63147  1  0  0  0
 64148  1  0  0  0
 65149  1  0  0  0
 68 85  1  0  0  0
 71 73  2  0  0  0
 71 76  1  0  0  0
 71150  1  0  0  0
 72 74  1  0  0  0
 72 76  2  0  0  0
 72151  1  0  0  0
 73 75  1  0  0  0
 73 84  1  0  0  0
 74 75  2  0  0  0
 74 87  1  0  0  0
 75 86  1  0  0  0
 76 90  1  0  0  0
 77 80  1  0  0  0
 77 84  1  0  0  0
 77152  1  0  0  0
 77153  1  0  0  0
 78 81  1  0  0  0
 78 84  1  0  0  0
 78154  1  0  0  0
 78155  1  0  0  0
 79 82  1  0  0  0
 79 85  1  0  0  0
 79156  1  0  0  0
 79157  1  0  0  0
 80 88  1  0  0  0
 80158  1  0  0  0
 80159  1  0  0  0
 81 88  1  0  0  0
 81160  1  0  0  0
 81161  1  0  0  0
 82 89  1  0  0  0
 82162  1  0  0  0
 82163  1  0  0  0
 83 85  1  0  0  0
 83 89  1  0  0  0
 83164  1  0  0  0
 83165  1  0  0  0
 84166  1  0  0  0
 85167  1  0  0  0
 86168  1  0  0  0
 86169  1  0  0  0
 86170  1  0  0  0
 87171  1  0  0  0
 87172  1  0  0  0
 87 89  1  0  0  0
 89173  1  0  0  0
M  CHG  1  89   1
M  ISO  4   1 100  68 101  85 101  88 100
M  END
> <chiral flag>
0

> <version>
0

> <s_m_source_file>
/data/baiqing/PycharmProjects/Reinvent-master-3.2/result/LINK_invent/BTK/process_docking_weight1_custom_product_contain_oxygen_bond_distance_aromatic_linkinvent_7_9_3/rearranged_h_0028.sdf

> <i_m_source_file_index>
82

> <r_mmod_Potential_Energy-OPLS-2005>
81.6054153442383

> <r_mmod_Stretch_Energy-OPLS-2005>
37.6465835571289

> <r_mmod_Bend_Energy-OPLS-2005>
120.059577941895

> <r_mmod_Torsional_Energy-OPLS-2005>
368.238128662109

> <r_mmod_Improper_Torsional_Energy-OPLS-2005>
5.65731811523438

> <r_mmod_Van_der_Waal_Energy-OPLS-2005>
163.01725769043

> <r_mmod_Electrostatic_Energy-OPLS-2005>
-205.889373779297

> <r_mmod_Solvation_Energy-OPLS-2005>
-415.320739746094

> <b_mmod_Minimization_Converged-OPLS-2005>
0

> <r_mmod_RMS_Derivative-OPLS-2005>
0.738043010234833

$$$$
82
                    3D
 Structure written by MMmdl.
168176  0  0  1  0            999 V2000
  -30.6293  -14.6694   20.4586 C   0  0  0  0  0  0
  -30.4465  -12.3851   19.4884 C   0  0  0  0  0  0
  -29.5235  -12.3946   18.2518 C   0  0  0  0  0  0
  -28.0362  -12.3109   18.6491 C   0  0  0  0  0  0
  -27.6521  -13.2176   19.8514 C   0  0  2  0  0  0
  -28.6915  -13.1336   20.9861 C   0  0  0  0  0  0
  -25.2607  -13.8185   20.5708 C   0  0  0  0  0  0
  -24.1858  -13.0453   20.9146 C   0  0  0  0  0  0
  -24.6455  -11.6932   20.8770 C   0  0  0  0  0  0
  -23.9129  -10.4305   21.0397 C   0  0  0  0  0  0
  -24.3680   -9.4221   21.9141 C   0  0  0  0  0  0
  -23.6351   -8.2276   22.0739 C   0  0  0  0  0  0
  -22.4331   -8.0307   21.3538 C   0  0  0  0  0  0
  -21.9971   -9.0298   20.4644 C   0  0  0  0  0  0
  -22.7323  -10.2163   20.3031 C   0  0  0  0  0  0
  -21.6897   -6.0763   22.5280 C   0  0  0  0  0  0
  -21.4047   -6.5653   23.8219 C   0  0  0  0  0  0
  -21.3668   -5.6777   24.9157 C   0  0  0  0  0  0
  -21.6042   -4.3043   24.7187 C   0  0  0  0  0  0
  -21.8824   -3.8169   23.4309 C   0  0  0  0  0  0
  -21.9222   -4.6995   22.3390 C   0  0  0  0  0  0
  -22.7881  -13.5253   21.1782 C   0  0  0  0  0  0
  -22.1651   -4.2182   21.0961 F   0  0  0  0  0  0
  -21.5637   -3.4510   25.7695 F   0  0  0  0  0  0
  -29.9940  -13.4558   20.3999 N   0  0  0  0  0  0
  -26.3004  -12.9363   20.3242 N   0  0  0  0  0  0
  -25.9360  -11.6524   20.5777 N   0  0  0  0  0  0
  -22.0556  -12.8256   22.0350 N   0  0  0  0  0  0
  -25.4384  -15.1916   20.4399 N   0  0  0  0  0  0
  -31.8308  -14.7484   20.1840 O   0  0  0  0  0  0
  -21.6676   -6.8922   21.4250 O   0  0  0  0  0  0
  -22.3544  -14.5551   20.6634 O   0  0  0  0  0  0
  -24.6220  -31.8637   23.2042 C   0  0  0  0  0  0
  -25.9077  -32.4792   23.8368 C   0  0  1  0  0  0
  -27.2218  -27.3513   20.1416 C   0  0  0  0  0  0
  -25.5917  -33.8590   24.2301 N   0  0  0  0  0  0
  -23.4145  -30.4824   21.5481 C   0  0  2  0  0  0
  -24.8608  -28.9358   20.1171 C   0  0  0  0  0  0
  -22.7459  -29.4625   22.4997 C   0  0  0  0  0  0
  -18.0282  -28.1372   22.8499 C   0  0  0  0  0  0
  -24.1483  -36.7313   23.2640 C   0  0  0  0  0  0
  -25.9496  -30.8002   21.3736 C   0  0  0  0  0  0
  -26.0230  -29.4284   20.7245 C   0  0  0  0  0  0
  -27.2099  -28.6488   20.7232 C   0  0  0  0  0  0
  -26.0435  -26.8905   19.5184 C   0  0  0  0  0  0
  -24.8729  -27.6735   19.4996 C   0  0  0  0  0  0
  -23.6252  -29.8090   20.1656 C   0  0  0  0  0  0
  -25.4110  -36.3095   24.0337 C   0  0  1  0  0  0
  -20.5878  -28.3669   23.1326 C   0  0  2  0  0  0
  -20.6778  -26.9405   22.5427 C   0  0  0  0  0  0
  -19.5755  -26.6381   21.5232 C   0  0  0  0  0  0
  -18.1929  -26.7933   22.1620 C   0  0  0  0  0  0
  -19.1533  -28.8834   23.2901 C   0  0  0  0  0  0
  -18.9449  -30.1447   23.8903 C   0  0  0  0  0  0
  -17.6450  -30.6579   24.0555 C   0  0  0  0  0  0
  -25.9056  -34.9466   23.5111 C   0  0  0  0  0  0
  -16.5337  -29.9075   23.6325 C   0  0  0  0  0  0
  -16.7265  -28.6489   23.0353 C   0  0  0  0  0  0
  -26.4479  -31.6593   25.0733 C   0  0  0  0  0  0
  -25.3717  -31.3726   26.1469 C   0  0  0  0  0  0
  -27.0350  -30.3030   24.6182 C   0  0  0  0  0  0
  -27.6046  -32.4340   25.7481 C   0  0  0  0  0  0
  -27.5593  -37.1811   24.8455 C   0  0  0  0  0  0
  -21.4184  -29.3023   22.3727 N   0  0  0  0  0  0
  -26.4292  -37.3791   23.9406 N   0  0  0  0  0  0
  -24.6793  -31.0655   22.0994 N   0  0  0  0  0  0
  -23.4194  -28.8200   23.3083 O   0  0  0  0  0  0
  -28.3684  -26.5694   20.1046 O   0  0  0  0  0  0
  -26.5614  -34.8921   22.4681 O   0  0  0  0  0  0
  -23.5390  -32.1443   23.7388 O   0  0  0  0  0  0
  -31.2439  -20.8367   21.4087 C   0  0  0  0  0  0
  -32.0935  -19.7134   21.4526 C   0  0  0  0  0  0
  -29.8394  -20.6875   21.4591 C   0  0  0  0  0  0
  -30.1738  -18.1912   21.5577 C   0  0  0  0  0  0
  -31.5681  -18.4129   21.5328 C   0  0  0  0  0  0
  -29.3173  -19.3519   21.5556 C   0  0  0  0  0  0
  -29.9864  -15.9075   17.8182 C   0  0  0  0  0  0
  -28.2397  -17.1816   18.9865 C   0  0  0  0  0  0
  -29.8808  -22.9730   19.4030 C   0  0  0  0  0  0
  -29.6569  -16.7055   21.6114 C   0  0  0  0  0  0
  -28.9457  -21.9773   21.5347 C   0  0  0  0  0  0
  -27.8204  -24.0097   20.3504 C   0  0  0  0  0  0
  -28.4353  -25.3497   20.9140 C   0  0  0  0  0  0
  -29.6720  -16.6102   19.1498 C   0  0  0  0  0  0
  -29.8309  -15.8063   20.4099 N   0  0  0  0  0  0
  -28.6956  -22.7688   20.2674 N   0  3  1  0  0  0
  -32.4248  -17.3624   21.6048 F   0  0  0  0  0  0
  -27.9796  -19.1900   21.6807 F   0  0  0  0  0  0
  -31.4869  -12.5080   19.1792 H   0  0  0  0  0  0
  -30.4022  -11.4184   19.9928 H   0  0  0  0  0  0
  -29.7791  -11.5603   17.5998 H   0  0  0  0  0  0
  -29.7103  -13.2740   17.6479 H   0  0  0  0  0  0
  -27.8395  -11.2720   18.9065 H   0  0  0  0  0  0
  -27.4040  -12.5267   17.7875 H   0  0  0  0  0  0
  -27.6602  -14.2367   19.4714 H   0  0  0  0  0  0
  -28.7129  -12.1404   21.4335 H   0  0  0  0  0  0
  -28.4374  -13.8261   21.7920 H   0  0  0  0  0  0
  -25.2823   -9.5711   22.4708 H   0  0  0  0  0  0
  -24.0093   -7.4676   22.7475 H   0  0  0  0  0  0
  -21.0890   -8.8821   19.8979 H   0  0  0  0  0  0
  -22.3766  -10.9700   19.6156 H   0  0  0  0  0  0
  -21.2019   -7.6146   23.9726 H   0  0  0  0  0  0
  -21.1482   -6.0493   25.9070 H   0  0  0  0  0  0
  -22.0615   -2.7631   23.2767 H   0  0  0  0  0  0
  -22.4160  -11.9925   22.4720 H   0  0  0  0  0  0
  -21.1162  -13.1256   22.2532 H   0  0  0  0  0  0
  -24.6928  -15.8503   20.6305 H   0  0  0  0  0  0
  -26.3140  -15.6469   20.2213 H   0  0  0  0  0  0
  -26.7141  -32.5477   23.1124 H   0  0  0  0  0  0
  -25.0063  -33.9740   25.0436 H   0  0  0  0  0  0
  -22.7068  -31.3018   21.4046 H   0  0  0  0  0  0
  -23.3759  -35.9632   23.3276 H   0  0  0  0  0  0
  -24.3567  -36.8954   22.2058 H   0  0  0  0  0  0
  -23.7213  -37.6502   23.6671 H   0  0  0  0  0  0
  -26.0798  -31.5603   20.6024 H   0  0  0  0  0  0
  -26.8305  -30.8476   22.0018 H   0  0  0  0  0  0
  -28.1102  -29.0295   21.1830 H   0  0  0  0  0  0
  -26.0213  -25.9265   19.0321 H   0  0  0  0  0  0
  -23.9874  -27.2979   19.0038 H   0  0  0  0  0  0
  -23.7321  -30.5795   19.4016 H   0  0  0  0  0  0
  -22.7480  -29.2281   19.8754 H   0  0  0  0  0  0
  -25.1291  -36.1962   25.0833 H   0  0  0  0  0  0
  -20.9963  -28.3217   24.1450 H   0  0  0  0  0  0
  -20.5704  -26.2272   23.3614 H   0  0  0  0  0  0
  -21.6637  -26.7463   22.1192 H   0  0  0  0  0  0
  -19.6913  -25.6297   21.1251 H   0  0  0  0  0  0
  -19.6705  -27.3198   20.6776 H   0  0  0  0  0  0
  -17.4227  -26.6716   21.3982 H   0  0  0  0  0  0
  -18.0285  -26.0051   22.8980 H   0  0  0  0  0  0
  -19.7921  -30.7259   24.2273 H   0  0  0  0  0  0
  -17.4996  -31.6260   24.5155 H   0  0  0  0  0  0
  -15.5329  -30.2960   23.7654 H   0  0  0  0  0  0
  -15.8679  -28.0800   22.7066 H   0  0  0  0  0  0
  -24.5848  -30.7135   25.7780 H   0  0  0  0  0  0
  -24.8969  -32.2901   26.4972 H   0  0  0  0  0  0
  -25.8032  -30.8823   27.0207 H   0  0  0  0  0  0
  -26.2937  -29.6762   24.1226 H   0  0  0  0  0  0
  -27.4079  -29.7304   25.4685 H   0  0  0  0  0  0
  -27.8774  -30.4340   23.9390 H   0  0  0  0  0  0
  -27.2657  -33.3622   26.2102 H   0  0  0  0  0  0
  -28.3821  -32.6951   25.0284 H   0  0  0  0  0  0
  -28.0777  -31.8466   26.5367 H   0  0  0  0  0  0
  -28.2600  -38.0124   24.7532 H   0  0  0  0  0  0
  -28.1105  -36.2660   24.6241 H   0  0  0  0  0  0
  -27.2317  -37.1404   25.8858 H   0  0  0  0  0  0
  -20.9381  -29.8683   21.6885 H   0  0  0  0  0  0
  -26.0194  -38.2869   24.1412 H   0  0  0  0  0  0
  -31.6998  -21.8172   21.3678 H   0  0  0  0  0  0
  -33.1638  -19.8496   21.4403 H   0  0  0  0  0  0
  -30.0817  -16.6490   17.0255 H   0  0  0  0  0  0
  -29.1616  -15.2657   17.5186 H   0  0  0  0  0  0
  -30.9224  -15.3484   17.8175 H   0  0  0  0  0  0
  -28.1796  -17.8481   18.1242 H   0  0  0  0  0  0
  -27.9003  -17.7688   19.8316 H   0  0  0  0  0  0
  -27.4988  -16.3998   18.8290 H   0  0  0  0  0  0
  -30.3141  -22.0239   19.0978 H   0  0  0  0  0  0
  -30.6459  -23.5615   19.9037 H   0  0  0  0  0  0
  -29.6041  -23.4925   18.4863 H   0  0  0  0  0  0
  -28.5959  -16.7181   21.8650 H   0  0  0  0  0  0
  -30.1351  -16.2399   22.4770 H   0  0  0  0  0  0
  -29.3948  -22.6422   22.2727 H   0  0  0  0  0  0
  -27.9759  -21.6981   21.9511 H   0  0  0  0  0  0
  -27.4582  -24.2032   19.3406 H   0  0  0  0  0  0
  -26.9222  -23.7635   20.9176 H   0  0  0  0  0  0
  -29.4928  -25.1809   21.1052 H   0  0  0  0  0  0
  -28.0164  -25.5531   21.9014 H   0  0  0  0  0  0
  -30.3785  -17.4376   19.1826 H   0  0  0  0  0  0
  -28.1246  -22.1322   19.7297 H   0  0  0  0  0  0
  1 25  1  0  0  0
  1 30  2  0  0  0
  1 85  1  0  0  0
  2  3  1  0  0  0
  2 25  1  0  0  0
  2 89  1  0  0  0
  2 90  1  0  0  0
  3  4  1  0  0  0
  3 91  1  0  0  0
  3 92  1  0  0  0
  4  5  1  0  0  0
  4 93  1  0  0  0
  4 94  1  0  0  0
  5  6  1  0  0  0
  5 26  1  0  0  0
  5 95  1  0  0  0
  6 25  1  0  0  0
  6 96  1  0  0  0
  6 97  1  0  0  0
  7  8  2  0  0  0
  7 26  1  0  0  0
  7 29  1  0  0  0
  8  9  1  0  0  0
  8 22  1  0  0  0
  9 10  1  0  0  0
  9 27  2  0  0  0
 10 11  2  0  0  0
 10 15  1  0  0  0
 11 12  1  0  0  0
 11 98  1  0  0  0
 12 13  2  0  0  0
 12 99  1  0  0  0
 13 14  1  0  0  0
 13 31  1  0  0  0
 14 15  2  0  0  0
 14100  1  0  0  0
 15101  1  0  0  0
 16 17  2  0  0  0
 16 21  1  0  0  0
 16 31  1  0  0  0
 17 18  1  0  0  0
 17102  1  0  0  0
 18 19  2  0  0  0
 18103  1  0  0  0
 19 20  1  0  0  0
 19 24  1  0  0  0
 20 21  2  0  0  0
 20104  1  0  0  0
 21 23  1  0  0  0
 22 28  1  0  0  0
 22 32  2  0  0  0
 26 27  1  0  0  0
 28105  1  0  0  0
 28106  1  0  0  0
 29107  1  0  0  0
 29108  1  0  0  0
 33 34  1  0  0  0
 33 66  1  0  0  0
 33 70  2  0  0  0
 34 36  1  0  0  0
 34 59  1  0  0  0
 34109  1  0  0  0
 35 44  2  0  0  0
 35 45  1  0  0  0
 35 68  1  0  0  0
 36 56  1  0  0  0
 36110  1  0  0  0
 37 39  1  0  0  0
 37 47  1  0  0  0
 37 66  1  0  0  0
 37111  1  0  0  0
 38 43  2  0  0  0
 38 46  1  0  0  0
 38 47  1  0  0  0
 39 64  1  0  0  0
 39 67  2  0  0  0
 40 52  1  0  0  0
 40 53  2  0  0  0
 40 58  1  0  0  0
 41112  1  0  0  0
 41113  1  0  0  0
 41114  1  0  0  0
 41 48  1  0  0  0
 42 43  1  0  0  0
 42 66  1  0  0  0
 42115  1  0  0  0
 42116  1  0  0  0
 43 44  1  0  0  0
 44117  1  0  0  0
 45 46  2  0  0  0
 45118  1  0  0  0
 46119  1  0  0  0
 47120  1  0  0  0
 47121  1  0  0  0
 48 56  1  0  0  0
 48 65  1  0  0  0
 48122  1  0  0  0
 49 50  1  0  0  0
 49 53  1  0  0  0
 49 64  1  0  0  0
 49123  1  0  0  0
 50 51  1  0  0  0
 50124  1  0  0  0
 50125  1  0  0  0
 51 52  1  0  0  0
 51126  1  0  0  0
 51127  1  0  0  0
 52128  1  0  0  0
 52129  1  0  0  0
 53 54  1  0  0  0
 54 55  2  0  0  0
 54130  1  0  0  0
 55 57  1  0  0  0
 55131  1  0  0  0
 56 69  2  0  0  0
 57 58  2  0  0  0
 57132  1  0  0  0
 58133  1  0  0  0
 59 60  1  0  0  0
 59 61  1  0  0  0
 59 62  1  0  0  0
 60134  1  0  0  0
 60135  1  0  0  0
 60136  1  0  0  0
 61137  1  0  0  0
 61138  1  0  0  0
 61139  1  0  0  0
 62140  1  0  0  0
 62141  1  0  0  0
 62142  1  0  0  0
 63 65  1  0  0  0
 63143  1  0  0  0
 63144  1  0  0  0
 63145  1  0  0  0
 64146  1  0  0  0
 65147  1  0  0  0
 68 83  1  0  0  0
 71 72  2  0  0  0
 71 73  1  0  0  0
 71148  1  0  0  0
 72 75  1  0  0  0
 72149  1  0  0  0
 73 76  2  0  0  0
 73 81  1  0  0  0
 74 75  2  0  0  0
 74 76  1  0  0  0
 74 80  1  0  0  0
 75 87  1  0  0  0
 76 88  1  0  0  0
 77150  1  0  0  0
 77151  1  0  0  0
 77152  1  0  0  0
 77 84  1  0  0  0
 78 84  1  0  0  0
 78153  1  0  0  0
 78154  1  0  0  0
 78155  1  0  0  0
 79156  1  0  0  0
 79157  1  0  0  0
 79158  1  0  0  0
 79 86  1  0  0  0
 80 85  1  0  0  0
 80159  1  0  0  0
 80160  1  0  0  0
 81 86  1  0  0  0
 81161  1  0  0  0
 81162  1  0  0  0
 82 83  1  0  0  0
 82 86  1  0  0  0
 82163  1  0  0  0
 82164  1  0  0  0
 83165  1  0  0  0
 83166  1  0  0  0
 84 85  1  0  0  0
 84167  1  0  0  0
 86168  1  0  0  0
M  CHG  1  86   1
M  ISO  4   1 100  68 101  83 101  85 100
M  END
> <chiral flag>
0

> <version>
0

> <s_m_source_file>
/data/baiqing/PycharmProjects/Reinvent-master-3.2/result/LINK_invent/BTK/process_docking_weight1_custom_product_contain_oxygen_bond_distance_aromatic_linkinvent_7_9_3/rearranged_h_0028.sdf

> <i_m_source_file_index>
83

> <r_mmod_Potential_Energy-OPLS-2005>
191.904739379883

> <r_mmod_Stretch_Energy-OPLS-2005>
80.5729293823242

> <r_mmod_Bend_Energy-OPLS-2005>
151.218063354492

> <r_mmod_Torsional_Energy-OPLS-2005>
327.229217529297

> <r_mmod_Improper_Torsional_Energy-OPLS-2005>
14.5369882583618

> <r_mmod_Van_der_Waal_Energy-OPLS-2005>
140.873245239258

> <r_mmod_Electrostatic_Energy-OPLS-2005>
-151.124053955078

> <r_mmod_Solvation_Energy-OPLS-2005>
-422.057983398438

> <b_mmod_Minimization_Converged-OPLS-2005>
0

> <r_mmod_RMS_Derivative-OPLS-2005>
5.25303030014038

$$$$
83
                    3D
 Structure written by MMmdl.
150158  0  0  1  0            999 V2000
  -30.4305  -15.1632   20.3903 C   0  0  0  0  0  0
  -30.4502  -12.7336   19.5190 C   0  0  0  0  0  0
  -29.5352  -12.5649   18.2789 C   0  0  0  0  0  0
  -28.0766  -12.3065   18.7006 C   0  0  0  0  0  0
  -27.6220  -13.2605   19.8335 C   0  0  2  0  0  0
  -28.6589  -13.3617   20.9723 C   0  0  0  0  0  0
  -25.2433  -13.8225   20.5719 C   0  0  0  0  0  0
  -24.1769  -13.0436   20.9248 C   0  0  0  0  0  0
  -24.6401  -11.6925   20.8762 C   0  0  0  0  0  0
  -23.9088  -10.4292   21.0411 C   0  0  0  0  0  0
  -24.3631   -9.4206   21.9189 C   0  0  0  0  0  0
  -23.6300   -8.2244   22.0759 C   0  0  0  0  0  0
  -22.4283   -8.0283   21.3547 C   0  0  0  0  0  0
  -21.9922   -9.0260   20.4649 C   0  0  0  0  0  0
  -22.7258  -10.2136   20.3059 C   0  0  0  0  0  0
  -21.6855   -6.0738   22.5278 C   0  0  0  0  0  0
  -21.4016   -6.5642   23.8211 C   0  0  0  0  0  0
  -21.3660   -5.6795   24.9174 C   0  0  0  0  0  0
  -21.6041   -4.3056   24.7225 C   0  0  0  0  0  0
  -21.8819   -3.8149   23.4346 C   0  0  0  0  0  0
  -21.9193   -4.6965   22.3401 C   0  0  0  0  0  0
  -22.7788  -13.5201   21.1894 C   0  0  0  0  0  0
  -22.1661   -4.2150   21.0979 F   0  0  0  0  0  0
  -21.5627   -3.4540   25.7739 F   0  0  0  0  0  0
  -29.9075  -13.8493   20.3662 N   0  0  0  0  0  0
  -26.2854  -12.9472   20.3225 N   0  0  0  0  0  0
  -25.9335  -11.6593   20.5727 N   0  0  0  0  0  0
  -22.0438  -12.8185   22.0446 N   0  0  0  0  0  0
  -25.4084  -15.1956   20.4120 N   0  0  0  0  0  0
  -31.6373  -15.2413   20.1198 O   0  0  0  0  0  0
  -21.6643   -6.8882   21.4241 O   0  0  0  0  0  0
  -22.3473  -14.5506   20.6738 O   0  0  0  0  0  0
  -24.6561  -31.8286   23.1734 C   0  0  0  0  0  0
  -25.9269  -32.4610   23.8179 C   0  0  1  0  0  0
  -27.2266  -26.9943   20.1841 C   0  0  0  0  0  0
  -25.5964  -33.8421   24.2094 N   0  0  0  0  0  0
  -23.4676  -30.4403   21.5208 C   0  0  2  0  0  0
  -24.9213  -28.8324   20.1135 C   0  0  0  0  0  0
  -22.7633  -29.4459   22.4798 C   0  0  0  0  0  0
  -18.0314  -28.1403   22.8466 C   0  0  0  0  0  0
  -24.1496  -36.7219   23.2649 C   0  0  0  0  0  0
  -26.0305  -30.6583   21.3908 C   0  0  0  0  0  0
  -26.1015  -29.2525   20.7389 C   0  0  0  0  0  0
  -27.2499  -28.3537   20.7479 C   0  0  0  0  0  0
  -26.0176  -26.7013   19.5172 C   0  0  0  0  0  0
  -24.9003  -27.5754   19.4834 C   0  0  0  0  0  0
  -23.7041  -29.7537   20.1469 C   0  0  0  0  0  0
  -25.4133  -36.2975   24.0307 C   0  0  1  0  0  0
  -20.5935  -28.3738   23.1200 C   0  0  2  0  0  0
  -20.6796  -26.9426   22.5405 C   0  0  0  0  0  0
  -19.5774  -26.6378   21.5210 C   0  0  0  0  0  0
  -18.1953  -26.7935   22.1617 C   0  0  0  0  0  0
  -19.1575  -28.8890   23.2819 C   0  0  0  0  0  0
  -18.9493  -30.1480   23.8854 C   0  0  0  0  0  0
  -17.6488  -30.6597   24.0553 C   0  0  0  0  0  0
  -25.9090  -34.9359   23.5019 C   0  0  0  0  0  0
  -16.5377  -29.9089   23.6342 C   0  0  0  0  0  0
  -16.7296  -28.6509   23.0357 C   0  0  0  0  0  0
  -26.4549  -31.6533   25.0683 C   0  0  0  0  0  0
  -25.3694  -31.3774   26.1354 C   0  0  0  0  0  0
  -27.0442  -30.2914   24.6362 C   0  0  0  0  0  0
  -27.6048  -32.4335   25.7482 C   0  0  0  0  0  0
  -27.5561  -37.1774   24.8477 C   0  0  0  0  0  0
  -21.4310  -29.3033   22.3555 N   0  0  0  0  0  0
  -26.4286  -37.3704   23.9401 N   0  0  0  0  0  0
  -24.7389  -31.0016   22.0827 N   0  0  0  0  0  0
  -23.4213  -28.8025   23.3015 O   0  0  0  0  0  0
  -28.2756  -25.9604   20.2633 O   0  0  0  0  0  0
  -26.5697  -34.8888   22.4613 O   0  0  0  0  0  0
  -23.5652  -32.1222   23.6876 O   0  0  0  0  0  0
  -30.4149  -18.9435   19.9952 C   0  0  0  0  0  0
  -28.3199  -18.6829   20.9108 C   0  0  0  0  0  0
  -29.0372  -21.1615   20.4561 C   0  0  0  0  0  0
  -29.4908  -17.9316   20.4812 C   0  0  0  0  0  0
  -30.2103  -20.4188   19.9827 C   0  0  0  0  0  0
  -28.1073  -20.1463   20.9150 C   0  0  0  0  0  0
  -30.3273  -23.2937   21.3068 C   0  0  0  0  0  0
  -28.1790  -24.3373   20.1447 C   0  0  0  0  0  0
  -28.9268  -22.8580   20.8226 C   0  0  1  0  0  0
  -29.5650  -16.3308   20.5596 N   0  0  0  0  0  0
  -31.2510  -21.1489   19.5157 F   0  0  0  0  0  0
  -26.9424  -20.5871   21.4492 F   0  0  0  0  0  0
  -31.4713  -12.9394   19.1950 H   0  0  0  0  0  0
  -30.5041  -11.8057   20.0906 H   0  0  0  0  0  0
  -29.8953  -11.7500   17.6489 H   0  0  0  0  0  0
  -29.5815  -13.4678   17.6684 H   0  0  0  0  0  0
  -28.0109  -11.2737   19.0448 H   0  0  0  0  0  0
  -27.4094  -12.3851   17.8409 H   0  0  0  0  0  0
  -27.5603  -14.2454   19.3692 H   0  0  0  0  0  0
  -28.8003  -12.3996   21.4670 H   0  0  0  0  0  0
  -28.3181  -14.0565   21.7414 H   0  0  0  0  0  0
  -25.2774   -9.5680   22.4768 H   0  0  0  0  0  0
  -24.0003   -7.4636   22.7482 H   0  0  0  0  0  0
  -21.0852   -8.8786   19.8955 H   0  0  0  0  0  0
  -22.3718  -10.9679   19.6170 H   0  0  0  0  0  0
  -21.2011   -7.6150   23.9715 H   0  0  0  0  0  0
  -21.1480   -6.0526   25.9076 H   0  0  0  0  0  0
  -22.0598   -2.7611   23.2848 H   0  0  0  0  0  0
  -22.4062  -11.9844   22.4824 H   0  0  0  0  0  0
  -21.1056  -13.1205   22.2657 H   0  0  0  0  0  0
  -24.6298  -15.8385   20.5079 H   0  0  0  0  0  0
  -26.2296  -15.6291   20.0120 H   0  0  0  0  0  0
  -26.7333  -32.5174   23.0895 H   0  0  0  0  0  0
  -25.0069  -33.9507   25.0216 H   0  0  0  0  0  0
  -22.7770  -31.2686   21.3522 H   0  0  0  0  0  0
  -23.3746  -35.9565   23.3334 H   0  0  0  0  0  0
  -24.3560  -36.8841   22.2059 H   0  0  0  0  0  0
  -23.7284  -37.6431   23.6690 H   0  0  0  0  0  0
  -26.1993  -31.4015   20.6100 H   0  0  0  0  0  0
  -26.8948  -30.7163   22.0409 H   0  0  0  0  0  0
  -28.1480  -28.6736   21.2578 H   0  0  0  0  0  0
  -25.9139  -25.7360   19.0416 H   0  0  0  0  0  0
  -24.0013  -27.2467   18.9806 H   0  0  0  0  0  0
  -23.8555  -30.5211   19.3866 H   0  0  0  0  0  0
  -22.8159  -29.2035   19.8316 H   0  0  0  0  0  0
  -25.1332  -36.1782   25.0802 H   0  0  0  0  0  0
  -21.0015  -28.3342   24.1326 H   0  0  0  0  0  0
  -20.5685  -26.2351   23.3640 H   0  0  0  0  0  0
  -21.6660  -26.7418   22.1207 H   0  0  0  0  0  0
  -19.6945  -25.6281   21.1267 H   0  0  0  0  0  0
  -19.6723  -27.3164   20.6721 H   0  0  0  0  0  0
  -17.4224  -26.6676   21.4017 H   0  0  0  0  0  0
  -18.0349  -26.0081   22.9019 H   0  0  0  0  0  0
  -19.7974  -30.7301   24.2210 H   0  0  0  0  0  0
  -17.5048  -31.6276   24.5161 H   0  0  0  0  0  0
  -15.5378  -30.2979   23.7699 H   0  0  0  0  0  0
  -15.8693  -28.0821   22.7090 H   0  0  0  0  0  0
  -24.5890  -30.7104   25.7671 H   0  0  0  0  0  0
  -24.8861  -32.2972   26.4655 H   0  0  0  0  0  0
  -25.7933  -30.9031   27.0209 H   0  0  0  0  0  0
  -26.3096  -29.6597   24.1355 H   0  0  0  0  0  0
  -27.4003  -29.7263   25.4982 H   0  0  0  0  0  0
  -27.9018  -30.4127   23.9741 H   0  0  0  0  0  0
  -27.2625  -33.3685   26.1928 H   0  0  0  0  0  0
  -28.3918  -32.6816   25.0347 H   0  0  0  0  0  0
  -28.0644  -31.8545   26.5503 H   0  0  0  0  0  0
  -28.2593  -38.0047   24.7445 H   0  0  0  0  0  0
  -28.1036  -36.2569   24.6400 H   0  0  0  0  0  0
  -27.2265  -37.1530   25.8877 H   0  0  0  0  0  0
  -20.9557  -29.8730   21.6698 H   0  0  0  0  0  0
  -26.0142  -38.2775   24.1361 H   0  0  0  0  0  0
  -31.3620  -18.5895   19.6153 H   0  0  0  0  0  0
  -27.5005  -18.1010   21.3077 H   0  0  0  0  0  0
  -30.7435  -22.5770   22.0154 H   0  0  0  0  0  0
  -30.3028  -24.2592   21.8124 H   0  0  0  0  0  0
  -31.0240  -23.3876   20.4737 H   0  0  0  0  0  0
  -29.0004  -24.4516   19.4372 H   0  0  0  0  0  0
  -28.1593  -24.6359   21.1925 H   0  0  0  0  0  0
  -28.3584  -22.7376   21.7480 H   0  0  0  0  0  0
  -28.6607  -15.9624   20.8126 H   0  0  0  0  0  0
  1 25  1  0  0  0
  1 30  2  0  0  0
  1 80  1  0  0  0
  2  3  1  0  0  0
  2 25  1  0  0  0
  2 83  1  0  0  0
  2 84  1  0  0  0
  3  4  1  0  0  0
  3 85  1  0  0  0
  3 86  1  0  0  0
  4  5  1  0  0  0
  4 87  1  0  0  0
  4 88  1  0  0  0
  5  6  1  0  0  0
  5 26  1  0  0  0
  5 89  1  0  0  0
  6 25  1  0  0  0
  6 90  1  0  0  0
  6 91  1  0  0  0
  7  8  2  0  0  0
  7 26  1  0  0  0
  7 29  1  0  0  0
  8  9  1  0  0  0
  8 22  1  0  0  0
  9 10  1  0  0  0
  9 27  2  0  0  0
 10 11  2  0  0  0
 10 15  1  0  0  0
 11 12  1  0  0  0
 11 92  1  0  0  0
 12 13  2  0  0  0
 12 93  1  0  0  0
 13 14  1  0  0  0
 13 31  1  0  0  0
 14 15  2  0  0  0
 14 94  1  0  0  0
 15 95  1  0  0  0
 16 17  2  0  0  0
 16 21  1  0  0  0
 16 31  1  0  0  0
 17 18  1  0  0  0
 17 96  1  0  0  0
 18 19  2  0  0  0
 18 97  1  0  0  0
 19 20  1  0  0  0
 19 24  1  0  0  0
 20 21  2  0  0  0
 20 98  1  0  0  0
 21 23  1  0  0  0
 22 28  1  0  0  0
 22 32  2  0  0  0
 26 27  1  0  0  0
 28 99  1  0  0  0
 28100  1  0  0  0
 29101  1  0  0  0
 29102  1  0  0  0
 33 34  1  0  0  0
 33 66  1  0  0  0
 33 70  2  0  0  0
 34 36  1  0  0  0
 34 59  1  0  0  0
 34103  1  0  0  0
 35 44  2  0  0  0
 35 45  1  0  0  0
 35 68  1  0  0  0
 36 56  1  0  0  0
 36104  1  0  0  0
 37 39  1  0  0  0
 37 47  1  0  0  0
 37 66  1  0  0  0
 37105  1  0  0  0
 38 43  2  0  0  0
 38 46  1  0  0  0
 38 47  1  0  0  0
 39 64  1  0  0  0
 39 67  2  0  0  0
 40 52  1  0  0  0
 40 53  2  0  0  0
 40 58  1  0  0  0
 41106  1  0  0  0
 41107  1  0  0  0
 41108  1  0  0  0
 41 48  1  0  0  0
 42 43  1  0  0  0
 42 66  1  0  0  0
 42109  1  0  0  0
 42110  1  0  0  0
 43 44  1  0  0  0
 44111  1  0  0  0
 45 46  2  0  0  0
 45112  1  0  0  0
 46113  1  0  0  0
 47114  1  0  0  0
 47115  1  0  0  0
 48 56  1  0  0  0
 48 65  1  0  0  0
 48116  1  0  0  0
 49 50  1  0  0  0
 49 53  1  0  0  0
 49 64  1  0  0  0
 49117  1  0  0  0
 50 51  1  0  0  0
 50118  1  0  0  0
 50119  1  0  0  0
 51 52  1  0  0  0
 51120  1  0  0  0
 51121  1  0  0  0
 52122  1  0  0  0
 52123  1  0  0  0
 53 54  1  0  0  0
 54 55  2  0  0  0
 54124  1  0  0  0
 55 57  1  0  0  0
 55125  1  0  0  0
 56 69  2  0  0  0
 57 58  2  0  0  0
 57126  1  0  0  0
 58127  1  0  0  0
 59 60  1  0  0  0
 59 61  1  0  0  0
 59 62  1  0  0  0
 60128  1  0  0  0
 60129  1  0  0  0
 60130  1  0  0  0
 61131  1  0  0  0
 61132  1  0  0  0
 61133  1  0  0  0
 62134  1  0  0  0
 62135  1  0  0  0
 62136  1  0  0  0
 63 65  1  0  0  0
 63137  1  0  0  0
 63138  1  0  0  0
 63139  1  0  0  0
 64140  1  0  0  0
 65141  1  0  0  0
 68 78  1  0  0  0
 71 74  2  0  0  0
 71 75  1  0  0  0
 71142  1  0  0  0
 72 74  1  0  0  0
 72 76  2  0  0  0
 72143  1  0  0  0
 73 75  2  0  0  0
 73 76  1  0  0  0
 73 79  1  0  0  0
 74 80  1  0  0  0
 75 81  1  0  0  0
 76 82  1  0  0  0
 77144  1  0  0  0
 77145  1  0  0  0
 77146  1  0  0  0
 77 79  1  0  0  0
 78 79  1  0  0  0
 78147  1  0  0  0
 78148  1  0  0  0
 79149  1  0  0  0
 80150  1  0  0  0
M  ISO  4   1 100  68 101  78 101  80 100
M  END
> <chiral flag>
0

> <version>
0

> <s_m_source_file>
/data/baiqing/PycharmProjects/Reinvent-master-3.2/result/LINK_invent/BTK/process_docking_weight1_custom_product_contain_oxygen_bond_distance_aromatic_linkinvent_7_9_3/rearranged_h_0028.sdf

> <i_m_source_file_index>
84

> <r_mmod_Potential_Energy-OPLS-2005>
1253.62072753906

> <r_mmod_Stretch_Energy-OPLS-2005>
451.263977050781

> <r_mmod_Bend_Energy-OPLS-2005>
618.280822753906

> <r_mmod_Torsional_Energy-OPLS-2005>
232.892868041992

> <r_mmod_Improper_Torsional_Energy-OPLS-2005>
7.07223701477051

> <r_mmod_Van_der_Waal_Energy-OPLS-2005>
132.591110229492

> <r_mmod_Electrostatic_Energy-OPLS-2005>
-342.664245605469

> <r_mmod_Solvation_Energy-OPLS-2005>
-203.919647216797

> <b_mmod_Minimization_Converged-OPLS-2005>
0

> <r_mmod_RMS_Derivative-OPLS-2005>
0.93730902671814

$$$$
84
                    3D
 Structure written by MMmdl.
159168  0  0  1  0            999 V2000
  -30.5229  -14.9022   20.4313 C   0  0  0  0  0  0
  -30.4530  -12.5538   19.4920 C   0  0  0  0  0  0
  -29.5245  -12.5239   18.2540 C   0  0  0  0  0  0
  -28.0558  -12.3160   18.6708 C   0  0  0  0  0  0
  -27.6389  -13.2368   19.8456 C   0  0  2  0  0  0
  -28.6820  -13.2174   20.9843 C   0  0  0  0  0  0
  -25.2517  -13.8199   20.5724 C   0  0  0  0  0  0
  -24.1811  -13.0445   20.9225 C   0  0  0  0  0  0
  -24.6395  -11.6924   20.8740 C   0  0  0  0  0  0
  -23.9066  -10.4302   21.0397 C   0  0  0  0  0  0
  -24.3614   -9.4220   21.9177 C   0  0  0  0  0  0
  -23.6293   -8.2253   22.0748 C   0  0  0  0  0  0
  -22.4273   -8.0287   21.3542 C   0  0  0  0  0  0
  -21.9906   -9.0258   20.4642 C   0  0  0  0  0  0
  -22.7236  -10.2135   20.3053 C   0  0  0  0  0  0
  -21.6858   -6.0734   22.5281 C   0  0  0  0  0  0
  -21.4014   -6.5633   23.8214 C   0  0  0  0  0  0
  -21.3660   -5.6783   24.9173 C   0  0  0  0  0  0
  -21.6047   -4.3051   24.7228 C   0  0  0  0  0  0
  -21.8819   -3.8144   23.4346 C   0  0  0  0  0  0
  -21.9196   -4.6960   22.3401 C   0  0  0  0  0  0
  -22.7832  -13.5231   21.1881 C   0  0  0  0  0  0
  -22.1666   -4.2146   21.0985 F   0  0  0  0  0  0
  -21.5628   -3.4535   25.7739 F   0  0  0  0  0  0
  -29.9704  -13.6263   20.4041 N   0  0  0  0  0  0
  -26.2928  -12.9402   20.3256 N   0  0  0  0  0  0
  -25.9325  -11.6541   20.5719 N   0  0  0  0  0  0
  -22.0469  -12.8219   22.0423 N   0  0  0  0  0  0
  -25.4225  -15.1922   20.4183 N   0  0  0  0  0  0
  -31.7046  -15.0344   20.0929 O   0  0  0  0  0  0
  -21.6645   -6.8878   21.4243 O   0  0  0  0  0  0
  -22.3516  -14.5536   20.6725 O   0  0  0  0  0  0
  -24.6427  -31.8457   23.1889 C   0  0  0  0  0  0
  -25.9206  -32.4699   23.8282 C   0  0  1  0  0  0
  -27.2195  -27.1482   20.1367 C   0  0  0  0  0  0
  -25.5958  -33.8507   24.2198 N   0  0  0  0  0  0
  -23.4454  -30.4660   21.5345 C   0  0  2  0  0  0
  -24.8943  -28.8963   20.1092 C   0  0  0  0  0  0
  -22.7569  -29.4553   22.4854 C   0  0  0  0  0  0
  -18.0309  -28.1395   22.8479 C   0  0  0  0  0  0
  -24.1491  -36.7255   23.2635 C   0  0  0  0  0  0
  -26.0023  -30.7198   21.3889 C   0  0  0  0  0  0
  -26.0717  -29.3335   20.7275 C   0  0  0  0  0  0
  -27.2327  -28.4746   20.7273 C   0  0  0  0  0  0
  -26.0126  -26.8134   19.4799 C   0  0  0  0  0  0
  -24.8763  -27.6481   19.4726 C   0  0  0  0  0  0
  -23.6714  -29.7976   20.1533 C   0  0  0  0  0  0
  -25.4121  -36.3032   24.0314 C   0  0  1  0  0  0
  -20.5921  -28.3725   23.1227 C   0  0  2  0  0  0
  -20.6792  -26.9430   22.5396 C   0  0  0  0  0  0
  -19.5759  -26.6382   21.5210 C   0  0  0  0  0  0
  -18.1944  -26.7930   22.1631 C   0  0  0  0  0  0
  -19.1566  -28.8879   23.2842 C   0  0  0  0  0  0
  -18.9482  -30.1471   23.8871 C   0  0  0  0  0  0
  -17.6480  -30.6591   24.0558 C   0  0  0  0  0  0
  -25.9079  -34.9408   23.5064 C   0  0  0  0  0  0
  -16.5370  -29.9086   23.6334 C   0  0  0  0  0  0
  -16.7293  -28.6502   23.0356 C   0  0  0  0  0  0
  -26.4526  -31.6566   25.0726 C   0  0  0  0  0  0
  -25.3708  -31.3770   26.1420 C   0  0  0  0  0  0
  -27.0396  -30.2958   24.6322 C   0  0  0  0  0  0
  -27.6054  -32.4339   25.7511 C   0  0  0  0  0  0
  -27.5581  -37.1770   24.8455 C   0  0  0  0  0  0
  -21.4261  -29.3052   22.3606 N   0  0  0  0  0  0
  -26.4279  -37.3752   23.9419 N   0  0  0  0  0  0
  -24.7164  -31.0322   22.0918 N   0  0  0  0  0  0
  -23.4218  -28.8099   23.3000 O   0  0  0  0  0  0
  -28.2825  -26.1756   20.2242 O   0  0  0  0  0  0
  -26.5671  -34.8903   22.4647 O   0  0  0  0  0  0
  -23.5550  -32.1330   23.7117 O   0  0  0  0  0  0
  -30.2700  -19.7950   19.6098 C   0  0  0  0  0  0
  -30.4883  -18.3655   19.7777 C   0  0  0  0  0  0
  -28.5917  -18.2918   21.1673 C   0  0  0  0  0  0
  -28.3647  -19.7261   21.0187 C   0  0  0  0  0  0
  -29.1933  -20.5701   20.1879 C   0  0  0  0  0  0
  -29.6350  -17.5180   20.5518 C   0  0  0  0  0  0
  -28.1008  -23.2076   17.7527 C   0  0  0  0  0  0
  -28.3760  -24.6121   18.3198 C   0  0  0  0  0  0
  -29.0566  -22.1465   18.3253 C   0  0  0  0  0  0
  -28.9205  -23.3518   20.5045 C   0  0  0  0  0  0
  -28.1236  -24.6766   19.8385 C   0  0  1  0  0  0
  -27.1510  -20.3320   21.7298 C   0  0  0  0  0  0
  -28.8936  -21.9780   19.7699 N   0  0  0  0  0  0
  -29.6723  -15.9952   20.7098 N   0  0  0  0  0  0
  -26.4588  -19.4206   22.4160 F   0  0  0  0  0  0
  -27.5407  -21.2647   22.5992 F   0  0  0  0  0  0
  -26.3139  -20.8838   20.8509 F   0  0  0  0  0  0
  -31.4844  -12.7231   19.1765 H   0  0  0  0  0  0
  -30.4519  -11.5890   20.0017 H   0  0  0  0  0  0
  -29.8314  -11.7337   17.5677 H   0  0  0  0  0  0
  -29.6180  -13.4615   17.7038 H   0  0  0  0  0  0
  -27.9441  -11.2719   18.9672 H   0  0  0  0  0  0
  -27.3935  -12.4631   17.8173 H   0  0  0  0  0  0
  -27.6156  -14.2462   19.4342 H   0  0  0  0  0  0
  -28.7537  -12.2249   21.4307 H   0  0  0  0  0  0
  -28.3855  -13.8919   21.7895 H   0  0  0  0  0  0
  -25.2746   -9.5700   22.4763 H   0  0  0  0  0  0
  -24.0003   -7.4638   22.7463 H   0  0  0  0  0  0
  -21.0836   -8.8779   19.8944 H   0  0  0  0  0  0
  -22.3689  -10.9677   19.6170 H   0  0  0  0  0  0
  -21.2004   -7.6144   23.9716 H   0  0  0  0  0  0
  -21.1477   -6.0516   25.9075 H   0  0  0  0  0  0
  -22.0595   -2.7610   23.2854 H   0  0  0  0  0  0
  -22.4078  -11.9881   22.4821 H   0  0  0  0  0  0
  -21.1084  -13.1243   22.2626 H   0  0  0  0  0  0
  -24.6529  -15.8429   20.5317 H   0  0  0  0  0  0
  -26.2591  -15.6293   20.0556 H   0  0  0  0  0  0
  -26.7269  -32.5303   23.1009 H   0  0  0  0  0  0
  -25.0086  -33.9621   25.0332 H   0  0  0  0  0  0
  -22.7470  -31.2915   21.3810 H   0  0  0  0  0  0
  -23.3760  -35.9577   23.3270 H   0  0  0  0  0  0
  -24.3582  -36.8916   22.2055 H   0  0  0  0  0  0
  -23.7234  -37.6438   23.6692 H   0  0  0  0  0  0
  -26.1638  -31.4750   20.6185 H   0  0  0  0  0  0
  -26.8704  -30.7650   22.0348 H   0  0  0  0  0  0
  -28.1278  -28.8037   21.2360 H   0  0  0  0  0  0
  -25.9004  -25.8646   18.9806 H   0  0  0  0  0  0
  -23.9764  -27.3072   18.9792 H   0  0  0  0  0  0
  -23.8104  -30.5726   19.3988 H   0  0  0  0  0  0
  -22.7860  -29.2415   19.8400 H   0  0  0  0  0  0
  -25.1297  -36.1855   25.0804 H   0  0  0  0  0  0
  -21.0012  -28.3314   24.1346 H   0  0  0  0  0  0
  -20.5695  -26.2339   23.3613 H   0  0  0  0  0  0
  -21.6653  -26.7439   22.1182 H   0  0  0  0  0  0
  -19.6919  -25.6288   21.1245 H   0  0  0  0  0  0
  -19.6675  -27.3185   20.6729 H   0  0  0  0  0  0
  -17.4202  -26.6662   21.4043 H   0  0  0  0  0  0
  -18.0354  -26.0081   22.9041 H   0  0  0  0  0  0
  -19.7957  -30.7295   24.2224 H   0  0  0  0  0  0
  -17.5032  -31.6264   24.5173 H   0  0  0  0  0  0
  -15.5367  -30.2983   23.7667 H   0  0  0  0  0  0
  -15.8689  -28.0810   22.7091 H   0  0  0  0  0  0
  -24.5895  -30.7103   25.7750 H   0  0  0  0  0  0
  -24.8887  -32.2958   26.4767 H   0  0  0  0  0  0
  -25.7988  -30.9003   27.0246 H   0  0  0  0  0  0
  -26.3023  -29.6672   24.1314 H   0  0  0  0  0  0
  -27.3984  -29.7266   25.4908 H   0  0  0  0  0  0
  -27.8940  -30.4183   23.9662 H   0  0  0  0  0  0
  -27.2643  -33.3665   26.2014 H   0  0  0  0  0  0
  -28.3901  -32.6857   25.0366 H   0  0  0  0  0  0
  -28.0676  -31.8515   26.5488 H   0  0  0  0  0  0
  -28.2549  -38.0116   24.7571 H   0  0  0  0  0  0
  -28.1129  -36.2651   24.6194 H   0  0  0  0  0  0
  -27.2312  -37.1305   25.8858 H   0  0  0  0  0  0
  -20.9479  -29.8776   21.6787 H   0  0  0  0  0  0
  -26.0140  -38.2808   24.1466 H   0  0  0  0  0  0
  -30.9622  -20.3067   18.9574 H   0  0  0  0  0  0
  -31.3195  -17.9152   19.2514 H   0  0  0  0  0  0
  -27.8918  -17.7417   21.7777 H   0  0  0  0  0  0
  -28.2105  -23.2328   16.6679 H   0  0  0  0  0  0
  -27.0650  -22.9214   17.9422 H   0  0  0  0  0  0
  -27.7565  -25.3369   17.7935 H   0  0  0  0  0  0
  -29.4094  -24.8911   18.1090 H   0  0  0  0  0  0
  -30.0908  -22.4171   18.1051 H   0  0  0  0  0  0
  -28.8660  -21.2043   17.8084 H   0  0  0  0  0  0
  -28.5633  -23.2123   21.5243 H   0  0  0  0  0  0
  -29.9734  -23.6181   20.6059 H   0  0  0  0  0  0
  -27.0773  -24.4321   20.0154 H   0  0  0  0  0  0
  -28.8023  -15.6342   21.0711 H   0  0  0  0  0  0
  1 25  1  0  0  0
  1 30  2  0  0  0
  1 84  1  0  0  0
  2  3  1  0  0  0
  2 25  1  0  0  0
  2 88  1  0  0  0
  2 89  1  0  0  0
  3  4  1  0  0  0
  3 90  1  0  0  0
  3 91  1  0  0  0
  4  5  1  0  0  0
  4 92  1  0  0  0
  4 93  1  0  0  0
  5  6  1  0  0  0
  5 26  1  0  0  0
  5 94  1  0  0  0
  6 25  1  0  0  0
  6 95  1  0  0  0
  6 96  1  0  0  0
  7  8  2  0  0  0
  7 26  1  0  0  0
  7 29  1  0  0  0
  8  9  1  0  0  0
  8 22  1  0  0  0
  9 10  1  0  0  0
  9 27  2  0  0  0
 10 11  2  0  0  0
 10 15  1  0  0  0
 11 12  1  0  0  0
 11 97  1  0  0  0
 12 13  2  0  0  0
 12 98  1  0  0  0
 13 14  1  0  0  0
 13 31  1  0  0  0
 14 15  2  0  0  0
 14 99  1  0  0  0
 15100  1  0  0  0
 16 17  2  0  0  0
 16 21  1  0  0  0
 16 31  1  0  0  0
 17 18  1  0  0  0
 17101  1  0  0  0
 18 19  2  0  0  0
 18102  1  0  0  0
 19 20  1  0  0  0
 19 24  1  0  0  0
 20 21  2  0  0  0
 20103  1  0  0  0
 21 23  1  0  0  0
 22 28  1  0  0  0
 22 32  2  0  0  0
 26 27  1  0  0  0
 28104  1  0  0  0
 28105  1  0  0  0
 29106  1  0  0  0
 29107  1  0  0  0
 33 34  1  0  0  0
 33 66  1  0  0  0
 33 70  2  0  0  0
 34 36  1  0  0  0
 34 59  1  0  0  0
 34108  1  0  0  0
 35 44  2  0  0  0
 35 45  1  0  0  0
 35 68  1  0  0  0
 36 56  1  0  0  0
 36109  1  0  0  0
 37 39  1  0  0  0
 37 47  1  0  0  0
 37 66  1  0  0  0
 37110  1  0  0  0
 38 43  2  0  0  0
 38 46  1  0  0  0
 38 47  1  0  0  0
 39 64  1  0  0  0
 39 67  2  0  0  0
 40 52  1  0  0  0
 40 53  2  0  0  0
 40 58  1  0  0  0
 41111  1  0  0  0
 41112  1  0  0  0
 41113  1  0  0  0
 41 48  1  0  0  0
 42 43  1  0  0  0
 42 66  1  0  0  0
 42114  1  0  0  0
 42115  1  0  0  0
 43 44  1  0  0  0
 44116  1  0  0  0
 45 46  2  0  0  0
 45117  1  0  0  0
 46118  1  0  0  0
 47119  1  0  0  0
 47120  1  0  0  0
 48 56  1  0  0  0
 48 65  1  0  0  0
 48121  1  0  0  0
 49 50  1  0  0  0
 49 53  1  0  0  0
 49 64  1  0  0  0
 49122  1  0  0  0
 50 51  1  0  0  0
 50123  1  0  0  0
 50124  1  0  0  0
 51 52  1  0  0  0
 51125  1  0  0  0
 51126  1  0  0  0
 52127  1  0  0  0
 52128  1  0  0  0
 53 54  1  0  0  0
 54 55  2  0  0  0
 54129  1  0  0  0
 55 57  1  0  0  0
 55130  1  0  0  0
 56 69  2  0  0  0
 57 58  2  0  0  0
 57131  1  0  0  0
 58132  1  0  0  0
 59 60  1  0  0  0
 59 61  1  0  0  0
 59 62  1  0  0  0
 60133  1  0  0  0
 60134  1  0  0  0
 60135  1  0  0  0
 61136  1  0  0  0
 61137  1  0  0  0
 61138  1  0  0  0
 62139  1  0  0  0
 62140  1  0  0  0
 62141  1  0  0  0
 63 65  1  0  0  0
 63142  1  0  0  0
 63143  1  0  0  0
 63144  1  0  0  0
 64145  1  0  0  0
 65146  1  0  0  0
 68 81  1  0  0  0
 71 72  2  0  0  0
 71 75  1  0  0  0
 71147  1  0  0  0
 72 76  1  0  0  0
 72148  1  0  0  0
 73 74  1  0  0  0
 73 76  2  0  0  0
 73149  1  0  0  0
 74 75  2  0  0  0
 74 82  1  0  0  0
 75 83  1  0  0  0
 76 84  1  0  0  0
 77 78  1  0  0  0
 77 79  1  0  0  0
 77150  1  0  0  0
 77151  1  0  0  0
 78 81  1  0  0  0
 78152  1  0  0  0
 78153  1  0  0  0
 79 83  1  0  0  0
 79154  1  0  0  0
 79155  1  0  0  0
 80 81  1  0  0  0
 80 83  1  0  0  0
 80156  1  0  0  0
 80157  1  0  0  0
 81158  1  0  0  0
 82 85  1  0  0  0
 82 86  1  0  0  0
 82 87  1  0  0  0
 84159  1  0  0  0
M  ISO  4   1 100  68 101  81 101  84 100
M  END
> <chiral flag>
0

> <version>
0

> <s_m_source_file>
/data/baiqing/PycharmProjects/Reinvent-master-3.2/result/LINK_invent/BTK/process_docking_weight1_custom_product_contain_oxygen_bond_distance_aromatic_linkinvent_7_9_3/rearranged_h_0028.sdf

> <i_m_source_file_index>
85

> <r_mmod_Potential_Energy-OPLS-2005>
557.758666992188

> <r_mmod_Stretch_Energy-OPLS-2005>
221.503234863281

> <r_mmod_Bend_Energy-OPLS-2005>
263.171142578125

> <r_mmod_Torsional_Energy-OPLS-2005>
258.554443359375

> <r_mmod_Improper_Torsional_Energy-OPLS-2005>
6.22355985641479

> <r_mmod_Van_der_Waal_Energy-OPLS-2005>
141.883239746094

> <r_mmod_Electrostatic_Energy-OPLS-2005>
-292.630462646484

> <r_mmod_Solvation_Energy-OPLS-2005>
-212.396179199219

> <b_mmod_Minimization_Converged-OPLS-2005>
0

> <r_mmod_RMS_Derivative-OPLS-2005>
1.37858855724335

$$$$
85
                    3D
 Structure written by MMmdl.
186195  0  0  1  0            999 V2000
  -29.8760  -17.0423   20.2514 C   0  0  0  0  0  0
  -30.2182  -14.1794   19.4377 C   0  0  0  0  0  0
  -29.5555  -13.1421   18.4138 C   0  0  0  0  0  0
  -28.2899  -12.4798   18.9505 C   0  0  0  0  0  0
  -27.5771  -13.5213   19.8186 C   0  0  2  0  0  0
  -28.4876  -14.4248   20.7811 C   0  0  0  0  0  0
  -25.2123  -13.8679   20.6057 C   0  0  0  0  0  0
  -24.1719  -13.0529   20.9364 C   0  0  0  0  0  0
  -24.6722  -11.7148   20.8731 C   0  0  0  0  0  0
  -23.9435  -10.4382   21.0312 C   0  0  0  0  0  0
  -24.3863   -9.4269   21.9141 C   0  0  0  0  0  0
  -23.6442   -8.2344   22.0756 C   0  0  0  0  0  0
  -22.4402   -8.0397   21.3565 C   0  0  0  0  0  0
  -22.0119   -9.0392   20.4650 C   0  0  0  0  0  0
  -22.7545  -10.2221   20.3007 C   0  0  0  0  0  0
  -21.6913   -6.0808   22.5267 C   0  0  0  0  0  0
  -21.4058   -6.5683   23.8210 C   0  0  0  0  0  0
  -21.3660   -5.6819   24.9157 C   0  0  0  0  0  0
  -21.6049   -4.3088   24.7195 C   0  0  0  0  0  0
  -21.8809   -3.8187   23.4309 C   0  0  0  0  0  0
  -21.9213   -4.7022   22.3375 C   0  0  0  0  0  0
  -22.7636  -13.5052   21.1892 C   0  0  0  0  0  0
  -22.1676   -4.2191   21.0960 F   0  0  0  0  0  0
  -21.5604   -3.4566   25.7708 F   0  0  0  0  0  0
  -29.3723  -15.4793   20.0118 N   0  0  0  0  0  0
  -26.2962  -13.0518   20.3674 N   0  0  0  0  0  0
  -25.9786  -11.7321   20.5665 N   0  0  0  0  0  0
  -22.0369  -12.7990   22.0460 N   0  0  0  0  0  0
  -25.3251  -15.2460   20.4421 N   0  0  0  0  0  0
  -31.0280  -16.4693   20.4424 O   0  0  0  0  0  0
  -21.6725   -6.8993   21.4251 O   0  0  0  0  0  0
  -22.3222  -14.5309   20.6712 O   0  0  0  0  0  0
  -24.7758  -31.6767   23.0694 C   0  0  0  0  0  0
  -25.9839  -32.3890   23.7631 C   0  0  1  0  0  0
  -27.2941  -25.7408   20.2821 C   0  0  0  0  0  0
  -25.5998  -33.7769   24.1393 N   0  0  0  0  0  0
  -23.6444  -30.2267   21.4490 C   0  0  2  0  0  0
  -25.1097  -28.3534   20.1498 C   0  0  0  0  0  0
  -22.8172  -29.3633   22.4477 C   0  0  0  0  0  0
  -18.0397  -28.1465   22.8407 C   0  0  0  0  0  0
  -24.1494  -36.6908   23.2687 C   0  0  0  0  0  0
  -26.2486  -30.0901   21.4756 C   0  0  0  0  0  0
  -26.3095  -28.5430   20.8439 C   0  0  0  0  0  0
  -27.3333  -27.3046   20.8475 C   0  0  0  0  0  0
  -26.0549  -26.0021   19.5302 C   0  0  0  0  0  0
  -25.0753  -27.1103   19.4673 C   0  0  0  0  0  0
  -23.9461  -29.4206   20.1318 C   0  0  0  0  0  0
  -25.4180  -36.2550   24.0215 C   0  0  1  0  0  0
  -20.6068  -28.3838   23.0975 C   0  0  2  0  0  0
  -20.6793  -26.9409   22.5426 C   0  0  0  0  0  0
  -19.5795  -26.6326   21.5226 C   0  0  0  0  0  0
  -18.1982  -26.7970   22.1605 C   0  0  0  0  0  0
  -19.1686  -28.9006   23.2642 C   0  0  0  0  0  0
  -18.9578  -30.1569   23.8726 C   0  0  0  0  0  0
  -17.6554  -30.6615   24.0528 C   0  0  0  0  0  0
  -25.9205  -34.8967   23.4725 C   0  0  0  0  0  0
  -16.5437  -29.9081   23.6370 C   0  0  0  0  0  0
  -16.7374  -28.6513   23.0383 C   0  0  0  0  0  0
  -26.4740  -31.6357   25.0643 C   0  0  0  0  0  0
  -25.3583  -31.3931   26.1101 C   0  0  0  0  0  0
  -27.0814  -30.2620   24.7175 C   0  0  0  0  0  0
  -27.6007  -32.4453   25.7502 C   0  0  0  0  0  0
  -27.5517  -37.1625   24.8483 C   0  0  0  0  0  0
  -21.4745  -29.2876   22.3205 N   0  0  0  0  0  0
  -26.4240  -37.3401   23.9381 N   0  0  0  0  0  0
  -24.9273  -30.7212   22.0509 N   0  0  0  0  0  0
  -23.4150  -28.7441   23.3296 O   0  0  0  0  0  0
  -28.1953  -24.1267   20.3058 O   0  0  0  0  0  0
  -26.5998  -34.8736   22.4448 O   0  0  0  0  0  0
  -23.6590  -32.0288   23.5028 O   0  0  0  0  0  0
  -31.3510  -20.0888   16.1060 C   0  0  0  0  0  0
  -29.3303  -21.3105   16.2572 C   0  0  0  0  0  0
  -30.4856  -20.8720   16.9645 C   0  0  0  0  0  0
  -30.7304  -19.1500   15.2631 C   0  0  0  0  0  0
  -29.3296  -19.0651   15.3894 C   0  0  0  0  0  0
  -28.6734  -20.3233   15.4719 C   0  0  0  0  0  0
  -31.4567  -19.0088   21.2256 C   0  0  0  0  0  0
  -29.6620  -20.5945   21.7928 C   0  0  0  0  0  0
  -31.3226  -18.4461   18.7502 C   0  0  0  0  0  0
  -28.1188  -20.2587   18.6693 C   0  0  0  0  0  0
  -28.4505  -21.8540   20.2977 C   0  0  2  0  0  0
  -31.5480  -18.0365   14.6386 C   0  0  0  0  0  0
  -24.3235  -22.7060   15.5841 C   0  0  0  0  0  0
  -24.4422  -20.6082   14.2197 C   0  0  0  0  0  0
  -24.8830  -20.5373   16.7039 C   0  0  0  0  0  0
  -30.8316  -20.6782   19.8237 C   0  0  0  0  0  0
  -30.4268  -20.6997   18.6450 C   0  0  0  0  0  0
  -28.9908  -18.1191   16.5643 C   0  0  0  0  0  0
  -26.5514  -21.6638   15.1512 C   0  0  0  0  0  0
  -25.0579  -21.3635   15.4134 C   0  0  0  0  0  0
  -27.3564  -20.4495   15.0021 N   0  0  0  0  0  0
  -29.6137  -19.0617   20.0119 N   0  0  0  0  0  0
  -29.4194  -18.7974   17.8253 N   0  3  2  0  0  0
  -31.0542  -14.5988   18.8774 H   0  0  0  0  0  0
  -30.7302  -13.6392   20.2355 H   0  0  0  0  0  0
  -30.2759  -12.3803   18.1097 H   0  0  0  0  0  0
  -29.3040  -13.6931   17.5076 H   0  0  0  0  0  0
  -28.5614  -11.6164   19.5582 H   0  0  0  0  0  0
  -27.6582  -12.1173   18.1392 H   0  0  0  0  0  0
  -27.2616  -14.2411   19.0612 H   0  0  0  0  0  0
  -29.0317  -13.8215   21.5112 H   0  0  0  0  0  0
  -27.8278  -15.0301   21.4014 H   0  0  0  0  0  0
  -25.2988   -9.5702   22.4766 H   0  0  0  0  0  0
  -24.0100   -7.4737   22.7522 H   0  0  0  0  0  0
  -21.1029   -8.8985   19.8968 H   0  0  0  0  0  0
  -22.4028  -10.9777   19.6121 H   0  0  0  0  0  0
  -21.2082   -7.6196   23.9718 H   0  0  0  0  0  0
  -21.1485   -6.0554   25.9063 H   0  0  0  0  0  0
  -22.0583   -2.7646   23.2803 H   0  0  0  0  0  0
  -22.4090  -11.9721   22.4883 H   0  0  0  0  0  0
  -21.0929  -13.0882   22.2612 H   0  0  0  0  0  0
  -24.5322  -15.8684   20.5455 H   0  0  0  0  0  0
  -26.1634  -15.7221   20.1397 H   0  0  0  0  0  0
  -26.8077  -32.4221   23.0490 H   0  0  0  0  0  0
  -24.9890  -33.8628   24.9381 H   0  0  0  0  0  0
  -23.0287  -31.0824   21.1703 H   0  0  0  0  0  0
  -23.3763  -35.9226   23.3263 H   0  0  0  0  0  0
  -24.3516  -36.8714   22.2116 H   0  0  0  0  0  0
  -23.7279  -37.6043   23.6900 H   0  0  0  0  0  0
  -26.5432  -30.7475   20.6561 H   0  0  0  0  0  0
  -27.0694  -30.1801   22.1717 H   0  0  0  0  0  0
  -28.2246  -27.5090   21.4218 H   0  0  0  0  0  0
  -25.7482  -25.1519   18.9378 H   0  0  0  0  0  0
  -24.2012  -26.9260   18.8579 H   0  0  0  0  0  0
  -24.1895  -30.1309   19.3416 H   0  0  0  0  0  0
  -23.0335  -28.9254   19.7960 H   0  0  0  0  0  0
  -25.1443  -36.1186   25.0704 H   0  0  0  0  0  0
  -21.0120  -28.3526   24.1120 H   0  0  0  0  0  0
  -20.5540  -26.2500   23.3781 H   0  0  0  0  0  0
  -21.6650  -26.7181   22.1334 H   0  0  0  0  0  0
  -19.6921  -25.6199   21.1365 H   0  0  0  0  0  0
  -19.6770  -27.3049   20.6697 H   0  0  0  0  0  0
  -17.4256  -26.6736   21.3997 H   0  0  0  0  0  0
  -18.0316  -26.0155   22.9037 H   0  0  0  0  0  0
  -19.8056  -30.7420   24.2031 H   0  0  0  0  0  0
  -17.5100  -31.6282   24.5159 H   0  0  0  0  0  0
  -15.5432  -30.2930   23.7777 H   0  0  0  0  0  0
  -15.8784  -28.0770   22.7187 H   0  0  0  0  0  0
  -24.5800  -30.7267   25.7364 H   0  0  0  0  0  0
  -24.8771  -32.3244   26.4088 H   0  0  0  0  0  0
  -25.7549  -30.9357   27.0172 H   0  0  0  0  0  0
  -26.3653  -29.5941   24.2393 H   0  0  0  0  0  0
  -27.4116  -29.7437   25.6186 H   0  0  0  0  0  0
  -27.9669  -30.3570   24.0895 H   0  0  0  0  0  0
  -27.2420  -33.3930   26.1521 H   0  0  0  0  0  0
  -28.4089  -32.6740   25.0544 H   0  0  0  0  0  0
  -28.0387  -31.9002   26.5873 H   0  0  0  0  0  0
  -28.2509  -37.9929   24.7402 H   0  0  0  0  0  0
  -28.1032  -36.2430   24.6466 H   0  0  0  0  0  0
  -27.2214  -37.1430   25.8885 H   0  0  0  0  0  0
  -21.0285  -29.8377   21.5995 H   0  0  0  0  0  0
  -25.9983  -38.2422   24.1335 H   0  0  0  0  0  0
  -32.3983  -19.9210   16.3262 H   0  0  0  0  0  0
  -28.7832  -22.1685   16.6159 H   0  0  0  0  0  0
  -31.4061  -18.1958   21.9470 H   0  0  0  0  0  0
  -32.4559  -19.3784   21.4684 H   0  0  0  0  0  0
  -30.0531  -21.2744   22.5495 H   0  0  0  0  0  0
  -28.9231  -20.0256   22.3599 H   0  0  0  0  0  0
  -31.6701  -17.4504   18.4614 H   0  0  0  0  0  0
  -32.1543  -18.9369   18.2537 H   0  0  0  0  0  0
  -27.5473  -20.7232   17.8741 H   0  0  0  0  0  0
  -27.3349  -19.6334   19.1022 H   0  0  0  0  0  0
  -27.4769  -21.7508   20.7764 H   0  0  0  0  0  0
  -32.3313  -18.4477   14.0003 H   0  0  0  0  0  0
  -30.9271  -17.3751   14.0342 H   0  0  0  0  0  0
  -32.0242  -17.4392   15.4159 H   0  0  0  0  0  0
  -23.2566  -22.5652   15.7619 H   0  0  0  0  0  0
  -24.4233  -23.3320   14.6968 H   0  0  0  0  0  0
  -24.7216  -23.2745   16.4262 H   0  0  0  0  0  0
  -23.3650  -20.4899   14.3373 H   0  0  0  0  0  0
  -24.8636  -19.6091   14.1079 H   0  0  0  0  0  0
  -24.6069  -21.1430   13.2840 H   0  0  0  0  0  0
  -23.8364  -20.2947   16.8863 H   0  0  0  0  0  0
  -25.2474  -21.0798   17.5763 H   0  0  0  0  0  0
  -25.4233  -19.5920   16.6592 H   0  0  0  0  0  0
  -30.6983  -21.7738   20.2571 H   0  0  0  0  0  0
  -32.0135  -20.5361   19.7973 H   0  0  0  0  0  0
  -31.4585  -21.1020   20.6497 H   0  0  0  0  0  0
  -29.8524  -21.6964   18.4399 H   0  0  0  0  0  0
  -31.4614  -20.8669   18.0448 H   0  0  0  0  0  0
  -29.5181  -17.1678   16.4648 H   0  0  0  0  0  0
  -27.9230  -17.9039   16.5918 H   0  0  0  0  0  0
  -26.9122  -22.3085   15.9481 H   0  0  0  0  0  0
  -26.6422  -22.2529   14.2384 H   0  0  0  0  0  0
  -26.9862  -19.7327   14.3857 H   0  0  0  0  0  0
  -29.8573  -19.5178   17.2532 H   0  0  0  0  0  0
  1 25  1  0  0  0
  1 30  2  0  0  0
  1 92  1  0  0  0
  2  3  1  0  0  0
  2 25  1  0  0  0
  2 94  1  0  0  0
  2 95  1  0  0  0
  3  4  1  0  0  0
  3 96  1  0  0  0
  3 97  1  0  0  0
  4  5  1  0  0  0
  4 98  1  0  0  0
  4 99  1  0  0  0
  5  6  1  0  0  0
  5 26  1  0  0  0
  5100  1  0  0  0
  6 25  1  0  0  0
  6101  1  0  0  0
  6102  1  0  0  0
  7  8  2  0  0  0
  7 26  1  0  0  0
  7 29  1  0  0  0
  8  9  1  0  0  0
  8 22  1  0  0  0
  9 10  1  0  0  0
  9 27  2  0  0  0
 10 11  2  0  0  0
 10 15  1  0  0  0
 11 12  1  0  0  0
 11103  1  0  0  0
 12 13  2  0  0  0
 12104  1  0  0  0
 13 14  1  0  0  0
 13 31  1  0  0  0
 14 15  2  0  0  0
 14105  1  0  0  0
 15106  1  0  0  0
 16 17  2  0  0  0
 16 21  1  0  0  0
 16 31  1  0  0  0
 17 18  1  0  0  0
 17107  1  0  0  0
 18 19  2  0  0  0
 18108  1  0  0  0
 19 20  1  0  0  0
 19 24  1  0  0  0
 20 21  2  0  0  0
 20109  1  0  0  0
 21 23  1  0  0  0
 22 28  1  0  0  0
 22 32  2  0  0  0
 26 27  1  0  0  0
 28110  1  0  0  0
 28111  1  0  0  0
 29112  1  0  0  0
 29113  1  0  0  0
 33 34  1  0  0  0
 33 66  1  0  0  0
 33 70  2  0  0  0
 34 36  1  0  0  0
 34 59  1  0  0  0
 34114  1  0  0  0
 35 44  2  0  0  0
 35 45  1  0  0  0
 35 68  1  0  0  0
 36 56  1  0  0  0
 36115  1  0  0  0
 37 39  1  0  0  0
 37 47  1  0  0  0
 37 66  1  0  0  0
 37116  1  0  0  0
 38 43  2  0  0  0
 38 46  1  0  0  0
 38 47  1  0  0  0
 39 64  1  0  0  0
 39 67  2  0  0  0
 40 52  1  0  0  0
 40 53  2  0  0  0
 40 58  1  0  0  0
 41117  1  0  0  0
 41118  1  0  0  0
 41119  1  0  0  0
 41 48  1  0  0  0
 42 43  1  0  0  0
 42 66  1  0  0  0
 42120  1  0  0  0
 42121  1  0  0  0
 43 44  1  0  0  0
 44122  1  0  0  0
 45 46  2  0  0  0
 45123  1  0  0  0
 46124  1  0  0  0
 47125  1  0  0  0
 47126  1  0  0  0
 48 56  1  0  0  0
 48 65  1  0  0  0
 48127  1  0  0  0
 49 50  1  0  0  0
 49 53  1  0  0  0
 49 64  1  0  0  0
 49128  1  0  0  0
 50 51  1  0  0  0
 50129  1  0  0  0
 50130  1  0  0  0
 51 52  1  0  0  0
 51131  1  0  0  0
 51132  1  0  0  0
 52133  1  0  0  0
 52134  1  0  0  0
 53 54  1  0  0  0
 54 55  2  0  0  0
 54135  1  0  0  0
 55 57  1  0  0  0
 55136  1  0  0  0
 56 69  2  0  0  0
 57 58  2  0  0  0
 57137  1  0  0  0
 58138  1  0  0  0
 59 60  1  0  0  0
 59 61  1  0  0  0
 59 62  1  0  0  0
 60139  1  0  0  0
 60140  1  0  0  0
 60141  1  0  0  0
 61142  1  0  0  0
 61143  1  0  0  0
 61144  1  0  0  0
 62145  1  0  0  0
 62146  1  0  0  0
 62147  1  0  0  0
 63 65  1  0  0  0
 63148  1  0  0  0
 63149  1  0  0  0
 63150  1  0  0  0
 64151  1  0  0  0
 65152  1  0  0  0
 68 81  1  0  0  0
 71 73  2  0  0  0
 71 74  1  0  0  0
 71153  1  0  0  0
 72 73  1  0  0  0
 72 76  2  0  0  0
 72154  1  0  0  0
 73 87  1  0  0  0
 74 75  2  0  0  0
 74 82  1  0  0  0
 75 76  1  0  0  0
 75 88  1  0  0  0
 76 91  1  0  0  0
 77 78  1  0  0  0
 77 79  1  0  0  0
 77155  1  0  0  0
 77156  1  0  0  0
 78 81  1  0  0  0
 78157  1  0  0  0
 78158  1  0  0  0
 79 93  1  0  0  0
 79159  1  0  0  0
 79160  1  0  0  0
 80 81  1  0  0  0
 80 93  1  0  0  0
 80161  1  0  0  0
 80162  1  0  0  0
 81163  1  0  0  0
 82164  1  0  0  0
 82165  1  0  0  0
 82166  1  0  0  0
 83167  1  0  0  0
 83168  1  0  0  0
 83169  1  0  0  0
 83 90  1  0  0  0
 84 90  1  0  0  0
 84170  1  0  0  0
 84171  1  0  0  0
 84172  1  0  0  0
 85 90  1  0  0  0
 85173  1  0  0  0
 85174  1  0  0  0
 85175  1  0  0  0
 86 92  1  0  0  0
 86176  1  0  0  0
 86177  1  0  0  0
 86178  1  0  0  0
 87 92  1  0  0  0
 87179  1  0  0  0
 87180  1  0  0  0
 88181  1  0  0  0
 88182  1  0  0  0
 88 93  1  0  0  0
 89 90  1  0  0  0
 89 91  1  0  0  0
 89183  1  0  0  0
 89184  1  0  0  0
 91185  1  0  0  0
 93186  1  0  0  0
M  CHG  1  93   1
M  ISO  4   1 100  68 101  81 101  92 100
M  END
> <chiral flag>
0

> <version>
0

> <s_m_source_file>
/data/baiqing/PycharmProjects/Reinvent-master-3.2/result/LINK_invent/BTK/process_docking_weight1_custom_product_contain_oxygen_bond_distance_aromatic_linkinvent_7_9_3/rearranged_h_0028.sdf

> <i_m_source_file_index>
86

> <r_mmod_Potential_Energy-OPLS-2005>
18744.30859375

> <r_mmod_Stretch_Energy-OPLS-2005>
9596.6240234375

> <r_mmod_Bend_Energy-OPLS-2005>
2279.21923828125

> <r_mmod_Torsional_Energy-OPLS-2005>
650.710998535156

> <r_mmod_Improper_Torsional_Energy-OPLS-2005>
62.9844131469727

> <r_mmod_Van_der_Waal_Energy-OPLS-2005>
2696.53735351562

> <r_mmod_Electrostatic_Energy-OPLS-2005>
-315.216613769531

> <r_mmod_Solvation_Energy-OPLS-2005>
-379.782806396484

> <b_mmod_Minimization_Converged-OPLS-2005>
0

> <r_mmod_RMS_Derivative-OPLS-2005>
4.57547855377197

$$$$
86
                    3D
 Structure written by MMmdl.
159167  0  0  1  0            999 V2000
  -30.7021  -14.4053   20.6375 C   0  0  0  0  0  0
  -30.4340  -12.2916   19.3825 C   0  0  0  0  0  0
  -29.4845  -12.5114   18.1865 C   0  0  0  0  0  0
  -28.0089  -12.3640   18.6106 C   0  0  0  0  0  0
  -27.6661  -13.1924   19.8750 C   0  0  2  0  0  0
  -28.7095  -12.9039   20.9764 C   0  0  0  0  0  0
  -25.2634  -13.8110   20.5693 C   0  0  0  0  0  0
  -24.1855  -13.0419   20.9156 C   0  0  0  0  0  0
  -24.6384  -11.6873   20.8674 C   0  0  0  0  0  0
  -23.9052  -10.4277   21.0360 C   0  0  0  0  0  0
  -24.3602   -9.4210   21.9145 C   0  0  0  0  0  0
  -23.6298   -8.2236   22.0698 C   0  0  0  0  0  0
  -22.4275   -8.0268   21.3510 C   0  0  0  0  0  0
  -21.9905   -9.0233   20.4609 C   0  0  0  0  0  0
  -22.7218  -10.2121   20.3027 C   0  0  0  0  0  0
  -21.6868   -6.0732   22.5295 C   0  0  0  0  0  0
  -21.4012   -6.5637   23.8228 C   0  0  0  0  0  0
  -21.3637   -5.6793   24.9187 C   0  0  0  0  0  0
  -21.6062   -4.3064   24.7236 C   0  0  0  0  0  0
  -21.8828   -3.8142   23.4359 C   0  0  0  0  0  0
  -21.9201   -4.6959   22.3415 C   0  0  0  0  0  0
  -22.7881  -13.5193   21.1886 C   0  0  0  0  0  0
  -22.1672   -4.2140   21.0998 F   0  0  0  0  0  0
  -21.5635   -3.4541   25.7745 F   0  0  0  0  0  0
  -30.0458  -13.2335   20.4387 N   0  0  0  0  0  0
  -26.3059  -12.9253   20.3373 N   0  0  0  0  0  0
  -25.9292  -11.6422   20.5685 N   0  0  0  0  0  0
  -22.0561  -12.8132   22.0455 N   0  0  0  0  0  0
  -25.4407  -15.1819   20.4161 N   0  0  0  0  0  0
  -31.7992  -14.6751   20.1375 O   0  0  0  0  0  0
  -21.6645   -6.8860   21.4241 O   0  0  0  0  0  0
  -22.3508  -14.5481   20.6771 O   0  0  0  0  0  0
  -24.6271  -31.8745   23.2168 C   0  0  0  0  0  0
  -25.9135  -32.4875   23.8462 C   0  0  1  0  0  0
  -27.2524  -27.4661   20.1050 C   0  0  0  0  0  0
  -25.5949  -33.8662   24.2400 N   0  0  0  0  0  0
  -23.4331  -30.4978   21.5622 C   0  0  2  0  0  0
  -24.8647  -28.9608   20.1180 C   0  0  0  0  0  0
  -22.7749  -29.4837   22.5177 C   0  0  0  0  0  0
  -17.9920  -28.1215   22.8720 C   0  0  0  0  0  0
  -24.1495  -36.7350   23.2633 C   0  0  0  0  0  0
  -25.9439  -30.8488   21.3610 C   0  0  0  0  0  0
  -26.0199  -29.4808   20.7146 C   0  0  0  0  0  0
  -27.2170  -28.7395   20.7074 C   0  0  0  0  0  0
  -26.0880  -26.9487   19.5015 C   0  0  0  0  0  0
  -24.8913  -27.6931   19.5071 C   0  0  0  0  0  0
  -23.6269  -29.8272   20.1724 C   0  0  0  0  0  0
  -25.4106  -36.3137   24.0334 C   0  0  1  0  0  0
  -20.4772  -28.4574   22.7834 C   0  0  2  0  0  0
  -20.6857  -26.9599   22.5334 C   0  0  0  0  0  0
  -19.5526  -26.4571   21.6172 C   0  0  0  0  0  0
  -18.1551  -26.7528   22.2045 C   0  0  0  0  0  0
  -19.1126  -28.8964   23.2518 C   0  0  0  0  0  0
  -18.9339  -30.1467   23.8774 C   0  0  0  0  0  0
  -17.6376  -30.6529   24.0772 C   0  0  0  0  0  0
  -25.9039  -34.9488   23.5158 C   0  0  0  0  0  0
  -16.5205  -29.9007   23.6725 C   0  0  0  0  0  0
  -16.6974  -28.6321   23.0861 C   0  0  0  0  0  0
  -26.4507  -31.6587   25.0751 C   0  0  0  0  0  0
  -25.3786  -31.3648   26.1491 C   0  0  0  0  0  0
  -27.0310  -30.3030   24.6074 C   0  0  0  0  0  0
  -27.6075  -32.4273   25.7534 C   0  0  0  0  0  0
  -27.5590  -37.1830   24.8458 C   0  0  0  0  0  0
  -21.4530  -29.4439   22.3981 N   0  0  0  0  0  0
  -26.4308  -37.3801   23.9401 N   0  0  0  0  0  0
  -24.6893  -31.0876   22.1066 N   0  0  0  0  0  0
  -23.4273  -28.7643   23.2762 O   0  0  0  0  0  0
  -28.4117  -26.7347   20.1089 O   0  0  0  0  0  0
  -26.5571  -34.8920   22.4704 O   0  0  0  0  0  0
  -23.5449  -32.1472   23.7528 O   0  0  0  0  0  0
  -30.2759  -19.4059   22.2192 C   0  0  0  0  0  0
  -31.4170  -17.2788   21.8188 C   0  0  0  0  0  0
  -29.0251  -18.8192   21.9158 C   0  0  0  0  0  0
  -30.1720  -16.6711   21.5515 C   0  0  0  0  0  0
  -31.4623  -18.6460   22.1583 C   0  0  0  0  0  0
  -28.9924  -17.4431   21.5844 C   0  0  0  0  0  0
  -27.7695  -19.5881   22.0311 C   0  0  0  0  0  0
  -28.3727  -23.2150   21.5539 C   0  0  0  0  0  0
  -28.6071  -24.3510   20.5428 C   0  0  0  0  0  0
  -28.4547  -21.8110   20.9230 C   0  0  0  0  0  0
  -28.4628  -25.7536   21.1495 C   0  0  0  0  0  0
  -26.6887  -19.0012   22.5379 N   0  0  0  0  0  0
  -29.9932  -15.2790   21.3584 N   0  0  0  0  0  0
  -27.5940  -20.8722   21.6665 N   0  3  0  0  0  0
  -32.6455  -19.2285   22.4672 F   0  0  0  0  0  0
  -27.8141  -16.8163   21.3317 F   0  0  0  0  0  0
  -31.4752  -12.4119   19.0771 H   0  0  0  0  0  0
  -30.3470  -11.2704   19.7547 H   0  0  0  0  0  0
  -29.7142  -11.7997   17.3930 H   0  0  0  0  0  0
  -29.6407  -13.5030   17.7581 H   0  0  0  0  0  0
  -27.8335  -11.3061   18.8126 H   0  0  0  0  0  0
  -27.3456  -12.6292   17.7878 H   0  0  0  0  0  0
  -27.7250  -14.2438   19.5950 H   0  0  0  0  0  0
  -28.6823  -11.8453   21.2401 H   0  0  0  0  0  0
  -28.4620  -13.4265   21.8994 H   0  0  0  0  0  0
  -25.2748   -9.5722   22.4691 H   0  0  0  0  0  0
  -24.0037   -7.4624   22.7392 H   0  0  0  0  0  0
  -21.0851   -8.8780   19.8884 H   0  0  0  0  0  0
  -22.3691  -10.9668   19.6138 H   0  0  0  0  0  0
  -21.1979   -7.6142   23.9747 H   0  0  0  0  0  0
  -21.1455   -6.0500   25.9101 H   0  0  0  0  0  0
  -22.0610   -2.7601   23.2873 H   0  0  0  0  0  0
  -22.4209  -11.9740   22.4749 H   0  0  0  0  0  0
  -21.1163  -13.1081   22.2738 H   0  0  0  0  0  0
  -24.6798  -15.8425   20.5239 H   0  0  0  0  0  0
  -26.3304  -15.6294   20.2327 H   0  0  0  0  0  0
  -26.7214  -32.5580   23.1229 H   0  0  0  0  0  0
  -25.0056  -33.9788   25.0514 H   0  0  0  0  0  0
  -22.7340  -31.3238   21.4144 H   0  0  0  0  0  0
  -23.3736  -35.9711   23.3314 H   0  0  0  0  0  0
  -24.3597  -36.8945   22.2054 H   0  0  0  0  0  0
  -23.7277  -37.6567   23.6647 H   0  0  0  0  0  0
  -26.0459  -31.6131   20.5889 H   0  0  0  0  0  0
  -26.8345  -30.9124   21.9719 H   0  0  0  0  0  0
  -28.1112  -29.1352   21.1688 H   0  0  0  0  0  0
  -26.1121  -25.9762   19.0300 H   0  0  0  0  0  0
  -24.0054  -27.2871   19.0417 H   0  0  0  0  0  0
  -23.7351  -30.6030   19.4135 H   0  0  0  0  0  0
  -22.7503  -29.2471   19.8804 H   0  0  0  0  0  0
  -25.1282  -36.2007   25.0828 H   0  0  0  0  0  0
  -20.1628  -28.6750   21.7619 H   0  0  0  0  0  0
  -20.6683  -26.4235   23.4828 H   0  0  0  0  0  0
  -21.6549  -26.7613   22.0774 H   0  0  0  0  0  0
  -19.6568  -25.3878   21.4318 H   0  0  0  0  0  0
  -19.6351  -26.9203   20.6325 H   0  0  0  0  0  0
  -17.3989  -26.6311   21.4280 H   0  0  0  0  0  0
  -17.9296  -26.0038   22.9644 H   0  0  0  0  0  0
  -19.7916  -30.7431   24.1559 H   0  0  0  0  0  0
  -17.5020  -31.6241   24.5341 H   0  0  0  0  0  0
  -15.5241  -30.2924   23.8218 H   0  0  0  0  0  0
  -15.8306  -28.0574   22.7911 H   0  0  0  0  0  0
  -24.5958  -30.6993   25.7831 H   0  0  0  0  0  0
  -24.8969  -32.2785   26.4999 H   0  0  0  0  0  0
  -25.8145  -30.8785   27.0228 H   0  0  0  0  0  0
  -26.2836  -29.6783   24.1170 H   0  0  0  0  0  0
  -27.4150  -29.7243   25.4487 H   0  0  0  0  0  0
  -27.8650  -30.4344   23.9169 H   0  0  0  0  0  0
  -27.2695  -33.3553   26.2154 H   0  0  0  0  0  0
  -28.3878  -32.6849   25.0366 H   0  0  0  0  0  0
  -28.0758  -31.8367   26.5410 H   0  0  0  0  0  0
  -28.2588  -38.0142   24.7488 H   0  0  0  0  0  0
  -28.1092  -36.2658   24.6298 H   0  0  0  0  0  0
  -27.2297  -37.1505   25.8857 H   0  0  0  0  0  0
  -21.0689  -30.1595   21.7974 H   0  0  0  0  0  0
  -26.0197  -38.2882   24.1393 H   0  0  0  0  0  0
  -30.3418  -20.4368   22.5356 H   0  0  0  0  0  0
  -32.3301  -16.7033   21.8215 H   0  0  0  0  0  0
  -27.3986  -23.3503   22.0249 H   0  0  0  0  0  0
  -29.1000  -23.2832   22.3635 H   0  0  0  0  0  0
  -29.5959  -24.2607   20.0929 H   0  0  0  0  0  0
  -27.8861  -24.2534   19.7301 H   0  0  0  0  0  0
  -29.4897  -21.4880   20.8323 H   0  0  0  0  0  0
  -28.0776  -21.8480   19.9012 H   0  0  0  0  0  0
  -29.3176  -25.9643   21.7914 H   0  0  0  0  0  0
  -27.5817  -25.7922   21.7956 H   0  0  0  0  0  0
  -26.7136  -17.9946   22.6313 H   0  0  0  0  0  0
  -25.7901  -19.4503   22.6211 H   0  0  0  0  0  0
  -29.0735  -14.9365   21.5949 H   0  0  0  0  0  0
  -26.6746  -21.2553   21.8315 H   0  0  0  0  0  0
  1 25  1  0  0  0
  1 30  2  0  0  0
  1 83  1  0  0  0
  2  3  1  0  0  0
  2 25  1  0  0  0
  2 87  1  0  0  0
  2 88  1  0  0  0
  3  4  1  0  0  0
  3 89  1  0  0  0
  3 90  1  0  0  0
  4  5  1  0  0  0
  4 91  1  0  0  0
  4 92  1  0  0  0
  5  6  1  0  0  0
  5 26  1  0  0  0
  5 93  1  0  0  0
  6 25  1  0  0  0
  6 94  1  0  0  0
  6 95  1  0  0  0
  7  8  2  0  0  0
  7 26  1  0  0  0
  7 29  1  0  0  0
  8  9  1  0  0  0
  8 22  1  0  0  0
  9 10  1  0  0  0
  9 27  2  0  0  0
 10 11  2  0  0  0
 10 15  1  0  0  0
 11 12  1  0  0  0
 11 96  1  0  0  0
 12 13  2  0  0  0
 12 97  1  0  0  0
 13 14  1  0  0  0
 13 31  1  0  0  0
 14 15  2  0  0  0
 14 98  1  0  0  0
 15 99  1  0  0  0
 16 17  2  0  0  0
 16 21  1  0  0  0
 16 31  1  0  0  0
 17 18  1  0  0  0
 17100  1  0  0  0
 18 19  2  0  0  0
 18101  1  0  0  0
 19 20  1  0  0  0
 19 24  1  0  0  0
 20 21  2  0  0  0
 20102  1  0  0  0
 21 23  1  0  0  0
 22 28  1  0  0  0
 22 32  2  0  0  0
 26 27  1  0  0  0
 28103  1  0  0  0
 28104  1  0  0  0
 29105  1  0  0  0
 29106  1  0  0  0
 33 34  1  0  0  0
 33 66  1  0  0  0
 33 70  2  0  0  0
 34 36  1  0  0  0
 34 59  1  0  0  0
 34107  1  0  0  0
 35 44  2  0  0  0
 35 45  1  0  0  0
 35 68  1  0  0  0
 36 56  1  0  0  0
 36108  1  0  0  0
 37 39  1  0  0  0
 37 47  1  0  0  0
 37 66  1  0  0  0
 37109  1  0  0  0
 38 43  2  0  0  0
 38 46  1  0  0  0
 38 47  1  0  0  0
 39 64  1  0  0  0
 39 67  2  0  0  0
 40 52  1  0  0  0
 40 53  2  0  0  0
 40 58  1  0  0  0
 41110  1  0  0  0
 41111  1  0  0  0
 41112  1  0  0  0
 41 48  1  0  0  0
 42 43  1  0  0  0
 42 66  1  0  0  0
 42113  1  0  0  0
 42114  1  0  0  0
 43 44  1  0  0  0
 44115  1  0  0  0
 45 46  2  0  0  0
 45116  1  0  0  0
 46117  1  0  0  0
 47118  1  0  0  0
 47119  1  0  0  0
 48 56  1  0  0  0
 48 65  1  0  0  0
 48120  1  0  0  0
 49 50  1  0  0  0
 49 53  1  0  0  0
 49 64  1  0  0  0
 49121  1  0  0  0
 50 51  1  0  0  0
 50122  1  0  0  0
 50123  1  0  0  0
 51 52  1  0  0  0
 51124  1  0  0  0
 51125  1  0  0  0
 52126  1  0  0  0
 52127  1  0  0  0
 53 54  1  0  0  0
 54 55  2  0  0  0
 54128  1  0  0  0
 55 57  1  0  0  0
 55129  1  0  0  0
 56 69  2  0  0  0
 57 58  2  0  0  0
 57130  1  0  0  0
 58131  1  0  0  0
 59 60  1  0  0  0
 59 61  1  0  0  0
 59 62  1  0  0  0
 60132  1  0  0  0
 60133  1  0  0  0
 60134  1  0  0  0
 61135  1  0  0  0
 61136  1  0  0  0
 61137  1  0  0  0
 62138  1  0  0  0
 62139  1  0  0  0
 62140  1  0  0  0
 63 65  1  0  0  0
 63141  1  0  0  0
 63142  1  0  0  0
 63143  1  0  0  0
 64144  1  0  0  0
 65145  1  0  0  0
 68 81  1  0  0  0
 71 73  2  0  0  0
 71 75  1  0  0  0
 71146  1  0  0  0
 72 74  1  0  0  0
 72 75  2  0  0  0
 72147  1  0  0  0
 73 76  1  0  0  0
 73 77  1  0  0  0
 74 76  2  0  0  0
 74 83  1  0  0  0
 75 85  1  0  0  0
 76 86  1  0  0  0
 77 82  1  0  0  0
 77 84  2  0  0  0
 78 79  1  0  0  0
 78 80  1  0  0  0
 78148  1  0  0  0
 78149  1  0  0  0
 79 81  1  0  0  0
 79150  1  0  0  0
 79151  1  0  0  0
 80 84  1  0  0  0
 80152  1  0  0  0
 80153  1  0  0  0
 81154  1  0  0  0
 81155  1  0  0  0
 82156  1  0  0  0
 82157  1  0  0  0
 83158  1  0  0  0
 84159  1  0  0  0
M  CHG  1  84   1
M  ISO  4   1 100  68 101  81 101  83 100
M  END
> <chiral flag>
0

> <version>
0

> <s_m_source_file>
/data/baiqing/PycharmProjects/Reinvent-master-3.2/result/LINK_invent/BTK/process_docking_weight1_custom_product_contain_oxygen_bond_distance_aromatic_linkinvent_7_9_3/rearranged_h_0028.sdf

> <i_m_source_file_index>
87

> <r_mmod_Potential_Energy-OPLS-2005>
-183.548049926758

> <r_mmod_Stretch_Energy-OPLS-2005>
29.4491672515869

> <r_mmod_Bend_Energy-OPLS-2005>
210.500900268555

> <r_mmod_Torsional_Energy-OPLS-2005>
252.160614013672

> <r_mmod_Improper_Torsional_Energy-OPLS-2005>
5.70619535446167

> <r_mmod_Van_der_Waal_Energy-OPLS-2005>
163.2158203125

> <r_mmod_Electrostatic_Energy-OPLS-2005>
-441.674713134766

> <r_mmod_Solvation_Energy-OPLS-2005>
-431.336730957031

> <b_mmod_Minimization_Converged-OPLS-2005>
0

> <r_mmod_RMS_Derivative-OPLS-2005>
4.79684495925903

$$$$
87
                    3D
 Structure written by MMmdl.
157166  0  0  1  0            999 V2000
  -30.5564  -14.8360   20.4552 C   0  0  0  0  0  0
  -30.4419  -12.5237   19.4606 C   0  0  0  0  0  0
  -29.5063  -12.5154   18.2309 C   0  0  0  0  0  0
  -28.0377  -12.3146   18.6582 C   0  0  0  0  0  0
  -27.6316  -13.2318   19.8412 C   0  0  2  0  0  0
  -28.6810  -13.2043   20.9716 C   0  0  0  0  0  0
  -25.2486  -13.8197   20.5744 C   0  0  0  0  0  0
  -24.1797  -13.0444   20.9279 C   0  0  0  0  0  0
  -24.6394  -11.6922   20.8774 C   0  0  0  0  0  0
  -23.9079  -10.4299   21.0429 C   0  0  0  0  0  0
  -24.3623   -9.4202   21.9196 C   0  0  0  0  0  0
  -23.6297   -8.2234   22.0744 C   0  0  0  0  0  0
  -22.4272   -8.0274   21.3538 C   0  0  0  0  0  0
  -21.9916   -9.0264   20.4642 C   0  0  0  0  0  0
  -22.7254  -10.2142   20.3073 C   0  0  0  0  0  0
  -21.6859   -6.0748   22.5292 C   0  0  0  0  0  0
  -21.4005   -6.5653   23.8227 C   0  0  0  0  0  0
  -21.3658   -5.6797   24.9188 C   0  0  0  0  0  0
  -21.6039   -4.3064   24.7227 C   0  0  0  0  0  0
  -21.8817   -3.8158   23.4352 C   0  0  0  0  0  0
  -21.9196   -4.6975   22.3410 C   0  0  0  0  0  0
  -22.7816  -13.5205   21.1930 C   0  0  0  0  0  0
  -22.1665   -4.2168   21.0986 F   0  0  0  0  0  0
  -21.5636   -3.4538   25.7741 F   0  0  0  0  0  0
  -29.9613  -13.5919   20.3696 N   0  0  0  0  0  0
  -26.2894  -12.9402   20.3275 N   0  0  0  0  0  0
  -25.9319  -11.6545   20.5772 N   0  0  0  0  0  0
  -22.0469  -12.8172   22.0457 N   0  0  0  0  0  0
  -25.4137  -15.1936   20.4165 N   0  0  0  0  0  0
  -31.7669  -14.9324   20.2284 O   0  0  0  0  0  0
  -21.6633   -6.8873   21.4242 O   0  0  0  0  0  0
  -22.3502  -14.5529   20.6798 O   0  0  0  0  0  0
  -24.6349  -31.8499   23.1926 C   0  0  0  0  0  0
  -25.9147  -32.4723   23.8301 C   0  0  1  0  0  0
  -27.2251  -27.2154   20.1498 C   0  0  0  0  0  0
  -25.5921  -33.8532   24.2212 N   0  0  0  0  0  0
  -23.4352  -30.4703   21.5366 C   0  0  2  0  0  0
  -24.8853  -28.9038   20.1156 C   0  0  0  0  0  0
  -22.7521  -29.4588   22.4878 C   0  0  0  0  0  0
  -18.0297  -28.1399   22.8477 C   0  0  0  0  0  0
  -24.1493  -36.7288   23.2645 C   0  0  0  0  0  0
  -25.9843  -30.7533   21.3761 C   0  0  0  0  0  0
  -26.0598  -29.3701   20.7197 C   0  0  0  0  0  0
  -27.2350  -28.5426   20.7149 C   0  0  0  0  0  0
  -26.0264  -26.8222   19.5202 C   0  0  0  0  0  0
  -24.8762  -27.6406   19.5026 C   0  0  0  0  0  0
  -23.6564  -29.7967   20.1567 C   0  0  0  0  0  0
  -25.4122  -36.3052   24.0315 C   0  0  1  0  0  0
  -20.5898  -28.3712   23.1250 C   0  0  2  0  0  0
  -20.6775  -26.9417   22.5416 C   0  0  0  0  0  0
  -19.5758  -26.6377   21.5213 C   0  0  0  0  0  0
  -18.1939  -26.7932   22.1624 C   0  0  0  0  0  0
  -19.1549  -28.8873   23.2853 C   0  0  0  0  0  0
  -18.9471  -30.1470   23.8874 C   0  0  0  0  0  0
  -17.6468  -30.6591   24.0560 C   0  0  0  0  0  0
  -25.9066  -34.9426   23.5076 C   0  0  0  0  0  0
  -16.5360  -29.9091   23.6333 C   0  0  0  0  0  0
  -16.7279  -28.6511   23.0348 C   0  0  0  0  0  0
  -26.4499  -31.6565   25.0715 C   0  0  0  0  0  0
  -25.3695  -31.3753   26.1411 C   0  0  0  0  0  0
  -27.0353  -30.2964   24.6266 C   0  0  0  0  0  0
  -27.6044  -32.4319   25.7506 C   0  0  0  0  0  0
  -27.5571  -37.1806   24.8459 C   0  0  0  0  0  0
  -21.4215  -29.3037   22.3627 N   0  0  0  0  0  0
  -26.4289  -37.3750   23.9384 N   0  0  0  0  0  0
  -24.7043  -31.0432   22.0919 N   0  0  0  0  0  0
  -23.4196  -28.8142   23.3001 O   0  0  0  0  0  0
  -28.3139  -26.2996   20.1848 O   0  0  0  0  0  0
  -26.5659  -34.8917   22.4657 O   0  0  0  0  0  0
  -23.5492  -32.1339   23.7204 O   0  0  0  0  0  0
  -29.4396  -18.6218   20.2619 C   0  0  0  0  0  0
  -30.5812  -18.8545   22.7617 C   0  0  0  0  0  0
  -29.5521  -19.9877   20.8140 C   0  0  0  0  0  0
  -30.1289  -20.0334   22.1161 C   0  0  0  0  0  0
  -29.9183  -17.3880   20.9116 C   0  0  0  0  0  0
  -30.4974  -17.5727   22.1823 C   0  0  0  0  0  0
  -29.2714  -23.8892   20.9808 C   0  0  0  0  0  0
  -27.9454  -23.6487   19.5166 C   0  0  0  0  0  0
  -28.0851  -24.8320   20.5423 C   0  0  2  0  0  0
  -30.3142  -21.3354   22.8717 C   0  0  0  0  0  0
  -29.2307  -21.3648   19.9812 C   0  0  0  0  0  0
  -29.7284  -15.9696   20.4487 N   0  0  0  0  0  0
  -28.5253  -22.6663   20.5072 N   0  3  1  0  0  0
  -30.9371  -16.5064   22.8949 F   0  0  0  0  0  0
  -31.4721  -12.6926   19.1424 H   0  0  0  0  0  0
  -30.4324  -11.5573   19.9665 H   0  0  0  0  0  0
  -29.8026  -11.7303   17.5349 H   0  0  0  0  0  0
  -29.6033  -13.4598   17.6921 H   0  0  0  0  0  0
  -27.9196  -11.2708   18.9489 H   0  0  0  0  0  0
  -27.3692  -12.4704   17.8108 H   0  0  0  0  0  0
  -27.6101  -14.2426   19.4348 H   0  0  0  0  0  0
  -28.7482  -12.2180   21.4340 H   0  0  0  0  0  0
  -28.4040  -13.8998   21.7653 H   0  0  0  0  0  0
  -25.2765   -9.5694   22.4779 H   0  0  0  0  0  0
  -24.0032   -7.4616   22.7449 H   0  0  0  0  0  0
  -21.0861   -8.8789   19.8926 H   0  0  0  0  0  0
  -22.3721  -10.9693   19.6190 H   0  0  0  0  0  0
  -21.1976   -7.6152   23.9740 H   0  0  0  0  0  0
  -21.1487   -6.0521   25.9095 H   0  0  0  0  0  0
  -22.0590   -2.7618   23.2853 H   0  0  0  0  0  0
  -22.4078  -11.9809   22.4814 H   0  0  0  0  0  0
  -21.1083  -13.1178   22.2699 H   0  0  0  0  0  0
  -24.6395  -15.8360   20.5423 H   0  0  0  0  0  0
  -26.2448  -15.6436   20.0576 H   0  0  0  0  0  0
  -26.7213  -32.5355   23.1047 H   0  0  0  0  0  0
  -24.9974  -33.9649   25.0293 H   0  0  0  0  0  0
  -22.7333  -31.2931   21.3855 H   0  0  0  0  0  0
  -23.3735  -35.9635   23.3320 H   0  0  0  0  0  0
  -24.3574  -36.8914   22.2052 H   0  0  0  0  0  0
  -23.7273  -37.6508   23.6674 H   0  0  0  0  0  0
  -26.1250  -31.5139   20.6058 H   0  0  0  0  0  0
  -26.8588  -30.8050   22.0140 H   0  0  0  0  0  0
  -28.1361  -28.9001   21.1941 H   0  0  0  0  0  0
  -25.9599  -25.8518   19.0496 H   0  0  0  0  0  0
  -23.9755  -27.2755   19.0290 H   0  0  0  0  0  0
  -23.7852  -30.5709   19.3990 H   0  0  0  0  0  0
  -22.7728  -29.2349   19.8481 H   0  0  0  0  0  0
  -25.1313  -36.1903   25.0806 H   0  0  0  0  0  0
  -20.9997  -28.3304   24.1367 H   0  0  0  0  0  0
  -20.5670  -26.2321   23.3631 H   0  0  0  0  0  0
  -21.6642  -26.7427   22.1217 H   0  0  0  0  0  0
  -19.6924  -25.6285   21.1253 H   0  0  0  0  0  0
  -19.6702  -27.3173   20.6739 H   0  0  0  0  0  0
  -17.4204  -26.6664   21.4035 H   0  0  0  0  0  0
  -18.0356  -26.0087   22.9041 H   0  0  0  0  0  0
  -19.7946  -30.7291   24.2234 H   0  0  0  0  0  0
  -17.5025  -31.6272   24.5165 H   0  0  0  0  0  0
  -15.5364  -30.2986   23.7672 H   0  0  0  0  0  0
  -15.8679  -28.0828   22.7063 H   0  0  0  0  0  0
  -24.5879  -30.7097   25.7733 H   0  0  0  0  0  0
  -24.8869  -32.2932   26.4771 H   0  0  0  0  0  0
  -25.7968  -30.8971   27.0227 H   0  0  0  0  0  0
  -26.2956  -29.6708   24.1253 H   0  0  0  0  0  0
  -27.3950  -29.7250   25.4832 H   0  0  0  0  0  0
  -27.8870  -30.4210   23.9576 H   0  0  0  0  0  0
  -27.2626  -33.3610   26.2079 H   0  0  0  0  0  0
  -28.3857  -32.6888   25.0341 H   0  0  0  0  0  0
  -28.0703  -31.8447   26.5428 H   0  0  0  0  0  0
  -28.2603  -38.0094   24.7463 H   0  0  0  0  0  0
  -28.1066  -36.2618   24.6340 H   0  0  0  0  0  0
  -27.2286  -37.1512   25.8868 H   0  0  0  0  0  0
  -20.9427  -29.8731   21.6786 H   0  0  0  0  0  0
  -26.0180  -38.2835   24.1356 H   0  0  0  0  0  0
  -28.9965  -18.5184   19.2826 H   0  0  0  0  0  0
  -31.0270  -18.9219   23.7443 H   0  0  0  0  0  0
  -30.1949  -24.0705   20.4251 H   0  0  0  0  0  0
  -29.4603  -23.9176   22.0529 H   0  0  0  0  0  0
  -26.9191  -23.4210   19.2287 H   0  0  0  0  0  0
  -28.5726  -23.7783   18.6320 H   0  0  0  0  0  0
  -27.2905  -24.7783   21.2901 H   0  0  0  0  0  0
  -29.3570  -21.8170   23.0634 H   0  0  0  0  0  0
  -30.9666  -22.0151   22.3248 H   0  0  0  0  0  0
  -30.7642  -21.1631   23.8515 H   0  0  0  0  0  0
  -28.6119  -21.0333   19.1464 H   0  0  0  0  0  0
  -30.1652  -21.6765   19.5157 H   0  0  0  0  0  0
  -28.7666  -15.7404   20.2557 H   0  0  0  0  0  0
  -27.8018  -22.4105   21.1612 H   0  0  0  0  0  0
  1 25  1  0  0  0
  1 30  2  0  0  0
  1 82  1  0  0  0
  2  3  1  0  0  0
  2 25  1  0  0  0
  2 85  1  0  0  0
  2 86  1  0  0  0
  3  4  1  0  0  0
  3 87  1  0  0  0
  3 88  1  0  0  0
  4  5  1  0  0  0
  4 89  1  0  0  0
  4 90  1  0  0  0
  5  6  1  0  0  0
  5 26  1  0  0  0
  5 91  1  0  0  0
  6 25  1  0  0  0
  6 92  1  0  0  0
  6 93  1  0  0  0
  7  8  2  0  0  0
  7 26  1  0  0  0
  7 29  1  0  0  0
  8  9  1  0  0  0
  8 22  1  0  0  0
  9 10  1  0  0  0
  9 27  2  0  0  0
 10 11  2  0  0  0
 10 15  1  0  0  0
 11 12  1  0  0  0
 11 94  1  0  0  0
 12 13  2  0  0  0
 12 95  1  0  0  0
 13 14  1  0  0  0
 13 31  1  0  0  0
 14 15  2  0  0  0
 14 96  1  0  0  0
 15 97  1  0  0  0
 16 17  2  0  0  0
 16 21  1  0  0  0
 16 31  1  0  0  0
 17 18  1  0  0  0
 17 98  1  0  0  0
 18 19  2  0  0  0
 18 99  1  0  0  0
 19 20  1  0  0  0
 19 24  1  0  0  0
 20 21  2  0  0  0
 20100  1  0  0  0
 21 23  1  0  0  0
 22 28  1  0  0  0
 22 32  2  0  0  0
 26 27  1  0  0  0
 28101  1  0  0  0
 28102  1  0  0  0
 29103  1  0  0  0
 29104  1  0  0  0
 33 34  1  0  0  0
 33 66  1  0  0  0
 33 70  2  0  0  0
 34 36  1  0  0  0
 34 59  1  0  0  0
 34105  1  0  0  0
 35 44  2  0  0  0
 35 45  1  0  0  0
 35 68  1  0  0  0
 36 56  1  0  0  0
 36106  1  0  0  0
 37 39  1  0  0  0
 37 47  1  0  0  0
 37 66  1  0  0  0
 37107  1  0  0  0
 38 43  2  0  0  0
 38 46  1  0  0  0
 38 47  1  0  0  0
 39 64  1  0  0  0
 39 67  2  0  0  0
 40 52  1  0  0  0
 40 53  2  0  0  0
 40 58  1  0  0  0
 41108  1  0  0  0
 41109  1  0  0  0
 41110  1  0  0  0
 41 48  1  0  0  0
 42 43  1  0  0  0
 42 66  1  0  0  0
 42111  1  0  0  0
 42112  1  0  0  0
 43 44  1  0  0  0
 44113  1  0  0  0
 45 46  2  0  0  0
 45114  1  0  0  0
 46115  1  0  0  0
 47116  1  0  0  0
 47117  1  0  0  0
 48 56  1  0  0  0
 48 65  1  0  0  0
 48118  1  0  0  0
 49 50  1  0  0  0
 49 53  1  0  0  0
 49 64  1  0  0  0
 49119  1  0  0  0
 50 51  1  0  0  0
 50120  1  0  0  0
 50121  1  0  0  0
 51 52  1  0  0  0
 51122  1  0  0  0
 51123  1  0  0  0
 52124  1  0  0  0
 52125  1  0  0  0
 53 54  1  0  0  0
 54 55  2  0  0  0
 54126  1  0  0  0
 55 57  1  0  0  0
 55127  1  0  0  0
 56 69  2  0  0  0
 57 58  2  0  0  0
 57128  1  0  0  0
 58129  1  0  0  0
 59 60  1  0  0  0
 59 61  1  0  0  0
 59 62  1  0  0  0
 60130  1  0  0  0
 60131  1  0  0  0
 60132  1  0  0  0
 61133  1  0  0  0
 61134  1  0  0  0
 61135  1  0  0  0
 62136  1  0  0  0
 62137  1  0  0  0
 62138  1  0  0  0
 63 65  1  0  0  0
 63139  1  0  0  0
 63140  1  0  0  0
 63141  1  0  0  0
 64142  1  0  0  0
 65143  1  0  0  0
 68 79  1  0  0  0
 71 73  2  0  0  0
 71 75  1  0  0  0
 71144  1  0  0  0
 72 74  2  0  0  0
 72 76  1  0  0  0
 72145  1  0  0  0
 73 74  1  0  0  0
 73 81  1  0  0  0
 74 80  1  0  0  0
 75 76  2  0  0  0
 75 82  1  0  0  0
 76 84  1  0  0  0
 77 79  1  0  0  0
 77 83  1  0  0  0
 77146  1  0  0  0
 77147  1  0  0  0
 78 79  1  0  0  0
 78 83  1  0  0  0
 78148  1  0  0  0
 78149  1  0  0  0
 79150  1  0  0  0
 80151  1  0  0  0
 80152  1  0  0  0
 80153  1  0  0  0
 81154  1  0  0  0
 81155  1  0  0  0
 81 83  1  0  0  0
 82156  1  0  0  0
 83157  1  0  0  0
M  CHG  1  83   1
M  ISO  4   1 100  68 101  79 101  82 100
M  END
> <chiral flag>
0

> <version>
0

> <s_m_source_file>
/data/baiqing/PycharmProjects/Reinvent-master-3.2/result/LINK_invent/BTK/process_docking_weight1_custom_product_contain_oxygen_bond_distance_aromatic_linkinvent_7_9_3/rearranged_h_0028.sdf

> <i_m_source_file_index>
88

> <r_mmod_Potential_Energy-OPLS-2005>
116.416694641113

> <r_mmod_Stretch_Energy-OPLS-2005>
168.910919189453

> <r_mmod_Bend_Energy-OPLS-2005>
231.425155639648

> <r_mmod_Torsional_Energy-OPLS-2005>
258.491912841797

> <r_mmod_Improper_Torsional_Energy-OPLS-2005>
10.5821123123169

> <r_mmod_Van_der_Waal_Energy-OPLS-2005>
133.377792358398

> <r_mmod_Electrostatic_Energy-OPLS-2005>
-317.744354248047

> <r_mmod_Solvation_Energy-OPLS-2005>
-494.004760742188

> <b_mmod_Minimization_Converged-OPLS-2005>
0

> <r_mmod_RMS_Derivative-OPLS-2005>
2.76361036300659

$$$$
88
                    3D
 Structure written by MMmdl.
161170  0  0  1  0            999 V2000
  -30.6327  -14.7208   20.4454 C   0  0  0  0  0  0
  -30.4255  -12.4336   19.4825 C   0  0  0  0  0  0
  -29.5096  -12.5025   18.2410 C   0  0  0  0  0  0
  -28.0341  -12.3357   18.6500 C   0  0  0  0  0  0
  -27.6424  -13.2348   19.8535 C   0  0  2  0  0  0
  -28.6853  -13.1697   20.9913 C   0  0  0  0  0  0
  -25.2504  -13.8204   20.5701 C   0  0  0  0  0  0
  -24.1795  -13.0441   20.9199 C   0  0  0  0  0  0
  -24.6384  -11.6921   20.8730 C   0  0  0  0  0  0
  -23.9059  -10.4295   21.0392 C   0  0  0  0  0  0
  -24.3614   -9.4215   21.9173 C   0  0  0  0  0  0
  -23.6294   -8.2248   22.0748 C   0  0  0  0  0  0
  -22.4281   -8.0275   21.3535 C   0  0  0  0  0  0
  -21.9910   -9.0243   20.4638 C   0  0  0  0  0  0
  -22.7231  -10.2124   20.3045 C   0  0  0  0  0  0
  -21.6863   -6.0727   22.5273 C   0  0  0  0  0  0
  -21.4014   -6.5629   23.8204 C   0  0  0  0  0  0
  -21.3664   -5.6786   24.9167 C   0  0  0  0  0  0
  -21.6049   -4.3050   24.7224 C   0  0  0  0  0  0
  -21.8821   -3.8135   23.4346 C   0  0  0  0  0  0
  -21.9192   -4.6952   22.3398 C   0  0  0  0  0  0
  -22.7816  -13.5218   21.1861 C   0  0  0  0  0  0
  -22.1664   -4.2137   21.0981 F   0  0  0  0  0  0
  -21.5631   -3.4536   25.7737 F   0  0  0  0  0  0
  -29.9928  -13.5024   20.4134 N   0  0  0  0  0  0
  -26.2934  -12.9415   20.3293 N   0  0  0  0  0  0
  -25.9323  -11.6552   20.5752 N   0  0  0  0  0  0
  -22.0475  -12.8198   22.0416 N   0  0  0  0  0  0
  -25.4181  -15.1934   20.4130 N   0  0  0  0  0  0
  -31.8240  -14.7850   20.1316 O   0  0  0  0  0  0
  -21.6647   -6.8870   21.4237 O   0  0  0  0  0  0
  -22.3498  -14.5530   20.6721 O   0  0  0  0  0  0
  -24.6334  -31.8558   23.2016 C   0  0  0  0  0  0
  -25.9161  -32.4752   23.8343 C   0  0  1  0  0  0
  -27.2031  -27.2503   20.1193 C   0  0  0  0  0  0
  -25.5958  -33.8555   24.2263 N   0  0  0  0  0  0
  -23.4283  -30.4834   21.5465 C   0  0  2  0  0  0
  -24.8700  -28.9368   20.1150 C   0  0  0  0  0  0
  -22.7515  -29.4603   22.4917 C   0  0  0  0  0  0
  -18.0296  -28.1394   22.8481 C   0  0  0  0  0  0
  -24.1497  -36.7277   23.2638 C   0  0  0  0  0  0
  -25.9789  -30.7637   21.3866 C   0  0  0  0  0  0
  -26.0459  -29.3870   20.7280 C   0  0  0  0  0  0
  -27.2156  -28.5558   20.7225 C   0  0  0  0  0  0
  -26.0083  -26.8957   19.4563 C   0  0  0  0  0  0
  -24.8566  -27.6975   19.4693 C   0  0  0  0  0  0
  -23.6452  -29.8265   20.1610 C   0  0  0  0  0  0
  -25.4119  -36.3062   24.0326 C   0  0  1  0  0  0
  -20.5902  -28.3690   23.1272 C   0  0  2  0  0  0
  -20.6793  -26.9409   22.5406 C   0  0  0  0  0  0
  -19.5763  -26.6386   21.5220 C   0  0  0  0  0  0
  -18.1939  -26.7936   22.1623 C   0  0  0  0  0  0
  -19.1552  -28.8861   23.2871 C   0  0  0  0  0  0
  -18.9468  -30.1465   23.8883 C   0  0  0  0  0  0
  -17.6465  -30.6590   24.0561 C   0  0  0  0  0  0
  -25.9057  -34.9438   23.5090 C   0  0  0  0  0  0
  -16.5358  -29.9083   23.6337 C   0  0  0  0  0  0
  -16.7280  -28.6508   23.0346 C   0  0  0  0  0  0
  -26.4522  -31.6578   25.0736 C   0  0  0  0  0  0
  -25.3735  -31.3730   26.1441 C   0  0  0  0  0  0
  -27.0375  -30.2994   24.6233 C   0  0  0  0  0  0
  -27.6063  -32.4324   25.7512 C   0  0  0  0  0  0
  -27.5579  -37.1793   24.8463 C   0  0  0  0  0  0
  -21.4217  -29.3040   22.3666 N   0  0  0  0  0  0
  -26.4287  -37.3765   23.9415 N   0  0  0  0  0  0
  -24.6996  -31.0524   22.1005 N   0  0  0  0  0  0
  -23.4224  -28.8122   23.2997 O   0  0  0  0  0  0
  -28.2888  -26.3380   20.1477 O   0  0  0  0  0  0
  -26.5622  -34.8910   22.4650 O   0  0  0  0  0  0
  -23.5481  -32.1384   23.7296 O   0  0  0  0  0  0
  -30.8934  -17.4372   19.0052 C   0  0  0  0  0  0
  -31.1496  -18.7089   18.4679 C   0  0  0  0  0  0
  -29.5654  -18.4889   20.7531 C   0  0  0  0  0  0
  -29.8170  -19.8297   20.2081 C   0  0  0  0  0  0
  -30.1190  -17.2643   20.1728 C   0  0  0  0  0  0
  -30.6490  -19.8828   19.0565 C   0  0  0  0  0  0
  -27.8355  -22.5799   19.2406 C   0  0  0  0  0  0
  -27.1857  -21.5273   18.7136 C   0  0  0  0  0  0
  -27.4346  -24.0506   19.1384 C   0  0  0  0  0  0
  -29.2209  -23.8565   20.7302 C   0  0  0  0  0  0
  -28.0431  -24.8473   20.3174 C   0  0  1  0  0  0
  -28.7181  -18.3688   22.0105 C   0  0  0  0  0  0
  -29.3151  -21.2017   20.8848 C   0  0  0  0  0  0
  -29.8863  -15.8746   20.6587 N   0  0  0  0  0  0
  -29.0671  -22.4893   20.0673 N   0  3  2  0  0  0
  -31.1286  -21.3720   18.3191 Cl  0  0  0  0  0  0
  -31.4697  -12.5383   19.1839 H   0  0  0  0  0  0
  -30.3527  -11.4571   19.9640 H   0  0  0  0  0  0
  -29.7882  -11.7298   17.5229 H   0  0  0  0  0  0
  -29.6462  -13.4589   17.7334 H   0  0  0  0  0  0
  -27.8855  -11.2871   18.9107 H   0  0  0  0  0  0
  -27.3807  -12.5336   17.7993 H   0  0  0  0  0  0
  -27.6366  -14.2576   19.4746 H   0  0  0  0  0  0
  -28.7078  -12.1765   21.4415 H   0  0  0  0  0  0
  -28.4246  -13.8633   21.7926 H   0  0  0  0  0  0
  -25.2757   -9.5705   22.4752 H   0  0  0  0  0  0
  -24.0002   -7.4644   22.7476 H   0  0  0  0  0  0
  -21.0835   -8.8748   19.8948 H   0  0  0  0  0  0
  -22.3674  -10.9654   19.6154 H   0  0  0  0  0  0
  -21.2006   -7.6137   23.9703 H   0  0  0  0  0  0
  -21.1492   -6.0518   25.9070 H   0  0  0  0  0  0
  -22.0600   -2.7599   23.2849 H   0  0  0  0  0  0
  -22.4094  -11.9856   22.4800 H   0  0  0  0  0  0
  -21.1091  -13.1206   22.2627 H   0  0  0  0  0  0
  -24.6470  -15.8438   20.5200 H   0  0  0  0  0  0
  -26.2631  -15.6356   20.0740 H   0  0  0  0  0  0
  -26.7218  -32.5388   23.1069 H   0  0  0  0  0  0
  -25.0135  -33.9696   25.0433 H   0  0  0  0  0  0
  -22.7243  -31.3060   21.4031 H   0  0  0  0  0  0
  -23.3763  -35.9608   23.3292 H   0  0  0  0  0  0
  -24.3592  -36.8909   22.2054 H   0  0  0  0  0  0
  -23.7248  -37.6477   23.6663 H   0  0  0  0  0  0
  -26.1251  -31.5241   20.6176 H   0  0  0  0  0  0
  -26.8560  -30.8062   22.0214 H   0  0  0  0  0  0
  -28.1153  -28.8934   21.2172 H   0  0  0  0  0  0
  -25.9206  -25.9955   18.8848 H   0  0  0  0  0  0
  -23.9637  -27.3571   18.9630 H   0  0  0  0  0  0
  -23.7766  -30.6066   19.4103 H   0  0  0  0  0  0
  -22.7615  -29.2675   19.8476 H   0  0  0  0  0  0
  -25.1303  -36.1897   25.0821 H   0  0  0  0  0  0
  -20.9989  -28.3259   24.1395 H   0  0  0  0  0  0
  -20.5727  -26.2288   23.3605 H   0  0  0  0  0  0
  -21.6650  -26.7453   22.1173 H   0  0  0  0  0  0
  -19.6930  -25.6303   21.1238 H   0  0  0  0  0  0
  -19.6708  -27.3198   20.6756 H   0  0  0  0  0  0
  -17.4214  -26.6692   21.4017 H   0  0  0  0  0  0
  -18.0320  -26.0086   22.9020 H   0  0  0  0  0  0
  -19.7943  -30.7295   24.2239 H   0  0  0  0  0  0
  -17.5012  -31.6263   24.5165 H   0  0  0  0  0  0
  -15.5354  -30.2974   23.7684 H   0  0  0  0  0  0
  -15.8681  -28.0828   22.7059 H   0  0  0  0  0  0
  -24.5925  -30.7061   25.7771 H   0  0  0  0  0  0
  -24.8909  -32.2902   26.4830 H   0  0  0  0  0  0
  -25.8045  -30.8936   27.0239 H   0  0  0  0  0  0
  -26.2967  -29.6731   24.1246 H   0  0  0  0  0  0
  -27.4050  -29.7260   25.4754 H   0  0  0  0  0  0
  -27.8851  -30.4280   23.9494 H   0  0  0  0  0  0
  -27.2669  -33.3642   26.2048 H   0  0  0  0  0  0
  -28.3902  -32.6852   25.0361 H   0  0  0  0  0  0
  -28.0699  -31.8474   26.5467 H   0  0  0  0  0  0
  -28.2572  -38.0111   24.7523 H   0  0  0  0  0  0
  -28.1101  -36.2637   24.6273 H   0  0  0  0  0  0
  -27.2298  -37.1422   25.8866 H   0  0  0  0  0  0
  -20.9400  -29.8766   21.6870 H   0  0  0  0  0  0
  -26.0160  -38.2842   24.1417 H   0  0  0  0  0  0
  -31.3130  -16.5892   18.4844 H   0  0  0  0  0  0
  -31.7631  -18.7873   17.5821 H   0  0  0  0  0  0
  -26.2847  -21.6733   18.1348 H   0  0  0  0  0  0
  -27.5269  -20.5109   18.8393 H   0  0  0  0  0  0
  -26.3471  -24.0572   19.1640 H   0  0  0  0  0  0
  -27.7668  -24.4500   18.1797 H   0  0  0  0  0  0
  -29.2754  -23.7636   21.8152 H   0  0  0  0  0  0
  -30.1742  -24.2707   20.4029 H   0  0  0  0  0  0
  -27.3191  -24.7789   21.1320 H   0  0  0  0  0  0
  -28.7314  -17.3653   22.4330 H   0  0  0  0  0  0
  -27.6800  -18.6253   21.8008 H   0  0  0  0  0  0
  -29.0878  -19.0401   22.7853 H   0  0  0  0  0  0
  -30.0786  -21.4458   21.6236 H   0  0  0  0  0  0
  -28.4099  -21.0078   21.4585 H   0  0  0  0  0  0
  -28.9845  -15.7094   21.0771 H   0  0  0  0  0  0
  -29.8423  -22.4617   19.4147 H   0  0  0  0  0  0
  1 25  1  0  0  0
  1 30  2  0  0  0
  1 84  1  0  0  0
  2  3  1  0  0  0
  2 25  1  0  0  0
  2 87  1  0  0  0
  2 88  1  0  0  0
  3  4  1  0  0  0
  3 89  1  0  0  0
  3 90  1  0  0  0
  4  5  1  0  0  0
  4 91  1  0  0  0
  4 92  1  0  0  0
  5  6  1  0  0  0
  5 26  1  0  0  0
  5 93  1  0  0  0
  6 25  1  0  0  0
  6 94  1  0  0  0
  6 95  1  0  0  0
  7  8  2  0  0  0
  7 26  1  0  0  0
  7 29  1  0  0  0
  8  9  1  0  0  0
  8 22  1  0  0  0
  9 10  1  0  0  0
  9 27  2  0  0  0
 10 11  2  0  0  0
 10 15  1  0  0  0
 11 12  1  0  0  0
 11 96  1  0  0  0
 12 13  2  0  0  0
 12 97  1  0  0  0
 13 14  1  0  0  0
 13 31  1  0  0  0
 14 15  2  0  0  0
 14 98  1  0  0  0
 15 99  1  0  0  0
 16 17  2  0  0  0
 16 21  1  0  0  0
 16 31  1  0  0  0
 17 18  1  0  0  0
 17100  1  0  0  0
 18 19  2  0  0  0
 18101  1  0  0  0
 19 20  1  0  0  0
 19 24  1  0  0  0
 20 21  2  0  0  0
 20102  1  0  0  0
 21 23  1  0  0  0
 22 28  1  0  0  0
 22 32  2  0  0  0
 26 27  1  0  0  0
 28103  1  0  0  0
 28104  1  0  0  0
 29105  1  0  0  0
 29106  1  0  0  0
 33 34  1  0  0  0
 33 66  1  0  0  0
 33 70  2  0  0  0
 34 36  1  0  0  0
 34 59  1  0  0  0
 34107  1  0  0  0
 35 44  2  0  0  0
 35 45  1  0  0  0
 35 68  1  0  0  0
 36 56  1  0  0  0
 36108  1  0  0  0
 37 39  1  0  0  0
 37 47  1  0  0  0
 37 66  1  0  0  0
 37109  1  0  0  0
 38 43  2  0  0  0
 38 46  1  0  0  0
 38 47  1  0  0  0
 39 64  1  0  0  0
 39 67  2  0  0  0
 40 52  1  0  0  0
 40 53  2  0  0  0
 40 58  1  0  0  0
 41110  1  0  0  0
 41111  1  0  0  0
 41112  1  0  0  0
 41 48  1  0  0  0
 42 43  1  0  0  0
 42 66  1  0  0  0
 42113  1  0  0  0
 42114  1  0  0  0
 43 44  1  0  0  0
 44115  1  0  0  0
 45 46  2  0  0  0
 45116  1  0  0  0
 46117  1  0  0  0
 47118  1  0  0  0
 47119  1  0  0  0
 48 56  1  0  0  0
 48 65  1  0  0  0
 48120  1  0  0  0
 49 50  1  0  0  0
 49 53  1  0  0  0
 49 64  1  0  0  0
 49121  1  0  0  0
 50 51  1  0  0  0
 50122  1  0  0  0
 50123  1  0  0  0
 51 52  1  0  0  0
 51124  1  0  0  0
 51125  1  0  0  0
 52126  1  0  0  0
 52127  1  0  0  0
 53 54  1  0  0  0
 54 55  2  0  0  0
 54128  1  0  0  0
 55 57  1  0  0  0
 55129  1  0  0  0
 56 69  2  0  0  0
 57 58  2  0  0  0
 57130  1  0  0  0
 58131  1  0  0  0
 59 60  1  0  0  0
 59 61  1  0  0  0
 59 62  1  0  0  0
 60132  1  0  0  0
 60133  1  0  0  0
 60134  1  0  0  0
 61135  1  0  0  0
 61136  1  0  0  0
 61137  1  0  0  0
 62138  1  0  0  0
 62139  1  0  0  0
 62140  1  0  0  0
 63 65  1  0  0  0
 63141  1  0  0  0
 63142  1  0  0  0
 63143  1  0  0  0
 64144  1  0  0  0
 65145  1  0  0  0
 68 81  1  0  0  0
 71 72  2  0  0  0
 71 75  1  0  0  0
 71146  1  0  0  0
 72 76  1  0  0  0
 72147  1  0  0  0
 73 74  1  0  0  0
 73 75  2  0  0  0
 73 82  1  0  0  0
 74 76  2  0  0  0
 74 83  1  0  0  0
 75 84  1  0  0  0
 76 86  1  0  0  0
 77 78  2  0  0  0
 77 79  1  0  0  0
 77 85  1  0  0  0
 78148  1  0  0  0
 78149  1  0  0  0
 79 81  1  0  0  0
 79150  1  0  0  0
 79151  1  0  0  0
 80 81  1  0  0  0
 80 85  1  0  0  0
 80152  1  0  0  0
 80153  1  0  0  0
 81154  1  0  0  0
 82155  1  0  0  0
 82156  1  0  0  0
 82157  1  0  0  0
 83158  1  0  0  0
 83159  1  0  0  0
 83 85  1  0  0  0
 84160  1  0  0  0
 85161  1  0  0  0
M  CHG  1  85   1
M  ISO  4   1 100  68 101  81 101  84 100
M  END
> <chiral flag>
0

> <version>
0

> <s_m_source_file>
/data/baiqing/PycharmProjects/Reinvent-master-3.2/result/LINK_invent/BTK/process_docking_weight1_custom_product_contain_oxygen_bond_distance_aromatic_linkinvent_7_9_3/rearranged_h_0028.sdf

> <i_m_source_file_index>
89

> <r_mmod_Potential_Energy-OPLS-2005>
79.7588577270508

> <r_mmod_Stretch_Energy-OPLS-2005>
128.718734741211

> <r_mmod_Bend_Energy-OPLS-2005>
193.371444702148

> <r_mmod_Torsional_Energy-OPLS-2005>
266.817413330078

> <r_mmod_Improper_Torsional_Energy-OPLS-2005>
4.47868728637695

> <r_mmod_Van_der_Waal_Energy-OPLS-2005>
149.484024047852

> <r_mmod_Electrostatic_Energy-OPLS-2005>
-321.547088623047

> <r_mmod_Solvation_Energy-OPLS-2005>
-425.142272949219

> <b_mmod_Minimization_Converged-OPLS-2005>
0

> <r_mmod_RMS_Derivative-OPLS-2005>
1.45276772975922

$$$$
89
                    3D
 Structure written by MMmdl.
157166  0  0  1  0            999 V2000
  -30.6554  -14.6941   20.4743 C   0  0  0  0  0  0
  -30.4224  -12.4285   19.4633 C   0  0  0  0  0  0
  -29.5011  -12.4968   18.2275 C   0  0  0  0  0  0
  -28.0273  -12.3322   18.6445 C   0  0  0  0  0  0
  -27.6401  -13.2326   19.8485 C   0  0  2  0  0  0
  -28.6868  -13.1646   20.9814 C   0  0  0  0  0  0
  -25.2504  -13.8205   20.5697 C   0  0  0  0  0  0
  -24.1800  -13.0448   20.9216 C   0  0  0  0  0  0
  -24.6393  -11.6926   20.8761 C   0  0  0  0  0  0
  -23.9072  -10.4298   21.0416 C   0  0  0  0  0  0
  -24.3622   -9.4210   21.9191 C   0  0  0  0  0  0
  -23.6298   -8.2244   22.0756 C   0  0  0  0  0  0
  -22.4281   -8.0283   21.3542 C   0  0  0  0  0  0
  -21.9919   -9.0257   20.4644 C   0  0  0  0  0  0
  -22.7248  -10.2137   20.3058 C   0  0  0  0  0  0
  -21.6853   -6.0740   22.5281 C   0  0  0  0  0  0
  -21.4013   -6.5643   23.8214 C   0  0  0  0  0  0
  -21.3659   -5.6794   24.9175 C   0  0  0  0  0  0
  -21.6043   -4.3057   24.7223 C   0  0  0  0  0  0
  -21.8819   -3.8150   23.4344 C   0  0  0  0  0  0
  -21.9193   -4.6967   22.3404 C   0  0  0  0  0  0
  -22.7820  -13.5225   21.1873 C   0  0  0  0  0  0
  -22.1661   -4.2153   21.0981 F   0  0  0  0  0  0
  -21.5628   -3.4541   25.7736 F   0  0  0  0  0  0
  -29.9890  -13.4954   20.3923 N   0  0  0  0  0  0
  -26.2932  -12.9414   20.3286 N   0  0  0  0  0  0
  -25.9321  -11.6556   20.5769 N   0  0  0  0  0  0
  -22.0468  -12.8205   22.0422 N   0  0  0  0  0  0
  -25.4187  -15.1928   20.4085 N   0  0  0  0  0  0
  -31.8485  -14.7526   20.1679 O   0  0  0  0  0  0
  -21.6643   -6.8881   21.4240 O   0  0  0  0  0  0
  -22.3503  -14.5535   20.6730 O   0  0  0  0  0  0
  -24.6303  -31.8563   23.1985 C   0  0  0  0  0  0
  -25.9137  -32.4756   23.8324 C   0  0  1  0  0  0
  -27.2203  -27.2805   20.1153 C   0  0  0  0  0  0
  -25.5939  -33.8559   24.2246 N   0  0  0  0  0  0
  -23.4244  -30.4806   21.5423 C   0  0  2  0  0  0
  -24.8683  -28.9276   20.1111 C   0  0  0  0  0  0
  -22.7494  -29.4617   22.4917 C   0  0  0  0  0  0
  -18.0288  -28.1389   22.8489 C   0  0  0  0  0  0
  -24.1484  -36.7273   23.2639 C   0  0  0  0  0  0
  -25.9690  -30.7744   21.3741 C   0  0  0  0  0  0
  -26.0399  -29.3983   20.7165 C   0  0  0  0  0  0
  -27.2167  -28.5865   20.7082 C   0  0  0  0  0  0
  -26.0170  -26.8642   19.5002 C   0  0  0  0  0  0
  -24.8608  -27.6675   19.4958 C   0  0  0  0  0  0
  -23.6396  -29.8145   20.1581 C   0  0  0  0  0  0
  -25.4110  -36.3068   24.0329 C   0  0  1  0  0  0
  -20.5895  -28.3700   23.1274 C   0  0  2  0  0  0
  -20.6775  -26.9420   22.5408 C   0  0  0  0  0  0
  -19.5752  -26.6390   21.5212 C   0  0  0  0  0  0
  -18.1929  -26.7935   22.1622 C   0  0  0  0  0  0
  -19.1543  -28.8859   23.2876 C   0  0  0  0  0  0
  -18.9472  -30.1462   23.8898 C   0  0  0  0  0  0
  -17.6472  -30.6594   24.0572 C   0  0  0  0  0  0
  -25.9061  -34.9445   23.5087 C   0  0  0  0  0  0
  -16.5360  -29.9096   23.6334 C   0  0  0  0  0  0
  -16.7273  -28.6512   23.0357 C   0  0  0  0  0  0
  -26.4497  -31.6582   25.0713 C   0  0  0  0  0  0
  -25.3726  -31.3752   26.1441 C   0  0  0  0  0  0
  -27.0338  -30.2999   24.6191 C   0  0  0  0  0  0
  -27.6052  -32.4321   25.7493 C   0  0  0  0  0  0
  -27.5578  -37.1784   24.8462 C   0  0  0  0  0  0
  -21.4202  -29.3051   22.3664 N   0  0  0  0  0  0
  -26.4274  -37.3778   23.9432 N   0  0  0  0  0  0
  -24.6937  -31.0552   22.0945 N   0  0  0  0  0  0
  -23.4206  -28.8152   23.3004 O   0  0  0  0  0  0
  -28.3414  -26.4255   20.1621 O   0  0  0  0  0  0
  -26.5632  -34.8926   22.4656 O   0  0  0  0  0  0
  -23.5458  -32.1366   23.7299 O   0  0  0  0  0  0
  -30.7397  -19.5737   19.8468 C   0  0  0  0  0  0
  -30.3898  -20.9475   19.6862 C   0  0  0  0  0  0
  -28.4071  -20.5985   20.9137 C   0  0  0  0  0  0
  -29.9501  -18.6469   20.5760 C   0  0  0  0  0  0
  -28.7471  -19.2065   21.1024 C   0  0  0  0  0  0
  -29.2201  -21.5540   20.2222 C   0  0  0  0  0  0
  -29.5730  -24.2061   19.6862 C   0  0  0  0  0  0
  -30.8305  -24.6023   19.4435 C   0  0  0  0  0  0
  -27.8191  -23.7898   20.5163 C   0  0  0  0  0  0
  -28.2723  -25.0247   19.6401 C   0  0  1  0  0  0
  -27.8265  -18.3308   21.9313 C   0  0  0  0  0  0
  -30.5750  -17.2238   20.9345 C   0  0  0  0  0  0
  -28.9705  -22.9982   20.0126 N   0  0  0  0  0  0
  -29.9494  -15.8572   20.7182 N   0  0  0  0  0  0
  -31.4647  -12.5359   19.1582 H   0  0  0  0  0  0
  -30.3524  -11.4527   19.9464 H   0  0  0  0  0  0
  -29.7742  -11.7228   17.5091 H   0  0  0  0  0  0
  -29.6356  -13.4515   17.7169 H   0  0  0  0  0  0
  -27.8768  -11.2838   18.9046 H   0  0  0  0  0  0
  -27.3695  -12.5310   17.7973 H   0  0  0  0  0  0
  -27.6360  -14.2550   19.4696 H   0  0  0  0  0  0
  -28.7124  -12.1705   21.4300 H   0  0  0  0  0  0
  -28.4316  -13.8577   21.7848 H   0  0  0  0  0  0
  -25.2765   -9.5687   22.4769 H   0  0  0  0  0  0
  -24.0006   -7.4633   22.7472 H   0  0  0  0  0  0
  -21.0853   -8.8772   19.8946 H   0  0  0  0  0  0
  -22.3707  -10.9675   19.6166 H   0  0  0  0  0  0
  -21.2006   -7.6151   23.9718 H   0  0  0  0  0  0
  -21.1479   -6.0526   25.9078 H   0  0  0  0  0  0
  -22.0599   -2.7612   23.2845 H   0  0  0  0  0  0
  -22.4090  -11.9858   22.4791 H   0  0  0  0  0  0
  -21.1084  -13.1214   22.2631 H   0  0  0  0  0  0
  -24.6451  -15.8414   20.5043 H   0  0  0  0  0  0
  -26.2543  -15.6265   20.0384 H   0  0  0  0  0  0
  -26.7208  -32.5401   23.1068 H   0  0  0  0  0  0
  -25.0104  -33.9691   25.0405 H   0  0  0  0  0  0
  -22.7204  -31.3028   21.3973 H   0  0  0  0  0  0
  -23.3757  -35.9593   23.3284 H   0  0  0  0  0  0
  -24.3576  -36.8906   22.2056 H   0  0  0  0  0  0
  -23.7218  -37.6462   23.6669 H   0  0  0  0  0  0
  -26.1065  -31.5344   20.6038 H   0  0  0  0  0  0
  -26.8479  -30.8230   22.0054 H   0  0  0  0  0  0
  -28.1159  -28.9453   21.1894 H   0  0  0  0  0  0
  -25.9260  -25.8959   19.0338 H   0  0  0  0  0  0
  -23.9599  -27.2969   19.0258 H   0  0  0  0  0  0
  -23.7642  -30.5897   19.4014 H   0  0  0  0  0  0
  -22.7567  -29.2493   19.8525 H   0  0  0  0  0  0
  -25.1283  -36.1904   25.0819 H   0  0  0  0  0  0
  -20.9988  -28.3276   24.1394 H   0  0  0  0  0  0
  -20.5670  -26.2317   23.3614 H   0  0  0  0  0  0
  -21.6643  -26.7437   22.1205 H   0  0  0  0  0  0
  -19.6918  -25.6302   21.1236 H   0  0  0  0  0  0
  -19.6689  -27.3209   20.6750 H   0  0  0  0  0  0
  -17.4201  -26.6692   21.4019 H   0  0  0  0  0  0
  -18.0321  -26.0069   22.9009 H   0  0  0  0  0  0
  -19.7951  -30.7274   24.2258 H   0  0  0  0  0  0
  -17.5035  -31.6274   24.5177 H   0  0  0  0  0  0
  -15.5365  -30.3010   23.7662 H   0  0  0  0  0  0
  -15.8668  -28.0837   22.7074 H   0  0  0  0  0  0
  -24.5912  -30.7073   25.7792 H   0  0  0  0  0  0
  -24.8904  -32.2932   26.4814 H   0  0  0  0  0  0
  -25.8047  -30.8981   27.0249 H   0  0  0  0  0  0
  -26.2914  -29.6757   24.1198 H   0  0  0  0  0  0
  -27.4009  -29.7246   25.4701 H   0  0  0  0  0  0
  -27.8799  -30.4268   23.9435 H   0  0  0  0  0  0
  -27.2657  -33.3648   26.2009 H   0  0  0  0  0  0
  -28.3898  -32.6830   25.0342 H   0  0  0  0  0  0
  -28.0672  -31.8479   26.5457 H   0  0  0  0  0  0
  -28.2565  -38.0113   24.7546 H   0  0  0  0  0  0
  -28.1100  -36.2643   24.6221 H   0  0  0  0  0  0
  -27.2309  -37.1348   25.8866 H   0  0  0  0  0  0
  -20.9382  -29.8788   21.6887 H   0  0  0  0  0  0
  -26.0143  -38.2842   24.1469 H   0  0  0  0  0  0
  -31.6822  -19.2452   19.4311 H   0  0  0  0  0  0
  -31.0750  -21.5707   19.1295 H   0  0  0  0  0  0
  -27.4866  -20.9593   21.3510 H   0  0  0  0  0  0
  -31.0490  -25.6291   19.1865 H   0  0  0  0  0  0
  -31.6588  -23.9114   19.4982 H   0  0  0  0  0  0
  -26.8500  -23.3803   20.2274 H   0  0  0  0  0  0
  -27.8712  -23.9714   21.5913 H   0  0  0  0  0  0
  -27.8243  -25.0063   18.6455 H   0  0  0  0  0  0
  -26.9608  -18.8862   22.2932 H   0  0  0  0  0  0
  -28.3553  -17.9342   22.7986 H   0  0  0  0  0  0
  -27.4608  -17.4922   21.3387 H   0  0  0  0  0  0
  -30.8026  -17.2695   21.9998 H   0  0  0  0  0  0
  -31.5575  -17.2080   20.4607 H   0  0  0  0  0  0
  -28.9589  -15.7697   20.8828 H   0  0  0  0  0  0
  1 25  1  0  0  0
  1 30  2  0  0  0
  1 84  1  0  0  0
  2  3  1  0  0  0
  2 25  1  0  0  0
  2 85  1  0  0  0
  2 86  1  0  0  0
  3  4  1  0  0  0
  3 87  1  0  0  0
  3 88  1  0  0  0
  4  5  1  0  0  0
  4 89  1  0  0  0
  4 90  1  0  0  0
  5  6  1  0  0  0
  5 26  1  0  0  0
  5 91  1  0  0  0
  6 25  1  0  0  0
  6 92  1  0  0  0
  6 93  1  0  0  0
  7  8  2  0  0  0
  7 26  1  0  0  0
  7 29  1  0  0  0
  8  9  1  0  0  0
  8 22  1  0  0  0
  9 10  1  0  0  0
  9 27  2  0  0  0
 10 11  2  0  0  0
 10 15  1  0  0  0
 11 12  1  0  0  0
 11 94  1  0  0  0
 12 13  2  0  0  0
 12 95  1  0  0  0
 13 14  1  0  0  0
 13 31  1  0  0  0
 14 15  2  0  0  0
 14 96  1  0  0  0
 15 97  1  0  0  0
 16 17  2  0  0  0
 16 21  1  0  0  0
 16 31  1  0  0  0
 17 18  1  0  0  0
 17 98  1  0  0  0
 18 19  2  0  0  0
 18 99  1  0  0  0
 19 20  1  0  0  0
 19 24  1  0  0  0
 20 21  2  0  0  0
 20100  1  0  0  0
 21 23  1  0  0  0
 22 28  1  0  0  0
 22 32  2  0  0  0
 26 27  1  0  0  0
 28101  1  0  0  0
 28102  1  0  0  0
 29103  1  0  0  0
 29104  1  0  0  0
 33 34  1  0  0  0
 33 66  1  0  0  0
 33 70  2  0  0  0
 34 36  1  0  0  0
 34 59  1  0  0  0
 34105  1  0  0  0
 35 44  2  0  0  0
 35 45  1  0  0  0
 35 68  1  0  0  0
 36 56  1  0  0  0
 36106  1  0  0  0
 37 39  1  0  0  0
 37 47  1  0  0  0
 37 66  1  0  0  0
 37107  1  0  0  0
 38 43  2  0  0  0
 38 46  1  0  0  0
 38 47  1  0  0  0
 39 64  1  0  0  0
 39 67  2  0  0  0
 40 52  1  0  0  0
 40 53  2  0  0  0
 40 58  1  0  0  0
 41108  1  0  0  0
 41109  1  0  0  0
 41110  1  0  0  0
 41 48  1  0  0  0
 42 43  1  0  0  0
 42 66  1  0  0  0
 42111  1  0  0  0
 42112  1  0  0  0
 43 44  1  0  0  0
 44113  1  0  0  0
 45 46  2  0  0  0
 45114  1  0  0  0
 46115  1  0  0  0
 47116  1  0  0  0
 47117  1  0  0  0
 48 56  1  0  0  0
 48 65  1  0  0  0
 48118  1  0  0  0
 49 50  1  0  0  0
 49 53  1  0  0  0
 49 64  1  0  0  0
 49119  1  0  0  0
 50 51  1  0  0  0
 50120  1  0  0  0
 50121  1  0  0  0
 51 52  1  0  0  0
 51122  1  0  0  0
 51123  1  0  0  0
 52124  1  0  0  0
 52125  1  0  0  0
 53 54  1  0  0  0
 54 55  2  0  0  0
 54126  1  0  0  0
 55 57  1  0  0  0
 55127  1  0  0  0
 56 69  2  0  0  0
 57 58  2  0  0  0
 57128  1  0  0  0
 58129  1  0  0  0
 59 60  1  0  0  0
 59 61  1  0  0  0
 59 62  1  0  0  0
 60130  1  0  0  0
 60131  1  0  0  0
 60132  1  0  0  0
 61133  1  0  0  0
 61134  1  0  0  0
 61135  1  0  0  0
 62136  1  0  0  0
 62137  1  0  0  0
 62138  1  0  0  0
 63 65  1  0  0  0
 63139  1  0  0  0
 63140  1  0  0  0
 63141  1  0  0  0
 64142  1  0  0  0
 65143  1  0  0  0
 68 80  1  0  0  0
 71 72  2  0  0  0
 71 74  1  0  0  0
 71144  1  0  0  0
 72 76  1  0  0  0
 72145  1  0  0  0
 73 75  1  0  0  0
 73 76  2  0  0  0
 73146  1  0  0  0
 74 75  2  0  0  0
 74 82  1  0  0  0
 75 81  1  0  0  0
 76 83  1  0  0  0
 77 78  2  0  0  0
 77 80  1  0  0  0
 77 83  1  0  0  0
 78147  1  0  0  0
 78148  1  0  0  0
 79 80  1  0  0  0
 79 83  1  0  0  0
 79149  1  0  0  0
 79150  1  0  0  0
 80151  1  0  0  0
 81152  1  0  0  0
 81153  1  0  0  0
 81154  1  0  0  0
 82 84  1  0  0  0
 82155  1  0  0  0
 82156  1  0  0  0
 84157  1  0  0  0
M  ISO  4   1 100  68 101  80 101  84 100
M  END
> <chiral flag>
0

> <version>
0

> <s_m_source_file>
/data/baiqing/PycharmProjects/Reinvent-master-3.2/result/LINK_invent/BTK/process_docking_weight1_custom_product_contain_oxygen_bond_distance_aromatic_linkinvent_7_9_3/rearranged_h_0028.sdf

> <i_m_source_file_index>
90

> <r_mmod_Potential_Energy-OPLS-2005>
104.940330505371

> <r_mmod_Stretch_Energy-OPLS-2005>
96.7589492797852

> <r_mmod_Bend_Energy-OPLS-2005>
213.182754516602

> <r_mmod_Torsional_Energy-OPLS-2005>
211.18505859375

> <r_mmod_Improper_Torsional_Energy-OPLS-2005>
6.22156763076782

> <r_mmod_Van_der_Waal_Energy-OPLS-2005>
137.808715820312

> <r_mmod_Electrostatic_Energy-OPLS-2005>
-418.128356933594

> <r_mmod_Solvation_Energy-OPLS-2005>
-211.067459106445

> <b_mmod_Minimization_Converged-OPLS-2005>
0

> <r_mmod_RMS_Derivative-OPLS-2005>
0.882152199745178

$$$$
90
                    3D
 Structure written by MMmdl.
152161  0  0  1  0            999 V2000
  -30.4815  -15.0727   20.3906 C   0  0  0  0  0  0
  -30.4387  -12.6632   19.5347 C   0  0  0  0  0  0
  -29.5333  -12.5595   18.2827 C   0  0  0  0  0  0
  -28.0692  -12.3211   18.6919 C   0  0  0  0  0  0
  -27.6266  -13.2612   19.8424 C   0  0  2  0  0  0
  -28.6593  -13.3310   20.9891 C   0  0  0  0  0  0
  -25.2438  -13.8236   20.5715 C   0  0  0  0  0  0
  -24.1766  -13.0442   20.9223 C   0  0  0  0  0  0
  -24.6399  -11.6932   20.8743 C   0  0  0  0  0  0
  -23.9088  -10.4295   21.0396 C   0  0  0  0  0  0
  -24.3634   -9.4210   21.9177 C   0  0  0  0  0  0
  -23.6304   -8.2247   22.0752 C   0  0  0  0  0  0
  -22.4285   -8.0284   21.3544 C   0  0  0  0  0  0
  -21.9923   -9.0258   20.4645 C   0  0  0  0  0  0
  -22.7256  -10.2134   20.3049 C   0  0  0  0  0  0
  -21.6857   -6.0737   22.5277 C   0  0  0  0  0  0
  -21.4018   -6.5639   23.8211 C   0  0  0  0  0  0
  -21.3661   -5.6791   24.9172 C   0  0  0  0  0  0
  -21.6045   -4.3054   24.7222 C   0  0  0  0  0  0
  -21.8819   -3.8146   23.4343 C   0  0  0  0  0  0
  -21.9195   -4.6964   22.3400 C   0  0  0  0  0  0
  -22.7786  -13.5205   21.1881 C   0  0  0  0  0  0
  -22.1661   -4.2149   21.0978 F   0  0  0  0  0  0
  -21.5630   -3.4538   25.7735 F   0  0  0  0  0  0
  -29.9302  -13.7776   20.4029 N   0  0  0  0  0  0
  -26.2869  -12.9488   20.3245 N   0  0  0  0  0  0
  -25.9337  -11.6605   20.5730 N   0  0  0  0  0  0
  -22.0445  -12.8189   22.0440 N   0  0  0  0  0  0
  -25.4104  -15.1965   20.4148 N   0  0  0  0  0  0
  -31.6593  -15.1372   20.0154 O   0  0  0  0  0  0
  -21.6646   -6.8882   21.4241 O   0  0  0  0  0  0
  -22.3462  -14.5505   20.6724 O   0  0  0  0  0  0
  -24.6494  -31.8334   23.1773 C   0  0  0  0  0  0
  -25.9230  -32.4636   23.8201 C   0  0  1  0  0  0
  -27.2270  -27.0520   20.1692 C   0  0  0  0  0  0
  -25.5946  -33.8447   24.2118 N   0  0  0  0  0  0
  -23.4585  -30.4449   21.5226 C   0  0  2  0  0  0
  -24.9120  -28.8487   20.1031 C   0  0  0  0  0  0
  -22.7600  -29.4480   22.4815 C   0  0  0  0  0  0
  -18.0309  -28.1400   22.8472 C   0  0  0  0  0  0
  -24.1492  -36.7232   23.2647 C   0  0  0  0  0  0
  -26.0159  -30.6792   21.3878 C   0  0  0  0  0  0
  -26.0852  -29.2808   20.7317 C   0  0  0  0  0  0
  -27.2347  -28.3967   20.7471 C   0  0  0  0  0  0
  -26.0329  -26.7335   19.4904 C   0  0  0  0  0  0
  -24.9036  -27.5937   19.4650 C   0  0  0  0  0  0
  -23.6899  -29.7603   20.1454 C   0  0  0  0  0  0
  -25.4129  -36.2999   24.0307 C   0  0  1  0  0  0
  -20.5924  -28.3730   23.1222 C   0  0  2  0  0  0
  -20.6786  -26.9423   22.5412 C   0  0  0  0  0  0
  -19.5764  -26.6377   21.5216 C   0  0  0  0  0  0
  -18.1945  -26.7937   22.1621 C   0  0  0  0  0  0
  -19.1567  -28.8885   23.2837 C   0  0  0  0  0  0
  -18.9482  -30.1479   23.8866 C   0  0  0  0  0  0
  -17.6478  -30.6594   24.0557 C   0  0  0  0  0  0
  -25.9084  -34.9377   23.5032 C   0  0  0  0  0  0
  -16.5368  -29.9085   23.6338 C   0  0  0  0  0  0
  -16.7292  -28.6505   23.0358 C   0  0  0  0  0  0
  -26.4531  -31.6546   25.0686 C   0  0  0  0  0  0
  -25.3693  -31.3764   26.1367 C   0  0  0  0  0  0
  -27.0417  -30.2932   24.6335 C   0  0  0  0  0  0
  -27.6043  -32.4336   25.7480 C   0  0  0  0  0  0
  -27.5573  -37.1771   24.8465 C   0  0  0  0  0  0
  -21.4282  -29.3034   22.3576 N   0  0  0  0  0  0
  -26.4284  -37.3723   23.9407 N   0  0  0  0  0  0
  -24.7279  -31.0108   22.0840 N   0  0  0  0  0  0
  -23.4204  -28.8057   23.3019 O   0  0  0  0  0  0
  -28.2879  -26.0645   20.3277 O   0  0  0  0  0  0
  -26.5690  -34.8896   22.4625 O   0  0  0  0  0  0
  -23.5596  -32.1248   23.6948 O   0  0  0  0  0  0
  -28.2827  -20.0233   18.7639 C   0  0  0  0  0  0
  -28.2447  -18.7147   18.2248 C   0  0  0  0  0  0
  -29.4858  -19.0835   20.6475 C   0  0  0  0  0  0
  -28.9228  -20.3279   19.9838 C   0  0  0  0  0  0
  -29.4419  -17.6604   20.1193 C   0  0  0  0  0  0
  -28.8010  -17.5810   18.8631 C   0  0  0  0  0  0
  -30.1295  -22.5858   20.2040 C   0  0  0  0  0  0
  -29.9591  -24.1419   20.1525 C   0  0  0  0  0  0
  -27.9196  -23.0282   20.3002 C   0  0  0  0  0  0
  -28.4864  -24.5452   19.8632 C   0  0  1  0  0  0
  -28.9888  -21.8677   20.3148 N   0  0  0  0  0  0
  -29.7512  -16.2638   20.7637 N   0  0  0  0  0  0
  -31.2569  -22.0816   20.1673 O   0  0  0  0  0  0
  -28.6540  -16.3712   18.2693 F   0  0  0  0  0  0
  -31.4727  -12.8250   19.2273 H   0  0  0  0  0  0
  -30.4442  -11.7207   20.0845 H   0  0  0  0  0  0
  -29.8767  -11.7569   17.6287 H   0  0  0  0  0  0
  -29.6059  -13.4814   17.7032 H   0  0  0  0  0  0
  -27.9818  -11.2821   19.0116 H   0  0  0  0  0  0
  -27.4093  -12.4325   17.8307 H   0  0  0  0  0  0
  -27.5776  -14.2554   19.3980 H   0  0  0  0  0  0
  -28.7671  -12.3645   21.4837 H   0  0  0  0  0  0
  -28.3299  -14.0340   21.7551 H   0  0  0  0  0  0
  -25.2776   -9.5686   22.4754 H   0  0  0  0  0  0
  -24.0008   -7.4641   22.7476 H   0  0  0  0  0  0
  -21.0852   -8.8779   19.8953 H   0  0  0  0  0  0
  -22.3711  -10.9674   19.6160 H   0  0  0  0  0  0
  -21.2010   -7.6148   23.9715 H   0  0  0  0  0  0
  -21.1484   -6.0521   25.9077 H   0  0  0  0  0  0
  -22.0597   -2.7608   23.2843 H   0  0  0  0  0  0
  -22.4077  -11.9859   22.4831 H   0  0  0  0  0  0
  -21.1058  -13.1199   22.2645 H   0  0  0  0  0  0
  -24.6389  -15.8468   20.5166 H   0  0  0  0  0  0
  -26.2516  -15.6316   20.0581 H   0  0  0  0  0  0
  -26.7293  -32.5212   23.0918 H   0  0  0  0  0  0
  -25.0047  -33.9541   25.0236 H   0  0  0  0  0  0
  -22.7653  -31.2724   21.3580 H   0  0  0  0  0  0
  -23.3763  -35.9554   23.3287 H   0  0  0  0  0  0
  -24.3571  -36.8894   22.2065 H   0  0  0  0  0  0
  -23.7240  -37.6414   23.6709 H   0  0  0  0  0  0
  -26.1810  -31.4275   20.6115 H   0  0  0  0  0  0
  -26.8821  -30.7331   22.0357 H   0  0  0  0  0  0
  -28.1230  -28.7176   21.2730 H   0  0  0  0  0  0
  -25.9455  -25.7647   19.0194 H   0  0  0  0  0  0
  -24.0070  -27.2587   18.9617 H   0  0  0  0  0  0
  -23.8297  -30.5288   19.3843 H   0  0  0  0  0  0
  -22.8036  -29.2031   19.8371 H   0  0  0  0  0  0
  -25.1325  -36.1808   25.0799 H   0  0  0  0  0  0
  -21.0015  -28.3330   24.1344 H   0  0  0  0  0  0
  -20.5667  -26.2347   23.3641 H   0  0  0  0  0  0
  -21.6653  -26.7411   22.1219 H   0  0  0  0  0  0
  -19.6924  -25.6279   21.1268 H   0  0  0  0  0  0
  -19.6706  -27.3169   20.6732 H   0  0  0  0  0  0
  -17.4216  -26.6683   21.4022 H   0  0  0  0  0  0
  -18.0338  -26.0086   22.9024 H   0  0  0  0  0  0
  -19.7958  -30.7303   24.2221 H   0  0  0  0  0  0
  -17.5031  -31.6271   24.5166 H   0  0  0  0  0  0
  -15.5368  -30.2977   23.7681 H   0  0  0  0  0  0
  -15.8692  -28.0814   22.7090 H   0  0  0  0  0  0
  -24.5882  -30.7103   25.7683 H   0  0  0  0  0  0
  -24.8870  -32.2954   26.4707 H   0  0  0  0  0  0
  -25.7952  -30.8990   27.0201 H   0  0  0  0  0  0
  -26.3055  -29.6626   24.1337 H   0  0  0  0  0  0
  -27.3994  -29.7269   25.4945 H   0  0  0  0  0  0
  -27.8974  -30.4150   23.9690 H   0  0  0  0  0  0
  -27.2622  -33.3665   26.1974 H   0  0  0  0  0  0
  -28.3897  -32.6852   25.0340 H   0  0  0  0  0  0
  -28.0664  -31.8518   26.5466 H   0  0  0  0  0  0
  -28.2579  -38.0080   24.7512 H   0  0  0  0  0  0
  -28.1082  -36.2606   24.6293 H   0  0  0  0  0  0
  -27.2289  -37.1416   25.8867 H   0  0  0  0  0  0
  -20.9514  -29.8721   21.6719 H   0  0  0  0  0  0
  -26.0141  -38.2786   24.1412 H   0  0  0  0  0  0
  -27.8398  -20.8230   18.1866 H   0  0  0  0  0  0
  -27.7524  -18.5675   17.2748 H   0  0  0  0  0  0
  -29.9592  -19.2262   21.6083 H   0  0  0  0  0  0
  -30.6324  -24.5720   19.4114 H   0  0  0  0  0  0
  -30.2618  -24.5314   21.1243 H   0  0  0  0  0  0
  -27.0824  -22.7466   19.6616 H   0  0  0  0  0  0
  -27.5139  -23.0900   21.3103 H   0  0  0  0  0  0
  -28.3749  -24.5897   18.7790 H   0  0  0  0  0  0
  -28.9872  -15.9891   21.3626 H   0  0  0  0  0  0
  1 25  1  0  0  0
  1 30  2  0  0  0
  1 82  1  0  0  0
  2  3  1  0  0  0
  2 25  1  0  0  0
  2 85  1  0  0  0
  2 86  1  0  0  0
  3  4  1  0  0  0
  3 87  1  0  0  0
  3 88  1  0  0  0
  4  5  1  0  0  0
  4 89  1  0  0  0
  4 90  1  0  0  0
  5  6  1  0  0  0
  5 26  1  0  0  0
  5 91  1  0  0  0
  6 25  1  0  0  0
  6 92  1  0  0  0
  6 93  1  0  0  0
  7  8  2  0  0  0
  7 26  1  0  0  0
  7 29  1  0  0  0
  8  9  1  0  0  0
  8 22  1  0  0  0
  9 10  1  0  0  0
  9 27  2  0  0  0
 10 11  2  0  0  0
 10 15  1  0  0  0
 11 12  1  0  0  0
 11 94  1  0  0  0
 12 13  2  0  0  0
 12 95  1  0  0  0
 13 14  1  0  0  0
 13 31  1  0  0  0
 14 15  2  0  0  0
 14 96  1  0  0  0
 15 97  1  0  0  0
 16 17  2  0  0  0
 16 21  1  0  0  0
 16 31  1  0  0  0
 17 18  1  0  0  0
 17 98  1  0  0  0
 18 19  2  0  0  0
 18 99  1  0  0  0
 19 20  1  0  0  0
 19 24  1  0  0  0
 20 21  2  0  0  0
 20100  1  0  0  0
 21 23  1  0  0  0
 22 28  1  0  0  0
 22 32  2  0  0  0
 26 27  1  0  0  0
 28101  1  0  0  0
 28102  1  0  0  0
 29103  1  0  0  0
 29104  1  0  0  0
 33 34  1  0  0  0
 33 66  1  0  0  0
 33 70  2  0  0  0
 34 36  1  0  0  0
 34 59  1  0  0  0
 34105  1  0  0  0
 35 44  2  0  0  0
 35 45  1  0  0  0
 35 68  1  0  0  0
 36 56  1  0  0  0
 36106  1  0  0  0
 37 39  1  0  0  0
 37 47  1  0  0  0
 37 66  1  0  0  0
 37107  1  0  0  0
 38 43  2  0  0  0
 38 46  1  0  0  0
 38 47  1  0  0  0
 39 64  1  0  0  0
 39 67  2  0  0  0
 40 52  1  0  0  0
 40 53  2  0  0  0
 40 58  1  0  0  0
 41108  1  0  0  0
 41109  1  0  0  0
 41110  1  0  0  0
 41 48  1  0  0  0
 42 43  1  0  0  0
 42 66  1  0  0  0
 42111  1  0  0  0
 42112  1  0  0  0
 43 44  1  0  0  0
 44113  1  0  0  0
 45 46  2  0  0  0
 45114  1  0  0  0
 46115  1  0  0  0
 47116  1  0  0  0
 47117  1  0  0  0
 48 56  1  0  0  0
 48 65  1  0  0  0
 48118  1  0  0  0
 49 50  1  0  0  0
 49 53  1  0  0  0
 49 64  1  0  0  0
 49119  1  0  0  0
 50 51  1  0  0  0
 50120  1  0  0  0
 50121  1  0  0  0
 51 52  1  0  0  0
 51122  1  0  0  0
 51123  1  0  0  0
 52124  1  0  0  0
 52125  1  0  0  0
 53 54  1  0  0  0
 54 55  2  0  0  0
 54126  1  0  0  0
 55 57  1  0  0  0
 55127  1  0  0  0
 56 69  2  0  0  0
 57 58  2  0  0  0
 57128  1  0  0  0
 58129  1  0  0  0
 59 60  1  0  0  0
 59 61  1  0  0  0
 59 62  1  0  0  0
 60130  1  0  0  0
 60131  1  0  0  0
 60132  1  0  0  0
 61133  1  0  0  0
 61134  1  0  0  0
 61135  1  0  0  0
 62136  1  0  0  0
 62137  1  0  0  0
 62138  1  0  0  0
 63 65  1  0  0  0
 63139  1  0  0  0
 63140  1  0  0  0
 63141  1  0  0  0
 64142  1  0  0  0
 65143  1  0  0  0
 68 80  1  0  0  0
 71 72  2  0  0  0
 71 74  1  0  0  0
 71144  1  0  0  0
 72 76  1  0  0  0
 72145  1  0  0  0
 73 74  2  0  0  0
 73 75  1  0  0  0
 73146  1  0  0  0
 74 81  1  0  0  0
 75 76  2  0  0  0
 75 82  1  0  0  0
 76 84  1  0  0  0
 77 78  1  0  0  0
 77 81  1  0  0  0
 77 83  2  0  0  0
 78 80  1  0  0  0
 78147  1  0  0  0
 78148  1  0  0  0
 79 80  1  0  0  0
 79 81  1  0  0  0
 79149  1  0  0  0
 79150  1  0  0  0
 80151  1  0  0  0
 82152  1  0  0  0
M  ISO  4   1 100  68 101  80 101  82 100
M  END
> <chiral flag>
0

> <version>
0

> <s_m_source_file>
/data/baiqing/PycharmProjects/Reinvent-master-3.2/result/LINK_invent/BTK/process_docking_weight1_custom_product_contain_oxygen_bond_distance_aromatic_linkinvent_7_9_3/rearranged_h_0028.sdf

> <i_m_source_file_index>
91

> <r_mmod_Potential_Energy-OPLS-2005>
832.112121582031

> <r_mmod_Stretch_Energy-OPLS-2005>
346.093688964844

> <r_mmod_Bend_Energy-OPLS-2005>
391.183013916016

> <r_mmod_Torsional_Energy-OPLS-2005>
316.981475830078

> <r_mmod_Improper_Torsional_Energy-OPLS-2005>
6.8509373664856

> <r_mmod_Van_der_Waal_Energy-OPLS-2005>
115.819580078125

> <r_mmod_Electrostatic_Energy-OPLS-2005>
-394.910339355469

> <r_mmod_Solvation_Energy-OPLS-2005>
-232.931488037109

> <b_mmod_Minimization_Converged-OPLS-2005>
0

> <r_mmod_RMS_Derivative-OPLS-2005>
0.231760561466217

$$$$
91
                    3D
 Structure written by MMmdl.
156165  0  0  1  0            999 V2000
  -30.4985  -15.0684   20.3866 C   0  0  0  0  0  0
  -30.4438  -12.6641   19.5339 C   0  0  0  0  0  0
  -29.5402  -12.5455   18.2851 C   0  0  0  0  0  0
  -28.0750  -12.3100   18.6956 C   0  0  0  0  0  0
  -27.6254  -13.2582   19.8371 C   0  0  2  0  0  0
  -28.6583  -13.3480   20.9809 C   0  0  0  0  0  0
  -25.2436  -13.8234   20.5693 C   0  0  0  0  0  0
  -24.1758  -13.0454   20.9221 C   0  0  0  0  0  0
  -24.6390  -11.6949   20.8767 C   0  0  0  0  0  0
  -23.9074  -10.4317   21.0411 C   0  0  0  0  0  0
  -24.3625   -9.4229   21.9189 C   0  0  0  0  0  0
  -23.6303   -8.2262   22.0760 C   0  0  0  0  0  0
  -22.4282   -8.0304   21.3541 C   0  0  0  0  0  0
  -21.9918   -9.0275   20.4640 C   0  0  0  0  0  0
  -22.7252  -10.2151   20.3050 C   0  0  0  0  0  0
  -21.6857   -6.0737   22.5282 C   0  0  0  0  0  0
  -21.4022   -6.5636   23.8222 C   0  0  0  0  0  0
  -21.3658   -5.6788   24.9175 C   0  0  0  0  0  0
  -21.6041   -4.3045   24.7218 C   0  0  0  0  0  0
  -21.8821   -3.8143   23.4340 C   0  0  0  0  0  0
  -21.9194   -4.6965   22.3396 C   0  0  0  0  0  0
  -22.7774  -13.5237   21.1858 C   0  0  0  0  0  0
  -22.1658   -4.2151   21.0967 F   0  0  0  0  0  0
  -21.5637   -3.4529   25.7726 F   0  0  0  0  0  0
  -29.9243  -13.7860   20.3808 N   0  0  0  0  0  0
  -26.2867  -12.9474   20.3230 N   0  0  0  0  0  0
  -25.9335  -11.6604   20.5753 N   0  0  0  0  0  0
  -22.0399  -12.8257   22.0423 N   0  0  0  0  0  0
  -25.4068  -15.1962   20.4093 N   0  0  0  0  0  0
  -31.7007  -15.0993   20.0958 O   0  0  0  0  0  0
  -21.6641   -6.8890   21.4251 O   0  0  0  0  0  0
  -22.3464  -14.5513   20.6665 O   0  0  0  0  0  0
  -24.6542  -31.8357   23.1827 C   0  0  0  0  0  0
  -25.9286  -32.4651   23.8227 C   0  0  1  0  0  0
  -27.2115  -27.0484   20.1712 C   0  0  0  0  0  0
  -25.6018  -33.8460   24.2155 N   0  0  0  0  0  0
  -23.4599  -30.4542   21.5309 C   0  0  2  0  0  0
  -24.9067  -28.8625   20.1182 C   0  0  0  0  0  0
  -22.7614  -29.4498   22.4816 C   0  0  0  0  0  0
  -18.0311  -28.1416   22.8468 C   0  0  0  0  0  0
  -24.1480  -36.7212   23.2647 C   0  0  0  0  0  0
  -26.0217  -30.6855   21.3901 C   0  0  0  0  0  0
  -26.0895  -29.2861   20.7364 C   0  0  0  0  0  0
  -27.2404  -28.3978   20.7399 C   0  0  0  0  0  0
  -25.9985  -26.7465   19.5125 C   0  0  0  0  0  0
  -24.8774  -27.6079   19.4914 C   0  0  0  0  0  0
  -23.6928  -29.7813   20.1517 C   0  0  0  0  0  0
  -25.4125  -36.2993   24.0304 C   0  0  1  0  0  0
  -20.5941  -28.3734   23.1215 C   0  0  2  0  0  0
  -20.6784  -26.9421   22.5404 C   0  0  0  0  0  0
  -19.5753  -26.6386   21.5217 C   0  0  0  0  0  0
  -18.1939  -26.7941   22.1628 C   0  0  0  0  0  0
  -19.1581  -28.8889   23.2832 C   0  0  0  0  0  0
  -18.9493  -30.1489   23.8849 C   0  0  0  0  0  0
  -17.6491  -30.6604   24.0559 C   0  0  0  0  0  0
  -25.9094  -34.9376   23.5027 C   0  0  0  0  0  0
  -16.5379  -29.9105   23.6337 C   0  0  0  0  0  0
  -16.7299  -28.6531   23.0345 C   0  0  0  0  0  0
  -26.4597  -31.6550   25.0689 C   0  0  0  0  0  0
  -25.3765  -31.3761   26.1373 C   0  0  0  0  0  0
  -27.0497  -30.2947   24.6301 C   0  0  0  0  0  0
  -27.6104  -32.4328   25.7505 C   0  0  0  0  0  0
  -27.5553  -37.1756   24.8477 C   0  0  0  0  0  0
  -21.4294  -29.3040   22.3569 N   0  0  0  0  0  0
  -26.4266  -37.3723   23.9423 N   0  0  0  0  0  0
  -24.7330  -31.0148   22.0899 N   0  0  0  0  0  0
  -23.4214  -28.8038   23.2992 O   0  0  0  0  0  0
  -28.2600  -26.0307   20.2149 O   0  0  0  0  0  0
  -26.5653  -34.8900   22.4588 O   0  0  0  0  0  0
  -23.5640  -32.1261   23.7001 O   0  0  0  0  0  0
  -31.1218  -19.3411   18.6656 C   0  0  0  0  0  0
  -30.4028  -20.4855   19.0697 C   0  0  0  0  0  0
  -30.8966  -18.0551   19.1989 C   0  0  0  0  0  0
  -29.1657  -19.0537   20.5904 C   0  0  0  0  0  0
  -29.3963  -20.4616   20.0586 C   0  0  0  0  0  0
  -29.9114  -17.7936   20.1739 C   0  0  0  0  0  0
  -27.9722  -23.7918   21.6608 C   0  0  0  0  0  0
  -28.0226  -22.2064   21.5400 C   0  0  0  0  0  0
  -29.0122  -23.2162   19.6846 C   0  0  0  0  0  0
  -28.0395  -24.4452   20.2534 C   0  0  2  0  0  0
  -28.0651  -18.8797   21.6225 C   0  0  0  0  0  0
  -28.7824  -21.8237   20.3441 N   0  0  0  0  0  0
  -29.7296  -16.2838   20.5705 N   0  0  0  0  0  0
  -31.4780  -12.8225   19.2239 H   0  0  0  0  0  0
  -30.4472  -11.7306   20.0991 H   0  0  0  0  0  0
  -29.8894  -11.7304   17.6494 H   0  0  0  0  0  0
  -29.6152  -13.4600   17.6932 H   0  0  0  0  0  0
  -27.9972  -11.2750   19.0314 H   0  0  0  0  0  0
  -27.4132  -12.4035   17.8340 H   0  0  0  0  0  0
  -27.5705  -14.2459   19.3807 H   0  0  0  0  0  0
  -28.7745  -12.3922   21.4914 H   0  0  0  0  0  0
  -28.3261  -14.0648   21.7342 H   0  0  0  0  0  0
  -25.2764   -9.5707   22.4764 H   0  0  0  0  0  0
  -24.0020   -7.4648   22.7472 H   0  0  0  0  0  0
  -21.0847   -8.8797   19.8939 H   0  0  0  0  0  0
  -22.3717  -10.9696   19.6166 H   0  0  0  0  0  0
  -21.2024   -7.6143   23.9728 H   0  0  0  0  0  0
  -21.1475   -6.0500   25.9078 H   0  0  0  0  0  0
  -22.0597   -2.7602   23.2827 H   0  0  0  0  0  0
  -22.4040  -11.9986   22.4908 H   0  0  0  0  0  0
  -21.1006  -13.1289   22.2561 H   0  0  0  0  0  0
  -24.6223  -15.8337   20.4829 H   0  0  0  0  0  0
  -26.2429  -15.6372   20.0480 H   0  0  0  0  0  0
  -26.7336  -32.5226   23.0938 H   0  0  0  0  0  0
  -25.0191  -33.9550   25.0323 H   0  0  0  0  0  0
  -22.7669  -31.2831   21.3691 H   0  0  0  0  0  0
  -23.3742  -35.9535   23.3299 H   0  0  0  0  0  0
  -24.3549  -36.8857   22.2060 H   0  0  0  0  0  0
  -23.7225  -37.6401   23.6697 H   0  0  0  0  0  0
  -26.1794  -31.4308   20.6080 H   0  0  0  0  0  0
  -26.8917  -30.7422   22.0342 H   0  0  0  0  0  0
  -28.1427  -28.7208   21.2391 H   0  0  0  0  0  0
  -25.8817  -25.7994   19.0108 H   0  0  0  0  0  0
  -23.9747  -27.2780   18.9979 H   0  0  0  0  0  0
  -23.8564  -30.5573   19.4027 H   0  0  0  0  0  0
  -22.8016  -29.2451   19.8233 H   0  0  0  0  0  0
  -25.1312  -36.1778   25.0789 H   0  0  0  0  0  0
  -21.0033  -28.3324   24.1338 H   0  0  0  0  0  0
  -20.5677  -26.2345   23.3636 H   0  0  0  0  0  0
  -21.6651  -26.7405   22.1208 H   0  0  0  0  0  0
  -19.6911  -25.6287   21.1270 H   0  0  0  0  0  0
  -19.6696  -27.3167   20.6729 H   0  0  0  0  0  0
  -17.4206  -26.6684   21.4049 H   0  0  0  0  0  0
  -18.0337  -26.0109   22.9049 H   0  0  0  0  0  0
  -19.7976  -30.7327   24.2190 H   0  0  0  0  0  0
  -17.5049  -31.6274   24.5179 H   0  0  0  0  0  0
  -15.5380  -30.3000   23.7689 H   0  0  0  0  0  0
  -15.8698  -28.0855   22.7065 H   0  0  0  0  0  0
  -24.5945  -30.7120   25.7685 H   0  0  0  0  0  0
  -24.8980  -32.2963   26.4728 H   0  0  0  0  0  0
  -25.8036  -30.8978   27.0190 H   0  0  0  0  0  0
  -26.3154  -29.6639   24.1289 H   0  0  0  0  0  0
  -27.4101  -29.7267   25.4884 H   0  0  0  0  0  0
  -27.9042  -30.4191   23.9646 H   0  0  0  0  0  0
  -27.2685  -33.3652   26.2005 H   0  0  0  0  0  0
  -28.3985  -32.6845   25.0399 H   0  0  0  0  0  0
  -28.0700  -31.8507   26.5506 H   0  0  0  0  0  0
  -28.2575  -38.0047   24.7503 H   0  0  0  0  0  0
  -28.1037  -36.2570   24.6324 H   0  0  0  0  0  0
  -27.2260  -37.1416   25.8879 H   0  0  0  0  0  0
  -20.9533  -29.8753   21.6734 H   0  0  0  0  0  0
  -26.0106  -38.2768   24.1467 H   0  0  0  0  0  0
  -31.8773  -19.4502   17.9008 H   0  0  0  0  0  0
  -30.6599  -21.4162   18.5852 H   0  0  0  0  0  0
  -31.4942  -17.2488   18.8021 H   0  0  0  0  0  0
  -28.8480  -24.1115   22.2281 H   0  0  0  0  0  0
  -27.1034  -24.1296   22.2257 H   0  0  0  0  0  0
  -27.0110  -21.8060   21.4553 H   0  0  0  0  0  0
  -28.4761  -21.7761   22.4342 H   0  0  0  0  0  0
  -30.0530  -23.4876   19.8651 H   0  0  0  0  0  0
  -28.9028  -23.1395   18.6027 H   0  0  0  0  0  0
  -27.0735  -24.2570   19.7900 H   0  0  0  0  0  0
  -27.0983  -19.1531   21.1985 H   0  0  0  0  0  0
  -28.2486  -19.5081   22.4921 H   0  0  0  0  0  0
  -27.9932  -17.8513   21.9741 H   0  0  0  0  0  0
  -28.8210  -16.0823   20.9596 H   0  0  0  0  0  0
  1 25  1  0  0  0
  1 30  2  0  0  0
  1 83  1  0  0  0
  2  3  1  0  0  0
  2 25  1  0  0  0
  2 84  1  0  0  0
  2 85  1  0  0  0
  3  4  1  0  0  0
  3 86  1  0  0  0
  3 87  1  0  0  0
  4  5  1  0  0  0
  4 88  1  0  0  0
  4 89  1  0  0  0
  5  6  1  0  0  0
  5 26  1  0  0  0
  5 90  1  0  0  0
  6 25  1  0  0  0
  6 91  1  0  0  0
  6 92  1  0  0  0
  7  8  2  0  0  0
  7 26  1  0  0  0
  7 29  1  0  0  0
  8  9  1  0  0  0
  8 22  1  0  0  0
  9 10  1  0  0  0
  9 27  2  0  0  0
 10 11  2  0  0  0
 10 15  1  0  0  0
 11 12  1  0  0  0
 11 93  1  0  0  0
 12 13  2  0  0  0
 12 94  1  0  0  0
 13 14  1  0  0  0
 13 31  1  0  0  0
 14 15  2  0  0  0
 14 95  1  0  0  0
 15 96  1  0  0  0
 16 17  2  0  0  0
 16 21  1  0  0  0
 16 31  1  0  0  0
 17 18  1  0  0  0
 17 97  1  0  0  0
 18 19  2  0  0  0
 18 98  1  0  0  0
 19 20  1  0  0  0
 19 24  1  0  0  0
 20 21  2  0  0  0
 20 99  1  0  0  0
 21 23  1  0  0  0
 22 28  1  0  0  0
 22 32  2  0  0  0
 26 27  1  0  0  0
 28100  1  0  0  0
 28101  1  0  0  0
 29102  1  0  0  0
 29103  1  0  0  0
 33 34  1  0  0  0
 33 66  1  0  0  0
 33 70  2  0  0  0
 34 36  1  0  0  0
 34 59  1  0  0  0
 34104  1  0  0  0
 35 44  2  0  0  0
 35 45  1  0  0  0
 35 68  1  0  0  0
 36 56  1  0  0  0
 36105  1  0  0  0
 37 39  1  0  0  0
 37 47  1  0  0  0
 37 66  1  0  0  0
 37106  1  0  0  0
 38 43  2  0  0  0
 38 46  1  0  0  0
 38 47  1  0  0  0
 39 64  1  0  0  0
 39 67  2  0  0  0
 40 52  1  0  0  0
 40 53  2  0  0  0
 40 58  1  0  0  0
 41107  1  0  0  0
 41108  1  0  0  0
 41109  1  0  0  0
 41 48  1  0  0  0
 42 43  1  0  0  0
 42 66  1  0  0  0
 42110  1  0  0  0
 42111  1  0  0  0
 43 44  1  0  0  0
 44112  1  0  0  0
 45 46  2  0  0  0
 45113  1  0  0  0
 46114  1  0  0  0
 47115  1  0  0  0
 47116  1  0  0  0
 48 56  1  0  0  0
 48 65  1  0  0  0
 48117  1  0  0  0
 49 50  1  0  0  0
 49 53  1  0  0  0
 49 64  1  0  0  0
 49118  1  0  0  0
 50 51  1  0  0  0
 50119  1  0  0  0
 50120  1  0  0  0
 51 52  1  0  0  0
 51121  1  0  0  0
 51122  1  0  0  0
 52123  1  0  0  0
 52124  1  0  0  0
 53 54  1  0  0  0
 54 55  2  0  0  0
 54125  1  0  0  0
 55 57  1  0  0  0
 55126  1  0  0  0
 56 69  2  0  0  0
 57 58  2  0  0  0
 57127  1  0  0  0
 58128  1  0  0  0
 59 60  1  0  0  0
 59 61  1  0  0  0
 59 62  1  0  0  0
 60129  1  0  0  0
 60130  1  0  0  0
 60131  1  0  0  0
 61132  1  0  0  0
 61133  1  0  0  0
 61134  1  0  0  0
 62135  1  0  0  0
 62136  1  0  0  0
 62137  1  0  0  0
 63 65  1  0  0  0
 63138  1  0  0  0
 63139  1  0  0  0
 63140  1  0  0  0
 64141  1  0  0  0
 65142  1  0  0  0
 68 80  1  0  0  0
 71 72  2  0  0  0
 71 73  1  0  0  0
 71143  1  0  0  0
 72 75  1  0  0  0
 72144  1  0  0  0
 73 76  2  0  0  0
 73145  1  0  0  0
 74 75  2  0  0  0
 74 76  1  0  0  0
 74 81  1  0  0  0
 75 82  1  0  0  0
 76 83  1  0  0  0
 77 78  1  0  0  0
 77 80  1  0  0  0
 77146  1  0  0  0
 77147  1  0  0  0
 78 82  1  0  0  0
 78148  1  0  0  0
 78149  1  0  0  0
 79 80  1  0  0  0
 79 82  1  0  0  0
 79150  1  0  0  0
 79151  1  0  0  0
 80152  1  0  0  0
 81153  1  0  0  0
 81154  1  0  0  0
 81155  1  0  0  0
 83156  1  0  0  0
M  ISO  4   1 100  68 101  80 101  83 100
M  END
> <chiral flag>
0

> <version>
0

> <s_m_source_file>
/data/baiqing/PycharmProjects/Reinvent-master-3.2/result/LINK_invent/BTK/process_docking_weight1_custom_product_contain_oxygen_bond_distance_aromatic_linkinvent_7_9_3/rearranged_h_0028.sdf

> <i_m_source_file_index>
92

> <r_mmod_Potential_Energy-OPLS-2005>
753.159545898438

> <r_mmod_Stretch_Energy-OPLS-2005>
335.266906738281

> <r_mmod_Bend_Energy-OPLS-2005>
349.038970947266

> <r_mmod_Torsional_Energy-OPLS-2005>
261.129150390625

> <r_mmod_Improper_Torsional_Energy-OPLS-2005>
3.9496636390686

> <r_mmod_Van_der_Waal_Energy-OPLS-2005>
126.668739318848

> <r_mmod_Electrostatic_Energy-OPLS-2005>
-374.556945800781

> <r_mmod_Solvation_Energy-OPLS-2005>
-227.453125

> <b_mmod_Minimization_Converged-OPLS-2005>
0

> <r_mmod_RMS_Derivative-OPLS-2005>
2.72827386856079

$$$$
92
                    3D
 Structure written by MMmdl.
163172  0  0  1  0            999 V2000
  -30.6017  -14.7238   20.4910 C   0  0  0  0  0  0
  -30.4442  -12.4524   19.4485 C   0  0  0  0  0  0
  -29.5091  -12.5178   18.2197 C   0  0  0  0  0  0
  -28.0327  -12.3427   18.6350 C   0  0  0  0  0  0
  -27.6458  -13.2239   19.8535 C   0  0  2  0  0  0
  -28.6983  -13.1289   20.9802 C   0  0  0  0  0  0
  -25.2518  -13.8167   20.5667 C   0  0  0  0  0  0
  -24.1817  -13.0432   20.9202 C   0  0  0  0  0  0
  -24.6399  -11.6910   20.8758 C   0  0  0  0  0  0
  -23.9079  -10.4293   21.0417 C   0  0  0  0  0  0
  -24.3624   -9.4205   21.9201 C   0  0  0  0  0  0
  -23.6289   -8.2241   22.0764 C   0  0  0  0  0  0
  -22.4277   -8.0274   21.3548 C   0  0  0  0  0  0
  -21.9917   -9.0259   20.4653 C   0  0  0  0  0  0
  -22.7253  -10.2135   20.3070 C   0  0  0  0  0  0
  -21.6857   -6.0735   22.5272 C   0  0  0  0  0  0
  -21.4012   -6.5640   23.8204 C   0  0  0  0  0  0
  -21.3656   -5.6793   24.9168 C   0  0  0  0  0  0
  -21.6051   -4.3054   24.7224 C   0  0  0  0  0  0
  -21.8818   -3.8146   23.4341 C   0  0  0  0  0  0
  -21.9192   -4.6962   22.3398 C   0  0  0  0  0  0
  -22.7830  -13.5204   21.1846 C   0  0  0  0  0  0
  -22.1662   -4.2149   21.0975 F   0  0  0  0  0  0
  -21.5627   -3.4543   25.7734 F   0  0  0  0  0  0
  -29.9941  -13.4944   20.3922 N   0  0  0  0  0  0
  -26.2966  -12.9374   20.3301 N   0  0  0  0  0  0
  -25.9333  -11.6531   20.5784 N   0  0  0  0  0  0
  -22.0477  -12.8215   22.0412 N   0  0  0  0  0  0
  -25.4167  -15.1884   20.3953 N   0  0  0  0  0  0
  -31.8035  -14.8514   20.2406 O   0  0  0  0  0  0
  -21.6638   -6.8883   21.4240 O   0  0  0  0  0  0
  -22.3534  -14.5530   20.6705 O   0  0  0  0  0  0
  -24.6338  -31.8526   23.1954 C   0  0  0  0  0  0
  -25.9146  -32.4737   23.8328 C   0  0  1  0  0  0
  -27.2395  -27.2703   20.1500 C   0  0  0  0  0  0
  -25.5920  -33.8536   24.2263 N   0  0  0  0  0  0
  -23.4306  -30.4690   21.5379 C   0  0  2  0  0  0
  -24.8819  -28.9054   20.1181 C   0  0  0  0  0  0
  -22.7505  -29.4577   22.4915 C   0  0  0  0  0  0
  -18.0306  -28.1379   22.8507 C   0  0  0  0  0  0
  -24.1463  -36.7267   23.2652 C   0  0  0  0  0  0
  -25.9703  -30.7733   21.3635 C   0  0  0  0  0  0
  -26.0492  -29.3890   20.7216 C   0  0  0  0  0  0
  -27.2317  -28.5851   20.7204 C   0  0  0  0  0  0
  -26.0505  -26.8394   19.5253 C   0  0  0  0  0  0
  -24.8870  -27.6381   19.5087 C   0  0  0  0  0  0
  -23.6501  -29.7907   20.1572 C   0  0  0  0  0  0
  -25.4086  -36.3054   24.0347 C   0  0  1  0  0  0
  -20.5911  -28.3667   23.1278 C   0  0  2  0  0  0
  -20.6774  -26.9385   22.5395 C   0  0  0  0  0  0
  -19.5747  -26.6392   21.5198 C   0  0  0  0  0  0
  -18.1935  -26.7925   22.1624 C   0  0  0  0  0  0
  -19.1558  -28.8840   23.2900 C   0  0  0  0  0  0
  -18.9484  -30.1447   23.8925 C   0  0  0  0  0  0
  -17.6484  -30.6579   24.0558 C   0  0  0  0  0  0
  -25.9027  -34.9420   23.5103 C   0  0  0  0  0  0
  -16.5374  -29.9075   23.6329 C   0  0  0  0  0  0
  -16.7297  -28.6481   23.0374 C   0  0  0  0  0  0
  -26.4518  -31.6568   25.0712 C   0  0  0  0  0  0
  -25.3757  -31.3713   26.1440 C   0  0  0  0  0  0
  -27.0355  -30.3006   24.6137 C   0  0  0  0  0  0
  -27.6081  -32.4284   25.7477 C   0  0  0  0  0  0
  -27.5554  -37.1772   24.8487 C   0  0  0  0  0  0
  -21.4201  -29.3039   22.3670 N   0  0  0  0  0  0
  -26.4267  -37.3738   23.9435 N   0  0  0  0  0  0
  -24.6985  -31.0502   22.0907 N   0  0  0  0  0  0
  -23.4193  -28.8121   23.3020 O   0  0  0  0  0  0
  -28.3645  -26.4210   20.1422 O   0  0  0  0  0  0
  -26.5596  -34.8890   22.4669 O   0  0  0  0  0  0
  -23.5489  -32.1320   23.7247 O   0  0  0  0  0  0
  -29.5654  -18.4028   20.3886 C   0  0  0  0  0  0
  -30.0042  -18.5924   23.1211 C   0  0  0  0  0  0
  -29.4543  -19.7215   21.0032 C   0  0  0  0  0  0
  -30.1140  -17.3239   22.5100 C   0  0  0  0  0  0
  -29.8878  -17.1808   21.1160 C   0  0  0  0  0  0
  -29.6515  -19.7541   22.4032 C   0  0  0  0  0  0
  -31.3510  -23.2952   19.9710 C   0  0  0  0  0  0
  -30.2495  -24.1085   19.2822 C   0  0  0  0  0  0
  -30.6745  -22.7041   21.2050 C   0  0  0  0  0  0
  -28.9132  -23.7311   19.9663 C   0  0  2  0  0  0
  -30.3936  -16.1250   23.4087 C   0  0  0  0  0  0
  -29.0555  -21.0629   20.2146 C   0  0  0  0  0  0
  -28.2868  -25.0359   20.7226 C   0  0  0  0  0  0
  -29.7563  -15.8194   20.5514 N   0  0  0  0  0  0
  -29.2616  -22.4787   20.8157 N   0  3  1  0  0  0
  -29.4883  -20.9111   23.0880 F   0  0  0  0  0  0
  -31.4807  -12.5998   19.1399 H   0  0  0  0  0  0
  -30.4057  -11.4682   19.9161 H   0  0  0  0  0  0
  -29.7857  -11.7555   17.4899 H   0  0  0  0  0  0
  -29.6317  -13.4799   17.7189 H   0  0  0  0  0  0
  -27.8742  -11.2905   18.8723 H   0  0  0  0  0  0
  -27.3770  -12.5672   17.7920 H   0  0  0  0  0  0
  -27.6440  -14.2518   19.4905 H   0  0  0  0  0  0
  -28.7384  -12.1208   21.3950 H   0  0  0  0  0  0
  -28.4406  -13.7897   21.8094 H   0  0  0  0  0  0
  -25.2772   -9.5675   22.4779 H   0  0  0  0  0  0
  -23.9999   -7.4634   22.7489 H   0  0  0  0  0  0
  -21.0855   -8.8782   19.8958 H   0  0  0  0  0  0
  -22.3718  -10.9677   19.6172 H   0  0  0  0  0  0
  -21.2009   -7.6151   23.9711 H   0  0  0  0  0  0
  -21.1476   -6.0523   25.9072 H   0  0  0  0  0  0
  -22.0603   -2.7610   23.2843 H   0  0  0  0  0  0
  -22.4078  -11.9850   22.4763 H   0  0  0  0  0  0
  -21.1102  -13.1254   22.2631 H   0  0  0  0  0  0
  -24.6335  -15.8282   20.4726 H   0  0  0  0  0  0
  -26.2397  -15.6239   19.9992 H   0  0  0  0  0  0
  -26.7230  -32.5411   23.1087 H   0  0  0  0  0  0
  -25.0075  -33.9713   25.0401 H   0  0  0  0  0  0
  -22.7268  -31.2900   21.3828 H   0  0  0  0  0  0
  -23.3730  -35.9596   23.3310 H   0  0  0  0  0  0
  -24.3562  -36.8888   22.2073 H   0  0  0  0  0  0
  -23.7199  -37.6466   23.6653 H   0  0  0  0  0  0
  -26.0877  -31.5249   20.5815 H   0  0  0  0  0  0
  -26.8598  -30.8476   21.9777 H   0  0  0  0  0  0
  -28.1301  -28.9571   21.1932 H   0  0  0  0  0  0
  -26.0158  -25.8688   19.0513 H   0  0  0  0  0  0
  -23.9931  -27.2644   19.0287 H   0  0  0  0  0  0
  -23.7693  -30.5626   19.3955 H   0  0  0  0  0  0
  -22.7698  -29.2161   19.8599 H   0  0  0  0  0  0
  -25.1239  -36.1907   25.0839 H   0  0  0  0  0  0
  -21.0036  -28.3253   24.1379 H   0  0  0  0  0  0
  -20.5643  -26.2277   23.3603 H   0  0  0  0  0  0
  -21.6640  -26.7382   22.1193 H   0  0  0  0  0  0
  -19.6888  -25.6308   21.1229 H   0  0  0  0  0  0
  -19.6691  -27.3203   20.6738 H   0  0  0  0  0  0
  -17.4180  -26.6716   21.4044 H   0  0  0  0  0  0
  -18.0338  -26.0045   22.9004 H   0  0  0  0  0  0
  -19.7962  -30.7271   24.2288 H   0  0  0  0  0  0
  -17.5027  -31.6269   24.5157 H   0  0  0  0  0  0
  -15.5366  -30.2977   23.7631 H   0  0  0  0  0  0
  -15.8700  -28.0800   22.7075 H   0  0  0  0  0  0
  -24.6002  -30.6948   25.7819 H   0  0  0  0  0  0
  -24.8852  -32.2864   26.4778 H   0  0  0  0  0  0
  -25.8122  -30.9017   27.0268 H   0  0  0  0  0  0
  -26.2913  -29.6750   24.1196 H   0  0  0  0  0  0
  -27.4128  -29.7260   25.4614 H   0  0  0  0  0  0
  -27.8735  -30.4325   23.9284 H   0  0  0  0  0  0
  -27.2770  -33.3672   26.1928 H   0  0  0  0  0  0
  -28.3976  -32.6699   25.0343 H   0  0  0  0  0  0
  -28.0633  -31.8458   26.5499 H   0  0  0  0  0  0
  -28.2562  -38.0067   24.7498 H   0  0  0  0  0  0
  -28.1045  -36.2593   24.6326 H   0  0  0  0  0  0
  -27.2289  -37.1453   25.8897 H   0  0  0  0  0  0
  -20.9369  -29.8761   21.6894 H   0  0  0  0  0  0
  -26.0153  -38.2806   24.1454 H   0  0  0  0  0  0
  -29.3541  -18.3230   19.3318 H   0  0  0  0  0  0
  -30.1518  -18.6818   24.1873 H   0  0  0  0  0  0
  -32.2203  -23.8969   20.2330 H   0  0  0  0  0  0
  -31.6946  -22.4936   19.3160 H   0  0  0  0  0  0
  -30.2234  -23.8685   18.2167 H   0  0  0  0  0  0
  -30.4656  -25.1752   19.3555 H   0  0  0  0  0  0
  -30.6999  -23.4378   22.0122 H   0  0  0  0  0  0
  -31.1962  -21.8229   21.5715 H   0  0  0  0  0  0
  -28.1963  -23.4422   19.1954 H   0  0  0  0  0  0
  -30.3487  -16.3925   24.4647 H   0  0  0  0  0  0
  -31.3845  -15.7137   23.2157 H   0  0  0  0  0  0
  -29.6542  -15.3392   23.2547 H   0  0  0  0  0  0
  -27.9986  -20.9761   19.9636 H   0  0  0  0  0  0
  -29.5790  -21.0305   19.2591 H   0  0  0  0  0  0
  -27.2552  -24.8166   20.9982 H   0  0  0  0  0  0
  -28.8038  -25.1256   21.6756 H   0  0  0  0  0  0
  -28.7991  -15.5555   20.3843 H   0  0  0  0  0  0
  -28.7022  -22.4795   21.6597 H   0  0  0  0  0  0
  1 25  1  0  0  0
  1 30  2  0  0  0
  1 84  1  0  0  0
  2  3  1  0  0  0
  2 25  1  0  0  0
  2 87  1  0  0  0
  2 88  1  0  0  0
  3  4  1  0  0  0
  3 89  1  0  0  0
  3 90  1  0  0  0
  4  5  1  0  0  0
  4 91  1  0  0  0
  4 92  1  0  0  0
  5  6  1  0  0  0
  5 26  1  0  0  0
  5 93  1  0  0  0
  6 25  1  0  0  0
  6 94  1  0  0  0
  6 95  1  0  0  0
  7  8  2  0  0  0
  7 26  1  0  0  0
  7 29  1  0  0  0
  8  9  1  0  0  0
  8 22  1  0  0  0
  9 10  1  0  0  0
  9 27  2  0  0  0
 10 11  2  0  0  0
 10 15  1  0  0  0
 11 12  1  0  0  0
 11 96  1  0  0  0
 12 13  2  0  0  0
 12 97  1  0  0  0
 13 14  1  0  0  0
 13 31  1  0  0  0
 14 15  2  0  0  0
 14 98  1  0  0  0
 15 99  1  0  0  0
 16 17  2  0  0  0
 16 21  1  0  0  0
 16 31  1  0  0  0
 17 18  1  0  0  0
 17100  1  0  0  0
 18 19  2  0  0  0
 18101  1  0  0  0
 19 20  1  0  0  0
 19 24  1  0  0  0
 20 21  2  0  0  0
 20102  1  0  0  0
 21 23  1  0  0  0
 22 28  1  0  0  0
 22 32  2  0  0  0
 26 27  1  0  0  0
 28103  1  0  0  0
 28104  1  0  0  0
 29105  1  0  0  0
 29106  1  0  0  0
 33 34  1  0  0  0
 33 66  1  0  0  0
 33 70  2  0  0  0
 34 36  1  0  0  0
 34 59  1  0  0  0
 34107  1  0  0  0
 35 44  2  0  0  0
 35 45  1  0  0  0
 35 68  1  0  0  0
 36 56  1  0  0  0
 36108  1  0  0  0
 37 39  1  0  0  0
 37 47  1  0  0  0
 37 66  1  0  0  0
 37109  1  0  0  0
 38 43  2  0  0  0
 38 46  1  0  0  0
 38 47  1  0  0  0
 39 64  1  0  0  0
 39 67  2  0  0  0
 40 52  1  0  0  0
 40 53  2  0  0  0
 40 58  1  0  0  0
 41110  1  0  0  0
 41111  1  0  0  0
 41112  1  0  0  0
 41 48  1  0  0  0
 42 43  1  0  0  0
 42 66  1  0  0  0
 42113  1  0  0  0
 42114  1  0  0  0
 43 44  1  0  0  0
 44115  1  0  0  0
 45 46  2  0  0  0
 45116  1  0  0  0
 46117  1  0  0  0
 47118  1  0  0  0
 47119  1  0  0  0
 48 56  1  0  0  0
 48 65  1  0  0  0
 48120  1  0  0  0
 49 50  1  0  0  0
 49 53  1  0  0  0
 49 64  1  0  0  0
 49121  1  0  0  0
 50 51  1  0  0  0
 50122  1  0  0  0
 50123  1  0  0  0
 51 52  1  0  0  0
 51124  1  0  0  0
 51125  1  0  0  0
 52126  1  0  0  0
 52127  1  0  0  0
 53 54  1  0  0  0
 54 55  2  0  0  0
 54128  1  0  0  0
 55 57  1  0  0  0
 55129  1  0  0  0
 56 69  2  0  0  0
 57 58  2  0  0  0
 57130  1  0  0  0
 58131  1  0  0  0
 59 60  1  0  0  0
 59 61  1  0  0  0
 59 62  1  0  0  0
 60132  1  0  0  0
 60133  1  0  0  0
 60134  1  0  0  0
 61135  1  0  0  0
 61136  1  0  0  0
 61137  1  0  0  0
 62138  1  0  0  0
 62139  1  0  0  0
 62140  1  0  0  0
 63 65  1  0  0  0
 63141  1  0  0  0
 63142  1  0  0  0
 63143  1  0  0  0
 64144  1  0  0  0
 65145  1  0  0  0
 68 83  1  0  0  0
 71 73  2  0  0  0
 71 75  1  0  0  0
 71146  1  0  0  0
 72 74  1  0  0  0
 72 76  2  0  0  0
 72147  1  0  0  0
 73 76  1  0  0  0
 73 82  1  0  0  0
 74 75  2  0  0  0
 74 81  1  0  0  0
 75 84  1  0  0  0
 76 86  1  0  0  0
 77 78  1  0  0  0
 77 79  1  0  0  0
 77148  1  0  0  0
 77149  1  0  0  0
 78 80  1  0  0  0
 78150  1  0  0  0
 78151  1  0  0  0
 79 85  1  0  0  0
 79152  1  0  0  0
 79153  1  0  0  0
 80 83  1  0  0  0
 80 85  1  0  0  0
 80154  1  0  0  0
 81155  1  0  0  0
 81156  1  0  0  0
 81157  1  0  0  0
 82158  1  0  0  0
 82159  1  0  0  0
 82 85  1  0  0  0
 83160  1  0  0  0
 83161  1  0  0  0
 84162  1  0  0  0
 85163  1  0  0  0
M  CHG  1  85   1
M  ISO  4   1 100  68 101  83 101  84 100
M  END
> <chiral flag>
0

> <version>
0

> <s_m_source_file>
/data/baiqing/PycharmProjects/Reinvent-master-3.2/result/LINK_invent/BTK/process_docking_weight1_custom_product_contain_oxygen_bond_distance_aromatic_linkinvent_7_9_3/rearranged_h_0028.sdf

> <i_m_source_file_index>
93

> <r_mmod_Potential_Energy-OPLS-2005>
172.094940185547

> <r_mmod_Stretch_Energy-OPLS-2005>
127.148994445801

> <r_mmod_Bend_Energy-OPLS-2005>
185.762771606445

> <r_mmod_Torsional_Energy-OPLS-2005>
343.017974853516

> <r_mmod_Improper_Torsional_Energy-OPLS-2005>
10.8747081756592

> <r_mmod_Van_der_Waal_Energy-OPLS-2005>
133.520248413086

> <r_mmod_Electrostatic_Energy-OPLS-2005>
-292.595336914062

> <r_mmod_Solvation_Energy-OPLS-2005>
-411.953552246094

> <b_mmod_Minimization_Converged-OPLS-2005>
0

> <r_mmod_RMS_Derivative-OPLS-2005>
3.49848961830139

$$$$
93
                    3D
 Structure written by MMmdl.
152161  0  0  1  0            999 V2000
  -30.5130  -14.9316   20.4248 C   0  0  0  0  0  0
  -30.4497  -12.5727   19.4986 C   0  0  0  0  0  0
  -29.5255  -12.5336   18.2575 C   0  0  0  0  0  0
  -28.0561  -12.3225   18.6718 C   0  0  0  0  0  0
  -27.6364  -13.2422   19.8477 C   0  0  2  0  0  0
  -28.6792  -13.2350   20.9866 C   0  0  0  0  0  0
  -25.2483  -13.8202   20.5706 C   0  0  0  0  0  0
  -24.1786  -13.0436   20.9210 C   0  0  0  0  0  0
  -24.6394  -11.6919   20.8745 C   0  0  0  0  0  0
  -23.9074  -10.4295   21.0405 C   0  0  0  0  0  0
  -24.3621   -9.4210   21.9183 C   0  0  0  0  0  0
  -23.6294   -8.2246   22.0755 C   0  0  0  0  0  0
  -22.4277   -8.0284   21.3545 C   0  0  0  0  0  0
  -21.9913   -9.0259   20.4648 C   0  0  0  0  0  0
  -22.7244  -10.2136   20.3057 C   0  0  0  0  0  0
  -21.6854   -6.0737   22.5279 C   0  0  0  0  0  0
  -21.4016   -6.5639   23.8211 C   0  0  0  0  0  0
  -21.3659   -5.6791   24.9172 C   0  0  0  0  0  0
  -21.6044   -4.3053   24.7224 C   0  0  0  0  0  0
  -21.8818   -3.8146   23.4344 C   0  0  0  0  0  0
  -21.9194   -4.6964   22.3400 C   0  0  0  0  0  0
  -22.7807  -13.5215   21.1869 C   0  0  0  0  0  0
  -22.1661   -4.2150   21.0976 F   0  0  0  0  0  0
  -21.5627   -3.4537   25.7737 F   0  0  0  0  0  0
  -29.9615  -13.6524   20.4016 N   0  0  0  0  0  0
  -26.2915  -12.9426   20.3273 N   0  0  0  0  0  0
  -25.9330  -11.6560   20.5744 N   0  0  0  0  0  0
  -22.0456  -12.8209   22.0431 N   0  0  0  0  0  0
  -25.4151  -15.1928   20.4148 N   0  0  0  0  0  0
  -31.7005  -15.0514   20.1008 O   0  0  0  0  0  0
  -21.6641   -6.8881   21.4241 O   0  0  0  0  0  0
  -22.3489  -14.5520   20.6717 O   0  0  0  0  0  0
  -24.6430  -31.8434   23.1877 C   0  0  0  0  0  0
  -25.9203  -32.4689   23.8266 C   0  0  1  0  0  0
  -27.2200  -27.1344   20.1426 C   0  0  0  0  0  0
  -25.5951  -33.8496   24.2182 N   0  0  0  0  0  0
  -23.4461  -30.4625   21.5334 C   0  0  2  0  0  0
  -24.8949  -28.8890   20.1080 C   0  0  0  0  0  0
  -22.7563  -29.4540   22.4860 C   0  0  0  0  0  0
  -18.0305  -28.1394   22.8476 C   0  0  0  0  0  0
  -24.1492  -36.7254   23.2642 C   0  0  0  0  0  0
  -26.0019  -30.7155   21.3872 C   0  0  0  0  0  0
  -26.0710  -29.3270   20.7276 C   0  0  0  0  0  0
  -27.2297  -28.4645   20.7300 C   0  0  0  0  0  0
  -26.0143  -26.7975   19.4860 C   0  0  0  0  0  0
  -24.8798  -27.6381   19.4737 C   0  0  0  0  0  0
  -23.6715  -29.7913   20.1524 C   0  0  0  0  0  0
  -25.4124  -36.3027   24.0313 C   0  0  1  0  0  0
  -20.5915  -28.3718   23.1237 C   0  0  2  0  0  0
  -20.6788  -26.9421   22.5404 C   0  0  0  0  0  0
  -19.5762  -26.6379   21.5212 C   0  0  0  0  0  0
  -18.1943  -26.7931   22.1623 C   0  0  0  0  0  0
  -19.1561  -28.8875   23.2848 C   0  0  0  0  0  0
  -18.9476  -30.1471   23.8873 C   0  0  0  0  0  0
  -17.6473  -30.6590   24.0557 C   0  0  0  0  0  0
  -25.9075  -34.9403   23.5057 C   0  0  0  0  0  0
  -16.5365  -29.9082   23.6335 C   0  0  0  0  0  0
  -16.7289  -28.6501   23.0356 C   0  0  0  0  0  0
  -26.4526  -31.6563   25.0713 C   0  0  0  0  0  0
  -25.3709  -31.3757   26.1410 C   0  0  0  0  0  0
  -27.0396  -30.2957   24.6305 C   0  0  0  0  0  0
  -27.6049  -32.4337   25.7501 C   0  0  0  0  0  0
  -27.5574  -37.1783   24.8464 C   0  0  0  0  0  0
  -21.4256  -29.3043   22.3610 N   0  0  0  0  0  0
  -26.4286  -37.3740   23.9405 N   0  0  0  0  0  0
  -24.7168  -31.0287   22.0911 N   0  0  0  0  0  0
  -23.4208  -28.8090   23.3011 O   0  0  0  0  0  0
  -28.2985  -26.1791   20.2412 O   0  0  0  0  0  0
  -26.5662  -34.8901   22.4638 O   0  0  0  0  0  0
  -23.5551  -32.1314   23.7098 O   0  0  0  0  0  0
  -30.4579  -19.8560   19.7190 C   0  0  0  0  0  0
  -30.6159  -18.4144   19.8654 C   0  0  0  0  0  0
  -28.4083  -19.7936   20.8641 C   0  0  0  0  0  0
  -29.3407  -20.6515   20.1882 C   0  0  0  0  0  0
  -29.6582  -17.5668   20.5087 C   0  0  0  0  0  0
  -28.5525  -18.3487   21.0022 C   0  0  0  0  0  0
  -29.7644  -22.8555   18.9201 C   0  0  0  0  0  0
  -29.5088  -24.3852   18.9022 C   0  0  0  0  0  0
  -28.3926  -23.2913   20.6728 C   0  0  0  0  0  0
  -28.2927  -24.6819   19.7890 C   0  0  1  0  0  0
  -29.1827  -22.1785   19.9444 N   0  0  0  0  0  0
  -29.6652  -16.0399   20.6681 N   0  0  0  0  0  0
  -30.4501  -22.3459   18.0283 O   0  0  0  0  0  0
  -27.5610  -17.6760   21.6346 F   0  0  0  0  0  0
  -31.4825  -12.7400   19.1886 H   0  0  0  0  0  0
  -30.4462  -11.6113   20.0148 H   0  0  0  0  0  0
  -29.8391  -11.7427   17.5748 H   0  0  0  0  0  0
  -29.6184  -13.4696   17.7047 H   0  0  0  0  0  0
  -27.9445  -11.2780   18.9648 H   0  0  0  0  0  0
  -27.3950  -12.4715   17.8173 H   0  0  0  0  0  0
  -27.6095  -14.2515   19.4361 H   0  0  0  0  0  0
  -28.7590  -12.2449   21.4381 H   0  0  0  0  0  0
  -28.3801  -13.9120   21.7883 H   0  0  0  0  0  0
  -25.2764   -9.5682   22.4762 H   0  0  0  0  0  0
  -23.9999   -7.4637   22.7473 H   0  0  0  0  0  0
  -21.0843   -8.8780   19.8955 H   0  0  0  0  0  0
  -22.3701  -10.9676   19.6169 H   0  0  0  0  0  0
  -21.2010   -7.6148   23.9715 H   0  0  0  0  0  0
  -21.1482   -6.0521   25.9074 H   0  0  0  0  0  0
  -22.0597   -2.7609   23.2844 H   0  0  0  0  0  0
  -22.4075  -11.9875   22.4824 H   0  0  0  0  0  0
  -21.1076  -13.1238   22.2639 H   0  0  0  0  0  0
  -24.6514  -15.8456   20.5522 H   0  0  0  0  0  0
  -26.2688  -15.6466   20.1181 H   0  0  0  0  0  0
  -26.7267  -32.5288   23.0992 H   0  0  0  0  0  0
  -25.0068  -33.9610   25.0310 H   0  0  0  0  0  0
  -22.7485  -31.2885   21.3796 H   0  0  0  0  0  0
  -23.3756  -35.9584   23.3292 H   0  0  0  0  0  0
  -24.3575  -36.8901   22.2059 H   0  0  0  0  0  0
  -23.7248  -37.6446   23.6692 H   0  0  0  0  0  0
  -26.1600  -31.4705   20.6159 H   0  0  0  0  0  0
  -26.8715  -30.7634   22.0311 H   0  0  0  0  0  0
  -28.1249  -28.7948   21.2378 H   0  0  0  0  0  0
  -25.8936  -25.8470   18.9941 H   0  0  0  0  0  0
  -23.9804  -27.2975   18.9793 H   0  0  0  0  0  0
  -23.8069  -30.5658   19.3966 H   0  0  0  0  0  0
  -22.7859  -29.2332   19.8428 H   0  0  0  0  0  0
  -25.1314  -36.1850   25.0805 H   0  0  0  0  0  0
  -21.0007  -28.3307   24.1359 H   0  0  0  0  0  0
  -20.5682  -26.2329   23.3621 H   0  0  0  0  0  0
  -21.6653  -26.7425   22.1202 H   0  0  0  0  0  0
  -19.6921  -25.6283   21.1257 H   0  0  0  0  0  0
  -19.6698  -27.3176   20.6731 H   0  0  0  0  0  0
  -17.4210  -26.6673   21.4030 H   0  0  0  0  0  0
  -18.0343  -26.0081   22.9029 H   0  0  0  0  0  0
  -19.7953  -30.7295   24.2230 H   0  0  0  0  0  0
  -17.5026  -31.6268   24.5162 H   0  0  0  0  0  0
  -15.5363  -30.2975   23.7674 H   0  0  0  0  0  0
  -15.8690  -28.0811   22.7084 H   0  0  0  0  0  0
  -24.5878  -30.7120   25.7727 H   0  0  0  0  0  0
  -24.8914  -32.2945   26.4796 H   0  0  0  0  0  0
  -25.7988  -30.8946   27.0213 H   0  0  0  0  0  0
  -26.3017  -29.6673   24.1303 H   0  0  0  0  0  0
  -27.3995  -29.7264   25.4886 H   0  0  0  0  0  0
  -27.8930  -30.4192   23.9633 H   0  0  0  0  0  0
  -27.2629  -33.3650   26.2031 H   0  0  0  0  0  0
  -28.3883  -32.6882   25.0349 H   0  0  0  0  0  0
  -28.0694  -31.8499   26.5459 H   0  0  0  0  0  0
  -28.2582  -38.0088   24.7509 H   0  0  0  0  0  0
  -28.1081  -36.2617   24.6293 H   0  0  0  0  0  0
  -27.2291  -37.1430   25.8866 H   0  0  0  0  0  0
  -20.9466  -29.8754   21.6786 H   0  0  0  0  0  0
  -26.0151  -38.2806   24.1409 H   0  0  0  0  0  0
  -31.2638  -20.3592   19.2051 H   0  0  0  0  0  0
  -31.5019  -17.9575   19.4482 H   0  0  0  0  0  0
  -27.5159  -20.2428   21.2743 H   0  0  0  0  0  0
  -29.3597  -24.7459   17.8845 H   0  0  0  0  0  0
  -30.3958  -24.8762   19.3017 H   0  0  0  0  0  0
  -27.3972  -22.9342   20.9375 H   0  0  0  0  0  0
  -28.9090  -23.4982   21.6106 H   0  0  0  0  0  0
  -27.4373  -24.5312   19.1373 H   0  0  0  0  0  0
  -28.7716  -15.7151   21.0060 H   0  0  0  0  0  0
  1 25  1  0  0  0
  1 30  2  0  0  0
  1 82  1  0  0  0
  2  3  1  0  0  0
  2 25  1  0  0  0
  2 85  1  0  0  0
  2 86  1  0  0  0
  3  4  1  0  0  0
  3 87  1  0  0  0
  3 88  1  0  0  0
  4  5  1  0  0  0
  4 89  1  0  0  0
  4 90  1  0  0  0
  5  6  1  0  0  0
  5 26  1  0  0  0
  5 91  1  0  0  0
  6 25  1  0  0  0
  6 92  1  0  0  0
  6 93  1  0  0  0
  7  8  2  0  0  0
  7 26  1  0  0  0
  7 29  1  0  0  0
  8  9  1  0  0  0
  8 22  1  0  0  0
  9 10  1  0  0  0
  9 27  2  0  0  0
 10 11  2  0  0  0
 10 15  1  0  0  0
 11 12  1  0  0  0
 11 94  1  0  0  0
 12 13  2  0  0  0
 12 95  1  0  0  0
 13 14  1  0  0  0
 13 31  1  0  0  0
 14 15  2  0  0  0
 14 96  1  0  0  0
 15 97  1  0  0  0
 16 17  2  0  0  0
 16 21  1  0  0  0
 16 31  1  0  0  0
 17 18  1  0  0  0
 17 98  1  0  0  0
 18 19  2  0  0  0
 18 99  1  0  0  0
 19 20  1  0  0  0
 19 24  1  0  0  0
 20 21  2  0  0  0
 20100  1  0  0  0
 21 23  1  0  0  0
 22 28  1  0  0  0
 22 32  2  0  0  0
 26 27  1  0  0  0
 28101  1  0  0  0
 28102  1  0  0  0
 29103  1  0  0  0
 29104  1  0  0  0
 33 34  1  0  0  0
 33 66  1  0  0  0
 33 70  2  0  0  0
 34 36  1  0  0  0
 34 59  1  0  0  0
 34105  1  0  0  0
 35 44  2  0  0  0
 35 45  1  0  0  0
 35 68  1  0  0  0
 36 56  1  0  0  0
 36106  1  0  0  0
 37 39  1  0  0  0
 37 47  1  0  0  0
 37 66  1  0  0  0
 37107  1  0  0  0
 38 43  2  0  0  0
 38 46  1  0  0  0
 38 47  1  0  0  0
 39 64  1  0  0  0
 39 67  2  0  0  0
 40 52  1  0  0  0
 40 53  2  0  0  0
 40 58  1  0  0  0
 41108  1  0  0  0
 41109  1  0  0  0
 41110  1  0  0  0
 41 48  1  0  0  0
 42 43  1  0  0  0
 42 66  1  0  0  0
 42111  1  0  0  0
 42112  1  0  0  0
 43 44  1  0  0  0
 44113  1  0  0  0
 45 46  2  0  0  0
 45114  1  0  0  0
 46115  1  0  0  0
 47116  1  0  0  0
 47117  1  0  0  0
 48 56  1  0  0  0
 48 65  1  0  0  0
 48118  1  0  0  0
 49 50  1  0  0  0
 49 53  1  0  0  0
 49 64  1  0  0  0
 49119  1  0  0  0
 50 51  1  0  0  0
 50120  1  0  0  0
 50121  1  0  0  0
 51 52  1  0  0  0
 51122  1  0  0  0
 51123  1  0  0  0
 52124  1  0  0  0
 52125  1  0  0  0
 53 54  1  0  0  0
 54 55  2  0  0  0
 54126  1  0  0  0
 55 57  1  0  0  0
 55127  1  0  0  0
 56 69  2  0  0  0
 57 58  2  0  0  0
 57128  1  0  0  0
 58129  1  0  0  0
 59 60  1  0  0  0
 59 61  1  0  0  0
 59 62  1  0  0  0
 60130  1  0  0  0
 60131  1  0  0  0
 60132  1  0  0  0
 61133  1  0  0  0
 61134  1  0  0  0
 61135  1  0  0  0
 62136  1  0  0  0
 62137  1  0  0  0
 62138  1  0  0  0
 63 65  1  0  0  0
 63139  1  0  0  0
 63140  1  0  0  0
 63141  1  0  0  0
 64142  1  0  0  0
 65143  1  0  0  0
 68 80  1  0  0  0
 71 72  2  0  0  0
 71 74  1  0  0  0
 71144  1  0  0  0
 72 75  1  0  0  0
 72145  1  0  0  0
 73 74  2  0  0  0
 73 76  1  0  0  0
 73146  1  0  0  0
 74 81  1  0  0  0
 75 76  2  0  0  0
 75 82  1  0  0  0
 76 84  1  0  0  0
 77 78  1  0  0  0
 77 81  1  0  0  0
 77 83  2  0  0  0
 78 80  1  0  0  0
 78147  1  0  0  0
 78148  1  0  0  0
 79 80  1  0  0  0
 79 81  1  0  0  0
 79149  1  0  0  0
 79150  1  0  0  0
 80151  1  0  0  0
 82152  1  0  0  0
M  ISO  4   1 100  68 101  80 101  82 100
M  END
> <chiral flag>
0

> <version>
0

> <s_m_source_file>
/data/baiqing/PycharmProjects/Reinvent-master-3.2/result/LINK_invent/BTK/process_docking_weight1_custom_product_contain_oxygen_bond_distance_aromatic_linkinvent_7_9_3/rearranged_h_0028.sdf

> <i_m_source_file_index>
94

> <r_mmod_Potential_Energy-OPLS-2005>
476.735198974609

> <r_mmod_Stretch_Energy-OPLS-2005>
225.532958984375

> <r_mmod_Bend_Energy-OPLS-2005>
297.695953369141

> <r_mmod_Torsional_Energy-OPLS-2005>
254.663192749023

> <r_mmod_Improper_Torsional_Energy-OPLS-2005>
3.3829607963562

> <r_mmod_Van_der_Waal_Energy-OPLS-2005>
131.921859741211

> <r_mmod_Electrostatic_Energy-OPLS-2005>
-403.573669433594

> <r_mmod_Solvation_Energy-OPLS-2005>
-217.200378417969

> <b_mmod_Minimization_Converged-OPLS-2005>
0

> <r_mmod_RMS_Derivative-OPLS-2005>
0.449558764696121

$$$$
94
                    3D
 Structure written by MMmdl.
164173  0  0  1  0            999 V2000
  -30.5899  -14.8352   20.3705 C   0  0  0  0  0  0
  -30.4449  -12.4883   19.4823 C   0  0  0  0  0  0
  -29.5188  -12.4162   18.2475 C   0  0  0  0  0  0
  -28.0404  -12.2906   18.6651 C   0  0  0  0  0  0
  -27.6346  -13.2346   19.8280 C   0  0  2  0  0  0
  -28.6842  -13.2454   20.9563 C   0  0  0  0  0  0
  -25.2514  -13.8232   20.5702 C   0  0  0  0  0  0
  -24.1782  -13.0485   20.9189 C   0  0  0  0  0  0
  -24.6351  -11.6970   20.8734 C   0  0  0  0  0  0
  -23.9034  -10.4346   21.0411 C   0  0  0  0  0  0
  -24.3591   -9.4256   21.9193 C   0  0  0  0  0  0
  -23.6284   -8.2288   22.0767 C   0  0  0  0  0  0
  -22.4273   -8.0299   21.3551 C   0  0  0  0  0  0
  -21.9908   -9.0270   20.4651 C   0  0  0  0  0  0
  -22.7214  -10.2160   20.3050 C   0  0  0  0  0  0
  -21.6829   -6.0736   22.5263 C   0  0  0  0  0  0
  -21.4013   -6.5634   23.8200 C   0  0  0  0  0  0
  -21.3673   -5.6780   24.9156 C   0  0  0  0  0  0
  -21.6037   -4.3035   24.7201 C   0  0  0  0  0  0
  -21.8813   -3.8134   23.4316 C   0  0  0  0  0  0
  -21.9199   -4.6966   22.3377 C   0  0  0  0  0  0
  -22.7815  -13.5276   21.1864 C   0  0  0  0  0  0
  -22.1688   -4.2156   21.0949 F   0  0  0  0  0  0
  -21.5643   -3.4525   25.7712 F   0  0  0  0  0  0
  -29.9668  -13.6014   20.3374 N   0  0  0  0  0  0
  -26.2912  -12.9425   20.3241 N   0  0  0  0  0  0
  -25.9293  -11.6575   20.5770 N   0  0  0  0  0  0
  -22.0449  -12.8244   22.0403 N   0  0  0  0  0  0
  -25.4235  -15.1953   20.4183 N   0  0  0  0  0  0
  -31.8178  -14.8762   20.2400 O   0  0  0  0  0  0
  -21.6643   -6.8880   21.4230 O   0  0  0  0  0  0
  -22.3520  -14.5602   20.6743 O   0  0  0  0  0  0
  -24.6397  -31.8479   23.1918 C   0  0  0  0  0  0
  -25.9186  -32.4706   23.8299 C   0  0  1  0  0  0
  -27.2302  -27.1960   20.1398 C   0  0  0  0  0  0
  -25.5974  -33.8501   24.2225 N   0  0  0  0  0  0
  -23.4429  -30.4667   21.5384 C   0  0  2  0  0  0
  -24.8886  -28.8961   20.1116 C   0  0  0  0  0  0
  -22.7546  -29.4571   22.4897 C   0  0  0  0  0  0
  -18.0306  -28.1396   22.8453 C   0  0  0  0  0  0
  -24.1498  -36.7292   23.2648 C   0  0  0  0  0  0
  -25.9911  -30.7370   21.3842 C   0  0  0  0  0  0
  -26.0627  -29.3525   20.7255 C   0  0  0  0  0  0
  -27.2309  -28.5152   20.7278 C   0  0  0  0  0  0
  -26.0270  -26.8164   19.5041 C   0  0  0  0  0  0
  -24.8779  -27.6377   19.4898 C   0  0  0  0  0  0
  -23.6636  -29.7928   20.1576 C   0  0  0  0  0  0
  -25.4129  -36.3058   24.0315 C   0  0  1  0  0  0
  -20.5921  -28.3721   23.1240 C   0  0  2  0  0  0
  -20.6810  -26.9437   22.5391 C   0  0  0  0  0  0
  -19.5781  -26.6383   21.5204 C   0  0  0  0  0  0
  -18.1951  -26.7940   22.1591 C   0  0  0  0  0  0
  -19.1557  -28.8870   23.2825 C   0  0  0  0  0  0
  -18.9473  -30.1480   23.8850 C   0  0  0  0  0  0
  -17.6468  -30.6596   24.0546 C   0  0  0  0  0  0
  -25.9054  -34.9416   23.5071 C   0  0  0  0  0  0
  -16.5354  -29.9091   23.6336 C   0  0  0  0  0  0
  -16.7292  -28.6504   23.0349 C   0  0  0  0  0  0
  -26.4529  -31.6568   25.0724 C   0  0  0  0  0  0
  -25.3702  -31.3732   26.1415 C   0  0  0  0  0  0
  -27.0436  -30.2979   24.6317 C   0  0  0  0  0  0
  -27.6063  -32.4361   25.7504 C   0  0  0  0  0  0
  -27.5601  -37.1797   24.8451 C   0  0  0  0  0  0
  -21.4248  -29.3072   22.3638 N   0  0  0  0  0  0
  -26.4303  -37.3757   23.9397 N   0  0  0  0  0  0
  -24.7107  -31.0350   22.0964 N   0  0  0  0  0  0
  -23.4186  -28.8096   23.3035 O   0  0  0  0  0  0
  -28.3278  -26.2854   20.2114 O   0  0  0  0  0  0
  -26.5614  -34.8905   22.4636 O   0  0  0  0  0  0
  -23.5525  -32.1355   23.7147 O   0  0  0  0  0  0
  -30.9354  -21.3912   19.5103 C   0  0  0  0  0  0
  -31.7661  -20.2601   19.4147 C   0  0  0  0  0  0
  -29.2151  -20.0265   20.4630 C   0  0  0  0  0  0
  -30.0511  -18.8062   20.3663 C   0  0  0  0  0  0
  -29.6286  -21.3931   20.0629 C   0  0  0  0  0  0
  -31.3638  -18.9891   19.8700 C   0  0  0  0  0  0
  -27.9804  -23.6253   20.6493 C   0  0  0  0  0  0
  -27.0643  -23.5322   21.6240 C   0  0  0  0  0  0
  -29.5960  -24.0027   19.5865 C   0  0  0  0  0  0
  -28.2683  -24.8432   19.7065 C   0  0  2  0  0  0
  -27.8075  -19.8547   21.0092 C   0  0  0  0  0  0
  -29.4846  -16.2603   18.7223 C   0  0  0  0  0  0
  -33.6284  -18.1860   19.9703 C   0  0  0  0  0  0
  -29.7017  -17.3209   20.9292 C   0  0  0  0  0  0
  -28.9474  -22.7546   20.0998 N   0  0  0  0  0  0
  -29.8234  -15.9970   20.1289 N   0  0  0  0  0  0
  -32.2280  -17.9134   19.8666 O   0  0  0  0  0  0
  -31.4808  -12.6301   19.1623 H   0  0  0  0  0  0
  -30.4227  -11.5496   20.0423 H   0  0  0  0  0  0
  -29.7966  -11.5562   17.6380 H   0  0  0  0  0  0
  -29.6612  -13.2809   17.6047 H   0  0  0  0  0  0
  -27.8889  -11.2566   18.9756 H   0  0  0  0  0  0
  -27.3853  -12.4405   17.8047 H   0  0  0  0  0  0
  -27.6034  -14.2363   19.4002 H   0  0  0  0  0  0
  -28.7371  -12.2762   21.4544 H   0  0  0  0  0  0
  -28.4137  -13.9767   21.7193 H   0  0  0  0  0  0
  -25.2733   -9.5763   22.4764 H   0  0  0  0  0  0
  -23.9983   -7.4672   22.7491 H   0  0  0  0  0  0
  -21.0842   -8.8788   19.8952 H   0  0  0  0  0  0
  -22.3658  -10.9701   19.6165 H   0  0  0  0  0  0
  -21.2007   -7.6140   23.9716 H   0  0  0  0  0  0
  -21.1514   -6.0502   25.9062 H   0  0  0  0  0  0
  -22.0575   -2.7585   23.2815 H   0  0  0  0  0  0
  -22.4036  -11.9866   22.4730 H   0  0  0  0  0  0
  -21.1108  -13.1345   22.2661 H   0  0  0  0  0  0
  -24.6623  -15.8548   20.5290 H   0  0  0  0  0  0
  -26.2852  -15.6311   20.1159 H   0  0  0  0  0  0
  -26.7266  -32.5313   23.1046 H   0  0  0  0  0  0
  -25.0169  -33.9576   25.0419 H   0  0  0  0  0  0
  -22.7450  -31.2920   21.3856 H   0  0  0  0  0  0
  -23.3757  -35.9617   23.3257 H   0  0  0  0  0  0
  -24.3613  -36.8983   22.2077 H   0  0  0  0  0  0
  -23.7231  -37.6464   23.6713 H   0  0  0  0  0  0
  -26.1440  -31.4949   20.6132 H   0  0  0  0  0  0
  -26.8617  -30.7842   22.0272 H   0  0  0  0  0  0
  -28.1280  -28.8559   21.2257 H   0  0  0  0  0  0
  -25.9360  -25.8482   19.0375 H   0  0  0  0  0  0
  -23.9748  -27.2795   19.0137 H   0  0  0  0  0  0
  -23.8000  -30.5683   19.4025 H   0  0  0  0  0  0
  -22.7759  -29.2349   19.8502 H   0  0  0  0  0  0
  -25.1311  -36.1910   25.0798 H   0  0  0  0  0  0
  -20.9988  -28.3342   24.1371 H   0  0  0  0  0  0
  -20.5756  -26.2327   23.3600 H   0  0  0  0  0  0
  -21.6679  -26.7486   22.1180 H   0  0  0  0  0  0
  -19.6945  -25.6288   21.1270 H   0  0  0  0  0  0
  -19.6740  -27.3141   20.6709 H   0  0  0  0  0  0
  -17.4252  -26.6708   21.3970 H   0  0  0  0  0  0
  -18.0287  -26.0067   22.8964 H   0  0  0  0  0  0
  -19.7966  -30.7278   24.2203 H   0  0  0  0  0  0
  -17.5044  -31.6269   24.5189 H   0  0  0  0  0  0
  -15.5342  -30.2955   23.7725 H   0  0  0  0  0  0
  -15.8704  -28.0809   22.7079 H   0  0  0  0  0  0
  -24.5950  -30.6981   25.7769 H   0  0  0  0  0  0
  -24.8754  -32.2860   26.4734 H   0  0  0  0  0  0
  -25.7987  -30.9035   27.0276 H   0  0  0  0  0  0
  -26.3076  -29.6622   24.1376 H   0  0  0  0  0  0
  -27.4143  -29.7360   25.4902 H   0  0  0  0  0  0
  -27.8923  -30.4249   23.9593 H   0  0  0  0  0  0
  -27.2721  -33.3775   26.1889 H   0  0  0  0  0  0
  -28.3956  -32.6739   25.0356 H   0  0  0  0  0  0
  -28.0620  -31.8588   26.5560 H   0  0  0  0  0  0
  -28.2583  -38.0146   24.7581 H   0  0  0  0  0  0
  -28.1164  -36.2671   24.6210 H   0  0  0  0  0  0
  -27.2310  -37.1363   25.8855 H   0  0  0  0  0  0
  -20.9435  -29.8772   21.6814 H   0  0  0  0  0  0
  -26.0194  -38.2832   24.1399 H   0  0  0  0  0  0
  -31.3757  -22.3039   19.1402 H   0  0  0  0  0  0
  -32.7454  -20.4004   18.9832 H   0  0  0  0  0  0
  -26.4153  -24.3649   21.8473 H   0  0  0  0  0  0
  -26.9506  -22.6350   22.2124 H   0  0  0  0  0  0
  -30.3935  -24.3610   20.2439 H   0  0  0  0  0  0
  -29.9474  -23.9169   18.5585 H   0  0  0  0  0  0
  -27.7738  -24.8068   18.7375 H   0  0  0  0  0  0
  -27.2757  -19.0909   20.4424 H   0  0  0  0  0  0
  -27.2224  -20.7688   20.9302 H   0  0  0  0  0  0
  -27.8280  -19.5599   22.0595 H   0  0  0  0  0  0
  -28.5173  -16.7576   18.6410 H   0  0  0  0  0  0
  -29.4345  -15.3598   18.1147 H   0  0  0  0  0  0
  -30.2304  -16.9052   18.2545 H   0  0  0  0  0  0
  -34.1703  -17.2686   20.2061 H   0  0  0  0  0  0
  -33.8434  -18.8948   20.7741 H   0  0  0  0  0  0
  -34.0352  -18.5758   19.0363 H   0  0  0  0  0  0
  -28.6766  -17.3416   21.3053 H   0  0  0  0  0  0
  -30.3121  -17.1946   21.8279 H   0  0  0  0  0  0
  1 25  1  0  0  0
  1 30  2  0  0  0
  1 86  1  0  0  0
  2  3  1  0  0  0
  2 25  1  0  0  0
  2 88  1  0  0  0
  2 89  1  0  0  0
  3  4  1  0  0  0
  3 90  1  0  0  0
  3 91  1  0  0  0
  4  5  1  0  0  0
  4 92  1  0  0  0
  4 93  1  0  0  0
  5  6  1  0  0  0
  5 26  1  0  0  0
  5 94  1  0  0  0
  6 25  1  0  0  0
  6 95  1  0  0  0
  6 96  1  0  0  0
  7  8  2  0  0  0
  7 26  1  0  0  0
  7 29  1  0  0  0
  8  9  1  0  0  0
  8 22  1  0  0  0
  9 10  1  0  0  0
  9 27  2  0  0  0
 10 11  2  0  0  0
 10 15  1  0  0  0
 11 12  1  0  0  0
 11 97  1  0  0  0
 12 13  2  0  0  0
 12 98  1  0  0  0
 13 14  1  0  0  0
 13 31  1  0  0  0
 14 15  2  0  0  0
 14 99  1  0  0  0
 15100  1  0  0  0
 16 17  2  0  0  0
 16 21  1  0  0  0
 16 31  1  0  0  0
 17 18  1  0  0  0
 17101  1  0  0  0
 18 19  2  0  0  0
 18102  1  0  0  0
 19 20  1  0  0  0
 19 24  1  0  0  0
 20 21  2  0  0  0
 20103  1  0  0  0
 21 23  1  0  0  0
 22 28  1  0  0  0
 22 32  2  0  0  0
 26 27  1  0  0  0
 28104  1  0  0  0
 28105  1  0  0  0
 29106  1  0  0  0
 29107  1  0  0  0
 33 34  1  0  0  0
 33 66  1  0  0  0
 33 70  2  0  0  0
 34 36  1  0  0  0
 34 59  1  0  0  0
 34108  1  0  0  0
 35 44  2  0  0  0
 35 45  1  0  0  0
 35 68  1  0  0  0
 36 56  1  0  0  0
 36109  1  0  0  0
 37 39  1  0  0  0
 37 47  1  0  0  0
 37 66  1  0  0  0
 37110  1  0  0  0
 38 43  2  0  0  0
 38 46  1  0  0  0
 38 47  1  0  0  0
 39 64  1  0  0  0
 39 67  2  0  0  0
 40 52  1  0  0  0
 40 53  2  0  0  0
 40 58  1  0  0  0
 41111  1  0  0  0
 41112  1  0  0  0
 41113  1  0  0  0
 41 48  1  0  0  0
 42 43  1  0  0  0
 42 66  1  0  0  0
 42114  1  0  0  0
 42115  1  0  0  0
 43 44  1  0  0  0
 44116  1  0  0  0
 45 46  2  0  0  0
 45117  1  0  0  0
 46118  1  0  0  0
 47119  1  0  0  0
 47120  1  0  0  0
 48 56  1  0  0  0
 48 65  1  0  0  0
 48121  1  0  0  0
 49 50  1  0  0  0
 49 53  1  0  0  0
 49 64  1  0  0  0
 49122  1  0  0  0
 50 51  1  0  0  0
 50123  1  0  0  0
 50124  1  0  0  0
 51 52  1  0  0  0
 51125  1  0  0  0
 51126  1  0  0  0
 52127  1  0  0  0
 52128  1  0  0  0
 53 54  1  0  0  0
 54 55  2  0  0  0
 54129  1  0  0  0
 55 57  1  0  0  0
 55130  1  0  0  0
 56 69  2  0  0  0
 57 58  2  0  0  0
 57131  1  0  0  0
 58132  1  0  0  0
 59 60  1  0  0  0
 59 61  1  0  0  0
 59 62  1  0  0  0
 60133  1  0  0  0
 60134  1  0  0  0
 60135  1  0  0  0
 61136  1  0  0  0
 61137  1  0  0  0
 61138  1  0  0  0
 62139  1  0  0  0
 62140  1  0  0  0
 62141  1  0  0  0
 63 65  1  0  0  0
 63142  1  0  0  0
 63143  1  0  0  0
 63144  1  0  0  0
 64145  1  0  0  0
 65146  1  0  0  0
 68 80  1  0  0  0
 71 72  2  0  0  0
 71 75  1  0  0  0
 71147  1  0  0  0
 72 76  1  0  0  0
 72148  1  0  0  0
 73 74  1  0  0  0
 73 75  2  0  0  0
 73 81  1  0  0  0
 74 76  2  0  0  0
 74 84  1  0  0  0
 75 85  1  0  0  0
 76 87  1  0  0  0
 77 78  2  0  0  0
 77 80  1  0  0  0
 77 85  1  0  0  0
 78149  1  0  0  0
 78150  1  0  0  0
 79 80  1  0  0  0
 79 85  1  0  0  0
 79151  1  0  0  0
 79152  1  0  0  0
 80153  1  0  0  0
 81154  1  0  0  0
 81155  1  0  0  0
 81156  1  0  0  0
 82 86  1  0  0  0
 82157  1  0  0  0
 82158  1  0  0  0
 82159  1  0  0  0
 83 87  1  0  0  0
 83160  1  0  0  0
 83161  1  0  0  0
 83162  1  0  0  0
 84 86  1  0  0  0
 84163  1  0  0  0
 84164  1  0  0  0
M  ISO  4   1 100  68 101  80 101  86 100
M  END
> <chiral flag>
0

> <version>
0

> <s_m_source_file>
/data/baiqing/PycharmProjects/Reinvent-master-3.2/result/LINK_invent/BTK/process_docking_weight1_custom_product_contain_oxygen_bond_distance_aromatic_linkinvent_7_9_3/rearranged_h_0028.sdf

> <i_m_source_file_index>
95

> <r_mmod_Potential_Energy-OPLS-2005>
470.474822998047

> <r_mmod_Stretch_Energy-OPLS-2005>
176.971694946289

> <r_mmod_Bend_Energy-OPLS-2005>
257.586761474609

> <r_mmod_Torsional_Energy-OPLS-2005>
306.576354980469

> <r_mmod_Improper_Torsional_Energy-OPLS-2005>
14.8532524108887

> <r_mmod_Van_der_Waal_Energy-OPLS-2005>
134.112365722656

> <r_mmod_Electrostatic_Energy-OPLS-2005>
-350.176574707031

> <r_mmod_Solvation_Energy-OPLS-2005>
-206.65852355957

> <b_mmod_Minimization_Converged-OPLS-2005>
0

> <r_mmod_RMS_Derivative-OPLS-2005>
4.63504266738892

$$$$
95
                    3D
 Structure written by MMmdl.
158167  0  0  1  0            999 V2000
  -30.6068  -14.7517   20.4486 C   0  0  0  0  0  0
  -30.4351  -12.4512   19.4897 C   0  0  0  0  0  0
  -29.5164  -12.5056   18.2478 C   0  0  0  0  0  0
  -28.0430  -12.3260   18.6596 C   0  0  0  0  0  0
  -27.6456  -13.2315   19.8555 C   0  0  2  0  0  0
  -28.6879  -13.1701   20.9963 C   0  0  0  0  0  0
  -25.2525  -13.8200   20.5700 C   0  0  0  0  0  0
  -24.1810  -13.0448   20.9204 C   0  0  0  0  0  0
  -24.6401  -11.6926   20.8749 C   0  0  0  0  0  0
  -23.9079  -10.4299   21.0408 C   0  0  0  0  0  0
  -24.3626   -9.4208   21.9182 C   0  0  0  0  0  0
  -23.6296   -8.2247   22.0751 C   0  0  0  0  0  0
  -22.4278   -8.0288   21.3543 C   0  0  0  0  0  0
  -21.9915   -9.0267   20.4648 C   0  0  0  0  0  0
  -22.7250  -10.2143   20.3058 C   0  0  0  0  0  0
  -21.6854   -6.0741   22.5280 C   0  0  0  0  0  0
  -21.4018   -6.5641   23.8215 C   0  0  0  0  0  0
  -21.3659   -5.6790   24.9174 C   0  0  0  0  0  0
  -21.6047   -4.3055   24.7223 C   0  0  0  0  0  0
  -21.8819   -3.8148   23.4343 C   0  0  0  0  0  0
  -21.9192   -4.6968   22.3402 C   0  0  0  0  0  0
  -22.7829  -13.5231   21.1857 C   0  0  0  0  0  0
  -22.1661   -4.2155   21.0980 F   0  0  0  0  0  0
  -21.5624   -3.4539   25.7734 F   0  0  0  0  0  0
  -29.9946  -13.5162   20.4238 N   0  0  0  0  0  0
  -26.2957  -12.9410   20.3303 N   0  0  0  0  0  0
  -25.9332  -11.6554   20.5762 N   0  0  0  0  0  0
  -22.0473  -12.8228   22.0419 N   0  0  0  0  0  0
  -25.4214  -15.1922   20.4110 N   0  0  0  0  0  0
  -31.7774  -14.8591   20.0748 O   0  0  0  0  0  0
  -21.6642   -6.8886   21.4242 O   0  0  0  0  0  0
  -22.3517  -14.5533   20.6697 O   0  0  0  0  0  0
  -24.6323  -31.8546   23.1994 C   0  0  0  0  0  0
  -25.9150  -32.4746   23.8335 C   0  0  1  0  0  0
  -27.2106  -27.2392   20.1281 C   0  0  0  0  0  0
  -25.5949  -33.8551   24.2255 N   0  0  0  0  0  0
  -23.4297  -30.4787   21.5422 C   0  0  2  0  0  0
  -24.8781  -28.9308   20.1040 C   0  0  0  0  0  0
  -22.7512  -29.4594   22.4894 C   0  0  0  0  0  0
  -18.0295  -28.1390   22.8481 C   0  0  0  0  0  0
  -24.1490  -36.7277   23.2636 C   0  0  0  0  0  0
  -25.9783  -30.7565   21.3889 C   0  0  0  0  0  0
  -26.0479  -29.3786   20.7297 C   0  0  0  0  0  0
  -27.2130  -28.5413   20.7413 C   0  0  0  0  0  0
  -26.0343  -26.8973   19.4234 C   0  0  0  0  0  0
  -24.8784  -27.6987   19.4377 C   0  0  0  0  0  0
  -23.6495  -29.8185   20.1561 C   0  0  0  0  0  0
  -25.4117  -36.3062   24.0322 C   0  0  1  0  0  0
  -20.5902  -28.3704   23.1257 C   0  0  2  0  0  0
  -20.6782  -26.9420   22.5405 C   0  0  0  0  0  0
  -19.5757  -26.6386   21.5208 C   0  0  0  0  0  0
  -18.1937  -26.7931   22.1621 C   0  0  0  0  0  0
  -19.1550  -28.8864   23.2863 C   0  0  0  0  0  0
  -18.9471  -30.1463   23.8885 C   0  0  0  0  0  0
  -17.6470  -30.6590   24.0563 C   0  0  0  0  0  0
  -25.9060  -34.9433   23.5086 C   0  0  0  0  0  0
  -16.5360  -29.9086   23.6334 C   0  0  0  0  0  0
  -16.7282  -28.6503   23.0353 C   0  0  0  0  0  0
  -26.4515  -31.6579   25.0731 C   0  0  0  0  0  0
  -25.3738  -31.3748   26.1453 C   0  0  0  0  0  0
  -27.0366  -30.2987   24.6248 C   0  0  0  0  0  0
  -27.6061  -32.4328   25.7504 C   0  0  0  0  0  0
  -27.5577  -37.1796   24.8469 C   0  0  0  0  0  0
  -21.4219  -29.3046   22.3641 N   0  0  0  0  0  0
  -26.4290  -37.3764   23.9405 N   0  0  0  0  0  0
  -24.6986  -31.0487   22.0987 N   0  0  0  0  0  0
  -23.4207  -28.8131   23.2995 O   0  0  0  0  0  0
  -28.2717  -26.2988   20.2393 O   0  0  0  0  0  0
  -26.5629  -34.8907   22.4653 O   0  0  0  0  0  0
  -23.5469  -32.1384   23.7273 O   0  0  0  0  0  0
  -30.2511  -18.7453   22.0595 C   0  0  0  0  0  0
  -30.2560  -19.9723   22.7556 C   0  0  0  0  0  0
  -29.7796  -18.6593   20.7359 C   0  0  0  0  0  0
  -29.2847  -19.9064   20.1404 C   0  0  0  0  0  0
  -29.2709  -21.1861   20.8542 C   0  0  0  0  0  0
  -29.7787  -21.1653   22.1731 C   0  0  0  0  0  0
  -29.1548  -23.7436   20.2479 C   0  0  0  0  0  0
  -26.8658  -24.0881   20.5548 C   0  0  0  0  0  0
  -27.1888  -22.5821   20.3884 C   0  0  0  0  0  0
  -28.0459  -24.8325   19.8991 C   0  0  1  0  0  0
  -28.7770  -19.8674   18.7077 C   0  0  0  0  0  0
  -29.9302  -17.2535   19.9829 C   0  0  0  0  0  0
  -28.6438  -22.4630   20.4001 N   0  0  0  0  0  0
  -29.8241  -15.8789   20.6571 N   0  0  0  0  0  0
  -30.3542  -24.0342   20.3133 O   0  0  0  0  0  0
  -29.7633  -22.2936   22.9237 F   0  0  0  0  0  0
  -31.4781  -12.5655   19.1897 H   0  0  0  0  0  0
  -30.3725  -11.4747   19.9736 H   0  0  0  0  0  0
  -29.8007  -11.7315   17.5338 H   0  0  0  0  0  0
  -29.6432  -13.4599   17.7333 H   0  0  0  0  0  0
  -27.9064  -11.2787   18.9319 H   0  0  0  0  0  0
  -27.3850  -12.5061   17.8093 H   0  0  0  0  0  0
  -27.6404  -14.2509   19.4690 H   0  0  0  0  0  0
  -28.7189  -12.1753   21.4435 H   0  0  0  0  0  0
  -28.4187  -13.8564   21.8004 H   0  0  0  0  0  0
  -25.2772   -9.5683   22.4759 H   0  0  0  0  0  0
  -24.0003   -7.4640   22.7472 H   0  0  0  0  0  0
  -21.0843   -8.8796   19.8960 H   0  0  0  0  0  0
  -22.3707  -10.9687   19.6173 H   0  0  0  0  0  0
  -21.2017   -7.6151   23.9722 H   0  0  0  0  0  0
  -21.1478   -6.0519   25.9077 H   0  0  0  0  0  0
  -22.0597   -2.7613   23.2840 H   0  0  0  0  0  0
  -22.4081  -11.9894   22.4828 H   0  0  0  0  0  0
  -21.1096  -13.1267   22.2630 H   0  0  0  0  0  0
  -24.6521  -15.8442   20.5183 H   0  0  0  0  0  0
  -26.2671  -15.6328   20.0730 H   0  0  0  0  0  0
  -26.7209  -32.5389   23.1065 H   0  0  0  0  0  0
  -25.0108  -33.9692   25.0410 H   0  0  0  0  0  0
  -22.7267  -31.3018   21.3985 H   0  0  0  0  0  0
  -23.3749  -35.9614   23.3304 H   0  0  0  0  0  0
  -24.3577  -36.8895   22.2052 H   0  0  0  0  0  0
  -23.7254  -37.6481   23.6658 H   0  0  0  0  0  0
  -26.1255  -31.5157   20.6201 H   0  0  0  0  0  0
  -26.8528  -30.8024   22.0255 H   0  0  0  0  0  0
  -28.0979  -28.8677   21.2690 H   0  0  0  0  0  0
  -25.9713  -25.9853   18.8530 H   0  0  0  0  0  0
  -23.9930  -27.3632   18.9148 H   0  0  0  0  0  0
  -23.7752  -30.5975   19.4034 H   0  0  0  0  0  0
  -22.7675  -29.2542   19.8478 H   0  0  0  0  0  0
  -25.1302  -36.1903   25.0817 H   0  0  0  0  0  0
  -20.9994  -28.3285   24.1377 H   0  0  0  0  0  0
  -20.5677  -26.2318   23.3613 H   0  0  0  0  0  0
  -21.6649  -26.7440   22.1204 H   0  0  0  0  0  0
  -19.6919  -25.6295   21.1243 H   0  0  0  0  0  0
  -19.6690  -27.3189   20.6731 H   0  0  0  0  0  0
  -17.4209  -26.6676   21.4024 H   0  0  0  0  0  0
  -18.0341  -26.0074   22.9020 H   0  0  0  0  0  0
  -19.7948  -30.7282   24.2248 H   0  0  0  0  0  0
  -17.5027  -31.6268   24.5169 H   0  0  0  0  0  0
  -15.5361  -30.2986   23.7666 H   0  0  0  0  0  0
  -15.8681  -28.0820   22.7074 H   0  0  0  0  0  0
  -24.5910  -30.7094   25.7794 H   0  0  0  0  0  0
  -24.8937  -32.2928   26.4852 H   0  0  0  0  0  0
  -25.8059  -30.8951   27.0246 H   0  0  0  0  0  0
  -26.2962  -29.6723   24.1258 H   0  0  0  0  0  0
  -27.4012  -29.7261   25.4786 H   0  0  0  0  0  0
  -27.8857  -30.4238   23.9526 H   0  0  0  0  0  0
  -27.2658  -33.3626   26.2070 H   0  0  0  0  0  0
  -28.3879  -32.6893   25.0344 H   0  0  0  0  0  0
  -28.0722  -31.8468   26.5437 H   0  0  0  0  0  0
  -28.2605  -38.0081   24.7495 H   0  0  0  0  0  0
  -28.1062  -36.2614   24.6318 H   0  0  0  0  0  0
  -27.2293  -37.1474   25.8871 H   0  0  0  0  0  0
  -20.9405  -29.8778   21.6854 H   0  0  0  0  0  0
  -26.0164  -38.2836   24.1404 H   0  0  0  0  0  0
  -30.6387  -17.8614   22.5473 H   0  0  0  0  0  0
  -30.6251  -20.0008   23.7707 H   0  0  0  0  0  0
  -26.8134  -24.3450   21.6138 H   0  0  0  0  0  0
  -25.8905  -24.3043   20.1247 H   0  0  0  0  0  0
  -26.8134  -22.2108   19.4338 H   0  0  0  0  0  0
  -26.7295  -21.9855   21.1774 H   0  0  0  0  0  0
  -27.9351  -24.7807   18.8152 H   0  0  0  0  0  0
  -29.4972  -19.3678   18.0599 H   0  0  0  0  0  0
  -28.6165  -20.8634   18.2962 H   0  0  0  0  0  0
  -27.8330  -19.3245   18.6539 H   0  0  0  0  0  0
  -29.1842  -17.2312   19.1885 H   0  0  0  0  0  0
  -30.8860  -17.2958   19.4587 H   0  0  0  0  0  0
  -28.9094  -15.6742   21.0295 H   0  0  0  0  0  0
  1 25  1  0  0  0
  1 30  2  0  0  0
  1 84  1  0  0  0
  2  3  1  0  0  0
  2 25  1  0  0  0
  2 87  1  0  0  0
  2 88  1  0  0  0
  3  4  1  0  0  0
  3 89  1  0  0  0
  3 90  1  0  0  0
  4  5  1  0  0  0
  4 91  1  0  0  0
  4 92  1  0  0  0
  5  6  1  0  0  0
  5 26  1  0  0  0
  5 93  1  0  0  0
  6 25  1  0  0  0
  6 94  1  0  0  0
  6 95  1  0  0  0
  7  8  2  0  0  0
  7 26  1  0  0  0
  7 29  1  0  0  0
  8  9  1  0  0  0
  8 22  1  0  0  0
  9 10  1  0  0  0
  9 27  2  0  0  0
 10 11  2  0  0  0
 10 15  1  0  0  0
 11 12  1  0  0  0
 11 96  1  0  0  0
 12 13  2  0  0  0
 12 97  1  0  0  0
 13 14  1  0  0  0
 13 31  1  0  0  0
 14 15  2  0  0  0
 14 98  1  0  0  0
 15 99  1  0  0  0
 16 17  2  0  0  0
 16 21  1  0  0  0
 16 31  1  0  0  0
 17 18  1  0  0  0
 17100  1  0  0  0
 18 19  2  0  0  0
 18101  1  0  0  0
 19 20  1  0  0  0
 19 24  1  0  0  0
 20 21  2  0  0  0
 20102  1  0  0  0
 21 23  1  0  0  0
 22 28  1  0  0  0
 22 32  2  0  0  0
 26 27  1  0  0  0
 28103  1  0  0  0
 28104  1  0  0  0
 29105  1  0  0  0
 29106  1  0  0  0
 33 34  1  0  0  0
 33 66  1  0  0  0
 33 70  2  0  0  0
 34 36  1  0  0  0
 34 59  1  0  0  0
 34107  1  0  0  0
 35 44  2  0  0  0
 35 45  1  0  0  0
 35 68  1  0  0  0
 36 56  1  0  0  0
 36108  1  0  0  0
 37 39  1  0  0  0
 37 47  1  0  0  0
 37 66  1  0  0  0
 37109  1  0  0  0
 38 43  2  0  0  0
 38 46  1  0  0  0
 38 47  1  0  0  0
 39 64  1  0  0  0
 39 67  2  0  0  0
 40 52  1  0  0  0
 40 53  2  0  0  0
 40 58  1  0  0  0
 41110  1  0  0  0
 41111  1  0  0  0
 41112  1  0  0  0
 41 48  1  0  0  0
 42 43  1  0  0  0
 42 66  1  0  0  0
 42113  1  0  0  0
 42114  1  0  0  0
 43 44  1  0  0  0
 44115  1  0  0  0
 45 46  2  0  0  0
 45116  1  0  0  0
 46117  1  0  0  0
 47118  1  0  0  0
 47119  1  0  0  0
 48 56  1  0  0  0
 48 65  1  0  0  0
 48120  1  0  0  0
 49 50  1  0  0  0
 49 53  1  0  0  0
 49 64  1  0  0  0
 49121  1  0  0  0
 50 51  1  0  0  0
 50122  1  0  0  0
 50123  1  0  0  0
 51 52  1  0  0  0
 51124  1  0  0  0
 51125  1  0  0  0
 52126  1  0  0  0
 52127  1  0  0  0
 53 54  1  0  0  0
 54 55  2  0  0  0
 54128  1  0  0  0
 55 57  1  0  0  0
 55129  1  0  0  0
 56 69  2  0  0  0
 57 58  2  0  0  0
 57130  1  0  0  0
 58131  1  0  0  0
 59 60  1  0  0  0
 59 61  1  0  0  0
 59 62  1  0  0  0
 60132  1  0  0  0
 60133  1  0  0  0
 60134  1  0  0  0
 61135  1  0  0  0
 61136  1  0  0  0
 61137  1  0  0  0
 62138  1  0  0  0
 62139  1  0  0  0
 62140  1  0  0  0
 63 65  1  0  0  0
 63141  1  0  0  0
 63142  1  0  0  0
 63143  1  0  0  0
 64144  1  0  0  0
 65145  1  0  0  0
 68 80  1  0  0  0
 71 72  2  0  0  0
 71 73  1  0  0  0
 71146  1  0  0  0
 72 76  1  0  0  0
 72147  1  0  0  0
 73 74  2  0  0  0
 73 82  1  0  0  0
 74 75  1  0  0  0
 74 81  1  0  0  0
 75 76  2  0  0  0
 75 83  1  0  0  0
 76 86  1  0  0  0
 77 80  1  0  0  0
 77 83  1  0  0  0
 77 85  2  0  0  0
 78 79  1  0  0  0
 78 80  1  0  0  0
 78148  1  0  0  0
 78149  1  0  0  0
 79 83  1  0  0  0
 79150  1  0  0  0
 79151  1  0  0  0
 80152  1  0  0  0
 81153  1  0  0  0
 81154  1  0  0  0
 81155  1  0  0  0
 82 84  1  0  0  0
 82156  1  0  0  0
 82157  1  0  0  0
 84158  1  0  0  0
M  ISO  4   1 100  68 101  80 101  84 100
M  END
> <chiral flag>
0

> <version>
0

> <s_m_source_file>
/data/baiqing/PycharmProjects/Reinvent-master-3.2/result/LINK_invent/BTK/process_docking_weight1_custom_product_contain_oxygen_bond_distance_aromatic_linkinvent_7_9_3/rearranged_h_0028.sdf

> <i_m_source_file_index>
96

> <r_mmod_Potential_Energy-OPLS-2005>
259.588592529297

> <r_mmod_Stretch_Energy-OPLS-2005>
133.303939819336

> <r_mmod_Bend_Energy-OPLS-2005>
207.887802124023

> <r_mmod_Torsional_Energy-OPLS-2005>
281.755584716797

> <r_mmod_Improper_Torsional_Energy-OPLS-2005>
8.83495330810547

> <r_mmod_Van_der_Waal_Energy-OPLS-2005>
134.524078369141

> <r_mmod_Electrostatic_Energy-OPLS-2005>
-370.10009765625

> <r_mmod_Solvation_Energy-OPLS-2005>
-235.747161865234

> <b_mmod_Minimization_Converged-OPLS-2005>
0

> <r_mmod_RMS_Derivative-OPLS-2005>
0.919962108135223

$$$$
96
                    3D
 Structure written by MMmdl.
156165  0  0  1  0            999 V2000
  -30.5307  -14.9843   20.4125 C   0  0  0  0  0  0
  -30.4417  -12.6122   19.4987 C   0  0  0  0  0  0
  -29.5237  -12.5321   18.2565 C   0  0  0  0  0  0
  -28.0572  -12.3137   18.6759 C   0  0  0  0  0  0
  -27.6281  -13.2510   19.8352 C   0  0  2  0  0  0
  -28.6711  -13.2942   20.9714 C   0  0  0  0  0  0
  -25.2462  -13.8221   20.5718 C   0  0  0  0  0  0
  -24.1783  -13.0441   20.9241 C   0  0  0  0  0  0
  -24.6404  -11.6929   20.8767 C   0  0  0  0  0  0
  -23.9086  -10.4297   21.0416 C   0  0  0  0  0  0
  -24.3634   -9.4207   21.9189 C   0  0  0  0  0  0
  -23.6307   -8.2243   22.0754 C   0  0  0  0  0  0
  -22.4287   -8.0288   21.3546 C   0  0  0  0  0  0
  -21.9925   -9.0265   20.4650 C   0  0  0  0  0  0
  -22.7261  -10.2137   20.3063 C   0  0  0  0  0  0
  -21.6852   -6.0747   22.5288 C   0  0  0  0  0  0
  -21.4011   -6.5650   23.8225 C   0  0  0  0  0  0
  -21.3656   -5.6797   24.9185 C   0  0  0  0  0  0
  -21.6040   -4.3059   24.7232 C   0  0  0  0  0  0
  -21.8817   -3.8153   23.4352 C   0  0  0  0  0  0
  -21.9193   -4.6973   22.3409 C   0  0  0  0  0  0
  -22.7804  -13.5210   21.1894 C   0  0  0  0  0  0
  -22.1661   -4.2162   21.0984 F   0  0  0  0  0  0
  -21.5625   -3.4536   25.7740 F   0  0  0  0  0  0
  -29.9405  -13.7180   20.3678 N   0  0  0  0  0  0
  -26.2885  -12.9453   20.3235 N   0  0  0  0  0  0
  -25.9334  -11.6583   20.5735 N   0  0  0  0  0  0
  -22.0448  -12.8200   22.0447 N   0  0  0  0  0  0
  -25.4122  -15.1951   20.4143 N   0  0  0  0  0  0
  -31.7407  -15.0297   20.1624 O   0  0  0  0  0  0
  -21.6647   -6.8887   21.4247 O   0  0  0  0  0  0
  -22.3488  -14.5516   20.6744 O   0  0  0  0  0  0
  -24.6478  -31.8412   23.1863 C   0  0  0  0  0  0
  -25.9239  -32.4681   23.8260 C   0  0  1  0  0  0
  -27.2117  -27.0930   20.1602 C   0  0  0  0  0  0
  -25.5988  -33.8489   24.2188 N   0  0  0  0  0  0
  -23.4528  -30.4611   21.5319 C   0  0  2  0  0  0
  -24.9017  -28.8801   20.1134 C   0  0  0  0  0  0
  -22.7588  -29.4546   22.4844 C   0  0  0  0  0  0
  -18.0310  -28.1409   22.8483 C   0  0  0  0  0  0
  -24.1484  -36.7221   23.2638 C   0  0  0  0  0  0
  -26.0131  -30.7008   21.3930 C   0  0  0  0  0  0
  -26.0814  -29.3070   20.7366 C   0  0  0  0  0  0
  -27.2375  -28.4313   20.7401 C   0  0  0  0  0  0
  -26.0072  -26.7841   19.4898 C   0  0  0  0  0  0
  -24.8801  -27.6331   19.4739 C   0  0  0  0  0  0
  -23.6819  -29.7891   20.1527 C   0  0  0  0  0  0
  -25.4118  -36.3016   24.0318 C   0  0  1  0  0  0
  -20.5926  -28.3737   23.1226 C   0  0  2  0  0  0
  -20.6794  -26.9434   22.5410 C   0  0  0  0  0  0
  -19.5766  -26.6388   21.5220 C   0  0  0  0  0  0
  -18.1944  -26.7952   22.1621 C   0  0  0  0  0  0
  -19.1568  -28.8891   23.2846 C   0  0  0  0  0  0
  -18.9484  -30.1490   23.8867 C   0  0  0  0  0  0
  -17.6479  -30.6605   24.0561 C   0  0  0  0  0  0
  -25.9078  -34.9401   23.5053 C   0  0  0  0  0  0
  -16.5369  -29.9096   23.6346 C   0  0  0  0  0  0
  -16.7293  -28.6514   23.0365 C   0  0  0  0  0  0
  -26.4548  -31.6559   25.0710 C   0  0  0  0  0  0
  -25.3730  -31.3797   26.1409 C   0  0  0  0  0  0
  -27.0399  -30.2937   24.6331 C   0  0  0  0  0  0
  -27.6088  -32.4325   25.7480 C   0  0  0  0  0  0
  -27.5578  -37.1750   24.8457 C   0  0  0  0  0  0
  -21.4274  -29.3055   22.3587 N   0  0  0  0  0  0
  -26.4267  -37.3747   23.9437 N   0  0  0  0  0  0
  -24.7246  -31.0237   22.0915 N   0  0  0  0  0  0
  -23.4212  -28.8093   23.3009 O   0  0  0  0  0  0
  -28.2550  -26.0827   20.1975 O   0  0  0  0  0  0
  -26.5650  -34.8909   22.4625 O   0  0  0  0  0  0
  -23.5589  -32.1304   23.7066 O   0  0  0  0  0  0
  -31.6738  -19.5568   20.5337 C   0  0  0  0  0  0
  -31.3401  -18.1742   20.5403 C   0  0  0  0  0  0
  -29.0309  -18.8254   20.3991 C   0  0  0  0  0  0
  -29.3496  -20.2868   20.3815 C   0  0  0  0  0  0
  -30.7212  -20.6157   20.4588 C   0  0  0  0  0  0
  -30.0085  -17.7005   20.4746 C   0  0  0  0  0  0
  -28.3306  -21.5678   20.2828 C   0  0  0  0  0  0
  -30.2263  -23.0807   20.8817 C   0  0  0  0  0  0
  -28.8922  -23.1381   20.1110 C   0  0  2  0  0  0
  -32.5030  -22.3050   20.0848 C   0  0  0  0  0  0
  -27.9523  -24.5442   20.3933 C   0  0  0  0  0  0
  -31.1231  -21.9830   20.4419 N   0  0  0  0  0  0
  -29.7350  -16.1751   20.5146 N   0  0  0  0  0  0
  -31.4736  -12.7747   19.1844 H   0  0  0  0  0  0
  -30.4438  -11.6653   20.0406 H   0  0  0  0  0  0
  -29.8492  -11.7270   17.5958 H   0  0  0  0  0  0
  -29.6069  -13.4538   17.6784 H   0  0  0  0  0  0
  -27.9582  -11.2735   18.9888 H   0  0  0  0  0  0
  -27.3930  -12.4370   17.8190 H   0  0  0  0  0  0
  -27.5851  -14.2497   19.3988 H   0  0  0  0  0  0
  -28.7691  -12.3218   21.4568 H   0  0  0  0  0  0
  -28.3657  -13.9987   21.7467 H   0  0  0  0  0  0
  -25.2781   -9.5684   22.4763 H   0  0  0  0  0  0
  -24.0025   -7.4626   22.7460 H   0  0  0  0  0  0
  -21.0861   -8.8790   19.8947 H   0  0  0  0  0  0
  -22.3731  -10.9683   19.6173 H   0  0  0  0  0  0
  -21.2000   -7.6161   23.9735 H   0  0  0  0  0  0
  -21.1472   -6.0526   25.9090 H   0  0  0  0  0  0
  -22.0591   -2.7617   23.2848 H   0  0  0  0  0  0
  -22.4062  -11.9862   22.4845 H   0  0  0  0  0  0
  -21.1064  -13.1219   22.2637 H   0  0  0  0  0  0
  -24.6392  -15.8431   20.5216 H   0  0  0  0  0  0
  -26.2511  -15.6369   20.0626 H   0  0  0  0  0  0
  -26.7303  -32.5273   23.0983 H   0  0  0  0  0  0
  -25.0176  -33.9601   25.0363 H   0  0  0  0  0  0
  -22.7578  -31.2886   21.3754 H   0  0  0  0  0  0
  -23.3771  -35.9526   23.3282 H   0  0  0  0  0  0
  -24.3575  -36.8861   22.2055 H   0  0  0  0  0  0
  -23.7200  -37.6400   23.6678 H   0  0  0  0  0  0
  -26.1780  -31.4530   20.6203 H   0  0  0  0  0  0
  -26.8812  -30.7497   22.0388 H   0  0  0  0  0  0
  -28.1360  -28.7554   21.2461 H   0  0  0  0  0  0
  -25.9032  -25.8460   18.9684 H   0  0  0  0  0  0
  -23.9838  -27.3048   18.9652 H   0  0  0  0  0  0
  -23.8252  -30.5633   19.3979 H   0  0  0  0  0  0
  -22.7952  -29.2367   19.8373 H   0  0  0  0  0  0
  -25.1300  -36.1822   25.0805 H   0  0  0  0  0  0
  -21.0021  -28.3332   24.1346 H   0  0  0  0  0  0
  -20.5692  -26.2353   23.3640 H   0  0  0  0  0  0
  -21.6654  -26.7437   22.1199 H   0  0  0  0  0  0
  -19.6923  -25.6293   21.1266 H   0  0  0  0  0  0
  -19.6706  -27.3184   20.6741 H   0  0  0  0  0  0
  -17.4221  -26.6722   21.4019 H   0  0  0  0  0  0
  -18.0320  -26.0101   22.9016 H   0  0  0  0  0  0
  -19.7957  -30.7320   24.2217 H   0  0  0  0  0  0
  -17.5033  -31.6280   24.5171 H   0  0  0  0  0  0
  -15.5370  -30.2987   23.7702 H   0  0  0  0  0  0
  -15.8691  -28.0827   22.7097 H   0  0  0  0  0  0
  -24.5901  -30.7143   25.7755 H   0  0  0  0  0  0
  -24.8925  -32.3000   26.4743 H   0  0  0  0  0  0
  -25.8001  -30.9036   27.0242 H   0  0  0  0  0  0
  -26.3015  -29.6661   24.1328 H   0  0  0  0  0  0
  -27.3972  -29.7247   25.4922 H   0  0  0  0  0  0
  -27.8954  -30.4151   23.9684 H   0  0  0  0  0  0
  -27.2702  -33.3672   26.1970 H   0  0  0  0  0  0
  -28.3941  -32.6808   25.0322 H   0  0  0  0  0  0
  -28.0715  -31.8497   26.5458 H   0  0  0  0  0  0
  -28.2548  -38.0094   24.7568 H   0  0  0  0  0  0
  -28.1115  -36.2627   24.6183 H   0  0  0  0  0  0
  -27.2320  -37.1271   25.8863 H   0  0  0  0  0  0
  -20.9498  -29.8749   21.6740 H   0  0  0  0  0  0
  -26.0119  -38.2793   24.1511 H   0  0  0  0  0  0
  -32.7255  -19.7900   20.6038 H   0  0  0  0  0  0
  -32.1557  -17.4708   20.6107 H   0  0  0  0  0  0
  -27.9846  -18.5614   20.3482 H   0  0  0  0  0  0
  -27.7403  -21.5370   21.1986 H   0  0  0  0  0  0
  -27.6218  -21.3640   19.4802 H   0  0  0  0  0  0
  -30.0269  -22.9607   21.9475 H   0  0  0  0  0  0
  -30.7367  -24.0398   20.7805 H   0  0  0  0  0  0
  -29.1704  -23.2182   19.0599 H   0  0  0  0  0  0
  -32.8591  -21.6782   19.2657 H   0  0  0  0  0  0
  -33.1664  -22.1660   20.9392 H   0  0  0  0  0  0
  -32.5968  -23.3402   19.7546 H   0  0  0  0  0  0
  -27.6354  -24.4748   21.4340 H   0  0  0  0  0  0
  -27.0419  -24.3367   19.8381 H   0  0  0  0  0  0
  -28.7581  -15.9485   20.6170 H   0  0  0  0  0  0
  1 25  1  0  0  0
  1 30  2  0  0  0
  1 83  1  0  0  0
  2  3  1  0  0  0
  2 25  1  0  0  0
  2 84  1  0  0  0
  2 85  1  0  0  0
  3  4  1  0  0  0
  3 86  1  0  0  0
  3 87  1  0  0  0
  4  5  1  0  0  0
  4 88  1  0  0  0
  4 89  1  0  0  0
  5  6  1  0  0  0
  5 26  1  0  0  0
  5 90  1  0  0  0
  6 25  1  0  0  0
  6 91  1  0  0  0
  6 92  1  0  0  0
  7  8  2  0  0  0
  7 26  1  0  0  0
  7 29  1  0  0  0
  8  9  1  0  0  0
  8 22  1  0  0  0
  9 10  1  0  0  0
  9 27  2  0  0  0
 10 11  2  0  0  0
 10 15  1  0  0  0
 11 12  1  0  0  0
 11 93  1  0  0  0
 12 13  2  0  0  0
 12 94  1  0  0  0
 13 14  1  0  0  0
 13 31  1  0  0  0
 14 15  2  0  0  0
 14 95  1  0  0  0
 15 96  1  0  0  0
 16 17  2  0  0  0
 16 21  1  0  0  0
 16 31  1  0  0  0
 17 18  1  0  0  0
 17 97  1  0  0  0
 18 19  2  0  0  0
 18 98  1  0  0  0
 19 20  1  0  0  0
 19 24  1  0  0  0
 20 21  2  0  0  0
 20 99  1  0  0  0
 21 23  1  0  0  0
 22 28  1  0  0  0
 22 32  2  0  0  0
 26 27  1  0  0  0
 28100  1  0  0  0
 28101  1  0  0  0
 29102  1  0  0  0
 29103  1  0  0  0
 33 34  1  0  0  0
 33 66  1  0  0  0
 33 70  2  0  0  0
 34 36  1  0  0  0
 34 59  1  0  0  0
 34104  1  0  0  0
 35 44  2  0  0  0
 35 45  1  0  0  0
 35 68  1  0  0  0
 36 56  1  0  0  0
 36105  1  0  0  0
 37 39  1  0  0  0
 37 47  1  0  0  0
 37 66  1  0  0  0
 37106  1  0  0  0
 38 43  2  0  0  0
 38 46  1  0  0  0
 38 47  1  0  0  0
 39 64  1  0  0  0
 39 67  2  0  0  0
 40 52  1  0  0  0
 40 53  2  0  0  0
 40 58  1  0  0  0
 41107  1  0  0  0
 41108  1  0  0  0
 41109  1  0  0  0
 41 48  1  0  0  0
 42 43  1  0  0  0
 42 66  1  0  0  0
 42110  1  0  0  0
 42111  1  0  0  0
 43 44  1  0  0  0
 44112  1  0  0  0
 45 46  2  0  0  0
 45113  1  0  0  0
 46114  1  0  0  0
 47115  1  0  0  0
 47116  1  0  0  0
 48 56  1  0  0  0
 48 65  1  0  0  0
 48117  1  0  0  0
 49 50  1  0  0  0
 49 53  1  0  0  0
 49 64  1  0  0  0
 49118  1  0  0  0
 50 51  1  0  0  0
 50119  1  0  0  0
 50120  1  0  0  0
 51 52  1  0  0  0
 51121  1  0  0  0
 51122  1  0  0  0
 52123  1  0  0  0
 52124  1  0  0  0
 53 54  1  0  0  0
 54 55  2  0  0  0
 54125  1  0  0  0
 55 57  1  0  0  0
 55126  1  0  0  0
 56 69  2  0  0  0
 57 58  2  0  0  0
 57127  1  0  0  0
 58128  1  0  0  0
 59 60  1  0  0  0
 59 61  1  0  0  0
 59 62  1  0  0  0
 60129  1  0  0  0
 60130  1  0  0  0
 60131  1  0  0  0
 61132  1  0  0  0
 61133  1  0  0  0
 61134  1  0  0  0
 62135  1  0  0  0
 62136  1  0  0  0
 62137  1  0  0  0
 63 65  1  0  0  0
 63138  1  0  0  0
 63139  1  0  0  0
 63140  1  0  0  0
 64141  1  0  0  0
 65142  1  0  0  0
 68 81  1  0  0  0
 71 72  2  0  0  0
 71 75  1  0  0  0
 71143  1  0  0  0
 72 76  1  0  0  0
 72144  1  0  0  0
 73 74  1  0  0  0
 73 76  2  0  0  0
 73145  1  0  0  0
 74 75  2  0  0  0
 74 77  1  0  0  0
 75 82  1  0  0  0
 76 83  1  0  0  0
 77 79  1  0  0  0
 77146  1  0  0  0
 77147  1  0  0  0
 78 79  1  0  0  0
 78 82  1  0  0  0
 78148  1  0  0  0
 78149  1  0  0  0
 79 81  1  0  0  0
 79150  1  0  0  0
 80 82  1  0  0  0
 80151  1  0  0  0
 80152  1  0  0  0
 80153  1  0  0  0
 81154  1  0  0  0
 81155  1  0  0  0
 83156  1  0  0  0
M  ISO  4   1 100  68 101  81 101  83 100
M  END
> <chiral flag>
0

> <version>
0

> <s_m_source_file>
/data/baiqing/PycharmProjects/Reinvent-master-3.2/result/LINK_invent/BTK/process_docking_weight1_custom_product_contain_oxygen_bond_distance_aromatic_linkinvent_7_9_3/rearranged_h_0028.sdf

> <i_m_source_file_index>
97

> <r_mmod_Potential_Energy-OPLS-2005>
530.290954589844

> <r_mmod_Stretch_Energy-OPLS-2005>
288.340423583984

> <r_mmod_Bend_Energy-OPLS-2005>
269.699859619141

> <r_mmod_Torsional_Energy-OPLS-2005>
217.059631347656

> <r_mmod_Improper_Torsional_Energy-OPLS-2005>
4.79750204086304

> <r_mmod_Van_der_Waal_Energy-OPLS-2005>
142.611694335938

> <r_mmod_Electrostatic_Energy-OPLS-2005>
-384.169738769531

> <r_mmod_Solvation_Energy-OPLS-2005>
-231.181900024414

> <b_mmod_Minimization_Converged-OPLS-2005>
0

> <r_mmod_RMS_Derivative-OPLS-2005>
1.2705979347229

$$$$
97
                    3D
 Structure written by MMmdl.
166174  0  0  1  0            999 V2000
  -30.7130  -14.8188   20.2669 C   0  0  0  0  0  0
  -30.4144  -12.5005   19.4112 C   0  0  0  0  0  0
  -29.4690  -12.3833   18.2033 C   0  0  0  0  0  0
  -28.0054  -12.2578   18.6709 C   0  0  0  0  0  0
  -27.6267  -13.2091   19.8419 C   0  0  2  0  0  0
  -28.7254  -13.3112   20.9152 C   0  0  0  0  0  0
  -25.2549  -13.8139   20.5898 C   0  0  0  0  0  0
  -24.1800  -13.0406   20.9323 C   0  0  0  0  0  0
  -24.6364  -11.6876   20.8867 C   0  0  0  0  0  0
  -23.9033  -10.4264   21.0442 C   0  0  0  0  0  0
  -24.3584   -9.4177   21.9207 C   0  0  0  0  0  0
  -23.6282   -8.2203   22.0754 C   0  0  0  0  0  0
  -22.4268   -8.0250   21.3536 C   0  0  0  0  0  0
  -21.9892   -9.0232   20.4648 C   0  0  0  0  0  0
  -22.7211  -10.2122   20.3076 C   0  0  0  0  0  0
  -21.6849   -6.0712   22.5269 C   0  0  0  0  0  0
  -21.4002   -6.5626   23.8199 C   0  0  0  0  0  0
  -21.3675   -5.6787   24.9168 C   0  0  0  0  0  0
  -21.6052   -4.3050   24.7220 C   0  0  0  0  0  0
  -21.8822   -3.8138   23.4341 C   0  0  0  0  0  0
  -21.9190   -4.6944   22.3392 C   0  0  0  0  0  0
  -22.7810  -13.5206   21.1893 C   0  0  0  0  0  0
  -22.1662   -4.2128   21.0974 F   0  0  0  0  0  0
  -21.5645   -3.4542   25.7739 F   0  0  0  0  0  0
  -29.9484  -13.6730   20.1779 N   0  0  0  0  0  0
  -26.2958  -12.9294   20.3588 N   0  0  0  0  0  0
  -25.9309  -11.6467   20.6022 N   0  0  0  0  0  0
  -22.0418  -12.8209   22.0423 N   0  0  0  0  0  0
  -25.4264  -15.1855   20.4263 N   0  0  0  0  0  0
  -31.8762  -14.6535   20.6192 O   0  0  0  0  0  0
  -21.6643   -6.8841   21.4223 O   0  0  0  0  0  0
  -22.3528  -14.5510   20.6710 O   0  0  0  0  0  0
  -24.6350  -31.8524   23.1976 C   0  0  0  0  0  0
  -25.9151  -32.4747   23.8326 C   0  0  1  0  0  0
  -27.2161  -27.2380   20.1222 C   0  0  0  0  0  0
  -25.5927  -33.8552   24.2252 N   0  0  0  0  0  0
  -23.4329  -30.4781   21.5395 C   0  0  2  0  0  0
  -24.8793  -28.9256   20.1076 C   0  0  0  0  0  0
  -22.7524  -29.4596   22.4869 C   0  0  0  0  0  0
  -18.0298  -28.1400   22.8487 C   0  0  0  0  0  0
  -24.1480  -36.7273   23.2640 C   0  0  0  0  0  0
  -25.9833  -30.7563   21.3823 C   0  0  0  0  0  0
  -26.0541  -29.3795   20.7216 C   0  0  0  0  0  0
  -27.2261  -28.5485   20.7190 C   0  0  0  0  0  0
  -26.0160  -26.8677   19.4703 C   0  0  0  0  0  0
  -24.8655  -27.6786   19.4703 C   0  0  0  0  0  0
  -23.6524  -29.8164   20.1552 C   0  0  0  0  0  0
  -25.4107  -36.3067   24.0333 C   0  0  1  0  0  0
  -20.5913  -28.3706   23.1255 C   0  0  2  0  0  0
  -20.6792  -26.9419   22.5391 C   0  0  0  0  0  0
  -19.5753  -26.6390   21.5204 C   0  0  0  0  0  0
  -18.1937  -26.7941   22.1624 C   0  0  0  0  0  0
  -19.1557  -28.8869   23.2868 C   0  0  0  0  0  0
  -18.9472  -30.1473   23.8889 C   0  0  0  0  0  0
  -17.6469  -30.6592   24.0567 C   0  0  0  0  0  0
  -25.9055  -34.9439   23.5094 C   0  0  0  0  0  0
  -16.5359  -29.9084   23.6344 C   0  0  0  0  0  0
  -16.7286  -28.6506   23.0362 C   0  0  0  0  0  0
  -26.4508  -31.6586   25.0725 C   0  0  0  0  0  0
  -25.3725  -31.3742   26.1439 C   0  0  0  0  0  0
  -27.0370  -30.2994   24.6242 C   0  0  0  0  0  0
  -27.6060  -32.4336   25.7493 C   0  0  0  0  0  0
  -27.5575  -37.1795   24.8470 C   0  0  0  0  0  0
  -21.4227  -29.3052   22.3643 N   0  0  0  0  0  0
  -26.4285  -37.3763   23.9415 N   0  0  0  0  0  0
  -24.7028  -31.0481   22.0957 N   0  0  0  0  0  0
  -23.4206  -28.8132   23.2983 O   0  0  0  0  0  0
  -28.2912  -26.3081   20.1891 O   0  0  0  0  0  0
  -26.5621  -34.8925   22.4663 O   0  0  0  0  0  0
  -23.5489  -32.1359   23.7256 O   0  0  0  0  0  0
  -27.8761  -19.4976   19.3248 C   0  0  0  0  0  0
  -27.5067  -18.2743   18.7390 C   0  0  0  0  0  0
  -29.8522  -18.3899   20.2084 C   0  0  0  0  0  0
  -29.0853  -19.6239   20.0289 C   0  0  0  0  0  0
  -28.3219  -17.1236   18.8080 C   0  0  0  0  0  0
  -29.5075  -17.0954   19.6100 C   0  0  0  0  0  0
  -29.0111  -23.6906   20.3731 C   0  0  0  0  0  0
  -27.9498  -16.0302   17.8175 C   0  0  0  0  0  0
  -31.0692  -17.2022   17.2627 C   0  0  0  0  0  0
  -32.7538  -17.0587   19.0631 C   0  0  0  0  0  0
  -32.1364  -15.0477   17.6794 C   0  0  0  0  0  0
  -29.5192  -21.0825   20.5260 C   0  0  0  0  0  0
  -27.9974  -24.8471   19.9027 C   0  0  0  0  0  0
  -31.5667  -16.2915   18.4214 C   0  0  0  0  0  0
  -28.7423  -22.3462   20.1252 N   0  0  0  0  0  0
  -30.4687  -15.9512   19.4342 N   0  0  0  0  0  0
  -30.0356  -24.0162   20.9762 O   0  0  0  0  0  0
  -31.4487  -12.6026   19.0813 H   0  0  0  0  0  0
  -30.3857  -11.5961   20.0193 H   0  0  0  0  0  0
  -29.7376  -11.5102   17.6069 H   0  0  0  0  0  0
  -29.5737  -13.2359   17.5386 H   0  0  0  0  0  0
  -27.8739  -11.2254   18.9962 H   0  0  0  0  0  0
  -27.3228  -12.3928   17.8311 H   0  0  0  0  0  0
  -27.5602  -14.1968   19.4241 H   0  0  0  0  0  0
  -28.8409  -12.3786   21.4697 H   0  0  0  0  0  0
  -28.4821  -14.0885   21.6416 H   0  0  0  0  0  0
  -25.2706   -9.5689   22.4796 H   0  0  0  0  0  0
  -24.0012   -7.4593   22.7460 H   0  0  0  0  0  0
  -21.0824   -8.8753   19.8940 H   0  0  0  0  0  0
  -22.3660  -10.9678   19.6210 H   0  0  0  0  0  0
  -21.1985   -7.6131   23.9699 H   0  0  0  0  0  0
  -21.1510   -6.0514   25.9075 H   0  0  0  0  0  0
  -22.0589   -2.7594   23.2849 H   0  0  0  0  0  0
  -22.4019  -11.9879   22.4842 H   0  0  0  0  0  0
  -21.1018  -13.1232   22.2544 H   0  0  0  0  0  0
  -24.6661  -15.8434   20.5542 H   0  0  0  0  0  0
  -26.2918  -15.6317   20.1497 H   0  0  0  0  0  0
  -26.7225  -32.5384   23.1079 H   0  0  0  0  0  0
  -25.0092  -33.9678   25.0405 H   0  0  0  0  0  0
  -22.7316  -31.3025   21.3947 H   0  0  0  0  0  0
  -23.3752  -35.9592   23.3293 H   0  0  0  0  0  0
  -24.3577  -36.8885   22.2056 H   0  0  0  0  0  0
  -23.7228  -37.6472   23.6666 H   0  0  0  0  0  0
  -26.1328  -31.5166   20.6153 H   0  0  0  0  0  0
  -26.8599  -30.8012   22.0191 H   0  0  0  0  0  0
  -28.1220  -28.8887   21.2201 H   0  0  0  0  0  0
  -25.9213  -25.9205   18.9618 H   0  0  0  0  0  0
  -23.9685  -27.3277   18.9776 H   0  0  0  0  0  0
  -23.7799  -30.5952   19.4023 H   0  0  0  0  0  0
  -22.7709  -29.2518   19.8477 H   0  0  0  0  0  0
  -25.1298  -36.1903   25.0829 H   0  0  0  0  0  0
  -21.0029  -28.3274   24.1368 H   0  0  0  0  0  0
  -20.5688  -26.2314   23.3598 H   0  0  0  0  0  0
  -21.6657  -26.7430   22.1191 H   0  0  0  0  0  0
  -19.6890  -25.6299   21.1237 H   0  0  0  0  0  0
  -19.6685  -27.3205   20.6742 H   0  0  0  0  0  0
  -17.4210  -26.6707   21.4023 H   0  0  0  0  0  0
  -18.0327  -26.0086   22.9028 H   0  0  0  0  0  0
  -19.7940  -30.7306   24.2246 H   0  0  0  0  0  0
  -17.5013  -31.6272   24.5167 H   0  0  0  0  0  0
  -15.5360  -30.2976   23.7676 H   0  0  0  0  0  0
  -15.8694  -28.0821   22.7074 H   0  0  0  0  0  0
  -24.5905  -30.7084   25.7765 H   0  0  0  0  0  0
  -24.8918  -32.2921   26.4840 H   0  0  0  0  0  0
  -25.8035  -30.8935   27.0230 H   0  0  0  0  0  0
  -26.2969  -29.6724   24.1262 H   0  0  0  0  0  0
  -27.4037  -29.7275   25.4776 H   0  0  0  0  0  0
  -27.8855  -30.4260   23.9514 H   0  0  0  0  0  0
  -27.2666  -33.3651   26.2038 H   0  0  0  0  0  0
  -28.3883  -32.6866   25.0323 H   0  0  0  0  0  0
  -28.0724  -31.8483   26.5426 H   0  0  0  0  0  0
  -28.2609  -38.0081   24.7526 H   0  0  0  0  0  0
  -28.1064  -36.2623   24.6297 H   0  0  0  0  0  0
  -27.2307  -37.1442   25.8876 H   0  0  0  0  0  0
  -20.9408  -29.8778   21.6861 H   0  0  0  0  0  0
  -26.0157  -38.2830   24.1420 H   0  0  0  0  0  0
  -27.2382  -20.3561   19.1706 H   0  0  0  0  0  0
  -26.6132  -18.2567   18.1284 H   0  0  0  0  0  0
  -30.7834  -18.4682   20.7503 H   0  0  0  0  0  0
  -26.9345  -15.6727   17.9873 H   0  0  0  0  0  0
  -28.6397  -15.1927   17.8229 H   0  0  0  0  0  0
  -27.9625  -16.4324   16.8043 H   0  0  0  0  0  0
  -31.8712  -17.4137   16.5539 H   0  0  0  0  0  0
  -30.7191  -18.1793   17.5934 H   0  0  0  0  0  0
  -30.2732  -16.7347   16.6860 H   0  0  0  0  0  0
  -33.5492  -17.2145   18.3333 H   0  0  0  0  0  0
  -33.2148  -16.5379   19.9002 H   0  0  0  0  0  0
  -32.4677  -18.0485   19.4110 H   0  0  0  0  0  0
  -32.8275  -15.3393   16.8868 H   0  0  0  0  0  0
  -31.3511  -14.4713   17.1955 H   0  0  0  0  0  0
  -32.7102  -14.3773   18.3180 H   0  0  0  0  0  0
  -30.5567  -21.2241   20.2220 H   0  0  0  0  0  0
  -29.5402  -21.0481   21.6167 H   0  0  0  0  0  0
  -27.0478  -24.5825   20.3669 H   0  0  0  0  0  0
  -27.8672  -24.7295   18.8255 H   0  0  0  0  0  0
  -27.8827  -22.1747   19.6226 H   0  0  0  0  0  0
  1 25  1  0  0  0
  1 30  2  0  0  0
  1 86  1  0  0  0
  2  3  1  0  0  0
  2 25  1  0  0  0
  2 88  1  0  0  0
  2 89  1  0  0  0
  3  4  1  0  0  0
  3 90  1  0  0  0
  3 91  1  0  0  0
  4  5  1  0  0  0
  4 92  1  0  0  0
  4 93  1  0  0  0
  5  6  1  0  0  0
  5 26  1  0  0  0
  5 94  1  0  0  0
  6 25  1  0  0  0
  6 95  1  0  0  0
  6 96  1  0  0  0
  7  8  2  0  0  0
  7 26  1  0  0  0
  7 29  1  0  0  0
  8  9  1  0  0  0
  8 22  1  0  0  0
  9 10  1  0  0  0
  9 27  2  0  0  0
 10 11  2  0  0  0
 10 15  1  0  0  0
 11 12  1  0  0  0
 11 97  1  0  0  0
 12 13  2  0  0  0
 12 98  1  0  0  0
 13 14  1  0  0  0
 13 31  1  0  0  0
 14 15  2  0  0  0
 14 99  1  0  0  0
 15100  1  0  0  0
 16 17  2  0  0  0
 16 21  1  0  0  0
 16 31  1  0  0  0
 17 18  1  0  0  0
 17101  1  0  0  0
 18 19  2  0  0  0
 18102  1  0  0  0
 19 20  1  0  0  0
 19 24  1  0  0  0
 20 21  2  0  0  0
 20103  1  0  0  0
 21 23  1  0  0  0
 22 28  1  0  0  0
 22 32  2  0  0  0
 26 27  1  0  0  0
 28104  1  0  0  0
 28105  1  0  0  0
 29106  1  0  0  0
 29107  1  0  0  0
 33 34  1  0  0  0
 33 66  1  0  0  0
 33 70  2  0  0  0
 34 36  1  0  0  0
 34 59  1  0  0  0
 34108  1  0  0  0
 35 44  2  0  0  0
 35 45  1  0  0  0
 35 68  1  0  0  0
 36 56  1  0  0  0
 36109  1  0  0  0
 37 39  1  0  0  0
 37 47  1  0  0  0
 37 66  1  0  0  0
 37110  1  0  0  0
 38 43  2  0  0  0
 38 46  1  0  0  0
 38 47  1  0  0  0
 39 64  1  0  0  0
 39 67  2  0  0  0
 40 52  1  0  0  0
 40 53  2  0  0  0
 40 58  1  0  0  0
 41111  1  0  0  0
 41112  1  0  0  0
 41113  1  0  0  0
 41 48  1  0  0  0
 42 43  1  0  0  0
 42 66  1  0  0  0
 42114  1  0  0  0
 42115  1  0  0  0
 43 44  1  0  0  0
 44116  1  0  0  0
 45 46  2  0  0  0
 45117  1  0  0  0
 46118  1  0  0  0
 47119  1  0  0  0
 47120  1  0  0  0
 48 56  1  0  0  0
 48 65  1  0  0  0
 48121  1  0  0  0
 49 50  1  0  0  0
 49 53  1  0  0  0
 49 64  1  0  0  0
 49122  1  0  0  0
 50 51  1  0  0  0
 50123  1  0  0  0
 50124  1  0  0  0
 51 52  1  0  0  0
 51125  1  0  0  0
 51126  1  0  0  0
 52127  1  0  0  0
 52128  1  0  0  0
 53 54  1  0  0  0
 54 55  2  0  0  0
 54129  1  0  0  0
 55 57  1  0  0  0
 55130  1  0  0  0
 56 69  2  0  0  0
 57 58  2  0  0  0
 57131  1  0  0  0
 58132  1  0  0  0
 59 60  1  0  0  0
 59 61  1  0  0  0
 59 62  1  0  0  0
 60133  1  0  0  0
 60134  1  0  0  0
 60135  1  0  0  0
 61136  1  0  0  0
 61137  1  0  0  0
 61138  1  0  0  0
 62139  1  0  0  0
 62140  1  0  0  0
 62141  1  0  0  0
 63 65  1  0  0  0
 63142  1  0  0  0
 63143  1  0  0  0
 63144  1  0  0  0
 64145  1  0  0  0
 65146  1  0  0  0
 68 83  1  0  0  0
 71 72  2  0  0  0
 71 74  1  0  0  0
 71147  1  0  0  0
 72 75  1  0  0  0
 72148  1  0  0  0
 73 74  2  0  0  0
 73 76  1  0  0  0
 73149  1  0  0  0
 74 82  1  0  0  0
 75 76  2  0  0  0
 75 78  1  0  0  0
 76 86  1  0  0  0
 77 83  1  0  0  0
 77 85  1  0  0  0
 77 87  2  0  0  0
 78150  1  0  0  0
 78151  1  0  0  0
 78152  1  0  0  0
 79153  1  0  0  0
 79154  1  0  0  0
 79155  1  0  0  0
 79 84  1  0  0  0
 80 84  1  0  0  0
 80156  1  0  0  0
 80157  1  0  0  0
 80158  1  0  0  0
 81 84  1  0  0  0
 81159  1  0  0  0
 81160  1  0  0  0
 81161  1  0  0  0
 82 85  1  0  0  0
 82162  1  0  0  0
 82163  1  0  0  0
 83164  1  0  0  0
 83165  1  0  0  0
 84 86  1  0  0  0
 85166  1  0  0  0
M  ISO  4   1 100  68 101  83 101  86 100
M  END
> <chiral flag>
0

> <version>
0

> <s_m_source_file>
/data/baiqing/PycharmProjects/Reinvent-master-3.2/result/LINK_invent/BTK/process_docking_weight1_custom_product_contain_oxygen_bond_distance_aromatic_linkinvent_7_9_3/rearranged_h_0028.sdf

> <i_m_source_file_index>
98

> <r_mmod_Potential_Energy-OPLS-2005>
561.841186523438

> <r_mmod_Stretch_Energy-OPLS-2005>
164.234085083008

> <r_mmod_Bend_Energy-OPLS-2005>
210.650512695312

> <r_mmod_Torsional_Energy-OPLS-2005>
330.600921630859

> <r_mmod_Improper_Torsional_Energy-OPLS-2005>
29.5283107757568

> <r_mmod_Van_der_Waal_Energy-OPLS-2005>
160.42350769043

> <r_mmod_Electrostatic_Energy-OPLS-2005>
-287.623779296875

> <r_mmod_Solvation_Energy-OPLS-2005>
-220.206085205078

> <b_mmod_Minimization_Converged-OPLS-2005>
0

> <r_mmod_RMS_Derivative-OPLS-2005>
2.31043076515198

$$$$
