0
                    3D
 Structure written by MMmdl.
161170  0  0  1  0            999 V2000
  -30.5280  -15.0906   20.3488 C   0  0  0  0  0  0
  -30.4285  -12.6819   19.5136 C   0  0  0  0  0  0
  -29.5228  -12.5180   18.2726 C   0  0  0  0  0  0
  -28.0613  -12.2959   18.6963 C   0  0  0  0  0  0
  -27.6155  -13.2655   19.8196 C   0  0  2  0  0  0
  -28.6547  -13.3929   20.9528 C   0  0  0  0  0  0
  -25.2411  -13.8263   20.5784 C   0  0  0  0  0  0
  -24.1760  -13.0449   20.9296 C   0  0  0  0  0  0
  -24.6397  -11.6949   20.8791 C   0  0  0  0  0  0
  -23.9093  -10.4300   21.0432 C   0  0  0  0  0  0
  -24.3636   -9.4215   21.9202 C   0  0  0  0  0  0
  -23.6313   -8.2246   22.0780 C   0  0  0  0  0  0
  -22.4284   -8.0304   21.3575 C   0  0  0  0  0  0
  -21.9937   -9.0268   20.4659 C   0  0  0  0  0  0
  -22.7271  -10.2141   20.3072 C   0  0  0  0  0  0
  -21.6847   -6.0765   22.5294 C   0  0  0  0  0  0
  -21.4008   -6.5663   23.8233 C   0  0  0  0  0  0
  -21.3644   -5.6812   24.9184 C   0  0  0  0  0  0
  -21.6032   -4.3076   24.7229 C   0  0  0  0  0  0
  -21.8818   -3.8178   23.4345 C   0  0  0  0  0  0
  -21.9196   -4.6996   22.3405 C   0  0  0  0  0  0
  -22.7773  -13.5221   21.1940 C   0  0  0  0  0  0
  -22.1668   -4.2178   21.0982 F   0  0  0  0  0  0
  -21.5613   -3.4560   25.7741 F   0  0  0  0  0  0
  -29.9066  -13.8298   20.3255 N   0  0  0  0  0  0
  -26.2834  -12.9524   20.3229 N   0  0  0  0  0  0
  -25.9328  -11.6636   20.5724 N   0  0  0  0  0  0
  -22.0392  -12.8190   22.0459 N   0  0  0  0  0  0
  -25.4074  -15.1995   20.4278 N   0  0  0  0  0  0
  -31.7559  -15.0360   20.1960 O   0  0  0  0  0  0
  -21.6650   -6.8900   21.4258 O   0  0  0  0  0  0
  -22.3443  -14.5510   20.6780 O   0  0  0  0  0  0
  -24.6538  -31.8363   23.1821 C   0  0  0  0  0  0
  -25.9280  -32.4639   23.8247 C   0  0  1  0  0  0
  -27.2180  -27.0699   20.1653 C   0  0  0  0  0  0
  -25.6001  -33.8443   24.2144 N   0  0  0  0  0  0
  -23.4597  -30.4547   21.5298 C   0  0  2  0  0  0
  -24.9090  -28.8640   20.1177 C   0  0  0  0  0  0
  -22.7616  -29.4520   22.4840 C   0  0  0  0  0  0
  -18.0305  -28.1387   22.8460 C   0  0  0  0  0  0
  -24.1495  -36.7218   23.2644 C   0  0  0  0  0  0
  -26.0210  -30.6940   21.3855 C   0  0  0  0  0  0
  -26.0941  -29.2955   20.7304 C   0  0  0  0  0  0
  -27.2533  -28.4195   20.7275 C   0  0  0  0  0  0
  -26.0074  -26.7511   19.5180 C   0  0  0  0  0  0
  -24.8814  -27.6057   19.4952 C   0  0  0  0  0  0
  -23.6916  -29.7795   20.1518 C   0  0  0  0  0  0
  -25.4125  -36.2978   24.0306 C   0  0  1  0  0  0
  -20.5917  -28.3729   23.1202 C   0  0  2  0  0  0
  -20.6791  -26.9427   22.5383 C   0  0  0  0  0  0
  -19.5763  -26.6389   21.5182 C   0  0  0  0  0  0
  -18.1939  -26.7937   22.1593 C   0  0  0  0  0  0
  -19.1561  -28.8873   23.2824 C   0  0  0  0  0  0
  -18.9483  -30.1460   23.8863 C   0  0  0  0  0  0
  -17.6472  -30.6582   24.0556 C   0  0  0  0  0  0
  -25.9091  -34.9362   23.5025 C   0  0  0  0  0  0
  -16.5364  -29.9078   23.6338 C   0  0  0  0  0  0
  -16.7281  -28.6499   23.0364 C   0  0  0  0  0  0
  -26.4566  -31.6539   25.0717 C   0  0  0  0  0  0
  -25.3763  -31.3689   26.1408 C   0  0  0  0  0  0
  -27.0457  -30.2942   24.6322 C   0  0  0  0  0  0
  -27.6126  -32.4305   25.7474 C   0  0  0  0  0  0
  -27.5559  -37.1746   24.8467 C   0  0  0  0  0  0
  -21.4301  -29.3054   22.3587 N   0  0  0  0  0  0
  -26.4265  -37.3720   23.9421 N   0  0  0  0  0  0
  -24.7317  -31.0168   22.0877 N   0  0  0  0  0  0
  -23.4234  -28.8055   23.3013 O   0  0  0  0  0  0
  -28.2572  -26.0501   20.1369 O   0  0  0  0  0  0
  -26.5670  -34.8873   22.4598 O   0  0  0  0  0  0
  -23.5643  -32.1263   23.7002 O   0  0  0  0  0  0
  -31.6657  -19.7412   18.0713 C   0  0  0  0  0  0
  -30.7103  -20.1526   18.9978 C   0  0  0  0  0  0
  -31.1398  -17.4573   18.6202 C   0  0  0  0  0  0
  -31.8422  -18.3852   17.8403 C   0  0  0  0  0  0
  -29.9091  -19.2852   19.7874 C   0  0  0  0  0  0
  -30.2351  -17.7598   19.6841 C   0  0  0  0  0  0
  -28.3719  -23.1018   20.0252 C   0  0  0  0  0  0
  -30.0237  -23.6705   22.2062 C   0  0  0  0  0  0
  -28.8255  -24.6332   22.1266 C   0  0  0  0  0  0
  -29.6065  -22.1978   21.9627 C   0  0  0  0  0  0
  -28.0962  -24.6036   20.7680 C   0  0  1  0  0  0
  -32.7906  -17.9172   16.7536 C   0  0  0  0  0  0
  -28.8013  -20.3148   20.4822 C   0  0  0  0  0  0
  -28.9192  -21.9328   20.6847 N   0  0  0  0  0  0
  -29.8363  -16.3825   20.3385 N   0  0  0  0  0  0
  -27.9646  -22.9854   18.8650 O   0  0  0  0  0  0
  -31.4568  -12.8389   19.1857 H   0  0  0  0  0  0
  -30.4484  -11.7683   20.1103 H   0  0  0  0  0  0
  -29.8697  -11.6787   17.6680 H   0  0  0  0  0  0
  -29.5961  -13.4035   17.6370 H   0  0  0  0  0  0
  -27.9807  -11.2684   19.0488 H   0  0  0  0  0  0
  -27.4014  -12.3728   17.8325 H   0  0  0  0  0  0
  -27.5473  -14.2446   19.3440 H   0  0  0  0  0  0
  -28.7820  -12.4484   21.4837 H   0  0  0  0  0  0
  -28.3363  -14.1290   21.6926 H   0  0  0  0  0  0
  -25.2760   -9.5721   22.4791 H   0  0  0  0  0  0
  -24.0032   -7.4642   22.7506 H   0  0  0  0  0  0
  -21.0876   -8.8799   19.8934 H   0  0  0  0  0  0
  -22.3743  -10.9697   19.6192 H   0  0  0  0  0  0
  -21.1994   -7.6172   23.9746 H   0  0  0  0  0  0
  -21.1448   -6.0537   25.9086 H   0  0  0  0  0  0
  -22.0594   -2.7643   23.2847 H   0  0  0  0  0  0
  -22.4008  -11.9858   22.4846 H   0  0  0  0  0  0
  -21.0973  -13.1193   22.2570 H   0  0  0  0  0  0
  -24.6486  -15.8575   20.5773 H   0  0  0  0  0  0
  -26.2582  -15.6433   20.1064 H   0  0  0  0  0  0
  -26.7360  -32.5229   23.0992 H   0  0  0  0  0  0
  -25.0205  -33.9537   25.0332 H   0  0  0  0  0  0
  -22.7665  -31.2826   21.3677 H   0  0  0  0  0  0
  -23.3774  -35.9528   23.3243 H   0  0  0  0  0  0
  -24.3615  -36.8929   22.2076 H   0  0  0  0  0  0
  -23.7227  -37.6372   23.6754 H   0  0  0  0  0  0
  -26.1832  -31.4457   20.6105 H   0  0  0  0  0  0
  -26.8890  -30.7468   22.0316 H   0  0  0  0  0  0
  -28.1624  -28.7571   21.2037 H   0  0  0  0  0  0
  -25.9243  -25.7904   19.0274 H   0  0  0  0  0  0
  -23.9796  -27.2701   19.0011 H   0  0  0  0  0  0
  -23.8390  -30.5531   19.3970 H   0  0  0  0  0  0
  -22.8035  -29.2300   19.8336 H   0  0  0  0  0  0
  -25.1306  -36.1772   25.0798 H   0  0  0  0  0  0
  -20.9999  -28.3315   24.1325 H   0  0  0  0  0  0
  -20.5662  -26.2337   23.3601 H   0  0  0  0  0  0
  -21.6659  -26.7417   22.1174 H   0  0  0  0  0  0
  -19.6936  -25.6295   21.1216 H   0  0  0  0  0  0
  -19.6710  -27.3189   20.6695 H   0  0  0  0  0  0
  -17.4216  -26.6682   21.3987 H   0  0  0  0  0  0
  -18.0330  -26.0070   22.8969 H   0  0  0  0  0  0
  -19.7962  -30.7269   24.2260 H   0  0  0  0  0  0
  -17.5034  -31.6261   24.5157 H   0  0  0  0  0  0
  -15.5363  -30.2966   23.7703 H   0  0  0  0  0  0
  -15.8682  -28.0801   22.7122 H   0  0  0  0  0  0
  -24.6023  -30.6923   25.7739 H   0  0  0  0  0  0
  -24.8835  -32.2822   26.4762 H   0  0  0  0  0  0
  -25.8069  -30.8957   27.0247 H   0  0  0  0  0  0
  -26.3057  -29.6607   24.1400 H   0  0  0  0  0  0
  -27.4154  -29.7291   25.4891 H   0  0  0  0  0  0
  -27.8932  -30.4174   23.9578 H   0  0  0  0  0  0
  -27.2826  -33.3765   26.1783 H   0  0  0  0  0  0
  -28.4059  -32.6583   25.0341 H   0  0  0  0  0  0
  -28.0643  -31.8576   26.5590 H   0  0  0  0  0  0
  -28.2525  -38.0089   24.7567 H   0  0  0  0  0  0
  -28.1102  -36.2617   24.6226 H   0  0  0  0  0  0
  -27.2291  -37.1296   25.8873 H   0  0  0  0  0  0
  -20.9539  -29.8801   21.6760 H   0  0  0  0  0  0
  -26.0099  -38.2761   24.1496 H   0  0  0  0  0  0
  -32.2150  -20.4798   17.5006 H   0  0  0  0  0  0
  -30.5762  -21.2225   19.0363 H   0  0  0  0  0  0
  -31.3424  -16.4388   18.3323 H   0  0  0  0  0  0
  -30.4905  -23.7629   23.1868 H   0  0  0  0  0  0
  -30.7899  -23.9699   21.4887 H   0  0  0  0  0  0
  -29.1742  -25.6453   22.3336 H   0  0  0  0  0  0
  -28.1191  -24.4004   22.9241 H   0  0  0  0  0  0
  -28.9513  -21.8722   22.7729 H   0  0  0  0  0  0
  -30.4977  -21.5710   22.0178 H   0  0  0  0  0  0
  -27.0320  -24.5512   20.9991 H   0  0  0  0  0  0
  -33.7283  -17.5825   17.1956 H   0  0  0  0  0  0
  -33.0130  -18.7163   16.0435 H   0  0  0  0  0  0
  -32.3646  -17.0822   16.1945 H   0  0  0  0  0  0
  -28.5768  -19.8869   21.4608 H   0  0  0  0  0  0
  -27.8820  -20.1642   19.9173 H   0  0  0  0  0  0
  -28.8873  -16.3394   20.6803 H   0  0  0  0  0  0
  1 25  1  0  0  0
  1 30  2  0  0  0
  1 85  1  0  0  0
  2  3  1  0  0  0
  2 25  1  0  0  0
  2 87  1  0  0  0
  2 88  1  0  0  0
  3  4  1  0  0  0
  3 89  1  0  0  0
  3 90  1  0  0  0
  4  5  1  0  0  0
  4 91  1  0  0  0
  4 92  1  0  0  0
  5  6  1  0  0  0
  5 26  1  0  0  0
  5 93  1  0  0  0
  6 25  1  0  0  0
  6 94  1  0  0  0
  6 95  1  0  0  0
  7  8  2  0  0  0
  7 26  1  0  0  0
  7 29  1  0  0  0
  8  9  1  0  0  0
  8 22  1  0  0  0
  9 10  1  0  0  0
  9 27  2  0  0  0
 10 11  2  0  0  0
 10 15  1  0  0  0
 11 12  1  0  0  0
 11 96  1  0  0  0
 12 13  2  0  0  0
 12 97  1  0  0  0
 13 14  1  0  0  0
 13 31  1  0  0  0
 14 15  2  0  0  0
 14 98  1  0  0  0
 15 99  1  0  0  0
 16 17  2  0  0  0
 16 21  1  0  0  0
 16 31  1  0  0  0
 17 18  1  0  0  0
 17100  1  0  0  0
 18 19  2  0  0  0
 18101  1  0  0  0
 19 20  1  0  0  0
 19 24  1  0  0  0
 20 21  2  0  0  0
 20102  1  0  0  0
 21 23  1  0  0  0
 22 28  1  0  0  0
 22 32  2  0  0  0
 26 27  1  0  0  0
 28103  1  0  0  0
 28104  1  0  0  0
 29105  1  0  0  0
 29106  1  0  0  0
 33 34  1  0  0  0
 33 66  1  0  0  0
 33 70  2  0  0  0
 34 36  1  0  0  0
 34 59  1  0  0  0
 34107  1  0  0  0
 35 44  2  0  0  0
 35 45  1  0  0  0
 35 68  1  0  0  0
 36 56  1  0  0  0
 36108  1  0  0  0
 37 39  1  0  0  0
 37 47  1  0  0  0
 37 66  1  0  0  0
 37109  1  0  0  0
 38 43  2  0  0  0
 38 46  1  0  0  0
 38 47  1  0  0  0
 39 64  1  0  0  0
 39 67  2  0  0  0
 40 52  1  0  0  0
 40 53  2  0  0  0
 40 58  1  0  0  0
 41110  1  0  0  0
 41111  1  0  0  0
 41112  1  0  0  0
 41 48  1  0  0  0
 42 43  1  0  0  0
 42 66  1  0  0  0
 42113  1  0  0  0
 42114  1  0  0  0
 43 44  1  0  0  0
 44115  1  0  0  0
 45 46  2  0  0  0
 45116  1  0  0  0
 46117  1  0  0  0
 47118  1  0  0  0
 47119  1  0  0  0
 48 56  1  0  0  0
 48 65  1  0  0  0
 48120  1  0  0  0
 49 50  1  0  0  0
 49 53  1  0  0  0
 49 64  1  0  0  0
 49121  1  0  0  0
 50 51  1  0  0  0
 50122  1  0  0  0
 50123  1  0  0  0
 51 52  1  0  0  0
 51124  1  0  0  0
 51125  1  0  0  0
 52126  1  0  0  0
 52127  1  0  0  0
 53 54  1  0  0  0
 54 55  2  0  0  0
 54128  1  0  0  0
 55 57  1  0  0  0
 55129  1  0  0  0
 56 69  2  0  0  0
 57 58  2  0  0  0
 57130  1  0  0  0
 58131  1  0  0  0
 59 60  1  0  0  0
 59 61  1  0  0  0
 59 62  1  0  0  0
 60132  1  0  0  0
 60133  1  0  0  0
 60134  1  0  0  0
 61135  1  0  0  0
 61136  1  0  0  0
 61137  1  0  0  0
 62138  1  0  0  0
 62139  1  0  0  0
 62140  1  0  0  0
 63 65  1  0  0  0
 63141  1  0  0  0
 63142  1  0  0  0
 63143  1  0  0  0
 64144  1  0  0  0
 65145  1  0  0  0
 68 81  1  0  0  0
 71 72  2  0  0  0
 71 74  1  0  0  0
 71146  1  0  0  0
 72 75  1  0  0  0
 72147  1  0  0  0
 73 74  2  0  0  0
 73 76  1  0  0  0
 73148  1  0  0  0
 74 82  1  0  0  0
 75 76  2  0  0  0
 75 83  1  0  0  0
 76 85  1  0  0  0
 77 81  1  0  0  0
 77 84  1  0  0  0
 77 86  2  0  0  0
 78 79  1  0  0  0
 78 80  1  0  0  0
 78149  1  0  0  0
 78150  1  0  0  0
 79 81  1  0  0  0
 79151  1  0  0  0
 79152  1  0  0  0
 80 84  1  0  0  0
 80153  1  0  0  0
 80154  1  0  0  0
 81155  1  0  0  0
 82156  1  0  0  0
 82157  1  0  0  0
 82158  1  0  0  0
 83 84  1  0  0  0
 83159  1  0  0  0
 83160  1  0  0  0
 85161  1  0  0  0
M  ISO  4   1 100  68 101  81 101  85 100
M  END
> <chiral flag>
0

> <version>
0

> <s_m_source_file>
/data/baiqing/PycharmProjects/Reinvent-master-3.2/result/LINK_invent/BTK/process_docking_weight1_custom_product_contain_oxygen_bond_distance_aromatic_linkinvent_7_9_3/rearranged_h_0045.sdf

> <i_m_source_file_index>
1

> <r_mmod_Potential_Energy-OPLS-2005>
974.471984863281

> <r_mmod_Stretch_Energy-OPLS-2005>
401.736297607422

> <r_mmod_Bend_Energy-OPLS-2005>
402.616912841797

> <r_mmod_Torsional_Energy-OPLS-2005>
291.006317138672

> <r_mmod_Improper_Torsional_Energy-OPLS-2005>
6.07988882064819

> <r_mmod_Van_der_Waal_Energy-OPLS-2005>
152.362197875977

> <r_mmod_Electrostatic_Energy-OPLS-2005>
-328.164642333984

> <r_mmod_Solvation_Energy-OPLS-2005>
-232.536499023438

> <b_mmod_Minimization_Converged-OPLS-2005>
0

> <r_mmod_RMS_Derivative-OPLS-2005>
3.53706216812134

$$$$
1
                    3D
 Structure written by MMmdl.
154162  0  0  1  0            999 V2000
  -30.5905  -14.7238   20.4238 C   0  0  0  0  0  0
  -30.4386  -12.4145   19.4921 C   0  0  0  0  0  0
  -29.5193  -12.4254   18.2505 C   0  0  0  0  0  0
  -28.0315  -12.3246   18.6444 C   0  0  0  0  0  0
  -27.6439  -13.2246   19.8490 C   0  0  2  0  0  0
  -28.6829  -13.1377   20.9857 C   0  0  0  0  0  0
  -25.2521  -13.8167   20.5704 C   0  0  0  0  0  0
  -24.1795  -13.0427   20.9222 C   0  0  0  0  0  0
  -24.6380  -11.6902   20.8759 C   0  0  0  0  0  0
  -23.9054  -10.4275   21.0417 C   0  0  0  0  0  0
  -24.3604   -9.4174   21.9183 C   0  0  0  0  0  0
  -23.6272   -8.2212   22.0720 C   0  0  0  0  0  0
  -22.4246   -8.0278   21.3519 C   0  0  0  0  0  0
  -21.9901   -9.0258   20.4611 C   0  0  0  0  0  0
  -22.7243  -10.2135   20.3042 C   0  0  0  0  0  0
  -21.6835   -6.0745   22.5290 C   0  0  0  0  0  0
  -21.4026   -6.5637   23.8238 C   0  0  0  0  0  0
  -21.3651   -5.6763   24.9188 C   0  0  0  0  0  0
  -21.6021   -4.3031   24.7225 C   0  0  0  0  0  0
  -21.8811   -3.8141   23.4337 C   0  0  0  0  0  0
  -21.9184   -4.6970   22.3399 C   0  0  0  0  0  0
  -22.7813  -13.5219   21.1898 C   0  0  0  0  0  0
  -22.1655   -4.2169   21.0980 F   0  0  0  0  0  0
  -21.5614   -3.4504   25.7733 F   0  0  0  0  0  0
  -29.9891  -13.4858   20.4123 N   0  0  0  0  0  0
  -26.2930  -12.9364   20.3247 N   0  0  0  0  0  0
  -25.9300  -11.6517   20.5720 N   0  0  0  0  0  0
  -22.0422  -12.8213   22.0438 N   0  0  0  0  0  0
  -25.4268  -15.1895   20.4204 N   0  0  0  0  0  0
  -31.7745  -14.8338   20.0878 O   0  0  0  0  0  0
  -21.6589   -6.8897   21.4251 O   0  0  0  0  0  0
  -22.3506  -14.5530   20.6759 O   0  0  0  0  0  0
  -24.6321  -31.8551   23.1988 C   0  0  0  0  0  0
  -25.9145  -32.4747   23.8334 C   0  0  1  0  0  0
  -27.2235  -27.2514   20.1214 C   0  0  0  0  0  0
  -25.5928  -33.8551   24.2259 N   0  0  0  0  0  0
  -23.4308  -30.4805   21.5406 C   0  0  2  0  0  0
  -24.8802  -28.9303   20.1054 C   0  0  0  0  0  0
  -22.7511  -29.4619   22.4871 C   0  0  0  0  0  0
  -18.0297  -28.1429   22.8466 C   0  0  0  0  0  0
  -24.1486  -36.7280   23.2643 C   0  0  0  0  0  0
  -25.9796  -30.7623   21.3856 C   0  0  0  0  0  0
  -26.0509  -29.3850   20.7245 C   0  0  0  0  0  0
  -27.2215  -28.5565   20.7279 C   0  0  0  0  0  0
  -26.0323  -26.8823   19.4525 C   0  0  0  0  0  0
  -24.8770  -27.6865   19.4590 C   0  0  0  0  0  0
  -23.6514  -29.8181   20.1550 C   0  0  0  0  0  0
  -25.4113  -36.3065   24.0332 C   0  0  1  0  0  0
  -20.5904  -28.3741   23.1242 C   0  0  2  0  0  0
  -20.6786  -26.9446   22.5411 C   0  0  0  0  0  0
  -19.5764  -26.6402   21.5213 C   0  0  0  0  0  0
  -18.1943  -26.7966   22.1617 C   0  0  0  0  0  0
  -19.1550  -28.8898   23.2854 C   0  0  0  0  0  0
  -18.9477  -30.1495   23.8875 C   0  0  0  0  0  0
  -17.6474  -30.6614   24.0575 C   0  0  0  0  0  0
  -25.9055  -34.9432   23.5099 C   0  0  0  0  0  0
  -16.5362  -29.9114   23.6340 C   0  0  0  0  0  0
  -16.7286  -28.6546   23.0330 C   0  0  0  0  0  0
  -26.4499  -31.6573   25.0730 C   0  0  0  0  0  0
  -25.3708  -31.3781   26.1452 C   0  0  0  0  0  0
  -27.0329  -30.2963   24.6269 C   0  0  0  0  0  0
  -27.6082  -32.4297   25.7467 C   0  0  0  0  0  0
  -27.5584  -37.1784   24.8458 C   0  0  0  0  0  0
  -21.4212  -29.3075   22.3616 N   0  0  0  0  0  0
  -26.4287  -37.3765   23.9411 N   0  0  0  0  0  0
  -24.7000  -31.0508   22.0972 N   0  0  0  0  0  0
  -23.4199  -28.8141   23.2970 O   0  0  0  0  0  0
  -28.3069  -26.3349   20.2018 O   0  0  0  0  0  0
  -26.5633  -34.8913   22.4671 O   0  0  0  0  0  0
  -23.5467  -32.1378   23.7263 O   0  0  0  0  0  0
  -29.7611  -19.7835   18.7076 C   0  0  0  0  0  0
  -29.9163  -18.5920   17.9746 C   0  0  0  0  0  0
  -29.6256  -18.4412   20.7301 C   0  0  0  0  0  0
  -29.5747  -19.7559   20.1009 C   0  0  0  0  0  0
  -29.9082  -17.3183   18.5904 C   0  0  0  0  0  0
  -29.8253  -17.1914   20.0089 C   0  0  0  0  0  0
  -28.9995  -23.7383   20.5133 C   0  0  0  0  0  0
  -29.9076  -16.1116   17.6669 C   0  0  0  0  0  0
  -29.3971  -21.1412   20.8685 C   0  0  0  0  0  0
  -28.0776  -24.8780   19.8549 C   0  0  0  0  0  0
  -29.8034  -15.8449   20.6479 N   0  0  0  0  0  0
  -28.8437  -22.3958   20.1836 N   0  0  0  0  0  0
  -29.8300  -24.0731   21.3611 O   0  0  0  0  0  0
  -31.4765  -12.5442   19.1789 H   0  0  0  0  0  0
  -30.4004  -11.4427   19.9872 H   0  0  0  0  0  0
  -29.7782  -11.5887   17.6002 H   0  0  0  0  0  0
  -29.6949  -13.3202   17.6595 H   0  0  0  0  0  0
  -27.8319  -11.2796   18.8862 H   0  0  0  0  0  0
  -27.4025  -12.5597   17.7860 H   0  0  0  0  0  0
  -27.6482  -14.2498   19.4798 H   0  0  0  0  0  0
  -28.7051  -12.1315   21.4079 H   0  0  0  0  0  0
  -28.4181  -13.8072   21.8051 H   0  0  0  0  0  0
  -25.2754   -9.5632   22.4753 H   0  0  0  0  0  0
  -23.9973   -7.4567   22.7404 H   0  0  0  0  0  0
  -21.0844   -8.8790   19.8890 H   0  0  0  0  0  0
  -22.3721  -10.9681   19.6137 H   0  0  0  0  0  0
  -21.2049   -7.6142   23.9779 H   0  0  0  0  0  0
  -21.1472   -6.0473   25.9103 H   0  0  0  0  0  0
  -22.0605   -2.7606   23.2810 H   0  0  0  0  0  0
  -22.4009  -11.9906   22.4908 H   0  0  0  0  0  0
  -21.1033  -13.1258   22.2596 H   0  0  0  0  0  0
  -24.6732  -15.8500   20.5725 H   0  0  0  0  0  0
  -26.2825  -15.6309   20.1103 H   0  0  0  0  0  0
  -26.7209  -32.5398   23.1075 H   0  0  0  0  0  0
  -25.0042  -33.9683   25.0380 H   0  0  0  0  0  0
  -22.7290  -31.3048   21.3944 H   0  0  0  0  0  0
  -23.3750  -35.9608   23.3292 H   0  0  0  0  0  0
  -24.3582  -36.8918   22.2061 H   0  0  0  0  0  0
  -23.7234  -37.6475   23.6678 H   0  0  0  0  0  0
  -26.1272  -31.5239   20.6186 H   0  0  0  0  0  0
  -26.8531  -30.8061   22.0247 H   0  0  0  0  0  0
  -28.1119  -28.8962   21.2380 H   0  0  0  0  0  0
  -25.9548  -25.9475   18.9189 H   0  0  0  0  0  0
  -23.9853  -27.3398   18.9550 H   0  0  0  0  0  0
  -23.7783  -30.5974   19.4026 H   0  0  0  0  0  0
  -22.7696  -29.2549   19.8460 H   0  0  0  0  0  0
  -25.1292  -36.1910   25.0824 H   0  0  0  0  0  0
  -21.0009  -28.3354   24.1358 H   0  0  0  0  0  0
  -20.5679  -26.2364   23.3637 H   0  0  0  0  0  0
  -21.6659  -26.7466   22.1216 H   0  0  0  0  0  0
  -19.6926  -25.6299   21.1280 H   0  0  0  0  0  0
  -19.6715  -27.3185   20.6721 H   0  0  0  0  0  0
  -17.4214  -26.6699   21.4023 H   0  0  0  0  0  0
  -18.0343  -26.0132   22.9036 H   0  0  0  0  0  0
  -19.7952  -30.7323   24.2226 H   0  0  0  0  0  0
  -17.5033  -31.6282   24.5196 H   0  0  0  0  0  0
  -15.5368  -30.3012   23.7685 H   0  0  0  0  0  0
  -15.8687  -28.0883   22.7020 H   0  0  0  0  0  0
  -24.5857  -30.7157   25.7789 H   0  0  0  0  0  0
  -24.8928  -32.2979   26.4834 H   0  0  0  0  0  0
  -25.7995  -30.8977   27.0255 H   0  0  0  0  0  0
  -26.2926  -29.6703   24.1275 H   0  0  0  0  0  0
  -27.3940  -29.7247   25.4830 H   0  0  0  0  0  0
  -27.8843  -30.4186   23.9570 H   0  0  0  0  0  0
  -27.2729  -33.3608   26.2041 H   0  0  0  0  0  0
  -28.3872  -32.6827   25.0263 H   0  0  0  0  0  0
  -28.0769  -31.8415   26.5366 H   0  0  0  0  0  0
  -28.2604  -38.0078   24.7496 H   0  0  0  0  0  0
  -28.1073  -36.2610   24.6275 H   0  0  0  0  0  0
  -27.2315  -37.1435   25.8866 H   0  0  0  0  0  0
  -20.9400  -29.8808   21.6823 H   0  0  0  0  0  0
  -26.0167  -38.2837   24.1417 H   0  0  0  0  0  0
  -29.7833  -20.7285   18.1827 H   0  0  0  0  0  0
  -30.0215  -18.6702   16.9008 H   0  0  0  0  0  0
  -29.5089  -18.3882   21.8041 H   0  0  0  0  0  0
  -29.7413  -16.3992   16.6292 H   0  0  0  0  0  0
  -29.0946  -15.4393   17.9390 H   0  0  0  0  0  0
  -30.8521  -15.5709   17.7071 H   0  0  0  0  0  0
  -30.3748  -21.3841   21.2870 H   0  0  0  0  0  0
  -28.7555  -20.9407   21.7277 H   0  0  0  0  0  0
  -27.0701  -24.5888   20.1526 H   0  0  0  0  0  0
  -28.1289  -24.7716   18.7702 H   0  0  0  0  0  0
  -28.9677  -15.6512   21.1798 H   0  0  0  0  0  0
  -28.1552  -22.2120   19.4668 H   0  0  0  0  0  0
  1 25  1  0  0  0
  1 30  2  0  0  0
  1 81  1  0  0  0
  2  3  1  0  0  0
  2 25  1  0  0  0
  2 84  1  0  0  0
  2 85  1  0  0  0
  3  4  1  0  0  0
  3 86  1  0  0  0
  3 87  1  0  0  0
  4  5  1  0  0  0
  4 88  1  0  0  0
  4 89  1  0  0  0
  5  6  1  0  0  0
  5 26  1  0  0  0
  5 90  1  0  0  0
  6 25  1  0  0  0
  6 91  1  0  0  0
  6 92  1  0  0  0
  7  8  2  0  0  0
  7 26  1  0  0  0
  7 29  1  0  0  0
  8  9  1  0  0  0
  8 22  1  0  0  0
  9 10  1  0  0  0
  9 27  2  0  0  0
 10 11  2  0  0  0
 10 15  1  0  0  0
 11 12  1  0  0  0
 11 93  1  0  0  0
 12 13  2  0  0  0
 12 94  1  0  0  0
 13 14  1  0  0  0
 13 31  1  0  0  0
 14 15  2  0  0  0
 14 95  1  0  0  0
 15 96  1  0  0  0
 16 17  2  0  0  0
 16 21  1  0  0  0
 16 31  1  0  0  0
 17 18  1  0  0  0
 17 97  1  0  0  0
 18 19  2  0  0  0
 18 98  1  0  0  0
 19 20  1  0  0  0
 19 24  1  0  0  0
 20 21  2  0  0  0
 20 99  1  0  0  0
 21 23  1  0  0  0
 22 28  1  0  0  0
 22 32  2  0  0  0
 26 27  1  0  0  0
 28100  1  0  0  0
 28101  1  0  0  0
 29102  1  0  0  0
 29103  1  0  0  0
 33 34  1  0  0  0
 33 66  1  0  0  0
 33 70  2  0  0  0
 34 36  1  0  0  0
 34 59  1  0  0  0
 34104  1  0  0  0
 35 44  2  0  0  0
 35 45  1  0  0  0
 35 68  1  0  0  0
 36 56  1  0  0  0
 36105  1  0  0  0
 37 39  1  0  0  0
 37 47  1  0  0  0
 37 66  1  0  0  0
 37106  1  0  0  0
 38 43  2  0  0  0
 38 46  1  0  0  0
 38 47  1  0  0  0
 39 64  1  0  0  0
 39 67  2  0  0  0
 40 52  1  0  0  0
 40 53  2  0  0  0
 40 58  1  0  0  0
 41107  1  0  0  0
 41108  1  0  0  0
 41109  1  0  0  0
 41 48  1  0  0  0
 42 43  1  0  0  0
 42 66  1  0  0  0
 42110  1  0  0  0
 42111  1  0  0  0
 43 44  1  0  0  0
 44112  1  0  0  0
 45 46  2  0  0  0
 45113  1  0  0  0
 46114  1  0  0  0
 47115  1  0  0  0
 47116  1  0  0  0
 48 56  1  0  0  0
 48 65  1  0  0  0
 48117  1  0  0  0
 49 50  1  0  0  0
 49 53  1  0  0  0
 49 64  1  0  0  0
 49118  1  0  0  0
 50 51  1  0  0  0
 50119  1  0  0  0
 50120  1  0  0  0
 51 52  1  0  0  0
 51121  1  0  0  0
 51122  1  0  0  0
 52123  1  0  0  0
 52124  1  0  0  0
 53 54  1  0  0  0
 54 55  2  0  0  0
 54125  1  0  0  0
 55 57  1  0  0  0
 55126  1  0  0  0
 56 69  2  0  0  0
 57 58  2  0  0  0
 57127  1  0  0  0
 58128  1  0  0  0
 59 60  1  0  0  0
 59 61  1  0  0  0
 59 62  1  0  0  0
 60129  1  0  0  0
 60130  1  0  0  0
 60131  1  0  0  0
 61132  1  0  0  0
 61133  1  0  0  0
 61134  1  0  0  0
 62135  1  0  0  0
 62136  1  0  0  0
 62137  1  0  0  0
 63 65  1  0  0  0
 63138  1  0  0  0
 63139  1  0  0  0
 63140  1  0  0  0
 64141  1  0  0  0
 65142  1  0  0  0
 68 80  1  0  0  0
 71 72  2  0  0  0
 71 74  1  0  0  0
 71143  1  0  0  0
 72 75  1  0  0  0
 72144  1  0  0  0
 73 74  2  0  0  0
 73 76  1  0  0  0
 73145  1  0  0  0
 74 79  1  0  0  0
 75 76  2  0  0  0
 75 78  1  0  0  0
 76 81  1  0  0  0
 77 80  1  0  0  0
 77 82  1  0  0  0
 77 83  2  0  0  0
 78146  1  0  0  0
 78147  1  0  0  0
 78148  1  0  0  0
 79 82  1  0  0  0
 79149  1  0  0  0
 79150  1  0  0  0
 80151  1  0  0  0
 80152  1  0  0  0
 81153  1  0  0  0
 82154  1  0  0  0
M  ISO  4   1 100  68 101  80 101  81 100
M  END
> <chiral flag>
0

> <version>
0

> <s_m_source_file>
/data/baiqing/PycharmProjects/Reinvent-master-3.2/result/LINK_invent/BTK/process_docking_weight1_custom_product_contain_oxygen_bond_distance_aromatic_linkinvent_7_9_3/rearranged_h_0045.sdf

> <i_m_source_file_index>
2

> <r_mmod_Potential_Energy-OPLS-2005>
82.4742660522461

> <r_mmod_Stretch_Energy-OPLS-2005>
127.186416625977

> <r_mmod_Bend_Energy-OPLS-2005>
155.467315673828

> <r_mmod_Torsional_Energy-OPLS-2005>
240.650726318359

> <r_mmod_Improper_Torsional_Energy-OPLS-2005>
5.33831644058228

> <r_mmod_Van_der_Waal_Energy-OPLS-2005>
140.646057128906

> <r_mmod_Electrostatic_Energy-OPLS-2005>
-420.516448974609

> <r_mmod_Solvation_Energy-OPLS-2005>
-253.785736083984

> <b_mmod_Minimization_Converged-OPLS-2005>
0

> <r_mmod_RMS_Derivative-OPLS-2005>
2.67704463005066

$$$$
2
                    3D
 Structure written by MMmdl.
169178  0  0  1  0            999 V2000
  -30.5572  -14.7930   20.4700 C   0  0  0  0  0  0
  -30.4515  -12.4862   19.4750 C   0  0  0  0  0  0
  -29.5202  -12.5257   18.2402 C   0  0  0  0  0  0
  -28.0454  -12.3389   18.6507 C   0  0  0  0  0  0
  -27.6477  -13.2288   19.8576 C   0  0  2  0  0  0
  -28.6941  -13.1408   20.9917 C   0  0  0  0  0  0
  -25.2490  -13.8144   20.5595 C   0  0  0  0  0  0
  -24.1813  -13.0411   20.9204 C   0  0  0  0  0  0
  -24.6414  -11.6896   20.8762 C   0  0  0  0  0  0
  -23.9081  -10.4279   21.0412 C   0  0  0  0  0  0
  -24.3625   -9.4193   21.9189 C   0  0  0  0  0  0
  -23.6295   -8.2236   22.0759 C   0  0  0  0  0  0
  -22.4280   -8.0279   21.3546 C   0  0  0  0  0  0
  -21.9920   -9.0253   20.4647 C   0  0  0  0  0  0
  -22.7257  -10.2127   20.3054 C   0  0  0  0  0  0
  -21.6855   -6.0734   22.5277 C   0  0  0  0  0  0
  -21.4016   -6.5637   23.8210 C   0  0  0  0  0  0
  -21.3656   -5.6789   24.9171 C   0  0  0  0  0  0
  -21.6046   -4.3051   24.7222 C   0  0  0  0  0  0
  -21.8820   -3.8144   23.4342 C   0  0  0  0  0  0
  -21.9195   -4.6961   22.3396 C   0  0  0  0  0  0
  -22.7833  -13.5200   21.1860 C   0  0  0  0  0  0
  -22.1665   -4.2143   21.0973 F   0  0  0  0  0  0
  -21.5632   -3.4537   25.7738 F   0  0  0  0  0  0
  -29.9937  -13.5312   20.4218 N   0  0  0  0  0  0
  -26.2968  -12.9376   20.3288 N   0  0  0  0  0  0
  -25.9353  -11.6527   20.5786 N   0  0  0  0  0  0
  -22.0477  -12.8196   22.0416 N   0  0  0  0  0  0
  -25.4048  -15.1844   20.3792 N   0  0  0  0  0  0
  -31.7272  -14.9552   20.1072 O   0  0  0  0  0  0
  -21.6641   -6.8880   21.4242 O   0  0  0  0  0  0
  -22.3514  -14.5504   20.6702 O   0  0  0  0  0  0
  -24.6348  -31.8502   23.1937 C   0  0  0  0  0  0
  -25.9157  -32.4725   23.8303 C   0  0  1  0  0  0
  -27.2302  -27.2285   20.1448 C   0  0  0  0  0  0
  -25.5933  -33.8532   24.2222 N   0  0  0  0  0  0
  -23.4334  -30.4695   21.5381 C   0  0  2  0  0  0
  -24.8831  -28.9034   20.1173 C   0  0  0  0  0  0
  -22.7512  -29.4576   22.4911 C   0  0  0  0  0  0
  -18.0294  -28.1385   22.8489 C   0  0  0  0  0  0
  -24.1487  -36.7276   23.2643 C   0  0  0  0  0  0
  -25.9804  -30.7559   21.3745 C   0  0  0  0  0  0
  -26.0557  -29.3727   20.7223 C   0  0  0  0  0  0
  -27.2320  -28.5515   20.7152 C   0  0  0  0  0  0
  -26.0300  -26.8257   19.5239 C   0  0  0  0  0  0
  -24.8771  -27.6396   19.5050 C   0  0  0  0  0  0
  -23.6547  -29.7948   20.1581 C   0  0  0  0  0  0
  -25.4118  -36.3051   24.0318 C   0  0  1  0  0  0
  -20.5896  -28.3701   23.1270 C   0  0  2  0  0  0
  -20.6779  -26.9415   22.5413 C   0  0  0  0  0  0
  -19.5752  -26.6384   21.5218 C   0  0  0  0  0  0
  -18.1933  -26.7927   22.1627 C   0  0  0  0  0  0
  -19.1545  -28.8864   23.2869 C   0  0  0  0  0  0
  -18.9468  -30.1468   23.8880 C   0  0  0  0  0  0
  -17.6465  -30.6586   24.0567 C   0  0  0  0  0  0
  -25.9063  -34.9425   23.5076 C   0  0  0  0  0  0
  -16.5357  -29.9082   23.6337 C   0  0  0  0  0  0
  -16.7282  -28.6503   23.0353 C   0  0  0  0  0  0
  -26.4515  -31.6563   25.0708 C   0  0  0  0  0  0
  -25.3728  -31.3698   26.1415 C   0  0  0  0  0  0
  -27.0387  -30.2986   24.6207 C   0  0  0  0  0  0
  -27.6052  -32.4320   25.7492 C   0  0  0  0  0  0
  -27.5575  -37.1789   24.8461 C   0  0  0  0  0  0
  -21.4214  -29.3036   22.3650 N   0  0  0  0  0  0
  -26.4284  -37.3760   23.9409 N   0  0  0  0  0  0
  -24.7024  -31.0441   22.0922 N   0  0  0  0  0  0
  -23.4194  -28.8125   23.3033 O   0  0  0  0  0  0
  -28.3525  -26.3582   20.1454 O   0  0  0  0  0  0
  -26.5648  -34.8909   22.4652 O   0  0  0  0  0  0
  -23.5489  -32.1342   23.7208 O   0  0  0  0  0  0
  -28.3628  -19.4766   21.1129 C   0  0  0  0  0  0
  -30.6205  -18.2091   20.0939 C   0  0  0  0  0  0
  -28.5176  -18.0498   21.2089 C   0  0  0  0  0  0
  -30.4693  -19.6515   20.0222 C   0  0  0  0  0  0
  -29.3306  -20.3551   20.5511 C   0  0  0  0  0  0
  -29.6555  -17.3410   20.6949 C   0  0  0  0  0  0
  -29.8527  -22.7888   21.3473 C   0  0  0  0  0  0
  -30.6916  -22.4740   22.3791 C   0  0  0  0  0  0
  -29.6345  -24.3267   21.0162 C   0  0  0  0  0  0
  -27.9822  -23.8139   19.3367 C   0  0  0  0  0  0
  -27.9506  -22.3076   19.8381 C   0  0  0  0  0  0
  -28.2721  -24.8666   20.4515 C   0  0  2  0  0  0
  -27.4027  -17.3096   21.9312 C   0  0  0  0  0  0
  -31.5713  -20.4525   19.3513 C   0  0  0  0  0  0
  -30.8934  -21.0902   22.9812 C   0  0  0  0  0  0
  -31.5459  -23.5058   23.1074 C   0  0  0  0  0  0
  -29.1502  -21.8175   20.5611 N   0  0  0  0  0  0
  -29.7025  -15.8427   20.7998 N   0  0  0  0  0  0
  -31.4881  -12.6391   19.1703 H   0  0  0  0  0  0
  -30.4209  -11.5042   19.9492 H   0  0  0  0  0  0
  -29.8079  -11.7555   17.5233 H   0  0  0  0  0  0
  -29.6366  -13.4812   17.7261 H   0  0  0  0  0  0
  -27.9053  -11.2881   18.9066 H   0  0  0  0  0  0
  -27.3881  -12.5357   17.8029 H   0  0  0  0  0  0
  -27.6452  -14.2546   19.4888 H   0  0  0  0  0  0
  -28.7425  -12.1278   21.3929 H   0  0  0  0  0  0
  -28.4178  -13.7794   21.8314 H   0  0  0  0  0  0
  -25.2767   -9.5667   22.4764 H   0  0  0  0  0  0
  -23.9991   -7.4630   22.7484 H   0  0  0  0  0  0
  -21.0847   -8.8782   19.8954 H   0  0  0  0  0  0
  -22.3722  -10.9666   19.6162 H   0  0  0  0  0  0
  -21.2009   -7.6146   23.9710 H   0  0  0  0  0  0
  -21.1478   -6.0520   25.9072 H   0  0  0  0  0  0
  -22.0601   -2.7606   23.2843 H   0  0  0  0  0  0
  -22.4101  -11.9855   22.4795 H   0  0  0  0  0  0
  -21.1096  -13.1228   22.2627 H   0  0  0  0  0  0
  -24.6149  -15.8158   20.4527 H   0  0  0  0  0  0
  -26.2171  -15.6148   19.9584 H   0  0  0  0  0  0
  -26.7226  -32.5366   23.1046 H   0  0  0  0  0  0
  -25.0054  -33.9664   25.0348 H   0  0  0  0  0  0
  -22.7316  -31.2919   21.3856 H   0  0  0  0  0  0
  -23.3754  -35.9600   23.3282 H   0  0  0  0  0  0
  -24.3577  -36.8934   22.2063 H   0  0  0  0  0  0
  -23.7235  -37.6463   23.6695 H   0  0  0  0  0  0
  -26.1181  -31.5116   20.6002 H   0  0  0  0  0  0
  -26.8584  -30.8116   22.0069 H   0  0  0  0  0  0
  -28.1356  -28.9130   21.1853 H   0  0  0  0  0  0
  -25.9682  -25.8627   19.0448 H   0  0  0  0  0  0
  -23.9799  -27.2746   19.0241 H   0  0  0  0  0  0
  -23.7801  -30.5664   19.3976 H   0  0  0  0  0  0
  -22.7726  -29.2276   19.8549 H   0  0  0  0  0  0
  -25.1296  -36.1886   25.0807 H   0  0  0  0  0  0
  -20.9992  -28.3285   24.1391 H   0  0  0  0  0  0
  -20.5684  -26.2306   23.3619 H   0  0  0  0  0  0
  -21.6644  -26.7430   22.1207 H   0  0  0  0  0  0
  -19.6910  -25.6296   21.1246 H   0  0  0  0  0  0
  -19.6683  -27.3197   20.6751 H   0  0  0  0  0  0
  -17.4200  -26.6687   21.4031 H   0  0  0  0  0  0
  -18.0319  -26.0068   22.9020 H   0  0  0  0  0  0
  -19.7943  -30.7296   24.2225 H   0  0  0  0  0  0
  -17.5015  -31.6256   24.5182 H   0  0  0  0  0  0
  -15.5355  -30.2976   23.7665 H   0  0  0  0  0  0
  -15.8685  -28.0821   22.7062 H   0  0  0  0  0  0
  -24.5921  -30.7032   25.7732 H   0  0  0  0  0  0
  -24.8901  -32.2857   26.4832 H   0  0  0  0  0  0
  -25.8042  -30.8880   27.0198 H   0  0  0  0  0  0
  -26.2986  -29.6704   24.1239 H   0  0  0  0  0  0
  -27.4087  -29.7270   25.4728 H   0  0  0  0  0  0
  -27.8842  -30.4272   23.9446 H   0  0  0  0  0  0
  -27.2657  -33.3638   26.2025 H   0  0  0  0  0  0
  -28.3890  -32.6851   25.0341 H   0  0  0  0  0  0
  -28.0689  -31.8473   26.5447 H   0  0  0  0  0  0
  -28.2566  -38.0114   24.7542 H   0  0  0  0  0  0
  -28.1097  -36.2641   24.6246 H   0  0  0  0  0  0
  -27.2292  -37.1392   25.8865 H   0  0  0  0  0  0
  -20.9405  -29.8759   21.6850 H   0  0  0  0  0  0
  -26.0148  -38.2819   24.1441 H   0  0  0  0  0  0
  -27.4749  -19.9182   21.5417 H   0  0  0  0  0  0
  -31.5085  -17.7618   19.6703 H   0  0  0  0  0  0
  -30.4392  -24.6267   20.3441 H   0  0  0  0  0  0
  -29.7757  -24.9076   21.9259 H   0  0  0  0  0  0
  -27.0291  -24.0231   18.8568 H   0  0  0  0  0  0
  -28.7312  -23.9104   18.5500 H   0  0  0  0  0  0
  -27.7717  -21.6585   18.9793 H   0  0  0  0  0  0
  -27.0925  -22.1745   20.4983 H   0  0  0  0  0  0
  -27.5140  -24.7451   21.2267 H   0  0  0  0  0  0
  -27.4267  -17.5532   22.9933 H   0  0  0  0  0  0
  -27.4596  -16.2269   21.8465 H   0  0  0  0  0  0
  -26.4330  -17.6183   21.5395 H   0  0  0  0  0  0
  -32.2269  -19.8141   18.7594 H   0  0  0  0  0  0
  -32.1788  -20.9676   20.0953 H   0  0  0  0  0  0
  -31.1465  -21.2029   18.6834 H   0  0  0  0  0  0
  -29.9629  -20.5301   23.0363 H   0  0  0  0  0  0
  -31.2494  -21.1639   24.0091 H   0  0  0  0  0  0
  -31.6333  -20.5203   22.4209 H   0  0  0  0  0  0
  -31.7857  -24.3767   22.4991 H   0  0  0  0  0  0
  -32.5062  -23.0714   23.3878 H   0  0  0  0  0  0
  -31.0485  -23.8374   24.0194 H   0  0  0  0  0  0
  -28.8315  -15.4633   21.1348 H   0  0  0  0  0  0
  1 25  1  0  0  0
  1 30  2  0  0  0
  1 88  1  0  0  0
  2  3  1  0  0  0
  2 25  1  0  0  0
  2 89  1  0  0  0
  2 90  1  0  0  0
  3  4  1  0  0  0
  3 91  1  0  0  0
  3 92  1  0  0  0
  4  5  1  0  0  0
  4 93  1  0  0  0
  4 94  1  0  0  0
  5  6  1  0  0  0
  5 26  1  0  0  0
  5 95  1  0  0  0
  6 25  1  0  0  0
  6 96  1  0  0  0
  6 97  1  0  0  0
  7  8  2  0  0  0
  7 26  1  0  0  0
  7 29  1  0  0  0
  8  9  1  0  0  0
  8 22  1  0  0  0
  9 10  1  0  0  0
  9 27  2  0  0  0
 10 11  2  0  0  0
 10 15  1  0  0  0
 11 12  1  0  0  0
 11 98  1  0  0  0
 12 13  2  0  0  0
 12 99  1  0  0  0
 13 14  1  0  0  0
 13 31  1  0  0  0
 14 15  2  0  0  0
 14100  1  0  0  0
 15101  1  0  0  0
 16 17  2  0  0  0
 16 21  1  0  0  0
 16 31  1  0  0  0
 17 18  1  0  0  0
 17102  1  0  0  0
 18 19  2  0  0  0
 18103  1  0  0  0
 19 20  1  0  0  0
 19 24  1  0  0  0
 20 21  2  0  0  0
 20104  1  0  0  0
 21 23  1  0  0  0
 22 28  1  0  0  0
 22 32  2  0  0  0
 26 27  1  0  0  0
 28105  1  0  0  0
 28106  1  0  0  0
 29107  1  0  0  0
 29108  1  0  0  0
 33 34  1  0  0  0
 33 66  1  0  0  0
 33 70  2  0  0  0
 34 36  1  0  0  0
 34 59  1  0  0  0
 34109  1  0  0  0
 35 44  2  0  0  0
 35 45  1  0  0  0
 35 68  1  0  0  0
 36 56  1  0  0  0
 36110  1  0  0  0
 37 39  1  0  0  0
 37 47  1  0  0  0
 37 66  1  0  0  0
 37111  1  0  0  0
 38 43  2  0  0  0
 38 46  1  0  0  0
 38 47  1  0  0  0
 39 64  1  0  0  0
 39 67  2  0  0  0
 40 52  1  0  0  0
 40 53  2  0  0  0
 40 58  1  0  0  0
 41112  1  0  0  0
 41113  1  0  0  0
 41114  1  0  0  0
 41 48  1  0  0  0
 42 43  1  0  0  0
 42 66  1  0  0  0
 42115  1  0  0  0
 42116  1  0  0  0
 43 44  1  0  0  0
 44117  1  0  0  0
 45 46  2  0  0  0
 45118  1  0  0  0
 46119  1  0  0  0
 47120  1  0  0  0
 47121  1  0  0  0
 48 56  1  0  0  0
 48 65  1  0  0  0
 48122  1  0  0  0
 49 50  1  0  0  0
 49 53  1  0  0  0
 49 64  1  0  0  0
 49123  1  0  0  0
 50 51  1  0  0  0
 50124  1  0  0  0
 50125  1  0  0  0
 51 52  1  0  0  0
 51126  1  0  0  0
 51127  1  0  0  0
 52128  1  0  0  0
 52129  1  0  0  0
 53 54  1  0  0  0
 54 55  2  0  0  0
 54130  1  0  0  0
 55 57  1  0  0  0
 55131  1  0  0  0
 56 69  2  0  0  0
 57 58  2  0  0  0
 57132  1  0  0  0
 58133  1  0  0  0
 59 60  1  0  0  0
 59 61  1  0  0  0
 59 62  1  0  0  0
 60134  1  0  0  0
 60135  1  0  0  0
 60136  1  0  0  0
 61137  1  0  0  0
 61138  1  0  0  0
 61139  1  0  0  0
 62140  1  0  0  0
 62141  1  0  0  0
 62142  1  0  0  0
 63 65  1  0  0  0
 63143  1  0  0  0
 63144  1  0  0  0
 63145  1  0  0  0
 64146  1  0  0  0
 65147  1  0  0  0
 68 82  1  0  0  0
 71 73  2  0  0  0
 71 75  1  0  0  0
 71148  1  0  0  0
 72 74  1  0  0  0
 72 76  2  0  0  0
 72149  1  0  0  0
 73 76  1  0  0  0
 73 83  1  0  0  0
 74 75  2  0  0  0
 74 84  1  0  0  0
 75 87  1  0  0  0
 76 88  1  0  0  0
 77 78  2  0  0  0
 77 79  1  0  0  0
 77 87  1  0  0  0
 78 85  1  0  0  0
 78 86  1  0  0  0
 79 82  1  0  0  0
 79150  1  0  0  0
 79151  1  0  0  0
 80 81  1  0  0  0
 80 82  1  0  0  0
 80152  1  0  0  0
 80153  1  0  0  0
 81 87  1  0  0  0
 81154  1  0  0  0
 81155  1  0  0  0
 82156  1  0  0  0
 83157  1  0  0  0
 83158  1  0  0  0
 83159  1  0  0  0
 84160  1  0  0  0
 84161  1  0  0  0
 84162  1  0  0  0
 85163  1  0  0  0
 85164  1  0  0  0
 85165  1  0  0  0
 86166  1  0  0  0
 86167  1  0  0  0
 86168  1  0  0  0
 88169  1  0  0  0
M  ISO  4   1 100  68 101  82 101  88 100
M  END
> <chiral flag>
0

> <version>
0

> <s_m_source_file>
/data/baiqing/PycharmProjects/Reinvent-master-3.2/result/LINK_invent/BTK/process_docking_weight1_custom_product_contain_oxygen_bond_distance_aromatic_linkinvent_7_9_3/rearranged_h_0045.sdf

> <i_m_source_file_index>
3

> <r_mmod_Potential_Energy-OPLS-2005>
221.090728759766

> <r_mmod_Stretch_Energy-OPLS-2005>
140.860061645508

> <r_mmod_Bend_Energy-OPLS-2005>
214.312866210938

> <r_mmod_Torsional_Energy-OPLS-2005>
269.216613769531

> <r_mmod_Improper_Torsional_Energy-OPLS-2005>
4.33320999145508

> <r_mmod_Van_der_Waal_Energy-OPLS-2005>
148.167694091797

> <r_mmod_Electrostatic_Energy-OPLS-2005>
-459.089508056641

> <r_mmod_Solvation_Energy-OPLS-2005>
-197.787811279297

> <b_mmod_Minimization_Converged-OPLS-2005>
0

> <r_mmod_RMS_Derivative-OPLS-2005>
0.987866878509521

$$$$
3
                    3D
 Structure written by MMmdl.
164173  0  0  1  0            999 V2000
  -30.5958  -14.7554   20.5102 C   0  0  0  0  0  0
  -30.4304  -12.4692   19.4826 C   0  0  0  0  0  0
  -29.5140  -12.5305   18.2408 C   0  0  0  0  0  0
  -28.0340  -12.3572   18.6372 C   0  0  0  0  0  0
  -27.6377  -13.2376   19.8530 C   0  0  2  0  0  0
  -28.6775  -13.1590   20.9910 C   0  0  0  0  0  0
  -25.2459  -13.8221   20.5694 C   0  0  0  0  0  0
  -24.1769  -13.0422   20.9217 C   0  0  0  0  0  0
  -24.6395  -11.6914   20.8736 C   0  0  0  0  0  0
  -23.9076  -10.4294   21.0388 C   0  0  0  0  0  0
  -24.3629   -9.4212   21.9168 C   0  0  0  0  0  0
  -23.6298   -8.2245   22.0747 C   0  0  0  0  0  0
  -22.4283   -8.0280   21.3531 C   0  0  0  0  0  0
  -21.9899   -9.0260   20.4655 C   0  0  0  0  0  0
  -22.7228  -10.2135   20.3054 C   0  0  0  0  0  0
  -21.6851   -6.0740   22.5286 C   0  0  0  0  0  0
  -21.4026   -6.5645   23.8225 C   0  0  0  0  0  0
  -21.3667   -5.6790   24.9182 C   0  0  0  0  0  0
  -21.6040   -4.3056   24.7220 C   0  0  0  0  0  0
  -21.8811   -3.8149   23.4343 C   0  0  0  0  0  0
  -21.9190   -4.6969   22.3403 C   0  0  0  0  0  0
  -22.7796  -13.5209   21.1865 C   0  0  0  0  0  0
  -22.1654   -4.2157   21.0976 F   0  0  0  0  0  0
  -21.5625   -3.4540   25.7732 F   0  0  0  0  0  0
  -29.9769  -13.5270   20.4158 N   0  0  0  0  0  0
  -26.2906  -12.9432   20.3271 N   0  0  0  0  0  0
  -25.9327  -11.6565   20.5741 N   0  0  0  0  0  0
  -22.0459  -12.8197   22.0457 N   0  0  0  0  0  0
  -25.4079  -15.1947   20.4131 N   0  0  0  0  0  0
  -31.7763  -14.8629   20.1628 O   0  0  0  0  0  0
  -21.6633   -6.8879   21.4243 O   0  0  0  0  0  0
  -22.3461  -14.5503   20.6712 O   0  0  0  0  0  0
  -24.6267  -31.8569   23.2032 C   0  0  0  0  0  0
  -25.9107  -32.4765   23.8366 C   0  0  1  0  0  0
  -27.2012  -27.2468   20.1756 C   0  0  0  0  0  0
  -25.5858  -33.8568   24.2240 N   0  0  0  0  0  0
  -23.4264  -30.4797   21.5423 C   0  0  2  0  0  0
  -24.8759  -28.9249   20.1105 C   0  0  0  0  0  0
  -22.7478  -29.4604   22.4906 C   0  0  0  0  0  0
  -18.0283  -28.1400   22.8486 C   0  0  0  0  0  0
  -24.1476  -36.7308   23.2654 C   0  0  0  0  0  0
  -25.9722  -30.7639   21.3907 C   0  0  0  0  0  0
  -26.0432  -29.3860   20.7344 C   0  0  0  0  0  0
  -27.2126  -28.5594   20.7531 C   0  0  0  0  0  0
  -26.0290  -26.8660   19.4898 C   0  0  0  0  0  0
  -24.8739  -27.6744   19.4737 C   0  0  0  0  0  0
  -23.6479  -29.8170   20.1553 C   0  0  0  0  0  0
  -25.4113  -36.3088   24.0315 C   0  0  1  0  0  0
  -20.5890  -28.3685   23.1272 C   0  0  2  0  0  0
  -20.6774  -26.9411   22.5408 C   0  0  0  0  0  0
  -19.5744  -26.6383   21.5212 C   0  0  0  0  0  0
  -18.1916  -26.7951   22.1622 C   0  0  0  0  0  0
  -19.1542  -28.8856   23.2880 C   0  0  0  0  0  0
  -18.9474  -30.1458   23.8889 C   0  0  0  0  0  0
  -17.6469  -30.6591   24.0570 C   0  0  0  0  0  0
  -25.9034  -34.9442   23.5099 C   0  0  0  0  0  0
  -16.5356  -29.9086   23.6344 C   0  0  0  0  0  0
  -16.7268  -28.6517   23.0350 C   0  0  0  0  0  0
  -26.4518  -31.6650   25.0777 C   0  0  0  0  0  0
  -25.3771  -31.3802   26.1528 C   0  0  0  0  0  0
  -27.0458  -30.3093   24.6325 C   0  0  0  0  0  0
  -27.6011  -32.4511   25.7507 C   0  0  0  0  0  0
  -27.5583  -37.1820   24.8440 C   0  0  0  0  0  0
  -21.4180  -29.3026   22.3642 N   0  0  0  0  0  0
  -26.4292  -37.3789   23.9391 N   0  0  0  0  0  0
  -24.6936  -31.0530   22.1006 N   0  0  0  0  0  0
  -23.4197  -28.8130   23.2987 O   0  0  0  0  0  0
  -28.2795  -26.3376   20.2174 O   0  0  0  0  0  0
  -26.5664  -34.8928   22.4693 O   0  0  0  0  0  0
  -23.5418  -32.1391   23.7311 O   0  0  0  0  0  0
  -31.4081  -18.9366   22.4302 C   0  0  0  0  0  0
  -29.4208  -18.4578   20.5838 C   0  0  0  0  0  0
  -30.7293  -20.0459   21.8825 C   0  0  0  0  0  0
  -31.1263  -17.5955   22.0843 C   0  0  0  0  0  0
  -29.6775  -19.8499   20.9490 C   0  0  0  0  0  0
  -30.1397  -17.2983   21.1062 C   0  0  0  0  0  0
  -28.6969  -23.6887   20.2161 C   0  0  0  0  0  0
  -26.7907  -23.3109   22.3784 C   0  0  0  0  0  0
  -26.8232  -24.6810   21.6449 C   0  0  0  0  0  0
  -28.0893  -22.4773   22.2435 C   0  0  0  0  0  0
  -28.1741  -25.0128   20.9520 C   0  0  2  0  0  0
  -31.2088  -21.4195   22.3275 C   0  0  0  0  0  0
  -31.8924  -16.5107   22.8293 C   0  0  0  0  0  0
  -28.9208  -21.0840   20.2537 C   0  0  0  0  0  0
  -28.6441  -22.4642   20.8795 N   0  0  0  0  0  0
  -29.8116  -15.8790   20.7681 N   0  0  0  0  0  0
  -29.1180  -23.7778   19.0577 O   0  0  0  0  0  0
  -31.4748  -12.5987   19.1917 H   0  0  0  0  0  0
  -30.3718  -11.4905   19.9614 H   0  0  0  0  0  0
  -29.8035  -11.7667   17.5190 H   0  0  0  0  0  0
  -29.6468  -13.4928   17.7415 H   0  0  0  0  0  0
  -27.8725  -11.3062   18.8728 H   0  0  0  0  0  0
  -27.3919  -12.5864   17.7868 H   0  0  0  0  0  0
  -27.6319  -14.2643   19.4866 H   0  0  0  0  0  0
  -28.7171  -12.1557   21.4172 H   0  0  0  0  0  0
  -28.4073  -13.8286   21.8093 H   0  0  0  0  0  0
  -25.2777   -9.5686   22.4733 H   0  0  0  0  0  0
  -24.0019   -7.4632   22.7455 H   0  0  0  0  0  0
  -21.0826   -8.8779   19.8971 H   0  0  0  0  0  0
  -22.3684  -10.9670   19.6173 H   0  0  0  0  0  0
  -21.2030   -7.6155   23.9730 H   0  0  0  0  0  0
  -21.1496   -6.0524   25.9084 H   0  0  0  0  0  0
  -22.0581   -2.7610   23.2837 H   0  0  0  0  0  0
  -22.4083  -11.9866   22.4853 H   0  0  0  0  0  0
  -21.1094  -13.1238   22.2702 H   0  0  0  0  0  0
  -24.6264  -15.8330   20.5189 H   0  0  0  0  0  0
  -26.2481  -15.6507   20.0821 H   0  0  0  0  0  0
  -26.7152  -32.5421   23.1095 H   0  0  0  0  0  0
  -24.9911  -33.9736   25.0311 H   0  0  0  0  0  0
  -22.7201  -31.3011   21.3974 H   0  0  0  0  0  0
  -23.3744  -35.9639   23.3328 H   0  0  0  0  0  0
  -24.3531  -36.8944   22.2065 H   0  0  0  0  0  0
  -23.7230  -37.6493   23.6702 H   0  0  0  0  0  0
  -26.1299  -31.5313   20.6334 H   0  0  0  0  0  0
  -26.8403  -30.8004   22.0357 H   0  0  0  0  0  0
  -28.1046  -28.9041   21.2591 H   0  0  0  0  0  0
  -25.9933  -25.9077   18.9904 H   0  0  0  0  0  0
  -23.9839  -27.3224   18.9704 H   0  0  0  0  0  0
  -23.7770  -30.5974   19.4033 H   0  0  0  0  0  0
  -22.7660  -29.2533   19.8454 H   0  0  0  0  0  0
  -25.1319  -36.1943   25.0809 H   0  0  0  0  0  0
  -20.9998  -28.3283   24.1390 H   0  0  0  0  0  0
  -20.5659  -26.2310   23.3611 H   0  0  0  0  0  0
  -21.6643  -26.7424   22.1211 H   0  0  0  0  0  0
  -19.6904  -25.6282   21.1245 H   0  0  0  0  0  0
  -19.6699  -27.3189   20.6734 H   0  0  0  0  0  0
  -17.4202  -26.6695   21.4009 H   0  0  0  0  0  0
  -18.0320  -26.0087   22.9011 H   0  0  0  0  0  0
  -19.7945  -30.7284   24.2258 H   0  0  0  0  0  0
  -17.5020  -31.6271   24.5186 H   0  0  0  0  0  0
  -15.5355  -30.2989   23.7678 H   0  0  0  0  0  0
  -15.8672  -28.0829   22.7071 H   0  0  0  0  0  0
  -24.5684  -30.7522   25.7786 H   0  0  0  0  0  0
  -24.9371  -32.3020   26.5324 H   0  0  0  0  0  0
  -25.8035  -30.8559   27.0089 H   0  0  0  0  0  0
  -26.3126  -29.6726   24.1369 H   0  0  0  0  0  0
  -27.4182  -29.7467   25.4899 H   0  0  0  0  0  0
  -27.8958  -30.4410   23.9623 H   0  0  0  0  0  0
  -27.2533  -33.3768   26.2094 H   0  0  0  0  0  0
  -28.0799  -31.8721   26.5411 H   0  0  0  0  0  0
  -28.3739  -32.7214   25.0304 H   0  0  0  0  0  0
  -28.2590  -38.0128   24.7489 H   0  0  0  0  0  0
  -28.1092  -36.2653   24.6270 H   0  0  0  0  0  0
  -27.2299  -37.1473   25.8842 H   0  0  0  0  0  0
  -20.9367  -29.8754   21.6846 H   0  0  0  0  0  0
  -26.0174  -38.2864   24.1383 H   0  0  0  0  0  0
  -32.1908  -19.1220   23.1551 H   0  0  0  0  0  0
  -28.6444  -18.2793   19.8538 H   0  0  0  0  0  0
  -25.9513  -22.7195   22.0114 H   0  0  0  0  0  0
  -26.5717  -23.4657   23.4375 H   0  0  0  0  0  0
  -26.5688  -25.4746   22.3470 H   0  0  0  0  0  0
  -26.0215  -24.6585   20.9082 H   0  0  0  0  0  0
  -27.9287  -21.4616   22.6101 H   0  0  0  0  0  0
  -28.8243  -22.9329   22.9053 H   0  0  0  0  0  0
  -28.8925  -25.1404   21.7669 H   0  0  0  0  0  0
  -32.2261  -21.3697   22.7171 H   0  0  0  0  0  0
  -30.5998  -21.7980   23.1449 H   0  0  0  0  0  0
  -31.2217  -22.1439   21.5136 H   0  0  0  0  0  0
  -32.3288  -16.9012   23.7474 H   0  0  0  0  0  0
  -32.7047  -16.1169   22.2179 H   0  0  0  0  0  0
  -31.2368  -15.6895   23.1207 H   0  0  0  0  0  0
  -29.4842  -21.2667   19.3377 H   0  0  0  0  0  0
  -27.9559  -20.7101   19.9170 H   0  0  0  0  0  0
  -28.8256  -15.6750   20.7559 H   0  0  0  0  0  0
  1 25  1  0  0  0
  1 30  2  0  0  0
  1 86  1  0  0  0
  2  3  1  0  0  0
  2 25  1  0  0  0
  2 88  1  0  0  0
  2 89  1  0  0  0
  3  4  1  0  0  0
  3 90  1  0  0  0
  3 91  1  0  0  0
  4  5  1  0  0  0
  4 92  1  0  0  0
  4 93  1  0  0  0
  5  6  1  0  0  0
  5 26  1  0  0  0
  5 94  1  0  0  0
  6 25  1  0  0  0
  6 95  1  0  0  0
  6 96  1  0  0  0
  7  8  2  0  0  0
  7 26  1  0  0  0
  7 29  1  0  0  0
  8  9  1  0  0  0
  8 22  1  0  0  0
  9 10  1  0  0  0
  9 27  2  0  0  0
 10 11  2  0  0  0
 10 15  1  0  0  0
 11 12  1  0  0  0
 11 97  1  0  0  0
 12 13  2  0  0  0
 12 98  1  0  0  0
 13 14  1  0  0  0
 13 31  1  0  0  0
 14 15  2  0  0  0
 14 99  1  0  0  0
 15100  1  0  0  0
 16 17  2  0  0  0
 16 21  1  0  0  0
 16 31  1  0  0  0
 17 18  1  0  0  0
 17101  1  0  0  0
 18 19  2  0  0  0
 18102  1  0  0  0
 19 20  1  0  0  0
 19 24  1  0  0  0
 20 21  2  0  0  0
 20103  1  0  0  0
 21 23  1  0  0  0
 22 28  1  0  0  0
 22 32  2  0  0  0
 26 27  1  0  0  0
 28104  1  0  0  0
 28105  1  0  0  0
 29106  1  0  0  0
 29107  1  0  0  0
 33 34  1  0  0  0
 33 66  1  0  0  0
 33 70  2  0  0  0
 34 36  1  0  0  0
 34 59  1  0  0  0
 34108  1  0  0  0
 35 44  2  0  0  0
 35 45  1  0  0  0
 35 68  1  0  0  0
 36 56  1  0  0  0
 36109  1  0  0  0
 37 39  1  0  0  0
 37 47  1  0  0  0
 37 66  1  0  0  0
 37110  1  0  0  0
 38 43  2  0  0  0
 38 46  1  0  0  0
 38 47  1  0  0  0
 39 64  1  0  0  0
 39 67  2  0  0  0
 40 52  1  0  0  0
 40 53  2  0  0  0
 40 58  1  0  0  0
 41111  1  0  0  0
 41112  1  0  0  0
 41113  1  0  0  0
 41 48  1  0  0  0
 42 43  1  0  0  0
 42 66  1  0  0  0
 42114  1  0  0  0
 42115  1  0  0  0
 43 44  1  0  0  0
 44116  1  0  0  0
 45 46  2  0  0  0
 45117  1  0  0  0
 46118  1  0  0  0
 47119  1  0  0  0
 47120  1  0  0  0
 48 56  1  0  0  0
 48 65  1  0  0  0
 48121  1  0  0  0
 49 50  1  0  0  0
 49 53  1  0  0  0
 49 64  1  0  0  0
 49122  1  0  0  0
 50 51  1  0  0  0
 50123  1  0  0  0
 50124  1  0  0  0
 51 52  1  0  0  0
 51125  1  0  0  0
 51126  1  0  0  0
 52127  1  0  0  0
 52128  1  0  0  0
 53 54  1  0  0  0
 54 55  2  0  0  0
 54129  1  0  0  0
 55 57  1  0  0  0
 55130  1  0  0  0
 56 69  2  0  0  0
 57 58  2  0  0  0
 57131  1  0  0  0
 58132  1  0  0  0
 59 60  1  0  0  0
 59 61  1  0  0  0
 59 62  1  0  0  0
 60133  1  0  0  0
 60134  1  0  0  0
 60135  1  0  0  0
 61136  1  0  0  0
 61137  1  0  0  0
 61138  1  0  0  0
 62139  1  0  0  0
 62140  1  0  0  0
 62141  1  0  0  0
 63 65  1  0  0  0
 63142  1  0  0  0
 63143  1  0  0  0
 63144  1  0  0  0
 64145  1  0  0  0
 65146  1  0  0  0
 68 81  1  0  0  0
 71 73  2  0  0  0
 71 74  1  0  0  0
 71147  1  0  0  0
 72 75  2  0  0  0
 72 76  1  0  0  0
 72148  1  0  0  0
 73 75  1  0  0  0
 73 82  1  0  0  0
 74 76  2  0  0  0
 74 83  1  0  0  0
 75 84  1  0  0  0
 76 86  1  0  0  0
 77 81  1  0  0  0
 77 85  1  0  0  0
 77 87  2  0  0  0
 78 79  1  0  0  0
 78 80  1  0  0  0
 78149  1  0  0  0
 78150  1  0  0  0
 79 81  1  0  0  0
 79151  1  0  0  0
 79152  1  0  0  0
 80 85  1  0  0  0
 80153  1  0  0  0
 80154  1  0  0  0
 81155  1  0  0  0
 82156  1  0  0  0
 82157  1  0  0  0
 82158  1  0  0  0
 83159  1  0  0  0
 83160  1  0  0  0
 83161  1  0  0  0
 84 85  1  0  0  0
 84162  1  0  0  0
 84163  1  0  0  0
 86164  1  0  0  0
M  ISO  4   1 100  68 101  81 101  86 100
M  END
> <chiral flag>
0

> <version>
0

> <s_m_source_file>
/data/baiqing/PycharmProjects/Reinvent-master-3.2/result/LINK_invent/BTK/process_docking_weight1_custom_product_contain_oxygen_bond_distance_aromatic_linkinvent_7_9_3/rearranged_h_0045.sdf

> <i_m_source_file_index>
4

> <r_mmod_Potential_Energy-OPLS-2005>
270.909027099609

> <r_mmod_Stretch_Energy-OPLS-2005>
137.38801574707

> <r_mmod_Bend_Energy-OPLS-2005>
182.159088134766

> <r_mmod_Torsional_Energy-OPLS-2005>
281.950317382812

> <r_mmod_Improper_Torsional_Energy-OPLS-2005>
6.17591619491577

> <r_mmod_Van_der_Waal_Energy-OPLS-2005>
152.862869262695

> <r_mmod_Electrostatic_Energy-OPLS-2005>
-357.100219726562

> <r_mmod_Solvation_Energy-OPLS-2005>
-225.615692138672

> <b_mmod_Minimization_Converged-OPLS-2005>
0

> <r_mmod_RMS_Derivative-OPLS-2005>
5.01516056060791

$$$$
4
                    3D
 Structure written by MMmdl.
164173  0  0  1  0            999 V2000
  -30.6229  -14.6680   20.4882 C   0  0  0  0  0  0
  -30.4388  -12.4078   19.4584 C   0  0  0  0  0  0
  -29.5109  -12.5077   18.2273 C   0  0  0  0  0  0
  -28.0341  -12.3431   18.6381 C   0  0  0  0  0  0
  -27.6499  -13.2203   19.8592 C   0  0  2  0  0  0
  -28.6960  -13.0971   20.9906 C   0  0  0  0  0  0
  -25.2465  -13.8064   20.5590 C   0  0  0  0  0  0
  -24.1787  -13.0352   20.9215 C   0  0  0  0  0  0
  -24.6406  -11.6850   20.8781 C   0  0  0  0  0  0
  -23.9080  -10.4246   21.0433 C   0  0  0  0  0  0
  -24.3623   -9.4161   21.9210 C   0  0  0  0  0  0
  -23.6286   -8.2204   22.0765 C   0  0  0  0  0  0
  -22.4269   -8.0261   21.3546 C   0  0  0  0  0  0
  -21.9914   -9.0240   20.4648 C   0  0  0  0  0  0
  -22.7256  -10.2111   20.3068 C   0  0  0  0  0  0
  -21.6838   -6.0731   22.5280 C   0  0  0  0  0  0
  -21.4006   -6.5640   23.8218 C   0  0  0  0  0  0
  -21.3657   -5.6789   24.9182 C   0  0  0  0  0  0
  -21.6043   -4.3051   24.7231 C   0  0  0  0  0  0
  -21.8819   -3.8144   23.4350 C   0  0  0  0  0  0
  -21.9192   -4.6960   22.3404 C   0  0  0  0  0  0
  -22.7816  -13.5166   21.1861 C   0  0  0  0  0  0
  -22.1660   -4.2149   21.0977 F   0  0  0  0  0  0
  -21.5633   -3.4530   25.7745 F   0  0  0  0  0  0
  -30.0102  -13.4408   20.4243 N   0  0  0  0  0  0
  -26.2966  -12.9318   20.3291 N   0  0  0  0  0  0
  -25.9347  -11.6474   20.5798 N   0  0  0  0  0  0
  -22.0451  -12.8185   22.0427 N   0  0  0  0  0  0
  -25.3977  -15.1726   20.3758 N   0  0  0  0  0  0
  -31.7936  -14.8081   20.1232 O   0  0  0  0  0  0
  -21.6621   -6.8871   21.4241 O   0  0  0  0  0  0
  -22.3520  -14.5475   20.6695 O   0  0  0  0  0  0
  -24.6219  -31.8599   23.2015 C   0  0  0  0  0  0
  -25.9071  -32.4780   23.8349 C   0  0  1  0  0  0
  -27.2280  -27.3240   20.1342 C   0  0  0  0  0  0
  -25.5904  -33.8580   24.2279 N   0  0  0  0  0  0
  -23.4182  -30.4807   21.5422 C   0  0  2  0  0  0
  -24.8680  -28.9309   20.1170 C   0  0  0  0  0  0
  -22.7460  -29.4614   22.4921 C   0  0  0  0  0  0
  -18.0288  -28.1388   22.8506 C   0  0  0  0  0  0
  -24.1484  -36.7291   23.2637 C   0  0  0  0  0  0
  -25.9564  -30.7911   21.3732 C   0  0  0  0  0  0
  -26.0327  -29.4137   20.7280 C   0  0  0  0  0  0
  -27.2157  -28.6198   20.7322 C   0  0  0  0  0  0
  -26.0529  -26.8991   19.4793 C   0  0  0  0  0  0
  -24.8782  -27.6762   19.4852 C   0  0  0  0  0  0
  -23.6364  -29.8108   20.1588 C   0  0  0  0  0  0
  -25.4112  -36.3081   24.0327 C   0  0  1  0  0  0
  -20.5892  -28.3683   23.1293 C   0  0  2  0  0  0
  -20.6783  -26.9410   22.5414 C   0  0  0  0  0  0
  -19.5758  -26.6394   21.5215 C   0  0  0  0  0  0
  -18.1935  -26.7945   22.1623 C   0  0  0  0  0  0
  -19.1545  -28.8853   23.2902 C   0  0  0  0  0  0
  -18.9465  -30.1465   23.8904 C   0  0  0  0  0  0
  -17.6465  -30.6595   24.0578 C   0  0  0  0  0  0
  -25.9049  -34.9450   23.5109 C   0  0  0  0  0  0
  -16.5355  -29.9099   23.6336 C   0  0  0  0  0  0
  -16.7278  -28.6517   23.0357 C   0  0  0  0  0  0
  -26.4475  -31.6580   25.0699 C   0  0  0  0  0  0
  -25.3721  -31.3728   26.1432 C   0  0  0  0  0  0
  -27.0308  -30.3010   24.6124 C   0  0  0  0  0  0
  -27.6036  -32.4313   25.7479 C   0  0  0  0  0  0
  -27.5588  -37.1799   24.8460 C   0  0  0  0  0  0
  -21.4179  -29.3038   22.3684 N   0  0  0  0  0  0
  -26.4287  -37.3778   23.9419 N   0  0  0  0  0  0
  -24.6837  -31.0617   22.0961 N   0  0  0  0  0  0
  -23.4189  -28.8160   23.2993 O   0  0  0  0  0  0
  -28.3616  -26.5044   20.1038 O   0  0  0  0  0  0
  -26.5616  -34.8917   22.4675 O   0  0  0  0  0  0
  -23.5389  -32.1378   23.7356 O   0  0  0  0  0  0
  -28.8360  -19.4498   20.6167 C   0  0  0  0  0  0
  -31.1284  -17.8779   20.3187 C   0  0  0  0  0  0
  -30.0284  -20.1335   20.2843 C   0  0  0  0  0  0
  -28.7855  -18.0363   20.8160 C   0  0  0  0  0  0
  -31.1830  -19.2976   20.1403 C   0  0  0  0  0  0
  -29.9289  -17.1928   20.6473 C   0  0  0  0  0  0
  -29.1238  -24.0324   19.9864 C   0  0  0  0  0  0
  -27.2526  -23.2351   22.0659 C   0  0  0  0  0  0
  -27.0686  -24.6026   21.3550 C   0  0  0  0  0  0
  -28.6580  -22.5993   21.8953 C   0  0  0  0  0  0
  -28.3879  -25.1810   20.7871 C   0  0  2  0  0  0
  -27.4333  -17.4637   21.1879 C   0  0  0  0  0  0
  -32.5234  -19.8993   19.7460 C   0  0  0  0  0  0
  -30.0875  -21.6866   19.9568 C   0  0  0  0  0  0
  -29.1948  -22.7651   20.5372 N   0  0  0  0  0  0
  -29.8112  -15.7323   20.8063 N   0  0  0  0  0  0
  -29.6426  -24.3037   18.8980 O   0  0  0  0  0  0
  -31.4799  -12.5332   19.1556 H   0  0  0  0  0  0
  -30.3773  -11.4164   19.9100 H   0  0  0  0  0  0
  -29.7809  -11.7503   17.4902 H   0  0  0  0  0  0
  -29.6523  -13.4725   17.7381 H   0  0  0  0  0  0
  -27.8763  -11.2913   18.8773 H   0  0  0  0  0  0
  -27.3800  -12.5629   17.7936 H   0  0  0  0  0  0
  -27.6595  -14.2531   19.5098 H   0  0  0  0  0  0
  -28.7122  -12.0824   21.3915 H   0  0  0  0  0  0
  -28.4390  -13.7448   21.8303 H   0  0  0  0  0  0
  -25.2768   -9.5634   22.4790 H   0  0  0  0  0  0
  -23.9986   -7.4592   22.7485 H   0  0  0  0  0  0
  -21.0848   -8.8768   19.8952 H   0  0  0  0  0  0
  -22.3728  -10.9657   19.6176 H   0  0  0  0  0  0
  -21.1987   -7.6148   23.9724 H   0  0  0  0  0  0
  -21.1482   -6.0519   25.9087 H   0  0  0  0  0  0
  -22.0600   -2.7606   23.2847 H   0  0  0  0  0  0
  -22.4039  -11.9835   22.4811 H   0  0  0  0  0  0
  -21.1080  -13.1238   22.2631 H   0  0  0  0  0  0
  -24.6063  -15.8035   20.4447 H   0  0  0  0  0  0
  -26.2069  -15.5936   19.9415 H   0  0  0  0  0  0
  -26.7139  -32.5470   23.1101 H   0  0  0  0  0  0
  -25.0065  -33.9731   25.0437 H   0  0  0  0  0  0
  -22.7125  -31.3008   21.3974 H   0  0  0  0  0  0
  -23.3745  -35.9620   23.3280 H   0  0  0  0  0  0
  -24.3588  -36.8917   22.2054 H   0  0  0  0  0  0
  -23.7226  -37.6491   23.6660 H   0  0  0  0  0  0
  -26.0820  -31.5467   20.5963 H   0  0  0  0  0  0
  -26.8396  -30.8486   21.9980 H   0  0  0  0  0  0
  -28.1119  -28.9894   21.2133 H   0  0  0  0  0  0
  -26.0404  -25.9542   18.9559 H   0  0  0  0  0  0
  -23.9887  -27.3068   18.9919 H   0  0  0  0  0  0
  -23.7600  -30.5831   19.3984 H   0  0  0  0  0  0
  -22.7579  -29.2371   19.8577 H   0  0  0  0  0  0
  -25.1290  -36.1927   25.0817 H   0  0  0  0  0  0
  -21.0003  -28.3237   24.1404 H   0  0  0  0  0  0
  -20.5678  -26.2282   23.3602 H   0  0  0  0  0  0
  -21.6656  -26.7449   22.1207 H   0  0  0  0  0  0
  -19.6904  -25.6303   21.1238 H   0  0  0  0  0  0
  -19.6698  -27.3219   20.6758 H   0  0  0  0  0  0
  -17.4218  -26.6715   21.4008 H   0  0  0  0  0  0
  -18.0326  -26.0081   22.9016 H   0  0  0  0  0  0
  -19.7935  -30.7303   24.2248 H   0  0  0  0  0  0
  -17.5015  -31.6269   24.5197 H   0  0  0  0  0  0
  -15.5359  -30.3008   23.7649 H   0  0  0  0  0  0
  -15.8686  -28.0843   22.7048 H   0  0  0  0  0  0
  -24.5905  -30.7058   25.7783 H   0  0  0  0  0  0
  -24.8901  -32.2897   26.4831 H   0  0  0  0  0  0
  -25.8057  -30.8944   27.0221 H   0  0  0  0  0  0
  -26.2872  -29.6781   24.1135 H   0  0  0  0  0  0
  -27.4020  -29.7226   25.4594 H   0  0  0  0  0  0
  -27.8731  -30.4315   23.9331 H   0  0  0  0  0  0
  -27.2645  -33.3615   26.2054 H   0  0  0  0  0  0
  -28.3860  -32.6863   25.0320 H   0  0  0  0  0  0
  -28.0681  -31.8430   26.5402 H   0  0  0  0  0  0
  -28.2582  -38.0124   24.7559 H   0  0  0  0  0  0
  -28.1111  -36.2659   24.6220 H   0  0  0  0  0  0
  -27.2321  -37.1369   25.8866 H   0  0  0  0  0  0
  -20.9334  -29.8769   21.6925 H   0  0  0  0  0  0
  -26.0152  -38.2840   24.1459 H   0  0  0  0  0  0
  -27.9209  -20.0193   20.6992 H   0  0  0  0  0  0
  -32.0372  -17.3082   20.1874 H   0  0  0  0  0  0
  -26.4998  -22.5417   21.6869 H   0  0  0  0  0  0
  -27.0385  -23.3412   23.1305 H   0  0  0  0  0  0
  -26.6105  -25.3144   22.0429 H   0  0  0  0  0  0
  -26.3561  -24.4559   20.5459 H   0  0  0  0  0  0
  -28.6314  -21.5570   22.2050 H   0  0  0  0  0  0
  -29.3550  -23.0824   22.5832 H   0  0  0  0  0  0
  -29.0269  -25.3695   21.6522 H   0  0  0  0  0  0
  -26.9243  -18.1171   21.8974 H   0  0  0  0  0  0
  -27.4955  -16.4788   21.6486 H   0  0  0  0  0  0
  -26.8152  -17.4066   20.2930 H   0  0  0  0  0  0
  -33.3037  -19.1399   19.6813 H   0  0  0  0  0  0
  -32.8551  -20.6374   20.4766 H   0  0  0  0  0  0
  -32.4550  -20.3812   18.7705 H   0  0  0  0  0  0
  -30.0069  -21.7453   18.8695 H   0  0  0  0  0  0
  -31.0940  -22.0361   20.1812 H   0  0  0  0  0  0
  -28.8920  -15.4272   21.0832 H   0  0  0  0  0  0
  1 25  1  0  0  0
  1 30  2  0  0  0
  1 86  1  0  0  0
  2  3  1  0  0  0
  2 25  1  0  0  0
  2 88  1  0  0  0
  2 89  1  0  0  0
  3  4  1  0  0  0
  3 90  1  0  0  0
  3 91  1  0  0  0
  4  5  1  0  0  0
  4 92  1  0  0  0
  4 93  1  0  0  0
  5  6  1  0  0  0
  5 26  1  0  0  0
  5 94  1  0  0  0
  6 25  1  0  0  0
  6 95  1  0  0  0
  6 96  1  0  0  0
  7  8  2  0  0  0
  7 26  1  0  0  0
  7 29  1  0  0  0
  8  9  1  0  0  0
  8 22  1  0  0  0
  9 10  1  0  0  0
  9 27  2  0  0  0
 10 11  2  0  0  0
 10 15  1  0  0  0
 11 12  1  0  0  0
 11 97  1  0  0  0
 12 13  2  0  0  0
 12 98  1  0  0  0
 13 14  1  0  0  0
 13 31  1  0  0  0
 14 15  2  0  0  0
 14 99  1  0  0  0
 15100  1  0  0  0
 16 17  2  0  0  0
 16 21  1  0  0  0
 16 31  1  0  0  0
 17 18  1  0  0  0
 17101  1  0  0  0
 18 19  2  0  0  0
 18102  1  0  0  0
 19 20  1  0  0  0
 19 24  1  0  0  0
 20 21  2  0  0  0
 20103  1  0  0  0
 21 23  1  0  0  0
 22 28  1  0  0  0
 22 32  2  0  0  0
 26 27  1  0  0  0
 28104  1  0  0  0
 28105  1  0  0  0
 29106  1  0  0  0
 29107  1  0  0  0
 33 34  1  0  0  0
 33 66  1  0  0  0
 33 70  2  0  0  0
 34 36  1  0  0  0
 34 59  1  0  0  0
 34108  1  0  0  0
 35 44  2  0  0  0
 35 45  1  0  0  0
 35 68  1  0  0  0
 36 56  1  0  0  0
 36109  1  0  0  0
 37 39  1  0  0  0
 37 47  1  0  0  0
 37 66  1  0  0  0
 37110  1  0  0  0
 38 43  2  0  0  0
 38 46  1  0  0  0
 38 47  1  0  0  0
 39 64  1  0  0  0
 39 67  2  0  0  0
 40 52  1  0  0  0
 40 53  2  0  0  0
 40 58  1  0  0  0
 41111  1  0  0  0
 41112  1  0  0  0
 41113  1  0  0  0
 41 48  1  0  0  0
 42 43  1  0  0  0
 42 66  1  0  0  0
 42114  1  0  0  0
 42115  1  0  0  0
 43 44  1  0  0  0
 44116  1  0  0  0
 45 46  2  0  0  0
 45117  1  0  0  0
 46118  1  0  0  0
 47119  1  0  0  0
 47120  1  0  0  0
 48 56  1  0  0  0
 48 65  1  0  0  0
 48121  1  0  0  0
 49 50  1  0  0  0
 49 53  1  0  0  0
 49 64  1  0  0  0
 49122  1  0  0  0
 50 51  1  0  0  0
 50123  1  0  0  0
 50124  1  0  0  0
 51 52  1  0  0  0
 51125  1  0  0  0
 51126  1  0  0  0
 52127  1  0  0  0
 52128  1  0  0  0
 53 54  1  0  0  0
 54 55  2  0  0  0
 54129  1  0  0  0
 55 57  1  0  0  0
 55130  1  0  0  0
 56 69  2  0  0  0
 57 58  2  0  0  0
 57131  1  0  0  0
 58132  1  0  0  0
 59 60  1  0  0  0
 59 61  1  0  0  0
 59 62  1  0  0  0
 60133  1  0  0  0
 60134  1  0  0  0
 60135  1  0  0  0
 61136  1  0  0  0
 61137  1  0  0  0
 61138  1  0  0  0
 62139  1  0  0  0
 62140  1  0  0  0
 62141  1  0  0  0
 63 65  1  0  0  0
 63142  1  0  0  0
 63143  1  0  0  0
 63144  1  0  0  0
 64145  1  0  0  0
 65146  1  0  0  0
 68 81  1  0  0  0
 71 73  2  0  0  0
 71 74  1  0  0  0
 71147  1  0  0  0
 72 75  2  0  0  0
 72 76  1  0  0  0
 72148  1  0  0  0
 73 75  1  0  0  0
 73 84  1  0  0  0
 74 76  2  0  0  0
 74 82  1  0  0  0
 75 83  1  0  0  0
 76 86  1  0  0  0
 77 81  1  0  0  0
 77 85  1  0  0  0
 77 87  2  0  0  0
 78 79  1  0  0  0
 78 80  1  0  0  0
 78149  1  0  0  0
 78150  1  0  0  0
 79 81  1  0  0  0
 79151  1  0  0  0
 79152  1  0  0  0
 80 85  1  0  0  0
 80153  1  0  0  0
 80154  1  0  0  0
 81155  1  0  0  0
 82156  1  0  0  0
 82157  1  0  0  0
 82158  1  0  0  0
 83159  1  0  0  0
 83160  1  0  0  0
 83161  1  0  0  0
 84 85  1  0  0  0
 84162  1  0  0  0
 84163  1  0  0  0
 86164  1  0  0  0
M  ISO  4   1 100  68 101  81 101  86 100
M  END
> <chiral flag>
0

> <version>
0

> <s_m_source_file>
/data/baiqing/PycharmProjects/Reinvent-master-3.2/result/LINK_invent/BTK/process_docking_weight1_custom_product_contain_oxygen_bond_distance_aromatic_linkinvent_7_9_3/rearranged_h_0045.sdf

> <i_m_source_file_index>
5

> <r_mmod_Potential_Energy-OPLS-2005>
151.832641601562

> <r_mmod_Stretch_Energy-OPLS-2005>
90.8957901000977

> <r_mmod_Bend_Energy-OPLS-2005>
164.626556396484

> <r_mmod_Torsional_Energy-OPLS-2005>
268.000061035156

> <r_mmod_Improper_Torsional_Energy-OPLS-2005>
5.95022201538086

> <r_mmod_Van_der_Waal_Energy-OPLS-2005>
158.429351806641

> <r_mmod_Electrostatic_Energy-OPLS-2005>
-357.691772460938

> <r_mmod_Solvation_Energy-OPLS-2005>
-228.165954589844

> <b_mmod_Minimization_Converged-OPLS-2005>
0

> <r_mmod_RMS_Derivative-OPLS-2005>
1.87905216217041

$$$$
5
                    3D
 Structure written by MMmdl.
161170  0  0  1  0            999 V2000
  -30.5749  -14.7720   20.4439 C   0  0  0  0  0  0
  -30.4402  -12.4739   19.4509 C   0  0  0  0  0  0
  -29.5054  -12.4952   18.2225 C   0  0  0  0  0  0
  -28.0341  -12.3151   18.6457 C   0  0  0  0  0  0
  -27.6340  -13.2250   19.8362 C   0  0  2  0  0  0
  -28.6845  -13.1762   20.9642 C   0  0  0  0  0  0
  -25.2485  -13.8175   20.5671 C   0  0  0  0  0  0
  -24.1766  -13.0435   20.9194 C   0  0  0  0  0  0
  -24.6361  -11.6903   20.8742 C   0  0  0  0  0  0
  -23.9044  -10.4287   21.0414 C   0  0  0  0  0  0
  -24.3593   -9.4204   21.9189 C   0  0  0  0  0  0
  -23.6264   -8.2248   22.0759 C   0  0  0  0  0  0
  -22.4256   -8.0277   21.3547 C   0  0  0  0  0  0
  -21.9888   -9.0259   20.4656 C   0  0  0  0  0  0
  -22.7220  -10.2130   20.3065 C   0  0  0  0  0  0
  -21.6859   -6.0729   22.5276 C   0  0  0  0  0  0
  -21.4024   -6.5635   23.8206 C   0  0  0  0  0  0
  -21.3647   -5.6783   24.9169 C   0  0  0  0  0  0
  -21.6046   -4.3053   24.7223 C   0  0  0  0  0  0
  -21.8816   -3.8134   23.4351 C   0  0  0  0  0  0
  -21.9191   -4.6950   22.3400 C   0  0  0  0  0  0
  -22.7795  -13.5223   21.1856 C   0  0  0  0  0  0
  -22.1656   -4.2124   21.0980 F   0  0  0  0  0  0
  -21.5614   -3.4535   25.7748 F   0  0  0  0  0  0
  -29.9736  -13.5375   20.3627 N   0  0  0  0  0  0
  -26.2890  -12.9363   20.3217 N   0  0  0  0  0  0
  -25.9285  -11.6523   20.5720 N   0  0  0  0  0  0
  -22.0434  -12.8231   22.0427 N   0  0  0  0  0  0
  -25.4170  -15.1902   20.4101 N   0  0  0  0  0  0
  -31.7917  -14.8811   20.2710 O   0  0  0  0  0  0
  -21.6634   -6.8872   21.4237 O   0  0  0  0  0  0
  -22.3483  -14.5518   20.6681 O   0  0  0  0  0  0
  -24.6303  -31.8552   23.1972 C   0  0  0  0  0  0
  -25.9116  -32.4767   23.8326 C   0  0  1  0  0  0
  -27.2202  -27.2671   20.1294 C   0  0  0  0  0  0
  -25.5889  -33.8571   24.2236 N   0  0  0  0  0  0
  -23.4284  -30.4744   21.5420 C   0  0  2  0  0  0
  -24.8750  -28.9140   20.1192 C   0  0  0  0  0  0
  -22.7496  -29.4593   22.4934 C   0  0  0  0  0  0
  -18.0275  -28.1396   22.8493 C   0  0  0  0  0  0
  -24.1479  -36.7297   23.2641 C   0  0  0  0  0  0
  -25.9727  -30.7685   21.3762 C   0  0  0  0  0  0
  -26.0469  -29.3893   20.7218 C   0  0  0  0  0  0
  -27.2286  -28.5798   20.7103 C   0  0  0  0  0  0
  -26.0256  -26.8477   19.5127 C   0  0  0  0  0  0
  -24.8674  -27.6506   19.5046 C   0  0  0  0  0  0
  -23.6464  -29.8020   20.1616 C   0  0  0  0  0  0
  -25.4111  -36.3087   24.0317 C   0  0  1  0  0  0
  -20.5877  -28.3699   23.1274 C   0  0  2  0  0  0
  -20.6761  -26.9421   22.5407 C   0  0  0  0  0  0
  -19.5734  -26.6395   21.5210 C   0  0  0  0  0  0
  -18.1915  -26.7942   22.1624 C   0  0  0  0  0  0
  -19.1533  -28.8866   23.2880 C   0  0  0  0  0  0
  -18.9459  -30.1460   23.8907 C   0  0  0  0  0  0
  -17.6460  -30.6601   24.0562 C   0  0  0  0  0  0
  -25.9054  -34.9456   23.5096 C   0  0  0  0  0  0
  -16.5348  -29.9102   23.6332 C   0  0  0  0  0  0
  -16.7261  -28.6511   23.0373 C   0  0  0  0  0  0
  -26.4478  -31.6598   25.0726 C   0  0  0  0  0  0
  -25.3701  -31.3742   26.1450 C   0  0  0  0  0  0
  -27.0312  -30.3003   24.6233 C   0  0  0  0  0  0
  -27.6033  -32.4349   25.7492 C   0  0  0  0  0  0
  -27.5579  -37.1791   24.8454 C   0  0  0  0  0  0
  -21.4203  -29.3050   22.3676 N   0  0  0  0  0  0
  -26.4283  -37.3786   23.9418 N   0  0  0  0  0  0
  -24.6962  -31.0513   22.0949 N   0  0  0  0  0  0
  -23.4193  -28.8150   23.3045 O   0  0  0  0  0  0
  -28.3212  -26.3888   20.0913 O   0  0  0  0  0  0
  -26.5655  -34.8929   22.4685 O   0  0  0  0  0  0
  -23.5448  -32.1369   23.7255 O   0  0  0  0  0  0
  -29.2648  -19.7967   22.1230 C   0  0  0  0  0  0
  -29.7618  -17.3858   22.2682 C   0  0  0  0  0  0
  -29.5411  -18.4809   20.1060 C   0  0  0  0  0  0
  -29.4956  -18.6301   22.8858 C   0  0  0  0  0  0
  -29.3288  -19.7925   20.7134 C   0  0  0  0  0  0
  -29.7596  -17.2514   20.8627 C   0  0  0  0  0  0
  -28.4277  -23.6969   19.9507 C   0  0  0  0  0  0
  -29.6121  -23.8045   22.5776 C   0  0  0  0  0  0
  -29.2120  -25.1626   21.9848 C   0  0  0  0  0  0
  -30.1374  -22.8819   21.4664 C   0  0  0  0  0  0
  -28.2371  -25.0637   20.7944 C   0  0  1  0  0  0
  -29.4199  -18.7207   24.3993 C   0  0  0  0  0  0
  -29.1006  -21.1534   19.8849 C   0  0  0  0  0  0
  -29.0915  -22.5821   20.4792 N   0  0  0  0  0  0
  -29.7366  -15.8735   20.3127 N   0  0  0  0  0  0
  -27.8773  -23.6303   18.8478 O   0  0  0  0  0  0
  -31.4752  -12.6303   19.1411 H   0  0  0  0  0  0
  -30.4083  -11.5035   19.9478 H   0  0  0  0  0  0
  -29.7876  -11.7119   17.5176 H   0  0  0  0  0  0
  -29.6202  -13.4411   17.6899 H   0  0  0  0  0  0
  -27.8978  -11.2685   18.9200 H   0  0  0  0  0  0
  -27.3740  -12.4915   17.7971 H   0  0  0  0  0  0
  -27.6168  -14.2384   19.4362 H   0  0  0  0  0  0
  -28.7314  -12.1835   21.4121 H   0  0  0  0  0  0
  -28.4205  -13.8689   21.7662 H   0  0  0  0  0  0
  -25.2749   -9.5659   22.4763 H   0  0  0  0  0  0
  -23.9959   -7.4636   22.7483 H   0  0  0  0  0  0
  -21.0815   -8.8793   19.8969 H   0  0  0  0  0  0
  -22.3692  -10.9671   19.6168 H   0  0  0  0  0  0
  -21.2037   -7.6154   23.9701 H   0  0  0  0  0  0
  -21.1462   -6.0526   25.9065 H   0  0  0  0  0  0
  -22.0603   -2.7598   23.2869 H   0  0  0  0  0  0
  -22.4071  -11.9918   22.4845 H   0  0  0  0  0  0
  -21.1053  -13.1254   22.2630 H   0  0  0  0  0  0
  -24.6496  -15.8420   20.5335 H   0  0  0  0  0  0
  -26.2645  -15.6384   20.0880 H   0  0  0  0  0  0
  -26.7192  -32.5405   23.1075 H   0  0  0  0  0  0
  -24.9947  -33.9712   25.0319 H   0  0  0  0  0  0
  -22.7242  -31.2955   21.3928 H   0  0  0  0  0  0
  -23.3752  -35.9616   23.3291 H   0  0  0  0  0  0
  -24.3565  -36.8947   22.2059 H   0  0  0  0  0  0
  -23.7218  -37.6482   23.6690 H   0  0  0  0  0  0
  -26.1083  -31.5253   20.6029 H   0  0  0  0  0  0
  -26.8514  -30.8214   22.0083 H   0  0  0  0  0  0
  -28.1351  -28.9427   21.1733 H   0  0  0  0  0  0
  -25.9863  -25.8772   19.0371 H   0  0  0  0  0  0
  -23.9692  -27.2821   19.0295 H   0  0  0  0  0  0
  -23.7729  -30.5745   19.4026 H   0  0  0  0  0  0
  -22.7651  -29.2344   19.8583 H   0  0  0  0  0  0
  -25.1290  -36.1935   25.0802 H   0  0  0  0  0  0
  -20.9948  -28.3286   24.1403 H   0  0  0  0  0  0
  -20.5643  -26.2323   23.3620 H   0  0  0  0  0  0
  -21.6634  -26.7448   22.1212 H   0  0  0  0  0  0
  -19.6901  -25.6310   21.1241 H   0  0  0  0  0  0
  -19.6668  -27.3208   20.6744 H   0  0  0  0  0  0
  -17.4177  -26.6684   21.4035 H   0  0  0  0  0  0
  -18.0321  -26.0085   22.9019 H   0  0  0  0  0  0
  -19.7935  -30.7260   24.2308 H   0  0  0  0  0  0
  -17.5018  -31.6284   24.5163 H   0  0  0  0  0  0
  -15.5352  -30.3007   23.7664 H   0  0  0  0  0  0
  -15.8654  -28.0819   22.7122 H   0  0  0  0  0  0
  -24.5857  -30.7128   25.7758 H   0  0  0  0  0  0
  -24.8915  -32.2907   26.4908 H   0  0  0  0  0  0
  -25.7998  -30.8874   27.0214 H   0  0  0  0  0  0
  -26.2887  -29.6766   24.1245 H   0  0  0  0  0  0
  -27.3947  -29.7267   25.4769 H   0  0  0  0  0  0
  -27.8791  -30.4254   23.9499 H   0  0  0  0  0  0
  -27.2638  -33.3648   26.2070 H   0  0  0  0  0  0
  -28.3829  -32.6924   25.0311 H   0  0  0  0  0  0
  -28.0729  -31.8492   26.5406 H   0  0  0  0  0  0
  -28.2577  -38.0109   24.7546 H   0  0  0  0  0  0
  -28.1094  -36.2644   24.6220 H   0  0  0  0  0  0
  -27.2306  -37.1370   25.8856 H   0  0  0  0  0  0
  -20.9407  -29.8763   21.6864 H   0  0  0  0  0  0
  -26.0162  -38.2853   24.1457 H   0  0  0  0  0  0
  -29.0244  -20.7115   22.6462 H   0  0  0  0  0  0
  -29.8890  -16.5082   22.8887 H   0  0  0  0  0  0
  -29.5091  -18.4175   19.0276 H   0  0  0  0  0  0
  -28.7620  -23.3433   23.0815 H   0  0  0  0  0  0
  -30.3812  -23.9520   23.3371 H   0  0  0  0  0  0
  -30.1147  -25.6794   21.6604 H   0  0  0  0  0  0
  -28.7711  -25.7859   22.7634 H   0  0  0  0  0  0
  -30.5866  -21.9868   21.8882 H   0  0  0  0  0  0
  -30.9607  -23.3769   20.9483 H   0  0  0  0  0  0
  -27.2357  -24.9709   21.2165 H   0  0  0  0  0  0
  -30.2390  -19.3305   24.7827 H   0  0  0  0  0  0
  -29.4793  -17.7394   24.8702 H   0  0  0  0  0  0
  -28.4822  -19.1826   24.7125 H   0  0  0  0  0  0
  -28.1556  -21.0181   19.3587 H   0  0  0  0  0  0
  -29.8570  -21.1623   19.0990 H   0  0  0  0  0  0
  -28.8237  -15.6010   19.9849 H   0  0  0  0  0  0
  1 25  1  0  0  0
  1 30  2  0  0  0
  1 85  1  0  0  0
  2  3  1  0  0  0
  2 25  1  0  0  0
  2 87  1  0  0  0
  2 88  1  0  0  0
  3  4  1  0  0  0
  3 89  1  0  0  0
  3 90  1  0  0  0
  4  5  1  0  0  0
  4 91  1  0  0  0
  4 92  1  0  0  0
  5  6  1  0  0  0
  5 26  1  0  0  0
  5 93  1  0  0  0
  6 25  1  0  0  0
  6 94  1  0  0  0
  6 95  1  0  0  0
  7  8  2  0  0  0
  7 26  1  0  0  0
  7 29  1  0  0  0
  8  9  1  0  0  0
  8 22  1  0  0  0
  9 10  1  0  0  0
  9 27  2  0  0  0
 10 11  2  0  0  0
 10 15  1  0  0  0
 11 12  1  0  0  0
 11 96  1  0  0  0
 12 13  2  0  0  0
 12 97  1  0  0  0
 13 14  1  0  0  0
 13 31  1  0  0  0
 14 15  2  0  0  0
 14 98  1  0  0  0
 15 99  1  0  0  0
 16 17  2  0  0  0
 16 21  1  0  0  0
 16 31  1  0  0  0
 17 18  1  0  0  0
 17100  1  0  0  0
 18 19  2  0  0  0
 18101  1  0  0  0
 19 20  1  0  0  0
 19 24  1  0  0  0
 20 21  2  0  0  0
 20102  1  0  0  0
 21 23  1  0  0  0
 22 28  1  0  0  0
 22 32  2  0  0  0
 26 27  1  0  0  0
 28103  1  0  0  0
 28104  1  0  0  0
 29105  1  0  0  0
 29106  1  0  0  0
 33 34  1  0  0  0
 33 66  1  0  0  0
 33 70  2  0  0  0
 34 36  1  0  0  0
 34 59  1  0  0  0
 34107  1  0  0  0
 35 44  2  0  0  0
 35 45  1  0  0  0
 35 68  1  0  0  0
 36 56  1  0  0  0
 36108  1  0  0  0
 37 39  1  0  0  0
 37 47  1  0  0  0
 37 66  1  0  0  0
 37109  1  0  0  0
 38 43  2  0  0  0
 38 46  1  0  0  0
 38 47  1  0  0  0
 39 64  1  0  0  0
 39 67  2  0  0  0
 40 52  1  0  0  0
 40 53  2  0  0  0
 40 58  1  0  0  0
 41110  1  0  0  0
 41111  1  0  0  0
 41112  1  0  0  0
 41 48  1  0  0  0
 42 43  1  0  0  0
 42 66  1  0  0  0
 42113  1  0  0  0
 42114  1  0  0  0
 43 44  1  0  0  0
 44115  1  0  0  0
 45 46  2  0  0  0
 45116  1  0  0  0
 46117  1  0  0  0
 47118  1  0  0  0
 47119  1  0  0  0
 48 56  1  0  0  0
 48 65  1  0  0  0
 48120  1  0  0  0
 49 50  1  0  0  0
 49 53  1  0  0  0
 49 64  1  0  0  0
 49121  1  0  0  0
 50 51  1  0  0  0
 50122  1  0  0  0
 50123  1  0  0  0
 51 52  1  0  0  0
 51124  1  0  0  0
 51125  1  0  0  0
 52126  1  0  0  0
 52127  1  0  0  0
 53 54  1  0  0  0
 54 55  2  0  0  0
 54128  1  0  0  0
 55 57  1  0  0  0
 55129  1  0  0  0
 56 69  2  0  0  0
 57 58  2  0  0  0
 57130  1  0  0  0
 58131  1  0  0  0
 59 60  1  0  0  0
 59 61  1  0  0  0
 59 62  1  0  0  0
 60132  1  0  0  0
 60133  1  0  0  0
 60134  1  0  0  0
 61135  1  0  0  0
 61136  1  0  0  0
 61137  1  0  0  0
 62138  1  0  0  0
 62139  1  0  0  0
 62140  1  0  0  0
 63 65  1  0  0  0
 63141  1  0  0  0
 63142  1  0  0  0
 63143  1  0  0  0
 64144  1  0  0  0
 65145  1  0  0  0
 68 81  1  0  0  0
 71 74  2  0  0  0
 71 75  1  0  0  0
 71146  1  0  0  0
 72 74  1  0  0  0
 72 76  2  0  0  0
 72147  1  0  0  0
 73 75  2  0  0  0
 73 76  1  0  0  0
 73148  1  0  0  0
 74 82  1  0  0  0
 75 83  1  0  0  0
 76 85  1  0  0  0
 77 81  1  0  0  0
 77 84  1  0  0  0
 77 86  2  0  0  0
 78 79  1  0  0  0
 78 80  1  0  0  0
 78149  1  0  0  0
 78150  1  0  0  0
 79 81  1  0  0  0
 79151  1  0  0  0
 79152  1  0  0  0
 80 84  1  0  0  0
 80153  1  0  0  0
 80154  1  0  0  0
 81155  1  0  0  0
 82156  1  0  0  0
 82157  1  0  0  0
 82158  1  0  0  0
 83 84  1  0  0  0
 83159  1  0  0  0
 83160  1  0  0  0
 85161  1  0  0  0
M  ISO  4   1 100  68 101  81 101  85 100
M  END
> <chiral flag>
0

> <version>
0

> <s_m_source_file>
/data/baiqing/PycharmProjects/Reinvent-master-3.2/result/LINK_invent/BTK/process_docking_weight1_custom_product_contain_oxygen_bond_distance_aromatic_linkinvent_7_9_3/rearranged_h_0045.sdf

> <i_m_source_file_index>
6

> <r_mmod_Potential_Energy-OPLS-2005>
286.359802246094

> <r_mmod_Stretch_Energy-OPLS-2005>
132.111572265625

> <r_mmod_Bend_Energy-OPLS-2005>
169.152160644531

> <r_mmod_Torsional_Energy-OPLS-2005>
302.801788330078

> <r_mmod_Improper_Torsional_Energy-OPLS-2005>
15.0166091918945

> <r_mmod_Van_der_Waal_Energy-OPLS-2005>
136.817718505859

> <r_mmod_Electrostatic_Energy-OPLS-2005>
-332.485748291016

> <r_mmod_Solvation_Energy-OPLS-2005>
-231.31770324707

> <b_mmod_Minimization_Converged-OPLS-2005>
0

> <r_mmod_RMS_Derivative-OPLS-2005>
2.45699453353882

$$$$
6
                    3D
 Structure written by MMmdl.
159167  0  0  1  0            999 V2000
  -30.6879  -14.5068   20.5540 C   0  0  0  0  0  0
  -30.4237  -12.3246   19.4226 C   0  0  0  0  0  0
  -29.4973  -12.4969   18.2018 C   0  0  0  0  0  0
  -28.0155  -12.3634   18.6120 C   0  0  0  0  0  0
  -27.6576  -13.2125   19.8621 C   0  0  2  0  0  0
  -28.6993  -13.0162   20.9837 C   0  0  0  0  0  0
  -25.2573  -13.8179   20.5671 C   0  0  0  0  0  0
  -24.1831  -13.0452   20.9180 C   0  0  0  0  0  0
  -24.6393  -11.6920   20.8719 C   0  0  0  0  0  0
  -23.9069  -10.4298   21.0388 C   0  0  0  0  0  0
  -24.3625   -9.4212   21.9164 C   0  0  0  0  0  0
  -23.6305   -8.2245   22.0747 C   0  0  0  0  0  0
  -22.4282   -8.0291   21.3548 C   0  0  0  0  0  0
  -21.9912   -9.0260   20.4655 C   0  0  0  0  0  0
  -22.7238  -10.2135   20.3049 C   0  0  0  0  0  0
  -21.6857   -6.0749   22.5280 C   0  0  0  0  0  0
  -21.4016   -6.5648   23.8219 C   0  0  0  0  0  0
  -21.3653   -5.6796   24.9173 C   0  0  0  0  0  0
  -21.6033   -4.3058   24.7224 C   0  0  0  0  0  0
  -21.8818   -3.8159   23.4343 C   0  0  0  0  0  0
  -21.9190   -4.6974   22.3403 C   0  0  0  0  0  0
  -22.7853  -13.5257   21.1834 C   0  0  0  0  0  0
  -22.1662   -4.2164   21.0980 F   0  0  0  0  0  0
  -21.5621   -3.4539   25.7731 F   0  0  0  0  0  0
  -30.0230  -13.3264   20.4221 N   0  0  0  0  0  0
  -26.3011  -12.9363   20.3310 N   0  0  0  0  0  0
  -25.9311  -11.6518   20.5708 N   0  0  0  0  0  0
  -22.0478  -12.8267   22.0396 N   0  0  0  0  0  0
  -25.4287  -15.1898   20.4101 N   0  0  0  0  0  0
  -31.8460  -14.6607   20.1601 O   0  0  0  0  0  0
  -21.6648   -6.8884   21.4244 O   0  0  0  0  0  0
  -22.3535  -14.5558   20.6663 O   0  0  0  0  0  0
  -24.6175  -31.8642   23.2080 C   0  0  0  0  0  0
  -25.9070  -32.4788   23.8368 C   0  0  1  0  0  0
  -27.2241  -27.3925   20.0972 C   0  0  0  0  0  0
  -25.5918  -33.8592   24.2289 N   0  0  0  0  0  0
  -23.4052  -30.4876   21.5503 C   0  0  2  0  0  0
  -24.8468  -28.9477   20.1133 C   0  0  0  0  0  0
  -22.7412  -29.4636   22.4993 C   0  0  0  0  0  0
  -18.0270  -28.1363   22.8494 C   0  0  0  0  0  0
  -24.1493  -36.7301   23.2640 C   0  0  0  0  0  0
  -25.9392  -30.8130   21.3710 C   0  0  0  0  0  0
  -26.0094  -29.4470   20.7125 C   0  0  0  0  0  0
  -27.1984  -28.6766   20.6997 C   0  0  0  0  0  0
  -26.0365  -26.9133   19.4975 C   0  0  0  0  0  0
  -24.8577  -27.6824   19.5033 C   0  0  0  0  0  0
  -23.6117  -29.8192   20.1646 C   0  0  0  0  0  0
  -25.4116  -36.3090   24.0324 C   0  0  1  0  0  0
  -20.5859  -28.3655   23.1317 C   0  0  2  0  0  0
  -20.6766  -26.9387   22.5421 C   0  0  0  0  0  0
  -19.5744  -26.6373   21.5213 C   0  0  0  0  0  0
  -18.1915  -26.7914   22.1617 C   0  0  0  0  0  0
  -19.1518  -28.8825   23.2902 C   0  0  0  0  0  0
  -18.9443  -30.1439   23.8900 C   0  0  0  0  0  0
  -17.6445  -30.6573   24.0551 C   0  0  0  0  0  0
  -25.9045  -34.9460   23.5102 C   0  0  0  0  0  0
  -16.5335  -29.9062   23.6335 C   0  0  0  0  0  0
  -16.7261  -28.6479   23.0355 C   0  0  0  0  0  0
  -26.4489  -31.6596   25.0725 C   0  0  0  0  0  0
  -25.3749  -31.3743   26.1478 C   0  0  0  0  0  0
  -27.0328  -30.3018   24.6173 C   0  0  0  0  0  0
  -27.6033  -32.4360   25.7491 C   0  0  0  0  0  0
  -27.5585  -37.1801   24.8452 C   0  0  0  0  0  0
  -21.4140  -29.3018   22.3726 N   0  0  0  0  0  0
  -26.4293  -37.3779   23.9404 N   0  0  0  0  0  0
  -24.6717  -31.0719   22.1000 N   0  0  0  0  0  0
  -23.4183  -28.8194   23.3047 O   0  0  0  0  0  0
  -28.4016  -26.6605   20.1253 O   0  0  0  0  0  0
  -26.5603  -34.8918   22.4669 O   0  0  0  0  0  0
  -23.5358  -32.1432   23.7454 O   0  0  0  0  0  0
  -29.2653  -20.2819   18.7884 C   0  0  0  0  0  0
  -29.9030  -19.1461   18.2618 C   0  0  0  0  0  0
  -28.9508  -20.3699   20.1613 C   0  0  0  0  0  0
  -29.3182  -19.2735   21.0219 C   0  0  0  0  0  0
  -29.9500  -18.0977   20.4765 C   0  0  0  0  0  0
  -30.2363  -18.0646   19.0917 C   0  0  0  0  0  0
  -28.2095  -21.5979   20.5851 C   0  0  0  0  0  0
  -29.0878  -19.3503   22.5315 C   0  0  0  0  0  0
  -30.4369  -16.9064   21.3496 C   0  0  0  0  0  0
  -27.9905  -24.1683   20.5258 C   0  0  0  0  0  0
  -28.4784  -25.3179   19.5878 C   0  0  0  0  0  0
  -27.0962  -21.4716   21.3046 N   0  0  0  0  0  0
  -29.9575  -15.5446   21.0193 N   0  0  0  0  0  0
  -28.6029  -22.8379   20.2105 N   0  3  0  0  0  0
  -30.8601  -16.9951   18.5426 F   0  0  0  0  0  0
  -31.4682  -12.4287   19.1222 H   0  0  0  0  0  0
  -30.3306  -11.3203   19.8404 H   0  0  0  0  0  0
  -29.7445  -11.7539   17.4426 H   0  0  0  0  0  0
  -29.6690  -13.4713   17.7427 H   0  0  0  0  0  0
  -27.8225  -11.3098   18.8134 H   0  0  0  0  0  0
  -27.3679  -12.6304   17.7753 H   0  0  0  0  0  0
  -27.6963  -14.2563   19.5484 H   0  0  0  0  0  0
  -28.6796  -11.9868   21.3432 H   0  0  0  0  0  0
  -28.4623  -13.6355   21.8503 H   0  0  0  0  0  0
  -25.2762   -9.5701   22.4744 H   0  0  0  0  0  0
  -24.0016   -7.4641   22.7469 H   0  0  0  0  0  0
  -21.0833   -8.8782   19.8973 H   0  0  0  0  0  0
  -22.3683  -10.9675   19.6173 H   0  0  0  0  0  0
  -21.2012   -7.6157   23.9734 H   0  0  0  0  0  0
  -21.1474   -6.0518   25.9078 H   0  0  0  0  0  0
  -22.0598   -2.7625   23.2835 H   0  0  0  0  0  0
  -22.4104  -11.9970   22.4849 H   0  0  0  0  0  0
  -21.1090  -13.1294   22.2571 H   0  0  0  0  0  0
  -24.6601  -15.8422   20.5235 H   0  0  0  0  0  0
  -26.2777  -15.6310   20.0799 H   0  0  0  0  0  0
  -26.7132  -32.5464   23.1112 H   0  0  0  0  0  0
  -25.0091  -33.9749   25.0447 H   0  0  0  0  0  0
  -22.6963  -31.3063   21.4117 H   0  0  0  0  0  0
  -23.3748  -35.9642   23.3292 H   0  0  0  0  0  0
  -24.3595  -36.8937   22.2061 H   0  0  0  0  0  0
  -23.7250  -37.6503   23.6667 H   0  0  0  0  0  0
  -26.0745  -31.5834   20.6108 H   0  0  0  0  0  0
  -26.8186  -30.8492   22.0019 H   0  0  0  0  0  0
  -28.0967  -29.0593   21.1643 H   0  0  0  0  0  0
  -25.9903  -25.9434   19.0259 H   0  0  0  0  0  0
  -23.9599  -27.2923   19.0416 H   0  0  0  0  0  0
  -23.7188  -30.5943   19.4044 H   0  0  0  0  0  0
  -22.7346  -29.2400   19.8700 H   0  0  0  0  0  0
  -25.1296  -36.1947   25.0812 H   0  0  0  0  0  0
  -20.9937  -28.3219   24.1443 H   0  0  0  0  0  0
  -20.5677  -26.2240   23.3602 H   0  0  0  0  0  0
  -21.6633  -26.7435   22.1201 H   0  0  0  0  0  0
  -19.6905  -25.6286   21.1235 H   0  0  0  0  0  0
  -19.6695  -27.3185   20.6747 H   0  0  0  0  0  0
  -17.4192  -26.6670   21.4015 H   0  0  0  0  0  0
  -18.0310  -26.0052   22.9007 H   0  0  0  0  0  0
  -19.7922  -30.7255   24.2255 H   0  0  0  0  0  0
  -17.5002  -31.6257   24.5148 H   0  0  0  0  0  0
  -15.5333  -30.2952   23.7679 H   0  0  0  0  0  0
  -15.8662  -28.0800   22.7065 H   0  0  0  0  0  0
  -24.5870  -30.7144   25.7837 H   0  0  0  0  0  0
  -24.9002  -32.2915   26.4967 H   0  0  0  0  0  0
  -25.8097  -30.8879   27.0215 H   0  0  0  0  0  0
  -26.2893  -29.6779   24.1192 H   0  0  0  0  0  0
  -27.4023  -29.7274   25.4681 H   0  0  0  0  0  0
  -27.8771  -30.4310   23.9393 H   0  0  0  0  0  0
  -27.2599  -33.3644   26.2078 H   0  0  0  0  0  0
  -28.3824  -32.6968   25.0313 H   0  0  0  0  0  0
  -28.0721  -31.8497   26.5408 H   0  0  0  0  0  0
  -28.2573  -38.0124   24.7511 H   0  0  0  0  0  0
  -28.1102  -36.2649   24.6247 H   0  0  0  0  0  0
  -27.2302  -37.1424   25.8852 H   0  0  0  0  0  0
  -20.9302  -29.8740   21.6945 H   0  0  0  0  0  0
  -26.0173  -38.2853   24.1408 H   0  0  0  0  0  0
  -28.9961  -21.0844   18.1158 H   0  0  0  0  0  0
  -30.1395  -19.0965   17.2087 H   0  0  0  0  0  0
  -28.7788  -20.3297   22.8903 H   0  0  0  0  0  0
  -30.0111  -19.1317   23.0678 H   0  0  0  0  0  0
  -28.3288  -18.6303   22.8386 H   0  0  0  0  0  0
  -30.1816  -17.0509   22.3958 H   0  0  0  0  0  0
  -31.5284  -16.9237   21.3294 H   0  0  0  0  0  0
  -26.9011  -24.1087   20.4865 H   0  0  0  0  0  0
  -28.2482  -24.4126   21.5582 H   0  0  0  0  0  0
  -27.9929  -25.2523   18.6140 H   0  0  0  0  0  0
  -29.5350  -25.1513   19.3743 H   0  0  0  0  0  0
  -26.7554  -20.5437   21.5060 H   0  0  0  0  0  0
  -26.5426  -22.2546   21.6052 H   0  0  0  0  0  0
  -28.9991  -15.3406   21.2597 H   0  0  0  0  0  0
  -29.4944  -22.8728   19.7320 H   0  0  0  0  0  0
  1 25  1  0  0  0
  1 30  2  0  0  0
  1 83  1  0  0  0
  2  3  1  0  0  0
  2 25  1  0  0  0
  2 86  1  0  0  0
  2 87  1  0  0  0
  3  4  1  0  0  0
  3 88  1  0  0  0
  3 89  1  0  0  0
  4  5  1  0  0  0
  4 90  1  0  0  0
  4 91  1  0  0  0
  5  6  1  0  0  0
  5 26  1  0  0  0
  5 92  1  0  0  0
  6 25  1  0  0  0
  6 93  1  0  0  0
  6 94  1  0  0  0
  7  8  2  0  0  0
  7 26  1  0  0  0
  7 29  1  0  0  0
  8  9  1  0  0  0
  8 22  1  0  0  0
  9 10  1  0  0  0
  9 27  2  0  0  0
 10 11  2  0  0  0
 10 15  1  0  0  0
 11 12  1  0  0  0
 11 95  1  0  0  0
 12 13  2  0  0  0
 12 96  1  0  0  0
 13 14  1  0  0  0
 13 31  1  0  0  0
 14 15  2  0  0  0
 14 97  1  0  0  0
 15 98  1  0  0  0
 16 17  2  0  0  0
 16 21  1  0  0  0
 16 31  1  0  0  0
 17 18  1  0  0  0
 17 99  1  0  0  0
 18 19  2  0  0  0
 18100  1  0  0  0
 19 20  1  0  0  0
 19 24  1  0  0  0
 20 21  2  0  0  0
 20101  1  0  0  0
 21 23  1  0  0  0
 22 28  1  0  0  0
 22 32  2  0  0  0
 26 27  1  0  0  0
 28102  1  0  0  0
 28103  1  0  0  0
 29104  1  0  0  0
 29105  1  0  0  0
 33 34  1  0  0  0
 33 66  1  0  0  0
 33 70  2  0  0  0
 34 36  1  0  0  0
 34 59  1  0  0  0
 34106  1  0  0  0
 35 44  2  0  0  0
 35 45  1  0  0  0
 35 68  1  0  0  0
 36 56  1  0  0  0
 36107  1  0  0  0
 37 39  1  0  0  0
 37 47  1  0  0  0
 37 66  1  0  0  0
 37108  1  0  0  0
 38 43  2  0  0  0
 38 46  1  0  0  0
 38 47  1  0  0  0
 39 64  1  0  0  0
 39 67  2  0  0  0
 40 52  1  0  0  0
 40 53  2  0  0  0
 40 58  1  0  0  0
 41109  1  0  0  0
 41110  1  0  0  0
 41111  1  0  0  0
 41 48  1  0  0  0
 42 43  1  0  0  0
 42 66  1  0  0  0
 42112  1  0  0  0
 42113  1  0  0  0
 43 44  1  0  0  0
 44114  1  0  0  0
 45 46  2  0  0  0
 45115  1  0  0  0
 46116  1  0  0  0
 47117  1  0  0  0
 47118  1  0  0  0
 48 56  1  0  0  0
 48 65  1  0  0  0
 48119  1  0  0  0
 49 50  1  0  0  0
 49 53  1  0  0  0
 49 64  1  0  0  0
 49120  1  0  0  0
 50 51  1  0  0  0
 50121  1  0  0  0
 50122  1  0  0  0
 51 52  1  0  0  0
 51123  1  0  0  0
 51124  1  0  0  0
 52125  1  0  0  0
 52126  1  0  0  0
 53 54  1  0  0  0
 54 55  2  0  0  0
 54127  1  0  0  0
 55 57  1  0  0  0
 55128  1  0  0  0
 56 69  2  0  0  0
 57 58  2  0  0  0
 57129  1  0  0  0
 58130  1  0  0  0
 59 60  1  0  0  0
 59 61  1  0  0  0
 59 62  1  0  0  0
 60131  1  0  0  0
 60132  1  0  0  0
 60133  1  0  0  0
 61134  1  0  0  0
 61135  1  0  0  0
 61136  1  0  0  0
 62137  1  0  0  0
 62138  1  0  0  0
 62139  1  0  0  0
 63 65  1  0  0  0
 63140  1  0  0  0
 63141  1  0  0  0
 63142  1  0  0  0
 64143  1  0  0  0
 65144  1  0  0  0
 68 81  1  0  0  0
 71 72  2  0  0  0
 71 73  1  0  0  0
 71145  1  0  0  0
 72 76  1  0  0  0
 72146  1  0  0  0
 73 74  2  0  0  0
 73 77  1  0  0  0
 74 75  1  0  0  0
 74 78  1  0  0  0
 75 76  2  0  0  0
 75 79  1  0  0  0
 76 85  1  0  0  0
 77 82  1  0  0  0
 77 84  2  0  0  0
 78147  1  0  0  0
 78148  1  0  0  0
 78149  1  0  0  0
 79 83  1  0  0  0
 79150  1  0  0  0
 79151  1  0  0  0
 80 81  1  0  0  0
 80 84  1  0  0  0
 80152  1  0  0  0
 80153  1  0  0  0
 81154  1  0  0  0
 81155  1  0  0  0
 82156  1  0  0  0
 82157  1  0  0  0
 83158  1  0  0  0
 84159  1  0  0  0
M  CHG  1  84   1
M  ISO  4   1 100  68 101  81 101  83 100
M  END
> <chiral flag>
0

> <version>
0

> <s_m_source_file>
/data/baiqing/PycharmProjects/Reinvent-master-3.2/result/LINK_invent/BTK/process_docking_weight1_custom_product_contain_oxygen_bond_distance_aromatic_linkinvent_7_9_3/rearranged_h_0045.sdf

> <i_m_source_file_index>
7

> <r_mmod_Potential_Energy-OPLS-2005>
-235.204559326172

> <r_mmod_Stretch_Energy-OPLS-2005>
51.8192481994629

> <r_mmod_Bend_Energy-OPLS-2005>
117.429382324219

> <r_mmod_Torsional_Energy-OPLS-2005>
191.376907348633

> <r_mmod_Improper_Torsional_Energy-OPLS-2005>
3.74476861953735

> <r_mmod_Van_der_Waal_Energy-OPLS-2005>
157.779983520508

> <r_mmod_Electrostatic_Energy-OPLS-2005>
-352.311096191406

> <r_mmod_Solvation_Energy-OPLS-2005>
-424.967315673828

> <b_mmod_Minimization_Converged-OPLS-2005>
0

> <r_mmod_RMS_Derivative-OPLS-2005>
2.31906247138977

$$$$
7
                    3D
 Structure written by MMmdl.
162170  0  0  1  0            999 V2000
  -30.6917  -14.4828   20.5426 C   0  0  0  0  0  0
  -30.4197  -12.2971   19.4500 C   0  0  0  0  0  0
  -29.5118  -12.4817   18.2178 C   0  0  0  0  0  0
  -28.0255  -12.3470   18.6159 C   0  0  0  0  0  0
  -27.6519  -13.2015   19.8576 C   0  0  2  0  0  0
  -28.6865  -13.0117   20.9898 C   0  0  0  0  0  0
  -25.2526  -13.8124   20.5648 C   0  0  0  0  0  0
  -24.1783  -13.0425   20.9179 C   0  0  0  0  0  0
  -24.6339  -11.6889   20.8707 C   0  0  0  0  0  0
  -23.9035  -10.4274   21.0380 C   0  0  0  0  0  0
  -24.3585   -9.4195   21.9171 C   0  0  0  0  0  0
  -23.6261   -8.2233   22.0772 C   0  0  0  0  0  0
  -22.4249   -8.0261   21.3551 C   0  0  0  0  0  0
  -21.9871   -9.0233   20.4643 C   0  0  0  0  0  0
  -22.7201  -10.2114   20.3041 C   0  0  0  0  0  0
  -21.6830   -6.0717   22.5274 C   0  0  0  0  0  0
  -21.4009   -6.5618   23.8213 C   0  0  0  0  0  0
  -21.3680   -5.6767   24.9175 C   0  0  0  0  0  0
  -21.6066   -4.3039   24.7220 C   0  0  0  0  0  0
  -21.8803   -3.8130   23.4332 C   0  0  0  0  0  0
  -21.9179   -4.6951   22.3389 C   0  0  0  0  0  0
  -22.7794  -13.5277   21.1788 C   0  0  0  0  0  0
  -22.1648   -4.2135   21.0966 F   0  0  0  0  0  0
  -21.5623   -3.4533   25.7747 F   0  0  0  0  0  0
  -30.0196  -13.3056   20.4387 N   0  0  0  0  0  0
  -26.2941  -12.9289   20.3224 N   0  0  0  0  0  0
  -25.9255  -11.6466   20.5695 N   0  0  0  0  0  0
  -22.0365  -12.8302   22.0311 N   0  0  0  0  0  0
  -25.4197  -15.1847   20.4002 N   0  0  0  0  0  0
  -31.8417  -14.6250   20.1170 O   0  0  0  0  0  0
  -21.6615   -6.8862   21.4243 O   0  0  0  0  0  0
  -22.3568  -14.5615   20.6630 O   0  0  0  0  0  0
  -24.6163  -31.8679   23.2098 C   0  0  0  0  0  0
  -25.9080  -32.4803   23.8378 C   0  0  1  0  0  0
  -27.2264  -27.4389   20.0854 C   0  0  0  0  0  0
  -25.5947  -33.8606   24.2326 N   0  0  0  0  0  0
  -23.4032  -30.4925   21.5513 C   0  0  2  0  0  0
  -24.8472  -28.9558   20.1150 C   0  0  0  0  0  0
  -22.7447  -29.4664   22.5019 C   0  0  0  0  0  0
  -18.0312  -28.1371   22.8508 C   0  0  0  0  0  0
  -24.1491  -36.7289   23.2627 C   0  0  0  0  0  0
  -25.9313  -30.8341   21.3626 C   0  0  0  0  0  0
  -26.0080  -29.4667   20.7128 C   0  0  0  0  0  0
  -27.2031  -28.7127   20.6969 C   0  0  0  0  0  0
  -26.0520  -26.9414   19.4874 C   0  0  0  0  0  0
  -24.8630  -27.6932   19.4976 C   0  0  0  0  0  0
  -23.6112  -29.8245   20.1659 C   0  0  0  0  0  0
  -25.4116  -36.3085   24.0321 C   0  0  1  0  0  0
  -20.5895  -28.3676   23.1351 C   0  0  2  0  0  0
  -20.6797  -26.9419   22.5421 C   0  0  0  0  0  0
  -19.5777  -26.6380   21.5211 C   0  0  0  0  0  0
  -18.1968  -26.7918   22.1636 C   0  0  0  0  0  0
  -19.1559  -28.8827   23.2916 C   0  0  0  0  0  0
  -18.9477  -30.1437   23.8939 C   0  0  0  0  0  0
  -17.6485  -30.6567   24.0597 C   0  0  0  0  0  0
  -25.9047  -34.9466   23.5117 C   0  0  0  0  0  0
  -16.5369  -29.9089   23.6325 C   0  0  0  0  0  0
  -16.7304  -28.6498   23.0332 C   0  0  0  0  0  0
  -26.4513  -31.6557   25.0683 C   0  0  0  0  0  0
  -25.3814  -31.3645   26.1438 C   0  0  0  0  0  0
  -27.0326  -30.3011   24.6024 C   0  0  0  0  0  0
  -27.6095  -32.4265   25.7466 C   0  0  0  0  0  0
  -27.5586  -37.1804   24.8470 C   0  0  0  0  0  0
  -21.4160  -29.3075   22.3799 N   0  0  0  0  0  0
  -26.4299  -37.3779   23.9409 N   0  0  0  0  0  0
  -24.6690  -31.0793   22.1002 N   0  0  0  0  0  0
  -23.4224  -28.8226   23.3076 O   0  0  0  0  0  0
  -28.3728  -26.6791   20.0657 O   0  0  0  0  0  0
  -26.5579  -34.8922   22.4662 O   0  0  0  0  0  0
  -23.5367  -32.1445   23.7500 O   0  0  0  0  0  0
  -31.0681  -19.6478   21.2821 C   0  0  0  0  0  0
  -31.6567  -17.2933   21.3594 C   0  0  0  0  0  0
  -29.7303  -19.3227   20.9652 C   0  0  0  0  0  0
  -29.3644  -17.9466   20.7879 C   0  0  0  0  0  0
  -30.3342  -16.9220   21.0115 C   0  0  0  0  0  0
  -32.0274  -18.6423   21.4695 C   0  0  0  0  0  0
  -28.7808  -20.4532   20.9580 C   0  0  0  0  0  0
  -27.9567  -17.5454   20.3503 C   0  0  0  0  0  0
  -30.1839  -24.3508   19.4627 C   0  0  0  0  0  0
  -28.5675  -22.9494   20.8896 C   0  0  0  0  0  0
  -28.2611  -25.4195   20.7475 C   0  0  0  0  0  0
  -28.7350  -24.1736   19.9513 C   0  0  1  0  0  0
  -27.6241  -20.3370   21.6067 N   0  0  0  0  0  0
  -29.9533  -15.5348   20.9517 N   0  0  0  0  0  0
  -29.0884  -21.6464   20.4030 N   0  3  0  0  0  0
  -33.6489  -19.0657   21.8870 Cl  0  0  0  0  0  0
  -31.4719  -12.3696   19.1692 H   0  0  0  0  0  0
  -30.2970  -11.3038   19.8829 H   0  0  0  0  0  0
  -29.7673  -11.7421   17.4569 H   0  0  0  0  0  0
  -29.6931  -13.4603   17.7662 H   0  0  0  0  0  0
  -27.8315  -11.2947   18.8251 H   0  0  0  0  0  0
  -27.3904  -12.6077   17.7685 H   0  0  0  0  0  0
  -27.6875  -14.2417   19.5370 H   0  0  0  0  0  0
  -28.6658  -11.9847   21.3587 H   0  0  0  0  0  0
  -28.4403  -13.6315   21.8553 H   0  0  0  0  0  0
  -25.2721   -9.5672   22.4763 H   0  0  0  0  0  0
  -23.9940   -7.4646   22.7517 H   0  0  0  0  0  0
  -21.0795   -8.8767   19.8943 H   0  0  0  0  0  0
  -22.3664  -10.9659   19.6149 H   0  0  0  0  0  0
  -21.2010   -7.6125   23.9746 H   0  0  0  0  0  0
  -21.1525   -6.0466   25.9092 H   0  0  0  0  0  0
  -22.0569   -2.7591   23.2821 H   0  0  0  0  0  0
  -22.3915  -11.9991   22.4796 H   0  0  0  0  0  0
  -21.1001  -13.1408   22.2471 H   0  0  0  0  0  0
  -24.6369  -15.8216   20.5041 H   0  0  0  0  0  0
  -26.2227  -15.6113   19.9592 H   0  0  0  0  0  0
  -26.7172  -32.5545   23.1160 H   0  0  0  0  0  0
  -25.0176  -33.9741   25.0523 H   0  0  0  0  0  0
  -22.6920  -31.3086   21.4135 H   0  0  0  0  0  0
  -23.3743  -35.9642   23.3297 H   0  0  0  0  0  0
  -24.3589  -36.8881   22.2041 H   0  0  0  0  0  0
  -23.7246  -37.6497   23.6641 H   0  0  0  0  0  0
  -26.0350  -31.6021   20.5940 H   0  0  0  0  0  0
  -26.8207  -30.8900   21.9776 H   0  0  0  0  0  0
  -28.1001  -29.0927   21.1619 H   0  0  0  0  0  0
  -26.0551  -25.9716   19.0102 H   0  0  0  0  0  0
  -23.9732  -27.2942   19.0296 H   0  0  0  0  0  0
  -23.7243  -30.5949   19.4037 H   0  0  0  0  0  0
  -22.7347  -29.2451   19.8708 H   0  0  0  0  0  0
  -25.1299  -36.1935   25.0817 H   0  0  0  0  0  0
  -20.9982  -28.3191   24.1472 H   0  0  0  0  0  0
  -20.5714  -26.2282   23.3608 H   0  0  0  0  0  0
  -21.6691  -26.7485   22.1231 H   0  0  0  0  0  0
  -19.6958  -25.6283   21.1261 H   0  0  0  0  0  0
  -19.6706  -27.3160   20.6715 H   0  0  0  0  0  0
  -17.4249  -26.6680   21.4009 H   0  0  0  0  0  0
  -18.0366  -26.0030   22.8993 H   0  0  0  0  0  0
  -19.7951  -30.7244   24.2314 H   0  0  0  0  0  0
  -17.5043  -31.6248   24.5207 H   0  0  0  0  0  0
  -15.5368  -30.2977   23.7647 H   0  0  0  0  0  0
  -15.8722  -28.0832   22.6982 H   0  0  0  0  0  0
  -24.6031  -30.6924   25.7781 H   0  0  0  0  0  0
  -24.8949  -32.2787   26.4874 H   0  0  0  0  0  0
  -25.8189  -30.8853   27.0201 H   0  0  0  0  0  0
  -26.2830  -29.6767   24.1133 H   0  0  0  0  0  0
  -27.4161  -29.7228   25.4427 H   0  0  0  0  0  0
  -27.8650  -30.4304   23.9099 H   0  0  0  0  0  0
  -27.2728  -33.3575   26.2063 H   0  0  0  0  0  0
  -28.3928  -32.6794   25.0298 H   0  0  0  0  0  0
  -28.0764  -31.8371   26.5376 H   0  0  0  0  0  0
  -28.2598  -38.0100   24.7522 H   0  0  0  0  0  0
  -28.1066  -36.2622   24.6297 H   0  0  0  0  0  0
  -27.2303  -37.1475   25.8872 H   0  0  0  0  0  0
  -20.9311  -29.8858   21.7057 H   0  0  0  0  0  0
  -26.0156  -38.2849   24.1415 H   0  0  0  0  0  0
  -31.3661  -20.6770   21.4288 H   0  0  0  0  0  0
  -32.4085  -16.5492   21.5631 H   0  0  0  0  0  0
  -27.4478  -18.3365   19.8003 H   0  0  0  0  0  0
  -27.3490  -17.2896   21.2200 H   0  0  0  0  0  0
  -27.9794  -16.6916   19.6747 H   0  0  0  0  0  0
  -30.5389  -23.4753   18.9198 H   0  0  0  0  0  0
  -30.8690  -24.5361   20.2891 H   0  0  0  0  0  0
  -30.2555  -25.1944   18.7738 H   0  0  0  0  0  0
  -27.5089  -22.8572   21.1435 H   0  0  0  0  0  0
  -29.0851  -23.1603   21.8282 H   0  0  0  0  0  0
  -28.8647  -25.5012   21.6522 H   0  0  0  0  0  0
  -27.2447  -25.2321   21.1002 H   0  0  0  0  0  0
  -28.0820  -24.0496   19.0857 H   0  0  0  0  0  0
  -27.4332  -19.5022   22.1399 H   0  0  0  0  0  0
  -26.8757  -20.9951   21.4660 H   0  0  0  0  0  0
  -28.9854  -15.3238   21.1332 H   0  0  0  0  0  0
  -29.8957  -21.6738   19.7926 H   0  0  0  0  0  0
  1 25  1  0  0  0
  1 30  2  0  0  0
  1 84  1  0  0  0
  2  3  1  0  0  0
  2 25  1  0  0  0
  2 87  1  0  0  0
  2 88  1  0  0  0
  3  4  1  0  0  0
  3 89  1  0  0  0
  3 90  1  0  0  0
  4  5  1  0  0  0
  4 91  1  0  0  0
  4 92  1  0  0  0
  5  6  1  0  0  0
  5 26  1  0  0  0
  5 93  1  0  0  0
  6 25  1  0  0  0
  6 94  1  0  0  0
  6 95  1  0  0  0
  7  8  2  0  0  0
  7 26  1  0  0  0
  7 29  1  0  0  0
  8  9  1  0  0  0
  8 22  1  0  0  0
  9 10  1  0  0  0
  9 27  2  0  0  0
 10 11  2  0  0  0
 10 15  1  0  0  0
 11 12  1  0  0  0
 11 96  1  0  0  0
 12 13  2  0  0  0
 12 97  1  0  0  0
 13 14  1  0  0  0
 13 31  1  0  0  0
 14 15  2  0  0  0
 14 98  1  0  0  0
 15 99  1  0  0  0
 16 17  2  0  0  0
 16 21  1  0  0  0
 16 31  1  0  0  0
 17 18  1  0  0  0
 17100  1  0  0  0
 18 19  2  0  0  0
 18101  1  0  0  0
 19 20  1  0  0  0
 19 24  1  0  0  0
 20 21  2  0  0  0
 20102  1  0  0  0
 21 23  1  0  0  0
 22 28  1  0  0  0
 22 32  2  0  0  0
 26 27  1  0  0  0
 28103  1  0  0  0
 28104  1  0  0  0
 29105  1  0  0  0
 29106  1  0  0  0
 33 34  1  0  0  0
 33 66  1  0  0  0
 33 70  2  0  0  0
 34 36  1  0  0  0
 34 59  1  0  0  0
 34107  1  0  0  0
 35 44  2  0  0  0
 35 45  1  0  0  0
 35 68  1  0  0  0
 36 56  1  0  0  0
 36108  1  0  0  0
 37 39  1  0  0  0
 37 47  1  0  0  0
 37 66  1  0  0  0
 37109  1  0  0  0
 38 43  2  0  0  0
 38 46  1  0  0  0
 38 47  1  0  0  0
 39 64  1  0  0  0
 39 67  2  0  0  0
 40 52  1  0  0  0
 40 53  2  0  0  0
 40 58  1  0  0  0
 41110  1  0  0  0
 41111  1  0  0  0
 41112  1  0  0  0
 41 48  1  0  0  0
 42 43  1  0  0  0
 42 66  1  0  0  0
 42113  1  0  0  0
 42114  1  0  0  0
 43 44  1  0  0  0
 44115  1  0  0  0
 45 46  2  0  0  0
 45116  1  0  0  0
 46117  1  0  0  0
 47118  1  0  0  0
 47119  1  0  0  0
 48 56  1  0  0  0
 48 65  1  0  0  0
 48120  1  0  0  0
 49 50  1  0  0  0
 49 53  1  0  0  0
 49 64  1  0  0  0
 49121  1  0  0  0
 50 51  1  0  0  0
 50122  1  0  0  0
 50123  1  0  0  0
 51 52  1  0  0  0
 51124  1  0  0  0
 51125  1  0  0  0
 52126  1  0  0  0
 52127  1  0  0  0
 53 54  1  0  0  0
 54 55  2  0  0  0
 54128  1  0  0  0
 55 57  1  0  0  0
 55129  1  0  0  0
 56 69  2  0  0  0
 57 58  2  0  0  0
 57130  1  0  0  0
 58131  1  0  0  0
 59 60  1  0  0  0
 59 61  1  0  0  0
 59 62  1  0  0  0
 60132  1  0  0  0
 60133  1  0  0  0
 60134  1  0  0  0
 61135  1  0  0  0
 61136  1  0  0  0
 61137  1  0  0  0
 62138  1  0  0  0
 62139  1  0  0  0
 62140  1  0  0  0
 63 65  1  0  0  0
 63141  1  0  0  0
 63142  1  0  0  0
 63143  1  0  0  0
 64144  1  0  0  0
 65145  1  0  0  0
 68 81  1  0  0  0
 71 73  2  0  0  0
 71 76  1  0  0  0
 71146  1  0  0  0
 72 75  1  0  0  0
 72 76  2  0  0  0
 72147  1  0  0  0
 73 74  1  0  0  0
 73 77  1  0  0  0
 74 75  2  0  0  0
 74 78  1  0  0  0
 75 84  1  0  0  0
 76 86  1  0  0  0
 77 83  1  0  0  0
 77 85  2  0  0  0
 78148  1  0  0  0
 78149  1  0  0  0
 78150  1  0  0  0
 79151  1  0  0  0
 79152  1  0  0  0
 79153  1  0  0  0
 79 82  1  0  0  0
 80 82  1  0  0  0
 80 85  1  0  0  0
 80154  1  0  0  0
 80155  1  0  0  0
 81 82  1  0  0  0
 81156  1  0  0  0
 81157  1  0  0  0
 82158  1  0  0  0
 83159  1  0  0  0
 83160  1  0  0  0
 84161  1  0  0  0
 85162  1  0  0  0
M  CHG  1  85   1
M  ISO  4   1 100  68 101  81 101  84 100
M  END
> <chiral flag>
0

> <version>
0

> <s_m_source_file>
/data/baiqing/PycharmProjects/Reinvent-master-3.2/result/LINK_invent/BTK/process_docking_weight1_custom_product_contain_oxygen_bond_distance_aromatic_linkinvent_7_9_3/rearranged_h_0045.sdf

> <i_m_source_file_index>
8

> <r_mmod_Potential_Energy-OPLS-2005>
-260.150085449219

> <r_mmod_Stretch_Energy-OPLS-2005>
40.6947631835938

> <r_mmod_Bend_Energy-OPLS-2005>
102.123176574707

> <r_mmod_Torsional_Energy-OPLS-2005>
263.940582275391

> <r_mmod_Improper_Torsional_Energy-OPLS-2005>
7.12287616729736

> <r_mmod_Van_der_Waal_Energy-OPLS-2005>
162.873260498047

> <r_mmod_Electrostatic_Energy-OPLS-2005>
-429.738372802734

> <r_mmod_Solvation_Energy-OPLS-2005>
-422.410003662109

> <b_mmod_Minimization_Converged-OPLS-2005>
0

> <r_mmod_RMS_Derivative-OPLS-2005>
4.65526103973389

$$$$
8
                    3D
 Structure written by MMmdl.
160168  0  0  1  0            999 V2000
  -30.6172  -14.7841   20.4531 C   0  0  0  0  0  0
  -30.4319  -12.4788   19.4770 C   0  0  0  0  0  0
  -29.5178  -12.5206   18.2352 C   0  0  0  0  0  0
  -28.0394  -12.3366   18.6387 C   0  0  0  0  0  0
  -27.6360  -13.2370   19.8359 C   0  0  2  0  0  0
  -28.6829  -13.1977   20.9724 C   0  0  0  0  0  0
  -25.2498  -13.8151   20.5673 C   0  0  0  0  0  0
  -24.1799  -13.0386   20.9184 C   0  0  0  0  0  0
  -24.6397  -11.6887   20.8694 C   0  0  0  0  0  0
  -23.9058  -10.4262   21.0330 C   0  0  0  0  0  0
  -24.3611   -9.4192   21.9144 C   0  0  0  0  0  0
  -23.6284   -8.2221   22.0739 C   0  0  0  0  0  0
  -22.4259   -8.0265   21.3524 C   0  0  0  0  0  0
  -21.9889   -9.0218   20.4613 C   0  0  0  0  0  0
  -22.7206  -10.2095   20.3002 C   0  0  0  0  0  0
  -21.6849   -6.0704   22.5297 C   0  0  0  0  0  0
  -21.4011   -6.5593   23.8231 C   0  0  0  0  0  0
  -21.3674   -5.6763   24.9198 C   0  0  0  0  0  0
  -21.6059   -4.3024   24.7242 C   0  0  0  0  0  0
  -21.8808   -3.8107   23.4363 C   0  0  0  0  0  0
  -21.9180   -4.6930   22.3423 C   0  0  0  0  0  0
  -22.7814  -13.5157   21.1863 C   0  0  0  0  0  0
  -22.1635   -4.2115   21.0986 F   0  0  0  0  0  0
  -21.5658   -3.4502   25.7751 F   0  0  0  0  0  0
  -29.9861  -13.5567   20.3928 N   0  0  0  0  0  0
  -26.2915  -12.9385   20.3191 N   0  0  0  0  0  0
  -25.9316  -11.6528   20.5677 N   0  0  0  0  0  0
  -22.0472  -12.8163   22.0441 N   0  0  0  0  0  0
  -25.4142  -15.1889   20.4150 N   0  0  0  0  0  0
  -31.8079  -14.8712   20.1486 O   0  0  0  0  0  0
  -21.6643   -6.8851   21.4235 O   0  0  0  0  0  0
  -22.3498  -14.5457   20.6711 O   0  0  0  0  0  0
  -24.6338  -31.8513   23.1993 C   0  0  0  0  0  0
  -25.9154  -32.4738   23.8325 C   0  0  1  0  0  0
  -27.2370  -27.2406   20.1192 C   0  0  0  0  0  0
  -25.5923  -33.8539   24.2223 N   0  0  0  0  0  0
  -23.4302  -30.4736   21.5427 C   0  0  2  0  0  0
  -24.8837  -28.9221   20.1035 C   0  0  0  0  0  0
  -22.7496  -29.4572   22.4894 C   0  0  0  0  0  0
  -18.0282  -28.1380   22.8480 C   0  0  0  0  0  0
  -24.1479  -36.7275   23.2651 C   0  0  0  0  0  0
  -25.9805  -30.7539   21.3884 C   0  0  0  0  0  0
  -26.0505  -29.3762   20.7283 C   0  0  0  0  0  0
  -27.2221  -28.5449   20.7325 C   0  0  0  0  0  0
  -26.0494  -26.8861   19.4309 C   0  0  0  0  0  0
  -24.8901  -27.6846   19.4436 C   0  0  0  0  0  0
  -23.6534  -29.8140   20.1546 C   0  0  0  0  0  0
  -25.4119  -36.3049   24.0319 C   0  0  1  0  0  0
  -20.5913  -28.3702   23.1241 C   0  0  2  0  0  0
  -20.6773  -26.9406   22.5404 C   0  0  0  0  0  0
  -19.5745  -26.6370   21.5211 C   0  0  0  0  0  0
  -18.1926  -26.7922   22.1620 C   0  0  0  0  0  0
  -19.1545  -28.8852   23.2870 C   0  0  0  0  0  0
  -18.9466  -30.1458   23.8890 C   0  0  0  0  0  0
  -17.6466  -30.6583   24.0564 C   0  0  0  0  0  0
  -25.9056  -34.9432   23.5084 C   0  0  0  0  0  0
  -16.5361  -29.9079   23.6341 C   0  0  0  0  0  0
  -16.7274  -28.6500   23.0362 C   0  0  0  0  0  0
  -26.4518  -31.6580   25.0736 C   0  0  0  0  0  0
  -25.3732  -31.3747   26.1451 C   0  0  0  0  0  0
  -27.0377  -30.2986   24.6262 C   0  0  0  0  0  0
  -27.6034  -32.4358   25.7533 C   0  0  0  0  0  0
  -27.5568  -37.1802   24.8470 C   0  0  0  0  0  0
  -21.4212  -29.3030   22.3617 N   0  0  0  0  0  0
  -26.4279  -37.3760   23.9406 N   0  0  0  0  0  0
  -24.7010  -31.0460   22.0992 N   0  0  0  0  0  0
  -23.4197  -28.8126   23.2998 O   0  0  0  0  0  0
  -28.3364  -26.3365   20.2152 O   0  0  0  0  0  0
  -26.5635  -34.8910   22.4658 O   0  0  0  0  0  0
  -23.5475  -32.1349   23.7237 O   0  0  0  0  0  0
  -27.9718  -20.3636   18.7911 C   0  0  0  0  0  0
  -27.2229  -19.5484   17.9445 C   0  0  0  0  0  0
  -28.3774  -17.6255   18.8279 C   0  0  0  0  0  0
  -28.9676  -19.8798   19.6804 C   0  0  0  0  0  0
  -29.1699  -18.3960   19.7194 C   0  0  0  0  0  0
  -27.4192  -18.1709   17.9661 C   0  0  0  0  0  0
  -28.9218  -23.6805   20.4925 C   0  0  0  0  0  0
  -31.7575  -22.4121   18.7262 C   0  0  0  0  0  0
  -29.6418  -21.0968   20.4723 C   0  0  0  0  0  0
  -30.1498  -17.4544   20.5632 C   0  0  0  0  0  0
  -28.2930  -24.9281   19.6544 C   0  0  0  0  0  0
  -30.2558  -22.7199   18.6243 C   0  0  0  0  0  0
  -29.8470  -15.9307   20.6521 N   0  0  0  0  0  0
  -29.5339  -22.5530   19.9064 N   0  0  0  0  0  0
  -28.7155  -23.6845   21.7089 O   0  0  0  0  0  0
  -26.4897  -17.1428   16.9430 Cl  0  0  0  0  0  0
  -31.4702  -12.5986   19.1694 H   0  0  0  0  0  0
  -30.3716  -11.5049   19.9670 H   0  0  0  0  0  0
  -29.8115  -11.7524   17.5179 H   0  0  0  0  0  0
  -29.6445  -13.4742   17.7232 H   0  0  0  0  0  0
  -27.8940  -11.2855   18.8961 H   0  0  0  0  0  0
  -27.3901  -12.5288   17.7828 H   0  0  0  0  0  0
  -27.6169  -14.2534   19.4447 H   0  0  0  0  0  0
  -28.7227  -12.2040   21.4246 H   0  0  0  0  0  0
  -28.4069  -13.8907   21.7686 H   0  0  0  0  0  0
  -25.2756   -9.5664   22.4739 H   0  0  0  0  0  0
  -23.9977   -7.4603   22.7445 H   0  0  0  0  0  0
  -21.0836   -8.8672   19.8938 H   0  0  0  0  0  0
  -22.3614  -10.9608   19.6108 H   0  0  0  0  0  0
  -21.1995   -7.6120   23.9706 H   0  0  0  0  0  0
  -21.1534   -6.0514   25.9096 H   0  0  0  0  0  0
  -22.0590   -2.7578   23.2876 H   0  0  0  0  0  0
  -22.4061  -11.9830   22.4853 H   0  0  0  0  0  0
  -21.1088  -13.1209   22.2604 H   0  0  0  0  0  0
  -24.6343  -15.8283   20.5234 H   0  0  0  0  0  0
  -26.2431  -15.6347   20.0452 H   0  0  0  0  0  0
  -26.7213  -32.5366   23.1056 H   0  0  0  0  0  0
  -25.0062  -33.9664   25.0358 H   0  0  0  0  0  0
  -22.7313  -31.3006   21.3975 H   0  0  0  0  0  0
  -23.3725  -35.9617   23.3332 H   0  0  0  0  0  0
  -24.3565  -36.8893   22.2059 H   0  0  0  0  0  0
  -23.7238  -37.6488   23.6675 H   0  0  0  0  0  0
  -26.1253  -31.5142   20.6160 H   0  0  0  0  0  0
  -26.8545  -30.7975   22.0268 H   0  0  0  0  0  0
  -28.1118  -28.8865   21.2445 H   0  0  0  0  0  0
  -25.9723  -25.9734   18.8652 H   0  0  0  0  0  0
  -24.0082  -27.3410   18.9223 H   0  0  0  0  0  0
  -23.7797  -30.5973   19.4045 H   0  0  0  0  0  0
  -22.7685  -29.2551   19.8452 H   0  0  0  0  0  0
  -25.1302  -36.1904   25.0805 H   0  0  0  0  0  0
  -20.9999  -28.3282   24.1376 H   0  0  0  0  0  0
  -20.5633  -26.2318   23.3631 H   0  0  0  0  0  0
  -21.6641  -26.7386   22.1233 H   0  0  0  0  0  0
  -19.6897  -25.6268   21.1268 H   0  0  0  0  0  0
  -19.6692  -27.3166   20.6733 H   0  0  0  0  0  0
  -17.4197  -26.6674   21.4026 H   0  0  0  0  0  0
  -18.0317  -26.0070   22.9011 H   0  0  0  0  0  0
  -19.7949  -30.7269   24.2262 H   0  0  0  0  0  0
  -17.5024  -31.6269   24.5151 H   0  0  0  0  0  0
  -15.5369  -30.2977   23.7651 H   0  0  0  0  0  0
  -15.8682  -28.0808   22.7084 H   0  0  0  0  0  0
  -24.5890  -30.7120   25.7792 H   0  0  0  0  0  0
  -24.8948  -32.2917   26.4887 H   0  0  0  0  0  0
  -25.8034  -30.8921   27.0225 H   0  0  0  0  0  0
  -26.2966  -29.6734   24.1262 H   0  0  0  0  0  0
  -27.4011  -29.7276   25.4814 H   0  0  0  0  0  0
  -27.8872  -30.4267   23.9549 H   0  0  0  0  0  0
  -27.2593  -33.3654   26.2082 H   0  0  0  0  0  0
  -28.3860  -32.6931   25.0385 H   0  0  0  0  0  0
  -28.0677  -31.8515   26.5483 H   0  0  0  0  0  0
  -28.2594  -38.0090   24.7485 H   0  0  0  0  0  0
  -28.1046  -36.2614   24.6324 H   0  0  0  0  0  0
  -27.2285  -37.1493   25.8874 H   0  0  0  0  0  0
  -20.9383  -29.8786   21.6863 H   0  0  0  0  0  0
  -26.0154  -38.2829   24.1408 H   0  0  0  0  0  0
  -27.7473  -21.4167   18.7253 H   0  0  0  0  0  0
  -26.4921  -19.9783   17.2747 H   0  0  0  0  0  0
  -28.4865  -16.5544   18.7627 H   0  0  0  0  0  0
  -32.2729  -22.7602   17.8303 H   0  0  0  0  0  0
  -31.9342  -21.3383   18.7924 H   0  0  0  0  0  0
  -32.2305  -22.9004   19.5789 H   0  0  0  0  0  0
  -30.6937  -20.8575   20.6190 H   0  0  0  0  0  0
  -29.2377  -21.0970   21.4858 H   0  0  0  0  0  0
  -30.1981  -17.8556   21.5775 H   0  0  0  0  0  0
  -31.1500  -17.5774   20.1468 H   0  0  0  0  0  0
  -27.2660  -24.5848   19.5513 H   0  0  0  0  0  0
  -28.6675  -24.9936   18.6383 H   0  0  0  0  0  0
  -29.8016  -22.1106   17.8491 H   0  0  0  0  0  0
  -30.2229  -23.7377   18.2541 H   0  0  0  0  0  0
  -28.8789  -15.7224   20.8446 H   0  0  0  0  0  0
  1 25  1  0  0  0
  1 30  2  0  0  0
  1 83  1  0  0  0
  2  3  1  0  0  0
  2 25  1  0  0  0
  2 87  1  0  0  0
  2 88  1  0  0  0
  3  4  1  0  0  0
  3 89  1  0  0  0
  3 90  1  0  0  0
  4  5  1  0  0  0
  4 91  1  0  0  0
  4 92  1  0  0  0
  5  6  1  0  0  0
  5 26  1  0  0  0
  5 93  1  0  0  0
  6 25  1  0  0  0
  6 94  1  0  0  0
  6 95  1  0  0  0
  7  8  2  0  0  0
  7 26  1  0  0  0
  7 29  1  0  0  0
  8  9  1  0  0  0
  8 22  1  0  0  0
  9 10  1  0  0  0
  9 27  2  0  0  0
 10 11  2  0  0  0
 10 15  1  0  0  0
 11 12  1  0  0  0
 11 96  1  0  0  0
 12 13  2  0  0  0
 12 97  1  0  0  0
 13 14  1  0  0  0
 13 31  1  0  0  0
 14 15  2  0  0  0
 14 98  1  0  0  0
 15 99  1  0  0  0
 16 17  2  0  0  0
 16 21  1  0  0  0
 16 31  1  0  0  0
 17 18  1  0  0  0
 17100  1  0  0  0
 18 19  2  0  0  0
 18101  1  0  0  0
 19 20  1  0  0  0
 19 24  1  0  0  0
 20 21  2  0  0  0
 20102  1  0  0  0
 21 23  1  0  0  0
 22 28  1  0  0  0
 22 32  2  0  0  0
 26 27  1  0  0  0
 28103  1  0  0  0
 28104  1  0  0  0
 29105  1  0  0  0
 29106  1  0  0  0
 33 34  1  0  0  0
 33 66  1  0  0  0
 33 70  2  0  0  0
 34 36  1  0  0  0
 34 59  1  0  0  0
 34107  1  0  0  0
 35 44  2  0  0  0
 35 45  1  0  0  0
 35 68  1  0  0  0
 36 56  1  0  0  0
 36108  1  0  0  0
 37 39  1  0  0  0
 37 47  1  0  0  0
 37 66  1  0  0  0
 37109  1  0  0  0
 38 43  2  0  0  0
 38 46  1  0  0  0
 38 47  1  0  0  0
 39 64  1  0  0  0
 39 67  2  0  0  0
 40 52  1  0  0  0
 40 53  2  0  0  0
 40 58  1  0  0  0
 41110  1  0  0  0
 41111  1  0  0  0
 41112  1  0  0  0
 41 48  1  0  0  0
 42 43  1  0  0  0
 42 66  1  0  0  0
 42113  1  0  0  0
 42114  1  0  0  0
 43 44  1  0  0  0
 44115  1  0  0  0
 45 46  2  0  0  0
 45116  1  0  0  0
 46117  1  0  0  0
 47118  1  0  0  0
 47119  1  0  0  0
 48 56  1  0  0  0
 48 65  1  0  0  0
 48120  1  0  0  0
 49 50  1  0  0  0
 49 53  1  0  0  0
 49 64  1  0  0  0
 49121  1  0  0  0
 50 51  1  0  0  0
 50122  1  0  0  0
 50123  1  0  0  0
 51 52  1  0  0  0
 51124  1  0  0  0
 51125  1  0  0  0
 52126  1  0  0  0
 52127  1  0  0  0
 53 54  1  0  0  0
 54 55  2  0  0  0
 54128  1  0  0  0
 55 57  1  0  0  0
 55129  1  0  0  0
 56 69  2  0  0  0
 57 58  2  0  0  0
 57130  1  0  0  0
 58131  1  0  0  0
 59 60  1  0  0  0
 59 61  1  0  0  0
 59 62  1  0  0  0
 60132  1  0  0  0
 60133  1  0  0  0
 60134  1  0  0  0
 61135  1  0  0  0
 61136  1  0  0  0
 61137  1  0  0  0
 62138  1  0  0  0
 62139  1  0  0  0
 62140  1  0  0  0
 63 65  1  0  0  0
 63141  1  0  0  0
 63142  1  0  0  0
 63143  1  0  0  0
 64144  1  0  0  0
 65145  1  0  0  0
 68 81  1  0  0  0
 71 72  2  0  0  0
 71 74  1  0  0  0
 71146  1  0  0  0
 72 76  1  0  0  0
 72147  1  0  0  0
 73 75  1  0  0  0
 73 76  2  0  0  0
 73148  1  0  0  0
 74 75  2  0  0  0
 74 79  1  0  0  0
 75 80  1  0  0  0
 76 86  1  0  0  0
 77 81  1  0  0  0
 77 84  1  0  0  0
 77 85  2  0  0  0
 78 82  1  0  0  0
 78149  1  0  0  0
 78150  1  0  0  0
 78151  1  0  0  0
 79 84  1  0  0  0
 79152  1  0  0  0
 79153  1  0  0  0
 80 83  1  0  0  0
 80154  1  0  0  0
 80155  1  0  0  0
 81156  1  0  0  0
 81157  1  0  0  0
 82 84  1  0  0  0
 82158  1  0  0  0
 82159  1  0  0  0
 83160  1  0  0  0
M  ISO  4   1 100  68 101  81 101  83 100
M  END
> <chiral flag>
0

> <version>
0

> <s_m_source_file>
/data/baiqing/PycharmProjects/Reinvent-master-3.2/result/LINK_invent/BTK/process_docking_weight1_custom_product_contain_oxygen_bond_distance_aromatic_linkinvent_7_9_3/rearranged_h_0045.sdf

> <i_m_source_file_index>
9

> <r_mmod_Potential_Energy-OPLS-2005>
285.863616943359

> <r_mmod_Stretch_Energy-OPLS-2005>
177.517318725586

> <r_mmod_Bend_Energy-OPLS-2005>
221.971633911133

> <r_mmod_Torsional_Energy-OPLS-2005>
233.152145385742

> <r_mmod_Improper_Torsional_Energy-OPLS-2005>
6.30848932266235

> <r_mmod_Van_der_Waal_Energy-OPLS-2005>
149.125549316406

> <r_mmod_Electrostatic_Energy-OPLS-2005>
-372.20361328125

> <r_mmod_Solvation_Energy-OPLS-2005>
-232.39241027832

> <b_mmod_Minimization_Converged-OPLS-2005>
0

> <r_mmod_RMS_Derivative-OPLS-2005>
6.50723028182983

$$$$
9
                    3D
 Structure written by MMmdl.
161169  0  0  1  0            999 V2000
  -30.7241  -14.4538   20.6215 C   0  0  0  0  0  0
  -30.4221  -12.3149   19.4177 C   0  0  0  0  0  0
  -29.4907  -12.4920   18.2042 C   0  0  0  0  0  0
  -28.0202  -12.3287   18.6266 C   0  0  0  0  0  0
  -27.6570  -13.1983   19.8551 C   0  0  2  0  0  0
  -28.6900  -12.9844   20.9893 C   0  0  0  0  0  0
  -25.2576  -13.8201   20.5488 C   0  0  0  0  0  0
  -24.1821  -13.0516   20.9136 C   0  0  0  0  0  0
  -24.6329  -11.6996   20.8628 C   0  0  0  0  0  0
  -23.9003  -10.4372   21.0338 C   0  0  0  0  0  0
  -24.3619   -9.4301   21.9090 C   0  0  0  0  0  0
  -23.6329   -8.2326   22.0695 C   0  0  0  0  0  0
  -22.4294   -8.0322   21.3504 C   0  0  0  0  0  0
  -21.9900   -9.0289   20.4583 C   0  0  0  0  0  0
  -22.7197  -10.2173   20.2956 C   0  0  0  0  0  0
  -21.6911   -6.0749   22.5281 C   0  0  0  0  0  0
  -21.4045   -6.5631   23.8224 C   0  0  0  0  0  0
  -21.3636   -5.6777   24.9176 C   0  0  0  0  0  0
  -21.6044   -4.3041   24.7212 C   0  0  0  0  0  0
  -21.8861   -3.8145   23.4323 C   0  0  0  0  0  0
  -21.9226   -4.6983   22.3380 C   0  0  0  0  0  0
  -22.7889  -13.5331   21.1922 C   0  0  0  0  0  0
  -22.1694   -4.2177   21.0966 F   0  0  0  0  0  0
  -21.5609   -3.4516   25.7695 F   0  0  0  0  0  0
  -30.0217  -13.2966   20.4408 N   0  0  0  0  0  0
  -26.3000  -12.9333   20.3217 N   0  0  0  0  0  0
  -25.9231  -11.6509   20.5671 N   0  0  0  0  0  0
  -22.0530  -12.8255   22.0431 N   0  0  0  0  0  0
  -25.4339  -15.1896   20.3696 N   0  0  0  0  0  0
  -31.8391  -14.6420   20.1331 O   0  0  0  0  0  0
  -21.6667   -6.8878   21.4237 O   0  0  0  0  0  0
  -22.3558  -14.5661   20.6853 O   0  0  0  0  0  0
  -24.6106  -31.8705   23.2146 C   0  0  0  0  0  0
  -25.8999  -32.4856   23.8419 C   0  0  1  0  0  0
  -27.2262  -27.4672   20.0703 C   0  0  0  0  0  0
  -25.5845  -33.8667   24.2355 N   0  0  0  0  0  0
  -23.3946  -30.4989   21.5550 C   0  0  2  0  0  0
  -24.8333  -28.9714   20.1064 C   0  0  0  0  0  0
  -22.7379  -29.4704   22.5012 C   0  0  0  0  0  0
  -18.0292  -28.1380   22.8463 C   0  0  0  0  0  0
  -24.1485  -36.7349   23.2646 C   0  0  0  0  0  0
  -25.9205  -30.8464   21.3613 C   0  0  0  0  0  0
  -25.9942  -29.4887   20.7020 C   0  0  0  0  0  0
  -27.1948  -28.7469   20.6683 C   0  0  0  0  0  0
  -26.0472  -26.9637   19.4686 C   0  0  0  0  0  0
  -24.8588  -27.7157   19.4785 C   0  0  0  0  0  0
  -23.5920  -29.8341   20.1667 C   0  0  0  0  0  0
  -25.4111  -36.3165   24.0337 C   0  0  1  0  0  0
  -20.5861  -28.3690   23.1238 C   0  0  2  0  0  0
  -20.6786  -26.9405   22.5376 C   0  0  0  0  0  0
  -19.5777  -26.6372   21.5186 C   0  0  0  0  0  0
  -18.1959  -26.7934   22.1569 C   0  0  0  0  0  0
  -19.1518  -28.8836   23.2833 C   0  0  0  0  0  0
  -18.9448  -30.1415   23.8882 C   0  0  0  0  0  0
  -17.6453  -30.6562   24.0504 C   0  0  0  0  0  0
  -25.9004  -34.9518   23.5151 C   0  0  0  0  0  0
  -16.5357  -29.9051   23.6274 C   0  0  0  0  0  0
  -16.7298  -28.6459   23.0315 C   0  0  0  0  0  0
  -26.4444  -31.6630   25.0751 C   0  0  0  0  0  0
  -25.3663  -31.3687   26.1442 C   0  0  0  0  0  0
  -27.0295  -30.3078   24.6150 C   0  0  0  0  0  0
  -27.6068  -32.4321   25.7456 C   0  0  0  0  0  0
  -27.5593  -37.1830   24.8469 C   0  0  0  0  0  0
  -21.4100  -29.3095   22.3685 N   0  0  0  0  0  0
  -26.4338  -37.3813   23.9389 N   0  0  0  0  0  0
  -24.6605  -31.0817   22.1058 N   0  0  0  0  0  0
  -23.4149  -28.8209   23.3019 O   0  0  0  0  0  0
  -28.4140  -26.7691   20.0843 O   0  0  0  0  0  0
  -26.5600  -34.8965   22.4733 O   0  0  0  0  0  0
  -23.5302  -32.1495   23.7524 O   0  0  0  0  0  0
  -28.3251  -17.5027   22.9856 C   0  0  0  0  0  0
  -27.9826  -18.7027   23.6352 C   0  0  0  0  0  0
  -28.8211  -17.5149   21.6615 C   0  0  0  0  0  0
  -28.9948  -18.7537   20.9953 C   0  0  0  0  0  0
  -28.5795  -19.9634   21.6178 C   0  0  0  0  0  0
  -28.0899  -19.9327   22.9568 C   0  0  0  0  0  0
  -29.5893  -18.7923   19.5903 C   0  0  0  0  0  0
  -29.0125  -16.1820   20.9421 C   0  0  0  0  0  0
  -29.6720  -23.1656   20.1426 C   0  0  0  0  0  0
  -29.6885  -24.6975   20.2597 C   0  0  0  0  0  0
  -28.8238  -22.4609   21.2158 C   0  0  0  0  0  0
  -28.3313  -25.3535   19.9437 C   0  0  0  0  0  0
  -28.5414  -21.1023   20.7964 N   0  0  0  0  0  0
  -30.1718  -15.4072   21.3850 N   0  0  0  0  0  0
  -27.4953  -21.3421   23.7752 Cl  0  0  0  0  0  0
  -30.3377  -11.3017   19.8112 H   0  0  0  0  0  0
  -31.4582  -12.4301   19.0999 H   0  0  0  0  0  0
  -29.7400  -11.7535   17.4409 H   0  0  0  0  0  0
  -29.6578  -13.4698   17.7544 H   0  0  0  0  0  0
  -27.8752  -11.2771   18.8774 H   0  0  0  0  0  0
  -27.3567  -12.5388   17.7884 H   0  0  0  0  0  0
  -27.6916  -14.2279   19.5012 H   0  0  0  0  0  0
  -28.4357  -13.5723   21.8756 H   0  0  0  0  0  0
  -28.6591  -11.9461   21.3270 H   0  0  0  0  0  0
  -25.2767   -9.5887   22.4623 H   0  0  0  0  0  0
  -24.0099   -7.4767   22.7427 H   0  0  0  0  0  0
  -21.0821   -8.8740   19.8923 H   0  0  0  0  0  0
  -22.3578  -10.9675   19.6043 H   0  0  0  0  0  0
  -21.2028   -7.6144   23.9728 H   0  0  0  0  0  0
  -21.1390   -6.0470   25.9069 H   0  0  0  0  0  0
  -22.0632   -2.7605   23.2806 H   0  0  0  0  0  0
  -22.4192  -11.9894   22.4711 H   0  0  0  0  0  0
  -21.1112  -13.1207   22.2607 H   0  0  0  0  0  0
  -24.6586  -15.8433   20.4103 H   0  0  0  0  0  0
  -26.2671  -15.5947   19.9631 H   0  0  0  0  0  0
  -26.7021  -32.5546   23.1128 H   0  0  0  0  0  0
  -24.9924  -33.9803   25.0450 H   0  0  0  0  0  0
  -22.6851  -31.3197   21.4286 H   0  0  0  0  0  0
  -23.3738  -35.9684   23.3347 H   0  0  0  0  0  0
  -24.3567  -36.8955   22.2055 H   0  0  0  0  0  0
  -23.7242  -37.6567   23.6640 H   0  0  0  0  0  0
  -26.0207  -31.6210   20.5987 H   0  0  0  0  0  0
  -26.8140  -30.8976   21.9736 H   0  0  0  0  0  0
  -28.1002  -29.1581   21.0903 H   0  0  0  0  0  0
  -26.0263  -26.0031   18.9712 H   0  0  0  0  0  0
  -23.9762  -27.3260   18.9888 H   0  0  0  0  0  0
  -23.6827  -30.6162   19.4101 H   0  0  0  0  0  0
  -22.7156  -29.2471   19.8830 H   0  0  0  0  0  0
  -25.1270  -36.2071   25.0825 H   0  0  0  0  0  0
  -20.9987  -28.3284   24.1295 H   0  0  0  0  0  0
  -20.5605  -26.2283   23.3565 H   0  0  0  0  0  0
  -21.6723  -26.7411   22.1324 H   0  0  0  0  0  0
  -19.6839  -25.6279   21.1212 H   0  0  0  0  0  0
  -19.6613  -27.3169   20.6696 H   0  0  0  0  0  0
  -17.4213  -26.6790   21.3974 H   0  0  0  0  0  0
  -18.0374  -26.0033   22.8911 H   0  0  0  0  0  0
  -19.7898  -30.7185   24.2343 H   0  0  0  0  0  0
  -17.4989  -31.6218   24.5110 H   0  0  0  0  0  0
  -15.5373  -30.2960   23.7545 H   0  0  0  0  0  0
  -15.8715  -28.0737   22.7070 H   0  0  0  0  0  0
  -24.5850  -30.7077   25.7659 H   0  0  0  0  0  0
  -24.8799  -32.2814   26.4897 H   0  0  0  0  0  0
  -25.7916  -30.8772   27.0194 H   0  0  0  0  0  0
  -26.2859  -29.6800   24.1231 H   0  0  0  0  0  0
  -27.4097  -29.7369   25.4629 H   0  0  0  0  0  0
  -27.8666  -30.4427   23.9307 H   0  0  0  0  0  0
  -27.2774  -33.3633   26.2064 H   0  0  0  0  0  0
  -28.3798  -32.6850   25.0187 H   0  0  0  0  0  0
  -28.0811  -31.8418   26.5307 H   0  0  0  0  0  0
  -28.2631  -38.0106   24.7477 H   0  0  0  0  0  0
  -28.1078  -36.2632   24.6338 H   0  0  0  0  0  0
  -27.2302  -37.1532   25.8878 H   0  0  0  0  0  0
  -20.9276  -29.8890   21.6922 H   0  0  0  0  0  0
  -26.0246  -38.2922   24.1315 H   0  0  0  0  0  0
  -28.1503  -16.5658   23.4936 H   0  0  0  0  0  0
  -27.5742  -18.6801   24.6369 H   0  0  0  0  0  0
  -30.0979  -19.7321   19.3697 H   0  0  0  0  0  0
  -30.3330  -18.0087   19.4553 H   0  0  0  0  0  0
  -28.8046  -18.6371   18.8552 H   0  0  0  0  0  0
  -29.0249  -16.3019   19.8569 H   0  0  0  0  0  0
  -28.1033  -15.6261   21.1397 H   0  0  0  0  0  0
  -30.7001  -22.8041   20.2192 H   0  0  0  0  0  0
  -29.3389  -22.8939   19.1368 H   0  0  0  0  0  0
  -30.4253  -25.0815   19.5506 H   0  0  0  0  0  0
  -30.0534  -24.9802   21.2449 H   0  0  0  0  0  0
  -27.8614  -22.9545   21.3407 H   0  0  0  0  0  0
  -29.3226  -22.4901   22.1868 H   0  0  0  0  0  0
  -27.5558  -24.9795   20.6098 H   0  0  0  0  0  0
  -28.0469  -25.0892   18.9239 H   0  0  0  0  0  0
  -28.2648  -20.9605   19.8315 H   0  0  0  0  0  0
  -30.8716  -16.0118   21.7905 H   0  0  0  0  0  0
  1 25  1  0  0  0
  1 30  2  0  0  0
  1 84  1  0  0  0
  2  3  1  0  0  0
  2 25  1  0  0  0
  2 86  1  0  0  0
  2 87  1  0  0  0
  3  4  1  0  0  0
  3 88  1  0  0  0
  3 89  1  0  0  0
  4  5  1  0  0  0
  4 90  1  0  0  0
  4 91  1  0  0  0
  5  6  1  0  0  0
  5 26  1  0  0  0
  5 92  1  0  0  0
  6 25  1  0  0  0
  6 93  1  0  0  0
  6 94  1  0  0  0
  7  8  2  0  0  0
  7 26  1  0  0  0
  7 29  1  0  0  0
  8  9  1  0  0  0
  8 22  1  0  0  0
  9 10  1  0  0  0
  9 27  2  0  0  0
 10 11  2  0  0  0
 10 15  1  0  0  0
 11 12  1  0  0  0
 11 95  1  0  0  0
 12 13  2  0  0  0
 12 96  1  0  0  0
 13 14  1  0  0  0
 13 31  1  0  0  0
 14 15  2  0  0  0
 14 97  1  0  0  0
 15 98  1  0  0  0
 16 17  2  0  0  0
 16 21  1  0  0  0
 16 31  1  0  0  0
 17 18  1  0  0  0
 17 99  1  0  0  0
 18 19  2  0  0  0
 18100  1  0  0  0
 19 20  1  0  0  0
 19 24  1  0  0  0
 20 21  2  0  0  0
 20101  1  0  0  0
 21 23  1  0  0  0
 22 28  1  0  0  0
 22 32  2  0  0  0
 26 27  1  0  0  0
 28102  1  0  0  0
 28103  1  0  0  0
 29104  1  0  0  0
 29105  1  0  0  0
 33 34  1  0  0  0
 33 66  1  0  0  0
 33 70  2  0  0  0
 34 36  1  0  0  0
 34 59  1  0  0  0
 34106  1  0  0  0
 35 44  2  0  0  0
 35 45  1  0  0  0
 35 68  1  0  0  0
 36 56  1  0  0  0
 36107  1  0  0  0
 37 39  1  0  0  0
 37 47  1  0  0  0
 37 66  1  0  0  0
 37108  1  0  0  0
 38 43  2  0  0  0
 38 46  1  0  0  0
 38 47  1  0  0  0
 39 64  1  0  0  0
 39 67  2  0  0  0
 40 52  1  0  0  0
 40 53  2  0  0  0
 40 58  1  0  0  0
 41109  1  0  0  0
 41110  1  0  0  0
 41111  1  0  0  0
 41 48  1  0  0  0
 42 43  1  0  0  0
 42 66  1  0  0  0
 42112  1  0  0  0
 42113  1  0  0  0
 43 44  1  0  0  0
 44114  1  0  0  0
 45 46  2  0  0  0
 45115  1  0  0  0
 46116  1  0  0  0
 47117  1  0  0  0
 47118  1  0  0  0
 48 56  1  0  0  0
 48 65  1  0  0  0
 48119  1  0  0  0
 49 50  1  0  0  0
 49 53  1  0  0  0
 49 64  1  0  0  0
 49120  1  0  0  0
 50 51  1  0  0  0
 50121  1  0  0  0
 50122  1  0  0  0
 51 52  1  0  0  0
 51123  1  0  0  0
 51124  1  0  0  0
 52125  1  0  0  0
 52126  1  0  0  0
 53 54  1  0  0  0
 54 55  2  0  0  0
 54127  1  0  0  0
 55 57  1  0  0  0
 55128  1  0  0  0
 56 69  2  0  0  0
 57 58  2  0  0  0
 57129  1  0  0  0
 58130  1  0  0  0
 59 60  1  0  0  0
 59 61  1  0  0  0
 59 62  1  0  0  0
 60131  1  0  0  0
 60132  1  0  0  0
 60133  1  0  0  0
 61134  1  0  0  0
 61135  1  0  0  0
 61136  1  0  0  0
 62137  1  0  0  0
 62138  1  0  0  0
 62139  1  0  0  0
 63 65  1  0  0  0
 63140  1  0  0  0
 63141  1  0  0  0
 63142  1  0  0  0
 64143  1  0  0  0
 65144  1  0  0  0
 68 82  1  0  0  0
 71 72  2  0  0  0
 71 73  1  0  0  0
 71145  1  0  0  0
 72 76  1  0  0  0
 72146  1  0  0  0
 73 74  2  0  0  0
 73 78  1  0  0  0
 74 75  1  0  0  0
 74 77  1  0  0  0
 75 76  2  0  0  0
 75 83  1  0  0  0
 76 85  1  0  0  0
 77147  1  0  0  0
 77148  1  0  0  0
 77149  1  0  0  0
 78 84  1  0  0  0
 78150  1  0  0  0
 78151  1  0  0  0
 79 80  1  0  0  0
 79 81  1  0  0  0
 79152  1  0  0  0
 79153  1  0  0  0
 80 82  1  0  0  0
 80154  1  0  0  0
 80155  1  0  0  0
 81 83  1  0  0  0
 81156  1  0  0  0
 81157  1  0  0  0
 82158  1  0  0  0
 82159  1  0  0  0
 83160  1  0  0  0
 84161  1  0  0  0
M  ISO  4   1 100  68 101  82 101  84 100
M  END
> <chiral flag>
0

> <version>
0

> <s_m_source_file>
/data/baiqing/PycharmProjects/Reinvent-master-3.2/result/LINK_invent/BTK/process_docking_weight1_custom_product_contain_oxygen_bond_distance_aromatic_linkinvent_7_9_3/rearranged_h_0045.sdf

> <i_m_source_file_index>
10

> <r_mmod_Potential_Energy-OPLS-2005>
-20.021505355835

> <r_mmod_Stretch_Energy-OPLS-2005>
35.1614875793457

> <r_mmod_Bend_Energy-OPLS-2005>
120.615020751953

> <r_mmod_Torsional_Energy-OPLS-2005>
271.606201171875

> <r_mmod_Improper_Torsional_Energy-OPLS-2005>
7.91543292999268

> <r_mmod_Van_der_Waal_Energy-OPLS-2005>
166.619873046875

> <r_mmod_Electrostatic_Energy-OPLS-2005>
-427.696807861328

> <r_mmod_Solvation_Energy-OPLS-2005>
-206.982284545898

> <b_mmod_Minimization_Converged-OPLS-2005>
0

> <r_mmod_RMS_Derivative-OPLS-2005>
7.56229400634766

$$$$
10
                    3D
 Structure written by MMmdl.
162170  0  0  1  0            999 V2000
  -30.6695  -14.5214   20.6210 C   0  0  0  0  0  0
  -30.4442  -12.3577   19.4152 C   0  0  0  0  0  0
  -29.4991  -12.5377   18.2067 C   0  0  0  0  0  0
  -28.0228  -12.3781   18.6207 C   0  0  0  0  0  0
  -27.6692  -13.2075   19.8827 C   0  0  2  0  0  0
  -28.7126  -12.9666   20.9969 C   0  0  0  0  0  0
  -25.2624  -13.8169   20.5701 C   0  0  0  0  0  0
  -24.1861  -13.0446   20.9174 C   0  0  0  0  0  0
  -24.6410  -11.6915   20.8729 C   0  0  0  0  0  0
  -23.9070  -10.4300   21.0401 C   0  0  0  0  0  0
  -24.3619   -9.4214   21.9178 C   0  0  0  0  0  0
  -23.6294   -8.2250   22.0751 C   0  0  0  0  0  0
  -22.4275   -8.0287   21.3543 C   0  0  0  0  0  0
  -21.9912   -9.0266   20.4648 C   0  0  0  0  0  0
  -22.7243  -10.2143   20.3055 C   0  0  0  0  0  0
  -21.6854   -6.0738   22.5279 C   0  0  0  0  0  0
  -21.4018   -6.5641   23.8215 C   0  0  0  0  0  0
  -21.3660   -5.6792   24.9176 C   0  0  0  0  0  0
  -21.6045   -4.3057   24.7223 C   0  0  0  0  0  0
  -21.8820   -3.8149   23.4344 C   0  0  0  0  0  0
  -21.9196   -4.6967   22.3401 C   0  0  0  0  0  0
  -22.7884  -13.5250   21.1845 C   0  0  0  0  0  0
  -22.1661   -4.2153   21.0980 F   0  0  0  0  0  0
  -21.5630   -3.4540   25.7736 F   0  0  0  0  0  0
  -30.0480  -13.3128   20.4664 N   0  0  0  0  0  0
  -26.3069  -12.9337   20.3402 N   0  0  0  0  0  0
  -25.9342  -11.6496   20.5766 N   0  0  0  0  0  0
  -22.0513  -12.8242   22.0396 N   0  0  0  0  0  0
  -25.4351  -15.1887   20.4144 N   0  0  0  0  0  0
  -31.6951  -14.8311   20.0066 O   0  0  0  0  0  0
  -21.6642   -6.8879   21.4237 O   0  0  0  0  0  0
  -22.3572  -14.5555   20.6697 O   0  0  0  0  0  0
  -24.6223  -31.8639   23.2084 C   0  0  0  0  0  0
  -25.9090  -32.4803   23.8392 C   0  0  1  0  0  0
  -27.2266  -27.3610   20.0974 C   0  0  0  0  0  0
  -25.5912  -33.8604   24.2314 N   0  0  0  0  0  0
  -23.4136  -30.4899   21.5505 C   0  0  2  0  0  0
  -24.8581  -28.9543   20.1107 C   0  0  0  0  0  0
  -22.7454  -29.4643   22.4961 C   0  0  0  0  0  0
  -18.0285  -28.1395   22.8504 C   0  0  0  0  0  0
  -24.1481  -36.7301   23.2639 C   0  0  0  0  0  0
  -25.9515  -30.8051   21.3747 C   0  0  0  0  0  0
  -26.0243  -29.4359   20.7172 C   0  0  0  0  0  0
  -27.2075  -28.6467   20.7102 C   0  0  0  0  0  0
  -26.0390  -26.9329   19.4542 C   0  0  0  0  0  0
  -24.8646  -27.7051   19.4751 C   0  0  0  0  0  0
  -23.6252  -29.8297   20.1630 C   0  0  0  0  0  0
  -25.4106  -36.3100   24.0336 C   0  0  1  0  0  0
  -20.5885  -28.3688   23.1307 C   0  0  2  0  0  0
  -20.6776  -26.9418   22.5420 C   0  0  0  0  0  0
  -19.5746  -26.6396   21.5226 C   0  0  0  0  0  0
  -18.1927  -26.7942   22.1638 C   0  0  0  0  0  0
  -19.1539  -28.8858   23.2901 C   0  0  0  0  0  0
  -18.9458  -30.1463   23.8914 C   0  0  0  0  0  0
  -17.6457  -30.6597   24.0574 C   0  0  0  0  0  0
  -25.9042  -34.9466   23.5124 C   0  0  0  0  0  0
  -16.5351  -29.9099   23.6331 C   0  0  0  0  0  0
  -16.7270  -28.6517   23.0354 C   0  0  0  0  0  0
  -26.4492  -31.6599   25.0741 C   0  0  0  0  0  0
  -25.3734  -31.3728   26.1469 C   0  0  0  0  0  0
  -27.0326  -30.3032   24.6163 C   0  0  0  0  0  0
  -27.6059  -32.4325   25.7504 C   0  0  0  0  0  0
  -27.5579  -37.1809   24.8472 C   0  0  0  0  0  0
  -21.4174  -29.3042   22.3697 N   0  0  0  0  0  0
  -26.4292  -37.3787   23.9413 N   0  0  0  0  0  0
  -24.6812  -31.0684   22.1020 N   0  0  0  0  0  0
  -23.4197  -28.8180   23.3022 O   0  0  0  0  0  0
  -28.3665  -26.5511   20.1546 O   0  0  0  0  0  0
  -26.5605  -34.8923   22.4688 O   0  0  0  0  0  0
  -23.5397  -32.1416   23.7439 O   0  0  0  0  0  0
  -29.8816  -17.7582   20.7659 C   0  0  0  0  0  0
  -28.4226  -16.7243   22.4124 C   0  0  0  0  0  0
  -29.1292  -18.9855   20.8513 C   0  0  0  0  0  0
  -27.6617  -17.9004   22.5058 C   0  0  0  0  0  0
  -27.9780  -19.0253   21.7023 C   0  0  0  0  0  0
  -29.5142  -16.6075   21.5338 C   0  0  0  0  0  0
  -29.4815  -20.1726   20.0015 C   0  0  0  0  0  0
  -26.4891  -17.9085   23.4767 C   0  0  0  0  0  0
  -27.0376  -20.2366   21.7464 C   0  0  0  0  0  0
  -29.2475  -24.0999   20.3714 C   0  0  0  0  0  0
  -29.3122  -22.7212   19.6071 C   0  0  0  0  0  0
  -28.2606  -25.1484   19.7403 C   0  0  0  0  0  0
  -29.8350  -19.9672   18.7352 N   0  0  0  0  0  0
  -30.1393  -15.3065   21.5816 N   0  0  0  0  0  0
  -29.3880  -21.4649   20.4339 N   0  3  0  0  0  0
  -31.4817  -12.4972   19.1057 H   0  0  0  0  0  0
  -30.3859  -11.3371   19.7979 H   0  0  0  0  0  0
  -29.7469  -11.8176   17.4257 H   0  0  0  0  0  0
  -29.6507  -13.5259   17.7692 H   0  0  0  0  0  0
  -27.8426  -11.3190   18.8107 H   0  0  0  0  0  0
  -27.3674  -12.6542   17.7934 H   0  0  0  0  0  0
  -27.7191  -14.2600   19.6017 H   0  0  0  0  0  0
  -28.7028  -11.9173   21.2972 H   0  0  0  0  0  0
  -28.4418  -13.5192   21.8962 H   0  0  0  0  0  0
  -25.2766   -9.5697   22.4746 H   0  0  0  0  0  0
  -24.0015   -7.4645   22.7467 H   0  0  0  0  0  0
  -21.0842   -8.8788   19.8950 H   0  0  0  0  0  0
  -22.3706  -10.9682   19.6166 H   0  0  0  0  0  0
  -21.2005   -7.6151   23.9721 H   0  0  0  0  0  0
  -21.1482   -6.0519   25.9080 H   0  0  0  0  0  0
  -22.0594   -2.7610   23.2845 H   0  0  0  0  0  0
  -22.4123  -11.9910   22.4801 H   0  0  0  0  0  0
  -21.1127  -13.1270   22.2586 H   0  0  0  0  0  0
  -24.6672  -15.8426   20.5203 H   0  0  0  0  0  0
  -26.2911  -15.6299   20.1027 H   0  0  0  0  0  0
  -26.7158  -32.5492   23.1145 H   0  0  0  0  0  0
  -25.0067  -33.9764   25.0462 H   0  0  0  0  0  0
  -22.7065  -31.3105   21.4141 H   0  0  0  0  0  0
  -23.3742  -35.9635   23.3314 H   0  0  0  0  0  0
  -24.3570  -36.8903   22.2051 H   0  0  0  0  0  0
  -23.7234  -37.6510   23.6642 H   0  0  0  0  0  0
  -26.0769  -31.5690   20.6058 H   0  0  0  0  0  0
  -26.8348  -30.8544   21.9999 H   0  0  0  0  0  0
  -28.1014  -29.0111   21.1968 H   0  0  0  0  0  0
  -25.9807  -25.9959   18.9221 H   0  0  0  0  0  0
  -23.9720  -27.3365   18.9882 H   0  0  0  0  0  0
  -23.7416  -30.6087   19.4085 H   0  0  0  0  0  0
  -22.7463  -29.2574   19.8610 H   0  0  0  0  0  0
  -25.1283  -36.1964   25.0830 H   0  0  0  0  0  0
  -20.9987  -28.3257   24.1424 H   0  0  0  0  0  0
  -20.5700  -26.2293   23.3611 H   0  0  0  0  0  0
  -21.6643  -26.7464   22.1199 H   0  0  0  0  0  0
  -19.6903  -25.6308   21.1251 H   0  0  0  0  0  0
  -19.6683  -27.3214   20.6762 H   0  0  0  0  0  0
  -17.4198  -26.6702   21.4036 H   0  0  0  0  0  0
  -18.0317  -26.0082   22.9033 H   0  0  0  0  0  0
  -19.7929  -30.7283   24.2291 H   0  0  0  0  0  0
  -17.5006  -31.6280   24.5174 H   0  0  0  0  0  0
  -15.5353  -30.3005   23.7644 H   0  0  0  0  0  0
  -15.8670  -28.0840   22.7060 H   0  0  0  0  0  0
  -24.5913  -30.7071   25.7800 H   0  0  0  0  0  0
  -24.8916  -32.2892   26.4894 H   0  0  0  0  0  0
  -25.8062  -30.8913   27.0245 H   0  0  0  0  0  0
  -26.2891  -29.6795   24.1185 H   0  0  0  0  0  0
  -27.4040  -29.7275   25.4652 H   0  0  0  0  0  0
  -27.8753  -30.4338   23.9368 H   0  0  0  0  0  0
  -27.2678  -33.3623   26.2093 H   0  0  0  0  0  0
  -28.3858  -32.6891   25.0320 H   0  0  0  0  0  0
  -28.0731  -31.8440   26.5409 H   0  0  0  0  0  0
  -28.2611  -38.0093   24.7504 H   0  0  0  0  0  0
  -28.1059  -36.2626   24.6310 H   0  0  0  0  0  0
  -27.2297  -37.1475   25.8876 H   0  0  0  0  0  0
  -20.9342  -29.8763   21.6912 H   0  0  0  0  0  0
  -26.0179  -38.2867   24.1406 H   0  0  0  0  0  0
  -30.7369  -17.7023   20.1064 H   0  0  0  0  0  0
  -28.1387  -15.8793   23.0236 H   0  0  0  0  0  0
  -26.4887  -18.8123   24.0862 H   0  0  0  0  0  0
  -26.5294  -17.0600   24.1606 H   0  0  0  0  0  0
  -25.5446  -17.8501   22.9357 H   0  0  0  0  0  0
  -26.8776  -20.6594   20.7548 H   0  0  0  0  0  0
  -27.4362  -21.0114   22.4015 H   0  0  0  0  0  0
  -26.0384  -19.9923   22.1017 H   0  0  0  0  0  0
  -30.2480  -24.5323   20.3697 H   0  0  0  0  0  0
  -28.9911  -23.9472   21.4194 H   0  0  0  0  0  0
  -30.1508  -22.7488   18.9093 H   0  0  0  0  0  0
  -28.4201  -22.6311   18.9846 H   0  0  0  0  0  0
  -28.3543  -25.1225   18.6538 H   0  0  0  0  0  0
  -27.2761  -24.7498   19.9831 H   0  0  0  0  0  0
  -30.1196  -20.7156   18.1270 H   0  0  0  0  0  0
  -29.8240  -19.0289   18.3643 H   0  0  0  0  0  0
  -29.6701  -14.7074   22.2427 H   0  0  0  0  0  0
  -29.2021  -21.5656   21.4234 H   0  0  0  0  0  0
  1 25  1  0  0  0
  1 30  2  0  0  0
  1 84  1  0  0  0
  2  3  1  0  0  0
  2 25  1  0  0  0
  2 86  1  0  0  0
  2 87  1  0  0  0
  3  4  1  0  0  0
  3 88  1  0  0  0
  3 89  1  0  0  0
  4  5  1  0  0  0
  4 90  1  0  0  0
  4 91  1  0  0  0
  5  6  1  0  0  0
  5 26  1  0  0  0
  5 92  1  0  0  0
  6 25  1  0  0  0
  6 93  1  0  0  0
  6 94  1  0  0  0
  7  8  2  0  0  0
  7 26  1  0  0  0
  7 29  1  0  0  0
  8  9  1  0  0  0
  8 22  1  0  0  0
  9 10  1  0  0  0
  9 27  2  0  0  0
 10 11  2  0  0  0
 10 15  1  0  0  0
 11 12  1  0  0  0
 11 95  1  0  0  0
 12 13  2  0  0  0
 12 96  1  0  0  0
 13 14  1  0  0  0
 13 31  1  0  0  0
 14 15  2  0  0  0
 14 97  1  0  0  0
 15 98  1  0  0  0
 16 17  2  0  0  0
 16 21  1  0  0  0
 16 31  1  0  0  0
 17 18  1  0  0  0
 17 99  1  0  0  0
 18 19  2  0  0  0
 18100  1  0  0  0
 19 20  1  0  0  0
 19 24  1  0  0  0
 20 21  2  0  0  0
 20101  1  0  0  0
 21 23  1  0  0  0
 22 28  1  0  0  0
 22 32  2  0  0  0
 26 27  1  0  0  0
 28102  1  0  0  0
 28103  1  0  0  0
 29104  1  0  0  0
 29105  1  0  0  0
 33 34  1  0  0  0
 33 66  1  0  0  0
 33 70  2  0  0  0
 34 36  1  0  0  0
 34 59  1  0  0  0
 34106  1  0  0  0
 35 44  2  0  0  0
 35 45  1  0  0  0
 35 68  1  0  0  0
 36 56  1  0  0  0
 36107  1  0  0  0
 37 39  1  0  0  0
 37 47  1  0  0  0
 37 66  1  0  0  0
 37108  1  0  0  0
 38 43  2  0  0  0
 38 46  1  0  0  0
 38 47  1  0  0  0
 39 64  1  0  0  0
 39 67  2  0  0  0
 40 52  1  0  0  0
 40 53  2  0  0  0
 40 58  1  0  0  0
 41109  1  0  0  0
 41110  1  0  0  0
 41111  1  0  0  0
 41 48  1  0  0  0
 42 43  1  0  0  0
 42 66  1  0  0  0
 42112  1  0  0  0
 42113  1  0  0  0
 43 44  1  0  0  0
 44114  1  0  0  0
 45 46  2  0  0  0
 45115  1  0  0  0
 46116  1  0  0  0
 47117  1  0  0  0
 47118  1  0  0  0
 48 56  1  0  0  0
 48 65  1  0  0  0
 48119  1  0  0  0
 49 50  1  0  0  0
 49 53  1  0  0  0
 49 64  1  0  0  0
 49120  1  0  0  0
 50 51  1  0  0  0
 50121  1  0  0  0
 50122  1  0  0  0
 51 52  1  0  0  0
 51123  1  0  0  0
 51124  1  0  0  0
 52125  1  0  0  0
 52126  1  0  0  0
 53 54  1  0  0  0
 54 55  2  0  0  0
 54127  1  0  0  0
 55 57  1  0  0  0
 55128  1  0  0  0
 56 69  2  0  0  0
 57 58  2  0  0  0
 57129  1  0  0  0
 58130  1  0  0  0
 59 60  1  0  0  0
 59 61  1  0  0  0
 59 62  1  0  0  0
 60131  1  0  0  0
 60132  1  0  0  0
 60133  1  0  0  0
 61134  1  0  0  0
 61135  1  0  0  0
 61136  1  0  0  0
 62137  1  0  0  0
 62138  1  0  0  0
 62139  1  0  0  0
 63 65  1  0  0  0
 63140  1  0  0  0
 63141  1  0  0  0
 63142  1  0  0  0
 64143  1  0  0  0
 65144  1  0  0  0
 68 82  1  0  0  0
 71 73  2  0  0  0
 71 76  1  0  0  0
 71145  1  0  0  0
 72 74  1  0  0  0
 72 76  2  0  0  0
 72146  1  0  0  0
 73 75  1  0  0  0
 73 77  1  0  0  0
 74 75  2  0  0  0
 74 78  1  0  0  0
 75 79  1  0  0  0
 76 84  1  0  0  0
 77 83  1  0  0  0
 77 85  2  0  0  0
 78147  1  0  0  0
 78148  1  0  0  0
 78149  1  0  0  0
 79150  1  0  0  0
 79151  1  0  0  0
 79152  1  0  0  0
 80 81  1  0  0  0
 80 82  1  0  0  0
 80153  1  0  0  0
 80154  1  0  0  0
 81 85  1  0  0  0
 81155  1  0  0  0
 81156  1  0  0  0
 82157  1  0  0  0
 82158  1  0  0  0
 83159  1  0  0  0
 83160  1  0  0  0
 84161  1  0  0  0
 85162  1  0  0  0
M  CHG  1  85   1
M  ISO  4   1 100  68 101  82 101  84 100
M  END
> <chiral flag>
0

> <version>
0

> <s_m_source_file>
/data/baiqing/PycharmProjects/Reinvent-master-3.2/result/LINK_invent/BTK/process_docking_weight1_custom_product_contain_oxygen_bond_distance_aromatic_linkinvent_7_9_3/rearranged_h_0045.sdf

> <i_m_source_file_index>
11

> <r_mmod_Potential_Energy-OPLS-2005>
-150.516540527344

> <r_mmod_Stretch_Energy-OPLS-2005>
63.9093589782715

> <r_mmod_Bend_Energy-OPLS-2005>
138.601455688477

> <r_mmod_Torsional_Energy-OPLS-2005>
238.844833374023

> <r_mmod_Improper_Torsional_Energy-OPLS-2005>
6.79600954055786

> <r_mmod_Van_der_Waal_Energy-OPLS-2005>
158.285827636719

> <r_mmod_Electrostatic_Energy-OPLS-2005>
-374.713592529297

> <r_mmod_Solvation_Energy-OPLS-2005>
-409.585144042969

> <b_mmod_Minimization_Converged-OPLS-2005>
0

> <r_mmod_RMS_Derivative-OPLS-2005>
1.12484800815582

$$$$
11
                    3D
 Structure written by MMmdl.
174183  0  0  1  0            999 V2000
  -30.6402  -14.5712   20.5375 C   0  0  0  0  0  0
  -30.4382  -12.3598   19.4458 C   0  0  0  0  0  0
  -29.5019  -12.4944   18.2233 C   0  0  0  0  0  0
  -28.0261  -12.3387   18.6404 C   0  0  0  0  0  0
  -27.6565  -13.2054   19.8731 C   0  0  2  0  0  0
  -28.6974  -13.0253   20.9997 C   0  0  0  0  0  0
  -25.2575  -13.8146   20.5699 C   0  0  0  0  0  0
  -24.1823  -13.0433   20.9196 C   0  0  0  0  0  0
  -24.6367  -11.6892   20.8742 C   0  0  0  0  0  0
  -23.9021  -10.4282   21.0406 C   0  0  0  0  0  0
  -24.3581   -9.4209   21.9201 C   0  0  0  0  0  0
  -23.6272   -8.2232   22.0756 C   0  0  0  0  0  0
  -22.4266   -8.0266   21.3535 C   0  0  0  0  0  0
  -21.9887   -9.0226   20.4637 C   0  0  0  0  0  0
  -22.7193  -10.2119   20.3052 C   0  0  0  0  0  0
  -21.6855   -6.0720   22.5270 C   0  0  0  0  0  0
  -21.4003   -6.5637   23.8204 C   0  0  0  0  0  0
  -21.3662   -5.6790   24.9168 C   0  0  0  0  0  0
  -21.6039   -4.3044   24.7218 C   0  0  0  0  0  0
  -21.8825   -3.8140   23.4338 C   0  0  0  0  0  0
  -21.9197   -4.6952   22.3394 C   0  0  0  0  0  0
  -22.7865  -13.5248   21.1877 C   0  0  0  0  0  0
  -22.1672   -4.2136   21.0968 F   0  0  0  0  0  0
  -21.5634   -3.4530   25.7738 F   0  0  0  0  0  0
  -30.0204  -13.3582   20.4457 N   0  0  0  0  0  0
  -26.2997  -12.9307   20.3360 N   0  0  0  0  0  0
  -25.9293  -11.6469   20.5762 N   0  0  0  0  0  0
  -22.0494  -12.8209   22.0406 N   0  0  0  0  0  0
  -25.4350  -15.1864   20.4135 N   0  0  0  0  0  0
  -31.7841  -14.7614   20.1110 O   0  0  0  0  0  0
  -21.6644   -6.8865   21.4227 O   0  0  0  0  0  0
  -22.3566  -14.5579   20.6783 O   0  0  0  0  0  0
  -24.6219  -31.8630   23.2049 C   0  0  0  0  0  0
  -25.9067  -32.4797   23.8370 C   0  0  1  0  0  0
  -27.2236  -27.3575   20.1190 C   0  0  0  0  0  0
  -25.5914  -33.8597   24.2324 N   0  0  0  0  0  0
  -23.4118  -30.4892   21.5454 C   0  0  2  0  0  0
  -24.8556  -28.9402   20.1194 C   0  0  0  0  0  0
  -22.7445  -29.4660   22.4938 C   0  0  0  0  0  0
  -18.0283  -28.1400   22.8510 C   0  0  0  0  0  0
  -24.1471  -36.7272   23.2646 C   0  0  0  0  0  0
  -25.9478  -30.8063   21.3631 C   0  0  0  0  0  0
  -26.0194  -29.4294   20.7247 C   0  0  0  0  0  0
  -27.2060  -28.6472   20.7213 C   0  0  0  0  0  0
  -26.0426  -26.9142   19.4843 C   0  0  0  0  0  0
  -24.8641  -27.6829   19.4959 C   0  0  0  0  0  0
  -23.6236  -29.8185   20.1612 C   0  0  0  0  0  0
  -25.4088  -36.3080   24.0360 C   0  0  1  0  0  0
  -20.5878  -28.3659   23.1311 C   0  0  2  0  0  0
  -20.6782  -26.9398   22.5402 C   0  0  0  0  0  0
  -19.5742  -26.6391   21.5200 C   0  0  0  0  0  0
  -18.1932  -26.7973   22.1618 C   0  0  0  0  0  0
  -19.1534  -28.8848   23.2906 C   0  0  0  0  0  0
  -18.9484  -30.1481   23.8878 C   0  0  0  0  0  0
  -17.6480  -30.6607   24.0582 C   0  0  0  0  0  0
  -25.9033  -34.9461   23.5133 C   0  0  0  0  0  0
  -16.5361  -29.9136   23.6345 C   0  0  0  0  0  0
  -16.7275  -28.6551   23.0344 C   0  0  0  0  0  0
  -26.4465  -31.6600   25.0710 C   0  0  0  0  0  0
  -25.3735  -31.3732   26.1463 C   0  0  0  0  0  0
  -27.0332  -30.3088   24.6040 C   0  0  0  0  0  0
  -27.6023  -32.4331   25.7479 C   0  0  0  0  0  0
  -27.5568  -37.1798   24.8472 C   0  0  0  0  0  0
  -21.4160  -29.3044   22.3712 N   0  0  0  0  0  0
  -26.4254  -37.3780   23.9449 N   0  0  0  0  0  0
  -24.6802  -31.0701   22.0949 N   0  0  0  0  0  0
  -23.4205  -28.8190   23.2969 O   0  0  0  0  0  0
  -28.3735  -26.5723   20.1145 O   0  0  0  0  0  0
  -26.5562  -34.8932   22.4677 O   0  0  0  0  0  0
  -23.5393  -32.1376   23.7434 O   0  0  0  0  0  0
  -26.9013  -21.8573   20.3138 C   0  0  0  0  0  0
  -30.1451  -19.2696   21.8247 C   0  0  0  0  0  0
  -29.8901  -19.0628   19.4337 C   0  0  0  0  0  0
  -30.0475  -19.9016   20.5637 C   0  0  0  0  0  0
  -30.0840  -17.8576   21.9559 C   0  0  0  0  0  0
  -29.8592  -17.6386   19.5378 C   0  0  0  0  0  0
  -29.9846  -17.0147   20.8161 C   0  0  0  0  0  0
  -27.9510  -22.6499   20.2783 C   0  0  0  0  0  0
  -25.8705  -21.0483   20.3533 C   0  0  0  0  0  0
  -27.9497  -24.0646   19.6584 C   0  0  0  0  0  0
  -29.6882  -24.8267   21.2284 C   0  0  0  0  0  0
  -29.6979  -23.4314   21.9124 C   0  0  0  0  0  0
  -28.3097  -25.2075   20.6516 C   0  0  1  0  0  0
  -30.1166  -17.2594   23.3506 C   0  0  0  0  0  0
  -25.5960  -20.0011   19.2919 C   0  0  0  0  0  0
  -29.2666  -17.4947   16.9964 C   0  0  0  0  0  0
  -29.6850  -16.7713   18.2864 C   0  0  0  0  0  0
  -30.2153  -21.4431   20.4089 C   0  0  0  0  0  0
  -29.8609  -15.5843   21.0020 N   0  0  0  0  0  0
  -29.1767  -22.3040   21.0759 N   0  3  2  0  0  0
  -31.4782  -12.4924   19.1430 H   0  0  0  0  0  0
  -30.3774  -11.3588   19.8739 H   0  0  0  0  0  0
  -29.7588  -11.7435   17.4745 H   0  0  0  0  0  0
  -29.6493  -13.4637   17.7445 H   0  0  0  0  0  0
  -27.8601  -11.2853   18.8692 H   0  0  0  0  0  0
  -27.3672  -12.5742   17.8044 H   0  0  0  0  0  0
  -27.6854  -14.2447   19.5499 H   0  0  0  0  0  0
  -28.6964  -11.9933   21.3505 H   0  0  0  0  0  0
  -28.4433  -13.6304   21.8720 H   0  0  0  0  0  0
  -25.2709   -9.5708   22.4787 H   0  0  0  0  0  0
  -23.9989   -7.4625   22.7466 H   0  0  0  0  0  0
  -21.0834   -8.8706   19.8940 H   0  0  0  0  0  0
  -22.3629  -10.9645   19.6154 H   0  0  0  0  0  0
  -21.1982   -7.6147   23.9700 H   0  0  0  0  0  0
  -21.1484   -6.0521   25.9070 H   0  0  0  0  0  0
  -22.0605   -2.7595   23.2838 H   0  0  0  0  0  0
  -22.4072  -11.9804   22.4697 H   0  0  0  0  0  0
  -21.1120  -13.1236   22.2665 H   0  0  0  0  0  0
  -24.6721  -15.8445   20.5261 H   0  0  0  0  0  0
  -26.2876  -15.6179   20.0799 H   0  0  0  0  0  0
  -26.7138  -32.5457   23.1122 H   0  0  0  0  0  0
  -25.0155  -33.9754   25.0541 H   0  0  0  0  0  0
  -22.7019  -31.3073   21.4038 H   0  0  0  0  0  0
  -23.3754  -35.9578   23.3276 H   0  0  0  0  0  0
  -24.3580  -36.8900   22.2065 H   0  0  0  0  0  0
  -23.7203  -37.6473   23.6661 H   0  0  0  0  0  0
  -26.0562  -31.5558   20.5765 H   0  0  0  0  0  0
  -26.8423  -30.8732   21.9723 H   0  0  0  0  0  0
  -28.1012  -29.0213   21.1962 H   0  0  0  0  0  0
  -26.0069  -25.9807   18.9498 H   0  0  0  0  0  0
  -23.9728  -27.3058   19.0147 H   0  0  0  0  0  0
  -23.7436  -30.5912   19.3997 H   0  0  0  0  0  0
  -22.7432  -29.2467   19.8616 H   0  0  0  0  0  0
  -25.1282  -36.1903   25.0855 H   0  0  0  0  0  0
  -20.9990  -28.3201   24.1418 H   0  0  0  0  0  0
  -20.5663  -26.2264   23.3593 H   0  0  0  0  0  0
  -21.6649  -26.7460   22.1163 H   0  0  0  0  0  0
  -19.6883  -25.6299   21.1212 H   0  0  0  0  0  0
  -19.6690  -27.3240   20.6754 H   0  0  0  0  0  0
  -17.4213  -26.6742   21.3997 H   0  0  0  0  0  0
  -18.0299  -26.0107   22.8993 H   0  0  0  0  0  0
  -19.7959  -30.7330   24.2176 H   0  0  0  0  0  0
  -17.5045  -31.6265   24.5245 H   0  0  0  0  0  0
  -15.5375  -30.3027   23.7709 H   0  0  0  0  0  0
  -15.8659  -28.0906   22.7001 H   0  0  0  0  0  0
  -24.5908  -30.7042   25.7866 H   0  0  0  0  0  0
  -24.8893  -32.2896   26.4852 H   0  0  0  0  0  0
  -25.8087  -30.8993   27.0262 H   0  0  0  0  0  0
  -26.2898  -29.6822   24.1091 H   0  0  0  0  0  0
  -27.4224  -29.7314   25.4429 H   0  0  0  0  0  0
  -27.8646  -30.4535   23.9138 H   0  0  0  0  0  0
  -27.2643  -33.3652   26.2015 H   0  0  0  0  0  0
  -28.3846  -32.6841   25.0308 H   0  0  0  0  0  0
  -28.0641  -31.8458   26.5424 H   0  0  0  0  0  0
  -28.2575  -38.0111   24.7545 H   0  0  0  0  0  0
  -28.1084  -36.2652   24.6250 H   0  0  0  0  0  0
  -27.2302  -37.1368   25.8878 H   0  0  0  0  0  0
  -20.9305  -29.8835   21.7017 H   0  0  0  0  0  0
  -26.0127  -38.2847   24.1467 H   0  0  0  0  0  0
  -30.2740  -19.8740   22.7125 H   0  0  0  0  0  0
  -29.8128  -19.5371   18.4662 H   0  0  0  0  0  0
  -25.1584  -21.1025   21.1681 H   0  0  0  0  0  0
  -26.9586  -24.2135   19.2408 H   0  0  0  0  0  0
  -28.6269  -24.0693   18.8045 H   0  0  0  0  0  0
  -30.4418  -24.8553   20.4408 H   0  0  0  0  0  0
  -29.9924  -25.5751   21.9617 H   0  0  0  0  0  0
  -29.0572  -23.4893   22.7918 H   0  0  0  0  0  0
  -30.6919  -23.2042   22.2987 H   0  0  0  0  0  0
  -27.5828  -25.1998   21.4667 H   0  0  0  0  0  0
  -30.1988  -18.0292   24.1184 H   0  0  0  0  0  0
  -30.9620  -16.5808   23.4651 H   0  0  0  0  0  0
  -29.1953  -16.7067   23.5395 H   0  0  0  0  0  0
  -26.3295  -20.0497   18.4850 H   0  0  0  0  0  0
  -24.6065  -20.1539   18.8621 H   0  0  0  0  0  0
  -25.6335  -19.0024   19.7284 H   0  0  0  0  0  0
  -29.1695  -16.7826   16.1756 H   0  0  0  0  0  0
  -30.0021  -18.2358   16.6805 H   0  0  0  0  0  0
  -28.3030  -17.9905   17.1148 H   0  0  0  0  0  0
  -28.9403  -16.0045   18.4961 H   0  0  0  0  0  0
  -30.6224  -16.2490   18.1020 H   0  0  0  0  0  0
  -30.2737  -21.7094   19.3530 H   0  0  0  0  0  0
  -31.2010  -21.6707   20.8150 H   0  0  0  0  0  0
  -29.0029  -15.2816   21.4362 H   0  0  0  0  0  0
  -28.8592  -21.6653   21.7875 H   0  0  0  0  0  0
  1 25  1  0  0  0
  1 30  2  0  0  0
  1 89  1  0  0  0
  2  3  1  0  0  0
  2 25  1  0  0  0
  2 91  1  0  0  0
  2 92  1  0  0  0
  3  4  1  0  0  0
  3 93  1  0  0  0
  3 94  1  0  0  0
  4  5  1  0  0  0
  4 95  1  0  0  0
  4 96  1  0  0  0
  5  6  1  0  0  0
  5 26  1  0  0  0
  5 97  1  0  0  0
  6 25  1  0  0  0
  6 98  1  0  0  0
  6 99  1  0  0  0
  7  8  2  0  0  0
  7 26  1  0  0  0
  7 29  1  0  0  0
  8  9  1  0  0  0
  8 22  1  0  0  0
  9 10  1  0  0  0
  9 27  2  0  0  0
 10 11  2  0  0  0
 10 15  1  0  0  0
 11 12  1  0  0  0
 11100  1  0  0  0
 12 13  2  0  0  0
 12101  1  0  0  0
 13 14  1  0  0  0
 13 31  1  0  0  0
 14 15  2  0  0  0
 14102  1  0  0  0
 15103  1  0  0  0
 16 17  2  0  0  0
 16 21  1  0  0  0
 16 31  1  0  0  0
 17 18  1  0  0  0
 17104  1  0  0  0
 18 19  2  0  0  0
 18105  1  0  0  0
 19 20  1  0  0  0
 19 24  1  0  0  0
 20 21  2  0  0  0
 20106  1  0  0  0
 21 23  1  0  0  0
 22 28  1  0  0  0
 22 32  2  0  0  0
 26 27  1  0  0  0
 28107  1  0  0  0
 28108  1  0  0  0
 29109  1  0  0  0
 29110  1  0  0  0
 33 34  1  0  0  0
 33 66  1  0  0  0
 33 70  2  0  0  0
 34 36  1  0  0  0
 34 59  1  0  0  0
 34111  1  0  0  0
 35 44  2  0  0  0
 35 45  1  0  0  0
 35 68  1  0  0  0
 36 56  1  0  0  0
 36112  1  0  0  0
 37 39  1  0  0  0
 37 47  1  0  0  0
 37 66  1  0  0  0
 37113  1  0  0  0
 38 43  2  0  0  0
 38 46  1  0  0  0
 38 47  1  0  0  0
 39 64  1  0  0  0
 39 67  2  0  0  0
 40 52  1  0  0  0
 40 53  2  0  0  0
 40 58  1  0  0  0
 41114  1  0  0  0
 41115  1  0  0  0
 41116  1  0  0  0
 41 48  1  0  0  0
 42 43  1  0  0  0
 42 66  1  0  0  0
 42117  1  0  0  0
 42118  1  0  0  0
 43 44  1  0  0  0
 44119  1  0  0  0
 45 46  2  0  0  0
 45120  1  0  0  0
 46121  1  0  0  0
 47122  1  0  0  0
 47123  1  0  0  0
 48 56  1  0  0  0
 48 65  1  0  0  0
 48124  1  0  0  0
 49 50  1  0  0  0
 49 53  1  0  0  0
 49 64  1  0  0  0
 49125  1  0  0  0
 50 51  1  0  0  0
 50126  1  0  0  0
 50127  1  0  0  0
 51 52  1  0  0  0
 51128  1  0  0  0
 51129  1  0  0  0
 52130  1  0  0  0
 52131  1  0  0  0
 53 54  1  0  0  0
 54 55  2  0  0  0
 54132  1  0  0  0
 55 57  1  0  0  0
 55133  1  0  0  0
 56 69  2  0  0  0
 57 58  2  0  0  0
 57134  1  0  0  0
 58135  1  0  0  0
 59 60  1  0  0  0
 59 61  1  0  0  0
 59 62  1  0  0  0
 60136  1  0  0  0
 60137  1  0  0  0
 60138  1  0  0  0
 61139  1  0  0  0
 61140  1  0  0  0
 61141  1  0  0  0
 62142  1  0  0  0
 62143  1  0  0  0
 62144  1  0  0  0
 63 65  1  0  0  0
 63145  1  0  0  0
 63146  1  0  0  0
 63147  1  0  0  0
 64148  1  0  0  0
 65149  1  0  0  0
 68 83  1  0  0  0
 71 78  2  0  0  0
 71 79  2  0  0  0
 72 74  2  0  0  0
 72 75  1  0  0  0
 72150  1  0  0  0
 73 74  1  0  0  0
 73 76  2  0  0  0
 73151  1  0  0  0
 74 88  1  0  0  0
 75 77  2  0  0  0
 75 84  1  0  0  0
 76 77  1  0  0  0
 76 87  1  0  0  0
 77 89  1  0  0  0
 78 80  1  0  0  0
 78 90  1  0  0  0
 79 85  1  0  0  0
 79152  1  0  0  0
 80 83  1  0  0  0
 80153  1  0  0  0
 80154  1  0  0  0
 81 82  1  0  0  0
 81 83  1  0  0  0
 81155  1  0  0  0
 81156  1  0  0  0
 82 90  1  0  0  0
 82157  1  0  0  0
 82158  1  0  0  0
 83159  1  0  0  0
 84160  1  0  0  0
 84161  1  0  0  0
 84162  1  0  0  0
 85163  1  0  0  0
 85164  1  0  0  0
 85165  1  0  0  0
 86 87  1  0  0  0
 86166  1  0  0  0
 86167  1  0  0  0
 86168  1  0  0  0
 87169  1  0  0  0
 87170  1  0  0  0
 88171  1  0  0  0
 88172  1  0  0  0
 88 90  1  0  0  0
 89173  1  0  0  0
 90174  1  0  0  0
M  CHG  1  90   1
M  ISO  4   1 100  68 101  83 101  89 100
M  END
> <chiral flag>
0

> <version>
0

> <s_m_source_file>
/data/baiqing/PycharmProjects/Reinvent-master-3.2/result/LINK_invent/BTK/process_docking_weight1_custom_product_contain_oxygen_bond_distance_aromatic_linkinvent_7_9_3/rearranged_h_0045.sdf

> <i_m_source_file_index>
12

> <r_mmod_Potential_Energy-OPLS-2005>
-225.782211303711

> <r_mmod_Stretch_Energy-OPLS-2005>
58.6788673400879

> <r_mmod_Bend_Energy-OPLS-2005>
131.761032104492

> <r_mmod_Torsional_Energy-OPLS-2005>
186.988128662109

> <r_mmod_Improper_Torsional_Energy-OPLS-2005>
4.46498870849609

> <r_mmod_Van_der_Waal_Energy-OPLS-2005>
137.596618652344

> <r_mmod_Electrostatic_Energy-OPLS-2005>
-338.582153320312

> <r_mmod_Solvation_Energy-OPLS-2005>
-436.038604736328

> <b_mmod_Minimization_Converged-OPLS-2005>
0

> <r_mmod_RMS_Derivative-OPLS-2005>
3.95768642425537

$$$$
12
                    3D
 Structure written by MMmdl.
161170  0  0  1  0            999 V2000
  -30.5749  -14.7714   20.4689 C   0  0  0  0  0  0
  -30.4456  -12.4741   19.4633 C   0  0  0  0  0  0
  -29.5138  -12.5020   18.2301 C   0  0  0  0  0  0
  -28.0385  -12.3202   18.6460 C   0  0  0  0  0  0
  -27.6378  -13.2238   19.8405 C   0  0  2  0  0  0
  -28.6847  -13.1608   20.9714 C   0  0  0  0  0  0
  -25.2504  -13.8179   20.5678 C   0  0  0  0  0  0
  -24.1791  -13.0433   20.9195 C   0  0  0  0  0  0
  -24.6380  -11.6911   20.8738 C   0  0  0  0  0  0
  -23.9059  -10.4292   21.0416 C   0  0  0  0  0  0
  -24.3614   -9.4204   21.9193 C   0  0  0  0  0  0
  -23.6286   -8.2242   22.0762 C   0  0  0  0  0  0
  -22.4265   -8.0286   21.3553 C   0  0  0  0  0  0
  -21.9897   -9.0257   20.4653 C   0  0  0  0  0  0
  -22.7231  -10.2134   20.3066 C   0  0  0  0  0  0
  -21.6852   -6.0738   22.5279 C   0  0  0  0  0  0
  -21.4018   -6.5644   23.8212 C   0  0  0  0  0  0
  -21.3661   -5.6792   24.9174 C   0  0  0  0  0  0
  -21.6046   -4.3053   24.7224 C   0  0  0  0  0  0
  -21.8817   -3.8145   23.4343 C   0  0  0  0  0  0
  -21.9188   -4.6965   22.3400 C   0  0  0  0  0  0
  -22.7816  -13.5225   21.1874 C   0  0  0  0  0  0
  -22.1658   -4.2156   21.0978 F   0  0  0  0  0  0
  -21.5626   -3.4538   25.7736 F   0  0  0  0  0  0
  -29.9799  -13.5321   20.3852 N   0  0  0  0  0  0
  -26.2910  -12.9366   20.3218 N   0  0  0  0  0  0
  -25.9296  -11.6515   20.5695 N   0  0  0  0  0  0
  -22.0468  -12.8207   22.0436 N   0  0  0  0  0  0
  -25.4179  -15.1914   20.4139 N   0  0  0  0  0  0
  -31.7815  -14.8977   20.2402 O   0  0  0  0  0  0
  -21.6635   -6.8879   21.4244 O   0  0  0  0  0  0
  -22.3493  -14.5528   20.6719 O   0  0  0  0  0  0
  -24.6308  -31.8544   23.1955 C   0  0  0  0  0  0
  -25.9125  -32.4752   23.8314 C   0  0  1  0  0  0
  -27.2268  -27.2639   20.1393 C   0  0  0  0  0  0
  -25.5911  -33.8555   24.2233 N   0  0  0  0  0  0
  -23.4284  -30.4723   21.5398 C   0  0  2  0  0  0
  -24.8777  -28.9094   20.1186 C   0  0  0  0  0  0
  -22.7500  -29.4590   22.4934 C   0  0  0  0  0  0
  -18.0290  -28.1375   22.8484 C   0  0  0  0  0  0
  -24.1487  -36.7297   23.2640 C   0  0  0  0  0  0
  -25.9728  -30.7674   21.3743 C   0  0  0  0  0  0
  -26.0494  -29.3869   20.7232 C   0  0  0  0  0  0
  -27.2300  -28.5778   20.7170 C   0  0  0  0  0  0
  -26.0339  -26.8437   19.5187 C   0  0  0  0  0  0
  -24.8748  -27.6454   19.5054 C   0  0  0  0  0  0
  -23.6474  -29.7958   20.1603 C   0  0  0  0  0  0
  -25.4112  -36.3074   24.0322 C   0  0  1  0  0  0
  -20.5887  -28.3689   23.1272 C   0  0  2  0  0  0
  -20.6774  -26.9404   22.5408 C   0  0  0  0  0  0
  -19.5751  -26.6375   21.5212 C   0  0  0  0  0  0
  -18.1931  -26.7919   22.1621 C   0  0  0  0  0  0
  -19.1540  -28.8849   23.2872 C   0  0  0  0  0  0
  -18.9467  -30.1447   23.8896 C   0  0  0  0  0  0
  -17.6464  -30.6582   24.0555 C   0  0  0  0  0  0
  -25.9050  -34.9442   23.5084 C   0  0  0  0  0  0
  -16.5355  -29.9078   23.6324 C   0  0  0  0  0  0
  -16.7274  -28.6487   23.0363 C   0  0  0  0  0  0
  -26.4477  -31.6586   25.0719 C   0  0  0  0  0  0
  -25.3686  -31.3758   26.1437 C   0  0  0  0  0  0
  -27.0329  -30.2998   24.6224 C   0  0  0  0  0  0
  -27.6025  -32.4333   25.7492 C   0  0  0  0  0  0
  -27.5574  -37.1801   24.8454 C   0  0  0  0  0  0
  -21.4205  -29.3037   22.3672 N   0  0  0  0  0  0
  -26.4286  -37.3775   23.9403 N   0  0  0  0  0  0
  -24.6964  -31.0503   22.0930 N   0  0  0  0  0  0
  -23.4193  -28.8147   23.3048 O   0  0  0  0  0  0
  -28.3291  -26.3864   20.1073 O   0  0  0  0  0  0
  -26.5643  -34.8917   22.4665 O   0  0  0  0  0  0
  -23.5455  -32.1370   23.7239 O   0  0  0  0  0  0
  -29.3169  -19.8344   22.2356 C   0  0  0  0  0  0
  -29.5241  -18.6767   23.0102 C   0  0  0  0  0  0
  -29.6040  -18.4785   20.2463 C   0  0  0  0  0  0
  -29.3925  -19.8045   20.8286 C   0  0  0  0  0  0
  -29.7549  -17.4086   22.4317 C   0  0  0  0  0  0
  -29.7850  -17.2501   21.0216 C   0  0  0  0  0  0
  -28.4628  -23.6920   20.0286 C   0  0  0  0  0  0
  -29.6195  -23.8615   22.6594 C   0  0  0  0  0  0
  -29.2420  -25.2081   22.0254 C   0  0  0  0  0  0
  -30.1677  -22.9176   21.5749 C   0  0  0  0  0  0
  -28.2616  -25.0772   20.8429 C   0  0  1  0  0  0
  -29.8729  -16.2181   23.3705 C   0  0  0  0  0  0
  -29.1717  -21.1594   19.9867 C   0  0  0  0  0  0
  -29.1400  -22.5922   20.5741 N   0  0  0  0  0  0
  -29.7173  -15.8675   20.4743 N   0  0  0  0  0  0
  -27.9085  -23.5963   18.9297 O   0  0  0  0  0  0
  -31.4824  -12.6276   19.1589 H   0  0  0  0  0  0
  -30.4143  -11.5008   19.9558 H   0  0  0  0  0  0
  -29.7994  -11.7231   17.5225 H   0  0  0  0  0  0
  -29.6305  -13.4501   17.7029 H   0  0  0  0  0  0
  -27.8953  -11.2723   18.9119 H   0  0  0  0  0  0
  -27.3809  -12.5090   17.7971 H   0  0  0  0  0  0
  -27.6262  -14.2407   19.4493 H   0  0  0  0  0  0
  -28.7276  -12.1616   21.4073 H   0  0  0  0  0  0
  -28.4122  -13.8373   21.7817 H   0  0  0  0  0  0
  -25.2773   -9.5671   22.4749 H   0  0  0  0  0  0
  -24.0004   -7.4623   22.7466 H   0  0  0  0  0  0
  -21.0830   -8.8777   19.8944 H   0  0  0  0  0  0
  -22.3708  -10.9669   19.6160 H   0  0  0  0  0  0
  -21.2028   -7.6154   23.9721 H   0  0  0  0  0  0
  -21.1480   -6.0522   25.9075 H   0  0  0  0  0  0
  -22.0592   -2.7610   23.2841 H   0  0  0  0  0  0
  -22.4084  -11.9863   22.4809 H   0  0  0  0  0  0
  -21.1093  -13.1230   22.2671 H   0  0  0  0  0  0
  -24.6483  -15.8396   20.5382 H   0  0  0  0  0  0
  -26.2609  -15.6418   20.0838 H   0  0  0  0  0  0
  -26.7197  -32.5403   23.1059 H   0  0  0  0  0  0
  -25.0014  -33.9691   25.0347 H   0  0  0  0  0  0
  -22.7242  -31.2932   21.3876 H   0  0  0  0  0  0
  -23.3746  -35.9631   23.3297 H   0  0  0  0  0  0
  -24.3573  -36.8939   22.2056 H   0  0  0  0  0  0
  -23.7252  -37.6495   23.6682 H   0  0  0  0  0  0
  -26.1085  -31.5241   20.6004 H   0  0  0  0  0  0
  -26.8503  -30.8207   22.0074 H   0  0  0  0  0  0
  -28.1337  -28.9430   21.1844 H   0  0  0  0  0  0
  -25.9986  -25.8724   19.0457 H   0  0  0  0  0  0
  -23.9783  -27.2743   19.0273 H   0  0  0  0  0  0
  -23.7658  -30.5640   19.3956 H   0  0  0  0  0  0
  -22.7678  -29.2222   19.8635 H   0  0  0  0  0  0
  -25.1296  -36.1912   25.0817 H   0  0  0  0  0  0
  -20.9970  -28.3268   24.1395 H   0  0  0  0  0  0
  -20.5664  -26.2298   23.3613 H   0  0  0  0  0  0
  -21.6646  -26.7422   22.1206 H   0  0  0  0  0  0
  -19.6910  -25.6288   21.1245 H   0  0  0  0  0  0
  -19.6689  -27.3178   20.6737 H   0  0  0  0  0  0
  -17.4196  -26.6662   21.4028 H   0  0  0  0  0  0
  -18.0328  -26.0064   22.9018 H   0  0  0  0  0  0
  -19.7946  -30.7260   24.2270 H   0  0  0  0  0  0
  -17.5025  -31.6265   24.5152 H   0  0  0  0  0  0
  -15.5356  -30.2981   23.7663 H   0  0  0  0  0  0
  -15.8671  -28.0806   22.7093 H   0  0  0  0  0  0
  -24.5823  -30.7160   25.7751 H   0  0  0  0  0  0
  -24.8924  -32.2946   26.4871 H   0  0  0  0  0  0
  -25.7970  -30.8902   27.0214 H   0  0  0  0  0  0
  -26.2922  -29.6757   24.1214 H   0  0  0  0  0  0
  -27.3957  -29.7259   25.4763 H   0  0  0  0  0  0
  -27.8823  -30.4262   23.9507 H   0  0  0  0  0  0
  -27.2610  -33.3618   26.2077 H   0  0  0  0  0  0
  -28.3824  -32.6927   25.0320 H   0  0  0  0  0  0
  -28.0704  -31.8465   26.5405 H   0  0  0  0  0  0
  -28.2579  -38.0109   24.7505 H   0  0  0  0  0  0
  -28.1084  -36.2641   24.6267 H   0  0  0  0  0  0
  -27.2298  -37.1430   25.8859 H   0  0  0  0  0  0
  -20.9399  -29.8739   21.6854 H   0  0  0  0  0  0
  -26.0164  -38.2850   24.1405 H   0  0  0  0  0  0
  -29.0819  -20.7516   22.7550 H   0  0  0  0  0  0
  -29.4581  -18.7717   24.0850 H   0  0  0  0  0  0
  -29.5852  -18.3980   19.1685 H   0  0  0  0  0  0
  -28.7529  -23.4129   23.1486 H   0  0  0  0  0  0
  -30.3670  -24.0182   23.4380 H   0  0  0  0  0  0
  -30.1525  -25.6953   21.6755 H   0  0  0  0  0  0
  -28.8176  -25.8704   22.7811 H   0  0  0  0  0  0
  -30.6217  -22.0386   22.0238 H   0  0  0  0  0  0
  -30.9949  -23.4075   21.0582 H   0  0  0  0  0  0
  -27.2620  -24.9854   21.2718 H   0  0  0  0  0  0
  -29.9316  -16.5368   24.4117 H   0  0  0  0  0  0
  -30.7703  -15.6375   23.1607 H   0  0  0  0  0  0
  -29.0025  -15.5699   23.2717 H   0  0  0  0  0  0
  -28.2322  -21.0168   19.4504 H   0  0  0  0  0  0
  -29.9359  -21.1688   19.2087 H   0  0  0  0  0  0
  -28.7678  -15.5658   20.3241 H   0  0  0  0  0  0
  1 25  1  0  0  0
  1 30  2  0  0  0
  1 85  1  0  0  0
  2  3  1  0  0  0
  2 25  1  0  0  0
  2 87  1  0  0  0
  2 88  1  0  0  0
  3  4  1  0  0  0
  3 89  1  0  0  0
  3 90  1  0  0  0
  4  5  1  0  0  0
  4 91  1  0  0  0
  4 92  1  0  0  0
  5  6  1  0  0  0
  5 26  1  0  0  0
  5 93  1  0  0  0
  6 25  1  0  0  0
  6 94  1  0  0  0
  6 95  1  0  0  0
  7  8  2  0  0  0
  7 26  1  0  0  0
  7 29  1  0  0  0
  8  9  1  0  0  0
  8 22  1  0  0  0
  9 10  1  0  0  0
  9 27  2  0  0  0
 10 11  2  0  0  0
 10 15  1  0  0  0
 11 12  1  0  0  0
 11 96  1  0  0  0
 12 13  2  0  0  0
 12 97  1  0  0  0
 13 14  1  0  0  0
 13 31  1  0  0  0
 14 15  2  0  0  0
 14 98  1  0  0  0
 15 99  1  0  0  0
 16 17  2  0  0  0
 16 21  1  0  0  0
 16 31  1  0  0  0
 17 18  1  0  0  0
 17100  1  0  0  0
 18 19  2  0  0  0
 18101  1  0  0  0
 19 20  1  0  0  0
 19 24  1  0  0  0
 20 21  2  0  0  0
 20102  1  0  0  0
 21 23  1  0  0  0
 22 28  1  0  0  0
 22 32  2  0  0  0
 26 27  1  0  0  0
 28103  1  0  0  0
 28104  1  0  0  0
 29105  1  0  0  0
 29106  1  0  0  0
 33 34  1  0  0  0
 33 66  1  0  0  0
 33 70  2  0  0  0
 34 36  1  0  0  0
 34 59  1  0  0  0
 34107  1  0  0  0
 35 44  2  0  0  0
 35 45  1  0  0  0
 35 68  1  0  0  0
 36 56  1  0  0  0
 36108  1  0  0  0
 37 39  1  0  0  0
 37 47  1  0  0  0
 37 66  1  0  0  0
 37109  1  0  0  0
 38 43  2  0  0  0
 38 46  1  0  0  0
 38 47  1  0  0  0
 39 64  1  0  0  0
 39 67  2  0  0  0
 40 52  1  0  0  0
 40 53  2  0  0  0
 40 58  1  0  0  0
 41110  1  0  0  0
 41111  1  0  0  0
 41112  1  0  0  0
 41 48  1  0  0  0
 42 43  1  0  0  0
 42 66  1  0  0  0
 42113  1  0  0  0
 42114  1  0  0  0
 43 44  1  0  0  0
 44115  1  0  0  0
 45 46  2  0  0  0
 45116  1  0  0  0
 46117  1  0  0  0
 47118  1  0  0  0
 47119  1  0  0  0
 48 56  1  0  0  0
 48 65  1  0  0  0
 48120  1  0  0  0
 49 50  1  0  0  0
 49 53  1  0  0  0
 49 64  1  0  0  0
 49121  1  0  0  0
 50 51  1  0  0  0
 50122  1  0  0  0
 50123  1  0  0  0
 51 52  1  0  0  0
 51124  1  0  0  0
 51125  1  0  0  0
 52126  1  0  0  0
 52127  1  0  0  0
 53 54  1  0  0  0
 54 55  2  0  0  0
 54128  1  0  0  0
 55 57  1  0  0  0
 55129  1  0  0  0
 56 69  2  0  0  0
 57 58  2  0  0  0
 57130  1  0  0  0
 58131  1  0  0  0
 59 60  1  0  0  0
 59 61  1  0  0  0
 59 62  1  0  0  0
 60132  1  0  0  0
 60133  1  0  0  0
 60134  1  0  0  0
 61135  1  0  0  0
 61136  1  0  0  0
 61137  1  0  0  0
 62138  1  0  0  0
 62139  1  0  0  0
 62140  1  0  0  0
 63 65  1  0  0  0
 63141  1  0  0  0
 63142  1  0  0  0
 63143  1  0  0  0
 64144  1  0  0  0
 65145  1  0  0  0
 68 81  1  0  0  0
 71 72  2  0  0  0
 71 74  1  0  0  0
 71146  1  0  0  0
 72 75  1  0  0  0
 72147  1  0  0  0
 73 74  2  0  0  0
 73 76  1  0  0  0
 73148  1  0  0  0
 74 83  1  0  0  0
 75 76  2  0  0  0
 75 82  1  0  0  0
 76 85  1  0  0  0
 77 81  1  0  0  0
 77 84  1  0  0  0
 77 86  2  0  0  0
 78 79  1  0  0  0
 78 80  1  0  0  0
 78149  1  0  0  0
 78150  1  0  0  0
 79 81  1  0  0  0
 79151  1  0  0  0
 79152  1  0  0  0
 80 84  1  0  0  0
 80153  1  0  0  0
 80154  1  0  0  0
 81155  1  0  0  0
 82156  1  0  0  0
 82157  1  0  0  0
 82158  1  0  0  0
 83 84  1  0  0  0
 83159  1  0  0  0
 83160  1  0  0  0
 85161  1  0  0  0
M  ISO  4   1 100  68 101  81 101  85 100
M  END
> <chiral flag>
0

> <version>
0

> <s_m_source_file>
/data/baiqing/PycharmProjects/Reinvent-master-3.2/result/LINK_invent/BTK/process_docking_weight1_custom_product_contain_oxygen_bond_distance_aromatic_linkinvent_7_9_3/rearranged_h_0045.sdf

> <i_m_source_file_index>
13

> <r_mmod_Potential_Energy-OPLS-2005>
272.948944091797

> <r_mmod_Stretch_Energy-OPLS-2005>
138.050506591797

> <r_mmod_Bend_Energy-OPLS-2005>
174.041854858398

> <r_mmod_Torsional_Energy-OPLS-2005>
298.955017089844

> <r_mmod_Improper_Torsional_Energy-OPLS-2005>
13.1792783737183

> <r_mmod_Van_der_Waal_Energy-OPLS-2005>
139.971069335938

> <r_mmod_Electrostatic_Energy-OPLS-2005>
-353.644012451172

> <r_mmod_Solvation_Energy-OPLS-2005>
-229.624710083008

> <b_mmod_Minimization_Converged-OPLS-2005>
0

> <r_mmod_RMS_Derivative-OPLS-2005>
1.78075683116913

$$$$
13
                    3D
 Structure written by MMmdl.
161170  0  0  1  0            999 V2000
  -30.6170  -14.7298   20.4690 C   0  0  0  0  0  0
  -30.4394  -12.4531   19.4537 C   0  0  0  0  0  0
  -29.5063  -12.4968   18.2252 C   0  0  0  0  0  0
  -28.0345  -12.3216   18.6479 C   0  0  0  0  0  0
  -27.6443  -13.2243   19.8495 C   0  0  2  0  0  0
  -28.6945  -13.1535   20.9793 C   0  0  0  0  0  0
  -25.2525  -13.8197   20.5691 C   0  0  0  0  0  0
  -24.1799  -13.0456   20.9208 C   0  0  0  0  0  0
  -24.6391  -11.6935   20.8751 C   0  0  0  0  0  0
  -23.9067  -10.4315   21.0397 C   0  0  0  0  0  0
  -24.3618   -9.4230   21.9175 C   0  0  0  0  0  0
  -23.6296   -8.2261   22.0742 C   0  0  0  0  0  0
  -22.4284   -8.0282   21.3535 C   0  0  0  0  0  0
  -21.9919   -9.0255   20.4642 C   0  0  0  0  0  0
  -22.7237  -10.2144   20.3053 C   0  0  0  0  0  0
  -21.6864   -6.0737   22.5277 C   0  0  0  0  0  0
  -21.4014   -6.5635   23.8208 C   0  0  0  0  0  0
  -21.3657   -5.6783   24.9164 C   0  0  0  0  0  0
  -21.6045   -4.3048   24.7219 C   0  0  0  0  0  0
  -21.8822   -3.8146   23.4338 C   0  0  0  0  0  0
  -21.9197   -4.6964   22.3397 C   0  0  0  0  0  0
  -22.7821  -13.5225   21.1876 C   0  0  0  0  0  0
  -22.1666   -4.2146   21.0979 F   0  0  0  0  0  0
  -21.5631   -3.4537   25.7738 F   0  0  0  0  0  0
  -29.9906  -13.5094   20.3865 N   0  0  0  0  0  0
  -26.2952  -12.9389   20.3294 N   0  0  0  0  0  0
  -25.9325  -11.6543   20.5771 N   0  0  0  0  0  0
  -22.0464  -12.8209   22.0428 N   0  0  0  0  0  0
  -25.4226  -15.1919   20.4078 N   0  0  0  0  0  0
  -31.8146  -14.8292   20.1898 O   0  0  0  0  0  0
  -21.6643   -6.8881   21.4240 O   0  0  0  0  0  0
  -22.3512  -14.5534   20.6726 O   0  0  0  0  0  0
  -24.6305  -31.8551   23.1997 C   0  0  0  0  0  0
  -25.9124  -32.4756   23.8347 C   0  0  1  0  0  0
  -27.2142  -27.2624   20.1410 C   0  0  0  0  0  0
  -25.5907  -33.8559   24.2259 N   0  0  0  0  0  0
  -23.4275  -30.4788   21.5417 C   0  0  2  0  0  0
  -24.8751  -28.9186   20.1186 C   0  0  0  0  0  0
  -22.7486  -29.4614   22.4906 C   0  0  0  0  0  0
  -18.0289  -28.1385   22.8493 C   0  0  0  0  0  0
  -24.1484  -36.7288   23.2642 C   0  0  0  0  0  0
  -25.9741  -30.7699   21.3781 C   0  0  0  0  0  0
  -26.0484  -29.3900   20.7245 C   0  0  0  0  0  0
  -27.2264  -28.5761   20.7191 C   0  0  0  0  0  0
  -26.0233  -26.8525   19.5115 C   0  0  0  0  0  0
  -24.8667  -27.6573   19.5009 C   0  0  0  0  0  0
  -23.6486  -29.8095   20.1604 C   0  0  0  0  0  0
  -25.4110  -36.3070   24.0327 C   0  0  1  0  0  0
  -20.5894  -28.3705   23.1260 C   0  0  2  0  0  0
  -20.6806  -26.9409   22.5428 C   0  0  0  0  0  0
  -19.5763  -26.6339   21.5248 C   0  0  0  0  0  0
  -18.1940  -26.7927   22.1641 C   0  0  0  0  0  0
  -19.1544  -28.8855   23.2866 C   0  0  0  0  0  0
  -18.9465  -30.1458   23.8872 C   0  0  0  0  0  0
  -17.6463  -30.6581   24.0543 C   0  0  0  0  0  0
  -25.9048  -34.9435   23.5100 C   0  0  0  0  0  0
  -16.5362  -29.9084   23.6318 C   0  0  0  0  0  0
  -16.7279  -28.6486   23.0364 C   0  0  0  0  0  0
  -26.4489  -31.6580   25.0734 C   0  0  0  0  0  0
  -25.3720  -31.3736   26.1465 C   0  0  0  0  0  0
  -27.0344  -30.2998   24.6224 C   0  0  0  0  0  0
  -27.6027  -32.4341   25.7509 C   0  0  0  0  0  0
  -27.5576  -37.1803   24.8465 C   0  0  0  0  0  0
  -21.4195  -29.3067   22.3650 N   0  0  0  0  0  0
  -26.4288  -37.3768   23.9407 N   0  0  0  0  0  0
  -24.6972  -31.0529   22.0958 N   0  0  0  0  0  0
  -23.4181  -28.8159   23.3010 O   0  0  0  0  0  0
  -28.2939  -26.3566   20.1359 O   0  0  0  0  0  0
  -26.5634  -34.8911   22.4676 O   0  0  0  0  0  0
  -23.5450  -32.1371   23.7275 O   0  0  0  0  0  0
  -30.1816  -19.9543   18.3237 C   0  0  0  0  0  0
  -30.2661  -18.7288   19.0054 C   0  0  0  0  0  0
  -29.7119  -21.1226   18.9554 C   0  0  0  0  0  0
  -29.8431  -18.6148   20.3405 C   0  0  0  0  0  0
  -29.2530  -19.8132   20.9482 C   0  0  0  0  0  0
  -29.2219  -21.1418   20.2889 C   0  0  0  0  0  0
  -28.4155  -23.6525   20.1775 C   0  0  0  0  0  0
  -28.8153  -24.0022   23.0286 C   0  0  0  0  0  0
  -29.0470  -25.2005   22.1227 C   0  0  0  0  0  0
  -29.0921  -22.6461   22.3426 C   0  0  0  0  0  0
  -28.1442  -25.0707   20.9024 C   0  0  1  0  0  0
  -28.5974  -19.5944   22.3023 C   0  0  0  0  0  0
  -30.2564  -17.2624   21.0980 C   0  0  0  0  0  0
  -28.8332  -22.4955   20.8835 N   0  0  0  0  0  0
  -29.8404  -15.8534   20.6906 N   0  0  0  0  0  0
  -28.1502  -23.6200   18.9707 O   0  0  0  0  0  0
  -31.4741  -12.5930   19.1372 H   0  0  0  0  0  0
  -30.4037  -11.4754   19.9377 H   0  0  0  0  0  0
  -29.7865  -11.7202   17.5120 H   0  0  0  0  0  0
  -29.6277  -13.4480   17.7043 H   0  0  0  0  0  0
  -27.8918  -11.2730   18.9119 H   0  0  0  0  0  0
  -27.3734  -12.5106   17.8019 H   0  0  0  0  0  0
  -27.6421  -14.2460   19.4699 H   0  0  0  0  0  0
  -28.7364  -12.1560   21.4184 H   0  0  0  0  0  0
  -28.4347  -13.8331   21.7927 H   0  0  0  0  0  0
  -25.2764   -9.5703   22.4748 H   0  0  0  0  0  0
  -24.0004   -7.4651   22.7464 H   0  0  0  0  0  0
  -21.0845   -8.8776   19.8947 H   0  0  0  0  0  0
  -22.3686  -10.9678   19.6158 H   0  0  0  0  0  0
  -21.2006   -7.6145   23.9710 H   0  0  0  0  0  0
  -21.1469   -6.0513   25.9065 H   0  0  0  0  0  0
  -22.0608   -2.7613   23.2843 H   0  0  0  0  0  0
  -22.4087  -11.9863   22.4801 H   0  0  0  0  0  0
  -21.1079  -13.1212   22.2645 H   0  0  0  0  0  0
  -24.6546  -15.8449   20.5163 H   0  0  0  0  0  0
  -26.2656  -15.6337   20.0642 H   0  0  0  0  0  0
  -26.7191  -32.5412   23.1095 H   0  0  0  0  0  0
  -25.0033  -33.9695   25.0391 H   0  0  0  0  0  0
  -22.7236  -31.3009   21.3936 H   0  0  0  0  0  0
  -23.3742  -35.9625   23.3305 H   0  0  0  0  0  0
  -24.3570  -36.8913   22.2055 H   0  0  0  0  0  0
  -23.7241  -37.6490   23.6676 H   0  0  0  0  0  0
  -26.1131  -31.5271   20.6055 H   0  0  0  0  0  0
  -26.8521  -30.8204   22.0117 H   0  0  0  0  0  0
  -28.1299  -28.9336   21.1931 H   0  0  0  0  0  0
  -25.9840  -25.8815   19.0358 H   0  0  0  0  0  0
  -23.9690  -27.2907   19.0222 H   0  0  0  0  0  0
  -23.7783  -30.5837   19.4038 H   0  0  0  0  0  0
  -22.7660  -29.2473   19.8531 H   0  0  0  0  0  0
  -25.1294  -36.1919   25.0822 H   0  0  0  0  0  0
  -20.9979  -28.3323   24.1390 H   0  0  0  0  0  0
  -20.5741  -26.2323   23.3652 H   0  0  0  0  0  0
  -21.6681  -26.7439   22.1229 H   0  0  0  0  0  0
  -19.6893  -25.6234   21.1323 H   0  0  0  0  0  0
  -19.6702  -27.3110   20.6756 H   0  0  0  0  0  0
  -17.4217  -26.6681   21.4037 H   0  0  0  0  0  0
  -18.0319  -26.0079   22.9032 H   0  0  0  0  0  0
  -19.7939  -30.7277   24.2216 H   0  0  0  0  0  0
  -17.5016  -31.6252   24.5169 H   0  0  0  0  0  0
  -15.5360  -30.2996   23.7623 H   0  0  0  0  0  0
  -15.8665  -28.0811   22.7101 H   0  0  0  0  0  0
  -24.5882  -30.7091   25.7812 H   0  0  0  0  0  0
  -24.8932  -32.2914   26.4891 H   0  0  0  0  0  0
  -25.8043  -30.8921   27.0245 H   0  0  0  0  0  0
  -26.2935  -29.6739   24.1239 H   0  0  0  0  0  0
  -27.4016  -29.7259   25.4738 H   0  0  0  0  0  0
  -27.8810  -30.4266   23.9476 H   0  0  0  0  0  0
  -27.2603  -33.3635   26.2073 H   0  0  0  0  0  0
  -28.3842  -32.6919   25.0350 H   0  0  0  0  0  0
  -28.0701  -31.8496   26.5443 H   0  0  0  0  0  0
  -28.2598  -38.0094   24.7503 H   0  0  0  0  0  0
  -28.1067  -36.2626   24.6305 H   0  0  0  0  0  0
  -27.2296  -37.1465   25.8868 H   0  0  0  0  0  0
  -20.9389  -29.8799   21.6851 H   0  0  0  0  0  0
  -26.0164  -38.2842   24.1405 H   0  0  0  0  0  0
  -30.5423  -20.0168   17.3058 H   0  0  0  0  0  0
  -30.7198  -17.8798   18.5112 H   0  0  0  0  0  0
  -29.7806  -22.0244   18.3687 H   0  0  0  0  0  0
  -27.7784  -24.0268   23.3715 H   0  0  0  0  0  0
  -29.4214  -24.0863   23.9317 H   0  0  0  0  0  0
  -30.0938  -25.2653   21.8227 H   0  0  0  0  0  0
  -28.8140  -26.1177   22.6635 H   0  0  0  0  0  0
  -28.4700  -21.9710   22.9118 H   0  0  0  0  0  0
  -30.1260  -22.3514   22.5256 H   0  0  0  0  0  0
  -27.1117  -25.0129   21.2524 H   0  0  0  0  0  0
  -27.6657  -20.1520   22.3741 H   0  0  0  0  0  0
  -29.2700  -19.8577   23.1189 H   0  0  0  0  0  0
  -28.2841  -18.5615   22.4427 H   0  0  0  0  0  0
  -30.0334  -17.3482   22.1594 H   0  0  0  0  0  0
  -31.3473  -17.2716   21.0800 H   0  0  0  0  0  0
  -28.8575  -15.6592   20.7943 H   0  0  0  0  0  0
  1 25  1  0  0  0
  1 30  2  0  0  0
  1 85  1  0  0  0
  2  3  1  0  0  0
  2 25  1  0  0  0
  2 87  1  0  0  0
  2 88  1  0  0  0
  3  4  1  0  0  0
  3 89  1  0  0  0
  3 90  1  0  0  0
  4  5  1  0  0  0
  4 91  1  0  0  0
  4 92  1  0  0  0
  5  6  1  0  0  0
  5 26  1  0  0  0
  5 93  1  0  0  0
  6 25  1  0  0  0
  6 94  1  0  0  0
  6 95  1  0  0  0
  7  8  2  0  0  0
  7 26  1  0  0  0
  7 29  1  0  0  0
  8  9  1  0  0  0
  8 22  1  0  0  0
  9 10  1  0  0  0
  9 27  2  0  0  0
 10 11  2  0  0  0
 10 15  1  0  0  0
 11 12  1  0  0  0
 11 96  1  0  0  0
 12 13  2  0  0  0
 12 97  1  0  0  0
 13 14  1  0  0  0
 13 31  1  0  0  0
 14 15  2  0  0  0
 14 98  1  0  0  0
 15 99  1  0  0  0
 16 17  2  0  0  0
 16 21  1  0  0  0
 16 31  1  0  0  0
 17 18  1  0  0  0
 17100  1  0  0  0
 18 19  2  0  0  0
 18101  1  0  0  0
 19 20  1  0  0  0
 19 24  1  0  0  0
 20 21  2  0  0  0
 20102  1  0  0  0
 21 23  1  0  0  0
 22 28  1  0  0  0
 22 32  2  0  0  0
 26 27  1  0  0  0
 28103  1  0  0  0
 28104  1  0  0  0
 29105  1  0  0  0
 29106  1  0  0  0
 33 34  1  0  0  0
 33 66  1  0  0  0
 33 70  2  0  0  0
 34 36  1  0  0  0
 34 59  1  0  0  0
 34107  1  0  0  0
 35 44  2  0  0  0
 35 45  1  0  0  0
 35 68  1  0  0  0
 36 56  1  0  0  0
 36108  1  0  0  0
 37 39  1  0  0  0
 37 47  1  0  0  0
 37 66  1  0  0  0
 37109  1  0  0  0
 38 43  2  0  0  0
 38 46  1  0  0  0
 38 47  1  0  0  0
 39 64  1  0  0  0
 39 67  2  0  0  0
 40 52  1  0  0  0
 40 53  2  0  0  0
 40 58  1  0  0  0
 41110  1  0  0  0
 41111  1  0  0  0
 41112  1  0  0  0
 41 48  1  0  0  0
 42 43  1  0  0  0
 42 66  1  0  0  0
 42113  1  0  0  0
 42114  1  0  0  0
 43 44  1  0  0  0
 44115  1  0  0  0
 45 46  2  0  0  0
 45116  1  0  0  0
 46117  1  0  0  0
 47118  1  0  0  0
 47119  1  0  0  0
 48 56  1  0  0  0
 48 65  1  0  0  0
 48120  1  0  0  0
 49 50  1  0  0  0
 49 53  1  0  0  0
 49 64  1  0  0  0
 49121  1  0  0  0
 50 51  1  0  0  0
 50122  1  0  0  0
 50123  1  0  0  0
 51 52  1  0  0  0
 51124  1  0  0  0
 51125  1  0  0  0
 52126  1  0  0  0
 52127  1  0  0  0
 53 54  1  0  0  0
 54 55  2  0  0  0
 54128  1  0  0  0
 55 57  1  0  0  0
 55129  1  0  0  0
 56 69  2  0  0  0
 57 58  2  0  0  0
 57130  1  0  0  0
 58131  1  0  0  0
 59 60  1  0  0  0
 59 61  1  0  0  0
 59 62  1  0  0  0
 60132  1  0  0  0
 60133  1  0  0  0
 60134  1  0  0  0
 61135  1  0  0  0
 61136  1  0  0  0
 61137  1  0  0  0
 62138  1  0  0  0
 62139  1  0  0  0
 62140  1  0  0  0
 63 65  1  0  0  0
 63141  1  0  0  0
 63142  1  0  0  0
 63143  1  0  0  0
 64144  1  0  0  0
 65145  1  0  0  0
 68 81  1  0  0  0
 71 72  2  0  0  0
 71 73  1  0  0  0
 71146  1  0  0  0
 72 74  1  0  0  0
 72147  1  0  0  0
 73 76  2  0  0  0
 73148  1  0  0  0
 74 75  2  0  0  0
 74 83  1  0  0  0
 75 76  1  0  0  0
 75 82  1  0  0  0
 76 84  1  0  0  0
 77 81  1  0  0  0
 77 84  1  0  0  0
 77 86  2  0  0  0
 78 79  1  0  0  0
 78 80  1  0  0  0
 78149  1  0  0  0
 78150  1  0  0  0
 79 81  1  0  0  0
 79151  1  0  0  0
 79152  1  0  0  0
 80 84  1  0  0  0
 80153  1  0  0  0
 80154  1  0  0  0
 81155  1  0  0  0
 82156  1  0  0  0
 82157  1  0  0  0
 82158  1  0  0  0
 83 85  1  0  0  0
 83159  1  0  0  0
 83160  1  0  0  0
 85161  1  0  0  0
M  ISO  4   1 100  68 101  81 101  85 100
M  END
> <chiral flag>
0

> <version>
0

> <s_m_source_file>
/data/baiqing/PycharmProjects/Reinvent-master-3.2/result/LINK_invent/BTK/process_docking_weight1_custom_product_contain_oxygen_bond_distance_aromatic_linkinvent_7_9_3/rearranged_h_0045.sdf

> <i_m_source_file_index>
14

> <r_mmod_Potential_Energy-OPLS-2005>
308.462982177734

> <r_mmod_Stretch_Energy-OPLS-2005>
153.394485473633

> <r_mmod_Bend_Energy-OPLS-2005>
189.141387939453

> <r_mmod_Torsional_Energy-OPLS-2005>
289.903533935547

> <r_mmod_Improper_Torsional_Energy-OPLS-2005>
6.39076900482178

> <r_mmod_Van_der_Waal_Energy-OPLS-2005>
157.916687011719

> <r_mmod_Electrostatic_Energy-OPLS-2005>
-347.246246337891

> <r_mmod_Solvation_Energy-OPLS-2005>
-224.137069702148

> <b_mmod_Minimization_Converged-OPLS-2005>
0

> <r_mmod_RMS_Derivative-OPLS-2005>
2.31014776229858

$$$$
14
                    3D
 Structure written by MMmdl.
157165  0  0  1  0            999 V2000
  -30.6847  -14.4946   20.5106 C   0  0  0  0  0  0
  -30.4248  -12.3008   19.4400 C   0  0  0  0  0  0
  -29.5027  -12.4980   18.2173 C   0  0  0  0  0  0
  -28.0216  -12.3622   18.6240 C   0  0  0  0  0  0
  -27.6618  -13.2073   19.8757 C   0  0  2  0  0  0
  -28.7048  -13.0106   21.0027 C   0  0  0  0  0  0
  -25.2585  -13.8152   20.5680 C   0  0  0  0  0  0
  -24.1835  -13.0432   20.9175 C   0  0  0  0  0  0
  -24.6397  -11.6902   20.8729 C   0  0  0  0  0  0
  -23.9063  -10.4292   21.0401 C   0  0  0  0  0  0
  -24.3608   -9.4207   21.9175 C   0  0  0  0  0  0
  -23.6280   -8.2244   22.0751 C   0  0  0  0  0  0
  -22.4260   -8.0282   21.3549 C   0  0  0  0  0  0
  -21.9899   -9.0258   20.4644 C   0  0  0  0  0  0
  -22.7237  -10.2133   20.3047 C   0  0  0  0  0  0
  -21.6851   -6.0730   22.5276 C   0  0  0  0  0  0
  -21.4019   -6.5631   23.8211 C   0  0  0  0  0  0
  -21.3662   -5.6784   24.9170 C   0  0  0  0  0  0
  -21.6039   -4.3045   24.7222 C   0  0  0  0  0  0
  -21.8821   -3.8140   23.4343 C   0  0  0  0  0  0
  -21.9195   -4.6957   22.3396 C   0  0  0  0  0  0
  -22.7857  -13.5236   21.1835 C   0  0  0  0  0  0
  -22.1659   -4.2146   21.0975 F   0  0  0  0  0  0
  -21.5631   -3.4528   25.7734 F   0  0  0  0  0  0
  -30.0375  -13.2992   20.4490 N   0  0  0  0  0  0
  -26.3028  -12.9329   20.3368 N   0  0  0  0  0  0
  -25.9325  -11.6490   20.5757 N   0  0  0  0  0  0
  -22.0495  -12.8233   22.0397 N   0  0  0  0  0  0
  -25.4293  -15.1872   20.4086 N   0  0  0  0  0  0
  -31.8378  -14.6532   20.1029 O   0  0  0  0  0  0
  -21.6629   -6.8870   21.4239 O   0  0  0  0  0  0
  -22.3542  -14.5547   20.6694 O   0  0  0  0  0  0
  -24.6151  -31.8665   23.2080 C   0  0  0  0  0  0
  -25.9045  -32.4812   23.8381 C   0  0  1  0  0  0
  -27.2334  -27.4267   20.1059 C   0  0  0  0  0  0
  -25.5900  -33.8604   24.2314 N   0  0  0  0  0  0
  -23.4039  -30.4898   21.5474 C   0  0  2  0  0  0
  -24.8522  -28.9551   20.1140 C   0  0  0  0  0  0
  -22.7415  -29.4649   22.4967 C   0  0  0  0  0  0
  -18.0275  -28.1367   22.8484 C   0  0  0  0  0  0
  -24.1486  -36.7307   23.2635 C   0  0  0  0  0  0
  -25.9336  -30.8325   21.3623 C   0  0  0  0  0  0
  -26.0129  -29.4668   20.7086 C   0  0  0  0  0  0
  -27.2096  -28.7119   20.6967 C   0  0  0  0  0  0
  -26.0595  -26.9348   19.4964 C   0  0  0  0  0  0
  -24.8712  -27.6894   19.5024 C   0  0  0  0  0  0
  -23.6139  -29.8215   20.1621 C   0  0  0  0  0  0
  -25.4103  -36.3097   24.0332 C   0  0  1  0  0  0
  -20.5868  -28.3654   23.1304 C   0  0  2  0  0  0
  -20.6765  -26.9386   22.5409 C   0  0  0  0  0  0
  -19.5747  -26.6378   21.5197 C   0  0  0  0  0  0
  -18.1925  -26.7912   22.1614 C   0  0  0  0  0  0
  -19.1526  -28.8825   23.2895 C   0  0  0  0  0  0
  -18.9458  -30.1431   23.8910 C   0  0  0  0  0  0
  -17.6461  -30.6571   24.0564 C   0  0  0  0  0  0
  -25.9032  -34.9465   23.5119 C   0  0  0  0  0  0
  -16.5351  -29.9075   23.6322 C   0  0  0  0  0  0
  -16.7266  -28.6494   23.0343 C   0  0  0  0  0  0
  -26.4475  -31.6587   25.0709 C   0  0  0  0  0  0
  -25.3749  -31.3705   26.1461 C   0  0  0  0  0  0
  -27.0293  -30.3026   24.6080 C   0  0  0  0  0  0
  -27.6050  -32.4303   25.7479 C   0  0  0  0  0  0
  -27.5578  -37.1799   24.8456 C   0  0  0  0  0  0
  -21.4142  -29.3026   22.3710 N   0  0  0  0  0  0
  -26.4287  -37.3788   23.9411 N   0  0  0  0  0  0
  -24.6688  -31.0773   22.0976 N   0  0  0  0  0  0
  -23.4188  -28.8188   23.3004 O   0  0  0  0  0  0
  -28.3851  -26.6676   20.1100 O   0  0  0  0  0  0
  -26.5594  -34.8924   22.4681 O   0  0  0  0  0  0
  -23.5346  -32.1413   23.7477 O   0  0  0  0  0  0
  -30.3224  -18.1749   22.1877 C   0  0  0  0  0  0
  -30.4328  -19.4135   22.8510 C   0  0  0  0  0  0
  -29.8428  -19.3662   20.1237 C   0  0  0  0  0  0
  -30.0356  -18.1401   20.8094 C   0  0  0  0  0  0
  -30.2691  -20.6362   22.1589 C   0  0  0  0  0  0
  -29.9527  -20.6241   20.7729 C   0  0  0  0  0  0
  -29.0616  -24.2817   19.9674 C   0  0  0  0  0  0
  -30.4878  -21.9296   22.9282 C   0  0  0  0  0  0
  -29.9857  -16.8275   20.0184 C   0  0  0  0  0  0
  -29.8323  -21.9034   19.9154 C   0  0  0  0  0  0
  -28.2657  -25.3656   20.7296 C   0  0  0  0  0  0
  -29.0838  -23.0356   20.4832 N   0  0  0  0  0  0
  -29.8912  -15.5548   20.7603 N   0  0  0  0  0  0
  -29.6541  -24.5639   18.9213 O   0  0  0  0  0  0
  -31.4726  -12.3862   19.1457 H   0  0  0  0  0  0
  -30.3136  -11.2938   19.8456 H   0  0  0  0  0  0
  -29.7462  -11.7731   17.4407 H   0  0  0  0  0  0
  -29.6760  -13.4822   17.7769 H   0  0  0  0  0  0
  -27.8285  -11.3066   18.8214 H   0  0  0  0  0  0
  -27.3767  -12.6379   17.7891 H   0  0  0  0  0  0
  -27.6983  -14.2510   19.5637 H   0  0  0  0  0  0
  -28.6759  -11.9852   21.3734 H   0  0  0  0  0  0
  -28.4788  -13.6429   21.8632 H   0  0  0  0  0  0
  -25.2759   -9.5676   22.4751 H   0  0  0  0  0  0
  -23.9997   -7.4623   22.7461 H   0  0  0  0  0  0
  -21.0838   -8.8773   19.8938 H   0  0  0  0  0  0
  -22.3704  -10.9665   19.6142 H   0  0  0  0  0  0
  -21.2013   -7.6139   23.9715 H   0  0  0  0  0  0
  -21.1483   -6.0509   25.9074 H   0  0  0  0  0  0
  -22.0601   -2.7605   23.2840 H   0  0  0  0  0  0
  -22.4100  -11.9890   22.4794 H   0  0  0  0  0  0
  -21.1118  -13.1261   22.2602 H   0  0  0  0  0  0
  -24.6613  -15.8400   20.5188 H   0  0  0  0  0  0
  -26.2787  -15.6315   20.0863 H   0  0  0  0  0  0
  -26.7113  -32.5528   23.1144 H   0  0  0  0  0  0
  -25.0068  -33.9769   25.0474 H   0  0  0  0  0  0
  -22.6925  -31.3055   21.4062 H   0  0  0  0  0  0
  -23.3747  -35.9641   23.3295 H   0  0  0  0  0  0
  -24.3585  -36.8927   22.2050 H   0  0  0  0  0  0
  -23.7244  -37.6511   23.6659 H   0  0  0  0  0  0
  -26.0489  -31.6007   20.5961 H   0  0  0  0  0  0
  -26.8200  -30.8839   21.9828 H   0  0  0  0  0  0
  -28.1069  -29.1030   21.1562 H   0  0  0  0  0  0
  -26.0614  -25.9659   19.0163 H   0  0  0  0  0  0
  -23.9806  -27.2921   19.0355 H   0  0  0  0  0  0
  -23.7239  -30.5948   19.4006 H   0  0  0  0  0  0
  -22.7394  -29.2400   19.8655 H   0  0  0  0  0  0
  -25.1284  -36.1953   25.0826 H   0  0  0  0  0  0
  -20.9969  -28.3221   24.1420 H   0  0  0  0  0  0
  -20.5648  -26.2260   23.3596 H   0  0  0  0  0  0
  -21.6640  -26.7413   22.1216 H   0  0  0  0  0  0
  -19.6907  -25.6290   21.1220 H   0  0  0  0  0  0
  -19.6686  -27.3191   20.6728 H   0  0  0  0  0  0
  -17.4192  -26.6653   21.4018 H   0  0  0  0  0  0
  -18.0335  -26.0049   22.9007 H   0  0  0  0  0  0
  -19.7937  -30.7235   24.2295 H   0  0  0  0  0  0
  -17.5018  -31.6252   24.5161 H   0  0  0  0  0  0
  -15.5352  -30.2982   23.7633 H   0  0  0  0  0  0
  -15.8668  -28.0812   22.7055 H   0  0  0  0  0  0
  -24.5894  -30.7079   25.7807 H   0  0  0  0  0  0
  -24.8976  -32.2869   26.4939 H   0  0  0  0  0  0
  -25.8106  -30.8847   27.0201 H   0  0  0  0  0  0
  -26.2821  -29.6788   24.1157 H   0  0  0  0  0  0
  -27.4086  -29.7261   25.4528 H   0  0  0  0  0  0
  -27.8653  -30.4335   23.9204 H   0  0  0  0  0  0
  -27.2662  -33.3592   26.2083 H   0  0  0  0  0  0
  -28.3855  -32.6874   25.0305 H   0  0  0  0  0  0
  -28.0716  -31.8402   26.5381 H   0  0  0  0  0  0
  -28.2583  -38.0111   24.7528 H   0  0  0  0  0  0
  -28.1091  -36.2644   24.6249 H   0  0  0  0  0  0
  -27.2306  -37.1411   25.8862 H   0  0  0  0  0  0
  -20.9297  -29.8754   21.6940 H   0  0  0  0  0  0
  -26.0169  -38.2862   24.1430 H   0  0  0  0  0  0
  -30.4878  -17.2584   22.7374 H   0  0  0  0  0  0
  -30.6780  -19.4169   23.9045 H   0  0  0  0  0  0
  -29.6370  -19.3376   19.0618 H   0  0  0  0  0  0
  -31.0046  -21.7496   23.8714 H   0  0  0  0  0  0
  -29.5356  -22.4044   23.1620 H   0  0  0  0  0  0
  -31.0973  -22.6288   22.3553 H   0  0  0  0  0  0
  -30.8454  -16.8251   19.3456 H   0  0  0  0  0  0
  -29.1125  -16.8701   19.3652 H   0  0  0  0  0  0
  -29.3787  -21.6516   18.9550 H   0  0  0  0  0  0
  -30.8485  -22.2304   19.6878 H   0  0  0  0  0  0
  -28.6641  -25.4379   21.7425 H   0  0  0  0  0  0
  -27.2336  -25.0280   20.8316 H   0  0  0  0  0  0
  -28.5603  -22.8619   21.3299 H   0  0  0  0  0  0
  -28.9807  -15.3311   21.1298 H   0  0  0  0  0  0
  1 25  1  0  0  0
  1 30  2  0  0  0
  1 83  1  0  0  0
  2  3  1  0  0  0
  2 25  1  0  0  0
  2 85  1  0  0  0
  2 86  1  0  0  0
  3  4  1  0  0  0
  3 87  1  0  0  0
  3 88  1  0  0  0
  4  5  1  0  0  0
  4 89  1  0  0  0
  4 90  1  0  0  0
  5  6  1  0  0  0
  5 26  1  0  0  0
  5 91  1  0  0  0
  6 25  1  0  0  0
  6 92  1  0  0  0
  6 93  1  0  0  0
  7  8  2  0  0  0
  7 26  1  0  0  0
  7 29  1  0  0  0
  8  9  1  0  0  0
  8 22  1  0  0  0
  9 10  1  0  0  0
  9 27  2  0  0  0
 10 11  2  0  0  0
 10 15  1  0  0  0
 11 12  1  0  0  0
 11 94  1  0  0  0
 12 13  2  0  0  0
 12 95  1  0  0  0
 13 14  1  0  0  0
 13 31  1  0  0  0
 14 15  2  0  0  0
 14 96  1  0  0  0
 15 97  1  0  0  0
 16 17  2  0  0  0
 16 21  1  0  0  0
 16 31  1  0  0  0
 17 18  1  0  0  0
 17 98  1  0  0  0
 18 19  2  0  0  0
 18 99  1  0  0  0
 19 20  1  0  0  0
 19 24  1  0  0  0
 20 21  2  0  0  0
 20100  1  0  0  0
 21 23  1  0  0  0
 22 28  1  0  0  0
 22 32  2  0  0  0
 26 27  1  0  0  0
 28101  1  0  0  0
 28102  1  0  0  0
 29103  1  0  0  0
 29104  1  0  0  0
 33 34  1  0  0  0
 33 66  1  0  0  0
 33 70  2  0  0  0
 34 36  1  0  0  0
 34 59  1  0  0  0
 34105  1  0  0  0
 35 44  2  0  0  0
 35 45  1  0  0  0
 35 68  1  0  0  0
 36 56  1  0  0  0
 36106  1  0  0  0
 37 39  1  0  0  0
 37 47  1  0  0  0
 37 66  1  0  0  0
 37107  1  0  0  0
 38 43  2  0  0  0
 38 46  1  0  0  0
 38 47  1  0  0  0
 39 64  1  0  0  0
 39 67  2  0  0  0
 40 52  1  0  0  0
 40 53  2  0  0  0
 40 58  1  0  0  0
 41108  1  0  0  0
 41109  1  0  0  0
 41110  1  0  0  0
 41 48  1  0  0  0
 42 43  1  0  0  0
 42 66  1  0  0  0
 42111  1  0  0  0
 42112  1  0  0  0
 43 44  1  0  0  0
 44113  1  0  0  0
 45 46  2  0  0  0
 45114  1  0  0  0
 46115  1  0  0  0
 47116  1  0  0  0
 47117  1  0  0  0
 48 56  1  0  0  0
 48 65  1  0  0  0
 48118  1  0  0  0
 49 50  1  0  0  0
 49 53  1  0  0  0
 49 64  1  0  0  0
 49119  1  0  0  0
 50 51  1  0  0  0
 50120  1  0  0  0
 50121  1  0  0  0
 51 52  1  0  0  0
 51122  1  0  0  0
 51123  1  0  0  0
 52124  1  0  0  0
 52125  1  0  0  0
 53 54  1  0  0  0
 54 55  2  0  0  0
 54126  1  0  0  0
 55 57  1  0  0  0
 55127  1  0  0  0
 56 69  2  0  0  0
 57 58  2  0  0  0
 57128  1  0  0  0
 58129  1  0  0  0
 59 60  1  0  0  0
 59 61  1  0  0  0
 59 62  1  0  0  0
 60130  1  0  0  0
 60131  1  0  0  0
 60132  1  0  0  0
 61133  1  0  0  0
 61134  1  0  0  0
 61135  1  0  0  0
 62136  1  0  0  0
 62137  1  0  0  0
 62138  1  0  0  0
 63 65  1  0  0  0
 63139  1  0  0  0
 63140  1  0  0  0
 63141  1  0  0  0
 64142  1  0  0  0
 65143  1  0  0  0
 68 81  1  0  0  0
 71 72  2  0  0  0
 71 74  1  0  0  0
 71144  1  0  0  0
 72 75  1  0  0  0
 72145  1  0  0  0
 73 74  2  0  0  0
 73 76  1  0  0  0
 73146  1  0  0  0
 74 79  1  0  0  0
 75 76  2  0  0  0
 75 78  1  0  0  0
 76 80  1  0  0  0
 77 81  1  0  0  0
 77 82  1  0  0  0
 77 84  2  0  0  0
 78147  1  0  0  0
 78148  1  0  0  0
 78149  1  0  0  0
 79 83  1  0  0  0
 79150  1  0  0  0
 79151  1  0  0  0
 80 82  1  0  0  0
 80152  1  0  0  0
 80153  1  0  0  0
 81154  1  0  0  0
 81155  1  0  0  0
 82156  1  0  0  0
 83157  1  0  0  0
M  ISO  4   1 100  68 101  81 101  83 100
M  END
> <chiral flag>
0

> <version>
0

> <s_m_source_file>
/data/baiqing/PycharmProjects/Reinvent-master-3.2/result/LINK_invent/BTK/process_docking_weight1_custom_product_contain_oxygen_bond_distance_aromatic_linkinvent_7_9_3/rearranged_h_0045.sdf

> <i_m_source_file_index>
15

> <r_mmod_Potential_Energy-OPLS-2005>
-146.974548339844

> <r_mmod_Stretch_Energy-OPLS-2005>
40.5545043945312

> <r_mmod_Bend_Energy-OPLS-2005>
95.8265075683594

> <r_mmod_Torsional_Energy-OPLS-2005>
230.155899047852

> <r_mmod_Improper_Torsional_Energy-OPLS-2005>
9.74567699432373

> <r_mmod_Van_der_Waal_Energy-OPLS-2005>
153.133743286133

> <r_mmod_Electrostatic_Energy-OPLS-2005>
-448.161193847656

> <r_mmod_Solvation_Energy-OPLS-2005>
-244.354339599609

> <b_mmod_Minimization_Converged-OPLS-2005>
0

> <r_mmod_RMS_Derivative-OPLS-2005>
1.45697891712189

$$$$
15
                    3D
 Structure written by MMmdl.
161170  0  0  1  0            999 V2000
  -30.5980  -14.6509   20.5141 C   0  0  0  0  0  0
  -30.4466  -12.4042   19.4478 C   0  0  0  0  0  0
  -29.5125  -12.5249   18.2211 C   0  0  0  0  0  0
  -28.0329  -12.3608   18.6268 C   0  0  0  0  0  0
  -27.6567  -13.2164   19.8655 C   0  0  2  0  0  0
  -28.7000  -13.0424   20.9917 C   0  0  0  0  0  0
  -25.2563  -13.8167   20.5678 C   0  0  0  0  0  0
  -24.1818  -13.0428   20.9150 C   0  0  0  0  0  0
  -24.6386  -11.6902   20.8691 C   0  0  0  0  0  0
  -23.9050  -10.4287   21.0371 C   0  0  0  0  0  0
  -24.3604   -9.4206   21.9150 C   0  0  0  0  0  0
  -23.6286   -8.2238   22.0730 C   0  0  0  0  0  0
  -22.4266   -8.0268   21.3534 C   0  0  0  0  0  0
  -21.9892   -9.0233   20.4634 C   0  0  0  0  0  0
  -22.7215  -10.2115   20.3035 C   0  0  0  0  0  0
  -21.6853   -6.0720   22.5275 C   0  0  0  0  0  0
  -21.4021   -6.5626   23.8205 C   0  0  0  0  0  0
  -21.3660   -5.6780   24.9168 C   0  0  0  0  0  0
  -21.6045   -4.3042   24.7225 C   0  0  0  0  0  0
  -21.8822   -3.8132   23.4346 C   0  0  0  0  0  0
  -21.9192   -4.6950   22.3402 C   0  0  0  0  0  0
  -22.7839  -13.5217   21.1825 C   0  0  0  0  0  0
  -22.1661   -4.2133   21.0980 F   0  0  0  0  0  0
  -21.5628   -3.4528   25.7738 F   0  0  0  0  0  0
  -30.0165  -13.4090   20.4423 N   0  0  0  0  0  0
  -26.3000  -12.9348   20.3305 N   0  0  0  0  0  0
  -25.9319  -11.6499   20.5700 N   0  0  0  0  0  0
  -22.0493  -12.8224   22.0402 N   0  0  0  0  0  0
  -25.4285  -15.1888   20.4147 N   0  0  0  0  0  0
  -31.7311  -14.8553   20.0658 O   0  0  0  0  0  0
  -21.6637   -6.8862   21.4235 O   0  0  0  0  0  0
  -22.3510  -14.5511   20.6657 O   0  0  0  0  0  0
  -24.6264  -31.8570   23.1987 C   0  0  0  0  0  0
  -25.9114  -32.4753   23.8314 C   0  0  1  0  0  0
  -27.2366  -27.3075   20.1108 C   0  0  0  0  0  0
  -25.5928  -33.8557   24.2241 N   0  0  0  0  0  0
  -23.4206  -30.4774   21.5398 C   0  0  2  0  0  0
  -24.8694  -28.9258   20.1066 C   0  0  0  0  0  0
  -22.7476  -29.4603   22.4914 C   0  0  0  0  0  0
  -18.0288  -28.1385   22.8482 C   0  0  0  0  0  0
  -24.1487  -36.7274   23.2645 C   0  0  0  0  0  0
  -25.9610  -30.7808   21.3735 C   0  0  0  0  0  0
  -26.0341  -29.4067   20.7150 C   0  0  0  0  0  0
  -27.2137  -28.6059   20.7121 C   0  0  0  0  0  0
  -26.0446  -26.8719   19.4900 C   0  0  0  0  0  0
  -24.8764  -27.6630   19.4879 C   0  0  0  0  0  0
  -23.6365  -29.8071   20.1556 C   0  0  0  0  0  0
  -25.4116  -36.3063   24.0324 C   0  0  1  0  0  0
  -20.5886  -28.3683   23.1279 C   0  0  2  0  0  0
  -20.6768  -26.9402   22.5418 C   0  0  0  0  0  0
  -19.5752  -26.6378   21.5211 C   0  0  0  0  0  0
  -18.1930  -26.7930   22.1615 C   0  0  0  0  0  0
  -19.1541  -28.8853   23.2877 C   0  0  0  0  0  0
  -18.9468  -30.1456   23.8888 C   0  0  0  0  0  0
  -17.6471  -30.6592   24.0556 C   0  0  0  0  0  0
  -25.9056  -34.9437   23.5086 C   0  0  0  0  0  0
  -16.5360  -29.9089   23.6329 C   0  0  0  0  0  0
  -16.7277  -28.6508   23.0348 C   0  0  0  0  0  0
  -26.4503  -31.6580   25.0698 C   0  0  0  0  0  0
  -25.3751  -31.3723   26.1438 C   0  0  0  0  0  0
  -27.0357  -30.3004   24.6169 C   0  0  0  0  0  0
  -27.6042  -32.4341   25.7479 C   0  0  0  0  0  0
  -27.5571  -37.1796   24.8462 C   0  0  0  0  0  0
  -21.4188  -29.3027   22.3664 N   0  0  0  0  0  0
  -26.4281  -37.3767   23.9409 N   0  0  0  0  0  0
  -24.6876  -31.0566   22.0934 N   0  0  0  0  0  0
  -23.4196  -28.8160   23.3013 O   0  0  0  0  0  0
  -28.3841  -26.4973   20.1926 O   0  0  0  0  0  0
  -26.5630  -34.8916   22.4652 O   0  0  0  0  0  0
  -23.5429  -32.1375   23.7313 O   0  0  0  0  0  0
  -29.3607  -19.3276   21.8994 C   0  0  0  0  0  0
  -29.6953  -17.9462   21.9949 C   0  0  0  0  0  0
  -29.5471  -17.7490   19.6080 C   0  0  0  0  0  0
  -29.0421  -19.9627   20.6688 C   0  0  0  0  0  0
  -29.1814  -19.1360   19.5078 C   0  0  0  0  0  0
  -29.7699  -17.1035   20.8569 C   0  0  0  0  0  0
  -28.1332  -23.8776   20.2741 C   0  0  0  0  0  0
  -30.8858  -24.0340   19.6517 C   0  0  0  0  0  0
  -30.0341  -25.1365   18.9990 C   0  0  0  0  0  0
  -30.1839  -22.6688   19.5505 C   0  0  0  0  0  0
  -28.5624  -25.1980   19.4879 C   0  0  2  0  0  0
  -28.8664  -19.6889   18.1286 C   0  0  0  0  0  0
  -28.3224  -21.3808   20.7113 C   0  0  0  0  0  0
  -28.8528  -22.6915   20.1652 N   0  0  0  0  0  0
  -29.8176  -15.6486   21.0385 N   0  0  0  0  0  0
  -27.0946  -23.9237   20.9407 O   0  0  0  0  0  0
  -31.4863  -12.5431   19.1456 H   0  0  0  0  0  0
  -30.3948  -11.4017   19.8763 H   0  0  0  0  0  0
  -29.7798  -11.7822   17.4682 H   0  0  0  0  0  0
  -29.6523  -13.4977   17.7472 H   0  0  0  0  0  0
  -27.8619  -11.3055   18.8412 H   0  0  0  0  0  0
  -27.3819  -12.6072   17.7862 H   0  0  0  0  0  0
  -27.6827  -14.2577   19.5418 H   0  0  0  0  0  0
  -28.7139  -12.0068   21.3348 H   0  0  0  0  0  0
  -28.4375  -13.6344   21.8685 H   0  0  0  0  0  0
  -25.2763   -9.5686   22.4696 H   0  0  0  0  0  0
  -24.0004   -7.4638   22.7455 H   0  0  0  0  0  0
  -21.0815   -8.8745   19.8955 H   0  0  0  0  0  0
  -22.3665  -10.9634   19.6129 H   0  0  0  0  0  0
  -21.2025   -7.6137   23.9709 H   0  0  0  0  0  0
  -21.1477   -6.0506   25.9066 H   0  0  0  0  0  0
  -22.0607   -2.7597   23.2846 H   0  0  0  0  0  0
  -22.4137  -11.9925   22.4845 H   0  0  0  0  0  0
  -21.1090  -13.1210   22.2574 H   0  0  0  0  0  0
  -24.6665  -15.8474   20.5367 H   0  0  0  0  0  0
  -26.2903  -15.6314   20.1211 H   0  0  0  0  0  0
  -26.7177  -32.5412   23.1051 H   0  0  0  0  0  0
  -25.0065  -33.9689   25.0380 H   0  0  0  0  0  0
  -22.7150  -31.2976   21.3935 H   0  0  0  0  0  0
  -23.3747  -35.9608   23.3315 H   0  0  0  0  0  0
  -24.3571  -36.8891   22.2056 H   0  0  0  0  0  0
  -23.7249  -37.6478   23.6669 H   0  0  0  0  0  0
  -26.0997  -31.5457   20.6084 H   0  0  0  0  0  0
  -26.8391  -30.8248   22.0061 H   0  0  0  0  0  0
  -28.1061  -28.9687   21.2018 H   0  0  0  0  0  0
  -25.9796  -25.8975   19.0305 H   0  0  0  0  0  0
  -23.9797  -27.2828   19.0180 H   0  0  0  0  0  0
  -23.7557  -30.5813   19.3968 H   0  0  0  0  0  0
  -22.7566  -29.2362   19.8539 H   0  0  0  0  0  0
  -25.1305  -36.1894   25.0817 H   0  0  0  0  0  0
  -20.9972  -28.3269   24.1402 H   0  0  0  0  0  0
  -20.5646  -26.2303   23.3626 H   0  0  0  0  0  0
  -21.6645  -26.7420   22.1232 H   0  0  0  0  0  0
  -19.6908  -25.6287   21.1250 H   0  0  0  0  0  0
  -19.6692  -27.3183   20.6736 H   0  0  0  0  0  0
  -17.4199  -26.6674   21.4016 H   0  0  0  0  0  0
  -18.0322  -26.0078   22.9018 H   0  0  0  0  0  0
  -19.7953  -30.7266   24.2250 H   0  0  0  0  0  0
  -17.5036  -31.6269   24.5163 H   0  0  0  0  0  0
  -15.5362  -30.2988   23.7665 H   0  0  0  0  0  0
  -15.8675  -28.0828   22.7057 H   0  0  0  0  0  0
  -24.5912  -30.7084   25.7779 H   0  0  0  0  0  0
  -24.8968  -32.2897   26.4883 H   0  0  0  0  0  0
  -25.8101  -30.8892   27.0198 H   0  0  0  0  0  0
  -26.2933  -29.6747   24.1206 H   0  0  0  0  0  0
  -27.4062  -29.7270   25.4674 H   0  0  0  0  0  0
  -27.8799  -30.4280   23.9390 H   0  0  0  0  0  0
  -27.2617  -33.3631   26.2048 H   0  0  0  0  0  0
  -28.3861  -32.6926   25.0327 H   0  0  0  0  0  0
  -28.0707  -31.8488   26.5411 H   0  0  0  0  0  0
  -28.2593  -38.0089   24.7502 H   0  0  0  0  0  0
  -28.1063  -36.2620   24.6293 H   0  0  0  0  0  0
  -27.2293  -37.1457   25.8867 H   0  0  0  0  0  0
  -20.9369  -29.8741   21.6865 H   0  0  0  0  0  0
  -26.0152  -38.2835   24.1416 H   0  0  0  0  0  0
  -29.2609  -19.8891   22.8186 H   0  0  0  0  0  0
  -29.8360  -17.5200   22.9790 H   0  0  0  0  0  0
  -29.5657  -17.1519   18.7065 H   0  0  0  0  0  0
  -31.0706  -24.2785   20.6996 H   0  0  0  0  0  0
  -31.8654  -23.9850   19.1738 H   0  0  0  0  0  0
  -30.0365  -24.9769   17.9195 H   0  0  0  0  0  0
  -30.5214  -26.1000   19.1496 H   0  0  0  0  0  0
  -30.8072  -21.9144   20.0310 H   0  0  0  0  0  0
  -30.0871  -22.3760   18.5044 H   0  0  0  0  0  0
  -27.9603  -25.2202   18.5804 H   0  0  0  0  0  0
  -28.5713  -18.8932   17.4435 H   0  0  0  0  0  0
  -29.7469  -20.1745   17.7082 H   0  0  0  0  0  0
  -28.0522  -20.4118   18.1551 H   0  0  0  0  0  0
  -28.0869  -21.5739   21.7588 H   0  0  0  0  0  0
  -27.3459  -21.2270   20.2507 H   0  0  0  0  0  0
  -29.0291  -15.2803   21.5494 H   0  0  0  0  0  0
  1 25  1  0  0  0
  1 30  2  0  0  0
  1 85  1  0  0  0
  2  3  1  0  0  0
  2 25  1  0  0  0
  2 87  1  0  0  0
  2 88  1  0  0  0
  3  4  1  0  0  0
  3 89  1  0  0  0
  3 90  1  0  0  0
  4  5  1  0  0  0
  4 91  1  0  0  0
  4 92  1  0  0  0
  5  6  1  0  0  0
  5 26  1  0  0  0
  5 93  1  0  0  0
  6 25  1  0  0  0
  6 94  1  0  0  0
  6 95  1  0  0  0
  7  8  2  0  0  0
  7 26  1  0  0  0
  7 29  1  0  0  0
  8  9  1  0  0  0
  8 22  1  0  0  0
  9 10  1  0  0  0
  9 27  2  0  0  0
 10 11  2  0  0  0
 10 15  1  0  0  0
 11 12  1  0  0  0
 11 96  1  0  0  0
 12 13  2  0  0  0
 12 97  1  0  0  0
 13 14  1  0  0  0
 13 31  1  0  0  0
 14 15  2  0  0  0
 14 98  1  0  0  0
 15 99  1  0  0  0
 16 17  2  0  0  0
 16 21  1  0  0  0
 16 31  1  0  0  0
 17 18  1  0  0  0
 17100  1  0  0  0
 18 19  2  0  0  0
 18101  1  0  0  0
 19 20  1  0  0  0
 19 24  1  0  0  0
 20 21  2  0  0  0
 20102  1  0  0  0
 21 23  1  0  0  0
 22 28  1  0  0  0
 22 32  2  0  0  0
 26 27  1  0  0  0
 28103  1  0  0  0
 28104  1  0  0  0
 29105  1  0  0  0
 29106  1  0  0  0
 33 34  1  0  0  0
 33 66  1  0  0  0
 33 70  2  0  0  0
 34 36  1  0  0  0
 34 59  1  0  0  0
 34107  1  0  0  0
 35 44  2  0  0  0
 35 45  1  0  0  0
 35 68  1  0  0  0
 36 56  1  0  0  0
 36108  1  0  0  0
 37 39  1  0  0  0
 37 47  1  0  0  0
 37 66  1  0  0  0
 37109  1  0  0  0
 38 43  2  0  0  0
 38 46  1  0  0  0
 38 47  1  0  0  0
 39 64  1  0  0  0
 39 67  2  0  0  0
 40 52  1  0  0  0
 40 53  2  0  0  0
 40 58  1  0  0  0
 41110  1  0  0  0
 41111  1  0  0  0
 41112  1  0  0  0
 41 48  1  0  0  0
 42 43  1  0  0  0
 42 66  1  0  0  0
 42113  1  0  0  0
 42114  1  0  0  0
 43 44  1  0  0  0
 44115  1  0  0  0
 45 46  2  0  0  0
 45116  1  0  0  0
 46117  1  0  0  0
 47118  1  0  0  0
 47119  1  0  0  0
 48 56  1  0  0  0
 48 65  1  0  0  0
 48120  1  0  0  0
 49 50  1  0  0  0
 49 53  1  0  0  0
 49 64  1  0  0  0
 49121  1  0  0  0
 50 51  1  0  0  0
 50122  1  0  0  0
 50123  1  0  0  0
 51 52  1  0  0  0
 51124  1  0  0  0
 51125  1  0  0  0
 52126  1  0  0  0
 52127  1  0  0  0
 53 54  1  0  0  0
 54 55  2  0  0  0
 54128  1  0  0  0
 55 57  1  0  0  0
 55129  1  0  0  0
 56 69  2  0  0  0
 57 58  2  0  0  0
 57130  1  0  0  0
 58131  1  0  0  0
 59 60  1  0  0  0
 59 61  1  0  0  0
 59 62  1  0  0  0
 60132  1  0  0  0
 60133  1  0  0  0
 60134  1  0  0  0
 61135  1  0  0  0
 61136  1  0  0  0
 61137  1  0  0  0
 62138  1  0  0  0
 62139  1  0  0  0
 62140  1  0  0  0
 63 65  1  0  0  0
 63141  1  0  0  0
 63142  1  0  0  0
 63143  1  0  0  0
 64144  1  0  0  0
 65145  1  0  0  0
 68 81  1  0  0  0
 71 72  2  0  0  0
 71 74  1  0  0  0
 71146  1  0  0  0
 72 76  1  0  0  0
 72147  1  0  0  0
 73 75  1  0  0  0
 73 76  2  0  0  0
 73148  1  0  0  0
 74 75  2  0  0  0
 74 83  1  0  0  0
 75 82  1  0  0  0
 76 85  1  0  0  0
 77 81  1  0  0  0
 77 84  1  0  0  0
 77 86  2  0  0  0
 78 79  1  0  0  0
 78 80  1  0  0  0
 78149  1  0  0  0
 78150  1  0  0  0
 79 81  1  0  0  0
 79151  1  0  0  0
 79152  1  0  0  0
 80 84  1  0  0  0
 80153  1  0  0  0
 80154  1  0  0  0
 81155  1  0  0  0
 82156  1  0  0  0
 82157  1  0  0  0
 82158  1  0  0  0
 83 84  1  0  0  0
 83159  1  0  0  0
 83160  1  0  0  0
 85161  1  0  0  0
M  ISO  4   1 100  68 101  81 101  85 100
M  END
> <chiral flag>
0

> <version>
0

> <s_m_source_file>
/data/baiqing/PycharmProjects/Reinvent-master-3.2/result/LINK_invent/BTK/process_docking_weight1_custom_product_contain_oxygen_bond_distance_aromatic_linkinvent_7_9_3/rearranged_h_0045.sdf

> <i_m_source_file_index>
16

> <r_mmod_Potential_Energy-OPLS-2005>
173.306228637695

> <r_mmod_Stretch_Energy-OPLS-2005>
94.7043380737305

> <r_mmod_Bend_Energy-OPLS-2005>
168.754257202148

> <r_mmod_Torsional_Energy-OPLS-2005>
274.311218261719

> <r_mmod_Improper_Torsional_Energy-OPLS-2005>
6.43611001968384

> <r_mmod_Van_der_Waal_Energy-OPLS-2005>
146.141632080078

> <r_mmod_Electrostatic_Energy-OPLS-2005>
-336.319671630859

> <r_mmod_Solvation_Energy-OPLS-2005>
-232.14079284668

> <b_mmod_Minimization_Converged-OPLS-2005>
0

> <r_mmod_RMS_Derivative-OPLS-2005>
1.53249526023865

$$$$
16
                    3D
 Structure written by MMmdl.
161170  0  0  1  0            999 V2000
  -30.6152  -14.6316   20.5252 C   0  0  0  0  0  0
  -30.4437  -12.3935   19.4526 C   0  0  0  0  0  0
  -29.5097  -12.4954   18.2265 C   0  0  0  0  0  0
  -28.0340  -12.3314   18.6427 C   0  0  0  0  0  0
  -27.6544  -13.2080   19.8653 C   0  0  2  0  0  0
  -28.6964  -13.0530   20.9957 C   0  0  0  0  0  0
  -25.2569  -13.8150   20.5680 C   0  0  0  0  0  0
  -24.1822  -13.0431   20.9193 C   0  0  0  0  0  0
  -24.6382  -11.6900   20.8759 C   0  0  0  0  0  0
  -23.9049  -10.4287   21.0425 C   0  0  0  0  0  0
  -24.3603   -9.4205   21.9201 C   0  0  0  0  0  0
  -23.6277   -8.2242   22.0764 C   0  0  0  0  0  0
  -22.4264   -8.0281   21.3545 C   0  0  0  0  0  0
  -21.9892   -9.0263   20.4660 C   0  0  0  0  0  0
  -22.7220  -10.2143   20.3077 C   0  0  0  0  0  0
  -21.6857   -6.0734   22.5280 C   0  0  0  0  0  0
  -21.4010   -6.5636   23.8212 C   0  0  0  0  0  0
  -21.3654   -5.6789   24.9173 C   0  0  0  0  0  0
  -21.6045   -4.3053   24.7227 C   0  0  0  0  0  0
  -21.8814   -3.8143   23.4349 C   0  0  0  0  0  0
  -21.9185   -4.6959   22.3402 C   0  0  0  0  0  0
  -22.7851  -13.5247   21.1842 C   0  0  0  0  0  0
  -22.1657   -4.2147   21.0984 F   0  0  0  0  0  0
  -21.5627   -3.4536   25.7737 F   0  0  0  0  0  0
  -30.0112  -13.4061   20.4359 N   0  0  0  0  0  0
  -26.2983  -12.9311   20.3310 N   0  0  0  0  0  0
  -25.9308  -11.6483   20.5770 N   0  0  0  0  0  0
  -22.0480  -12.8275   22.0417 N   0  0  0  0  0  0
  -25.4296  -15.1866   20.4080 N   0  0  0  0  0  0
  -31.7659  -14.8015   20.1140 O   0  0  0  0  0  0
  -21.6633   -6.8880   21.4244 O   0  0  0  0  0  0
  -22.3547  -14.5551   20.6674 O   0  0  0  0  0  0
  -24.6257  -31.8601   23.2044 C   0  0  0  0  0  0
  -25.9105  -32.4783   23.8364 C   0  0  1  0  0  0
  -27.2209  -27.3135   20.1227 C   0  0  0  0  0  0
  -25.5915  -33.8583   24.2285 N   0  0  0  0  0  0
  -23.4196  -30.4859   21.5457 C   0  0  2  0  0  0
  -24.8659  -28.9457   20.1098 C   0  0  0  0  0  0
  -22.7471  -29.4627   22.4923 C   0  0  0  0  0  0
  -18.0281  -28.1403   22.8485 C   0  0  0  0  0  0
  -24.1485  -36.7289   23.2639 C   0  0  0  0  0  0
  -25.9614  -30.7898   21.3773 C   0  0  0  0  0  0
  -26.0338  -29.4173   20.7204 C   0  0  0  0  0  0
  -27.2119  -28.6113   20.7224 C   0  0  0  0  0  0
  -26.0329  -26.9116   19.4631 C   0  0  0  0  0  0
  -24.8674  -27.6972   19.4724 C   0  0  0  0  0  0
  -23.6349  -29.8253   20.1590 C   0  0  0  0  0  0
  -25.4110  -36.3086   24.0328 C   0  0  1  0  0  0
  -20.5886  -28.3698   23.1281 C   0  0  2  0  0  0
  -20.6762  -26.9418   22.5418 C   0  0  0  0  0  0
  -19.5742  -26.6391   21.5217 C   0  0  0  0  0  0
  -18.1922  -26.7945   22.1626 C   0  0  0  0  0  0
  -19.1538  -28.8867   23.2876 C   0  0  0  0  0  0
  -18.9463  -30.1466   23.8901 C   0  0  0  0  0  0
  -17.6463  -30.6601   24.0571 C   0  0  0  0  0  0
  -25.9042  -34.9456   23.5108 C   0  0  0  0  0  0
  -16.5352  -29.9102   23.6339 C   0  0  0  0  0  0
  -16.7269  -28.6521   23.0356 C   0  0  0  0  0  0
  -26.4489  -31.6600   25.0738 C   0  0  0  0  0  0
  -25.3718  -31.3759   26.1462 C   0  0  0  0  0  0
  -27.0313  -30.3011   24.6204 C   0  0  0  0  0  0
  -27.6043  -32.4336   25.7516 C   0  0  0  0  0  0
  -27.5568  -37.1808   24.8469 C   0  0  0  0  0  0
  -21.4186  -29.3049   22.3666 N   0  0  0  0  0  0
  -26.4289  -37.3775   23.9399 N   0  0  0  0  0  0
  -24.6877  -31.0624   22.0980 N   0  0  0  0  0  0
  -23.4191  -28.8146   23.2982 O   0  0  0  0  0  0
  -28.3331  -26.4550   20.2170 O   0  0  0  0  0  0
  -26.5615  -34.8921   22.4676 O   0  0  0  0  0  0
  -23.5421  -32.1397   23.7367 O   0  0  0  0  0  0
  -28.6869  -19.2913   20.5569 C   0  0  0  0  0  0
  -28.7544  -17.8657   20.4915 C   0  0  0  0  0  0
  -30.9207  -19.3204   21.4311 C   0  0  0  0  0  0
  -29.7758  -20.0660   21.0315 C   0  0  0  0  0  0
  -30.9927  -17.8932   21.3825 C   0  0  0  0  0  0
  -29.8989  -17.1205   20.8937 C   0  0  0  0  0  0
  -28.9305  -23.9753   20.8208 C   0  0  0  0  0  0
  -28.2931  -23.2916   18.0687 C   0  0  0  0  0  0
  -28.5503  -24.7601   18.4268 C   0  0  0  0  0  0
  -29.0923  -22.3203   18.9639 C   0  0  0  0  0  0
  -28.1777  -25.0100   19.8919 C   0  0  2  0  0  0
  -32.2335  -17.2215   21.9435 C   0  0  0  0  0  0
  -29.7200  -21.6223   21.3147 C   0  0  0  0  0  0
  -29.1291  -22.6686   20.3962 N   0  0  0  0  0  0
  -29.7996  -15.6586   20.9315 N   0  0  0  0  0  0
  -29.2648  -24.3422   21.9527 O   0  0  0  0  0  0
  -31.4823  -12.5309   19.1462 H   0  0  0  0  0  0
  -30.3929  -11.3975   19.8949 H   0  0  0  0  0  0
  -29.7762  -11.7327   17.4927 H   0  0  0  0  0  0
  -29.6497  -13.4583   17.7318 H   0  0  0  0  0  0
  -27.8812  -11.2799   18.8889 H   0  0  0  0  0  0
  -27.3750  -12.5429   17.7999 H   0  0  0  0  0  0
  -27.6786  -14.2426   19.5227 H   0  0  0  0  0  0
  -28.7116  -12.0262   21.3650 H   0  0  0  0  0  0
  -28.4371  -13.6723   21.8555 H   0  0  0  0  0  0
  -25.2755   -9.5682   22.4763 H   0  0  0  0  0  0
  -23.9990   -7.4634   22.7481 H   0  0  0  0  0  0
  -21.0813   -8.8786   19.8977 H   0  0  0  0  0  0
  -22.3679  -10.9684   19.6180 H   0  0  0  0  0  0
  -21.2013   -7.6146   23.9716 H   0  0  0  0  0  0
  -21.1478   -6.0522   25.9075 H   0  0  0  0  0  0
  -22.0597   -2.7608   23.2852 H   0  0  0  0  0  0
  -22.4067  -11.9951   22.4843 H   0  0  0  0  0  0
  -21.1110  -13.1342   22.2624 H   0  0  0  0  0  0
  -24.6605  -15.8387   20.5126 H   0  0  0  0  0  0
  -26.2668  -15.6196   20.0426 H   0  0  0  0  0  0
  -26.7171  -32.5453   23.1108 H   0  0  0  0  0  0
  -25.0062  -33.9735   25.0431 H   0  0  0  0  0  0
  -22.7127  -31.3055   21.4041 H   0  0  0  0  0  0
  -23.3737  -35.9637   23.3347 H   0  0  0  0  0  0
  -24.3562  -36.8855   22.2041 H   0  0  0  0  0  0
  -23.7259  -37.6508   23.6642 H   0  0  0  0  0  0
  -26.0971  -31.5514   20.6077 H   0  0  0  0  0  0
  -26.8401  -30.8370   22.0086 H   0  0  0  0  0  0
  -28.1038  -28.9644   21.2222 H   0  0  0  0  0  0
  -25.9606  -25.9739   18.9349 H   0  0  0  0  0  0
  -23.9747  -27.3363   18.9793 H   0  0  0  0  0  0
  -23.7543  -30.6038   19.4036 H   0  0  0  0  0  0
  -22.7559  -29.2544   19.8551 H   0  0  0  0  0  0
  -25.1301  -36.1936   25.0823 H   0  0  0  0  0  0
  -20.9983  -28.3280   24.1398 H   0  0  0  0  0  0
  -20.5657  -26.2309   23.3618 H   0  0  0  0  0  0
  -21.6629  -26.7435   22.1222 H   0  0  0  0  0  0
  -19.6897  -25.6299   21.1250 H   0  0  0  0  0  0
  -19.6693  -27.3197   20.6744 H   0  0  0  0  0  0
  -17.4189  -26.6693   21.4031 H   0  0  0  0  0  0
  -18.0327  -26.0101   22.9039 H   0  0  0  0  0  0
  -19.7936  -30.7281   24.2278 H   0  0  0  0  0  0
  -17.5020  -31.6285   24.5164 H   0  0  0  0  0  0
  -15.5355  -30.3005   23.7674 H   0  0  0  0  0  0
  -15.8665  -28.0842   22.7074 H   0  0  0  0  0  0
  -24.5925  -30.7056   25.7821 H   0  0  0  0  0  0
  -24.8872  -32.2928   26.4826 H   0  0  0  0  0  0
  -25.8037  -30.9010   27.0278 H   0  0  0  0  0  0
  -26.2891  -29.6787   24.1188 H   0  0  0  0  0  0
  -27.3941  -29.7246   25.4725 H   0  0  0  0  0  0
  -27.8809  -30.4278   23.9488 H   0  0  0  0  0  0
  -27.2650  -33.3646   26.2077 H   0  0  0  0  0  0
  -28.3877  -32.6862   25.0361 H   0  0  0  0  0  0
  -28.0694  -31.8470   26.5449 H   0  0  0  0  0  0
  -28.2617  -38.0068   24.7456 H   0  0  0  0  0  0
  -28.1025  -36.2591   24.6381 H   0  0  0  0  0  0
  -27.2282  -37.1570   25.8872 H   0  0  0  0  0  0
  -20.9361  -29.8764   21.6879 H   0  0  0  0  0  0
  -26.0169  -38.2856   24.1367 H   0  0  0  0  0  0
  -27.7646  -19.7837   20.2796 H   0  0  0  0  0  0
  -27.8799  -17.3337   20.1481 H   0  0  0  0  0  0
  -31.7591  -19.8613   21.8483 H   0  0  0  0  0  0
  -28.5420  -23.1155   17.0217 H   0  0  0  0  0  0
  -27.2265  -23.0802   18.1622 H   0  0  0  0  0  0
  -27.9719  -25.4089   17.7699 H   0  0  0  0  0  0
  -29.5988  -25.0140   18.2605 H   0  0  0  0  0  0
  -30.1248  -22.2777   18.6168 H   0  0  0  0  0  0
  -28.6836  -21.3221   18.8235 H   0  0  0  0  0  0
  -27.1461  -24.7039   20.0543 H   0  0  0  0  0  0
  -31.9679  -16.3959   22.6036 H   0  0  0  0  0  0
  -32.8446  -17.9200   22.5166 H   0  0  0  0  0  0
  -32.8495  -16.8366   21.1316 H   0  0  0  0  0  0
  -30.7427  -21.9460   21.5144 H   0  0  0  0  0  0
  -29.2111  -21.7197   22.2753 H   0  0  0  0  0  0
  -28.8735  -15.3217   21.1442 H   0  0  0  0  0  0
  1 25  1  0  0  0
  1 30  2  0  0  0
  1 85  1  0  0  0
  2  3  1  0  0  0
  2 25  1  0  0  0
  2 87  1  0  0  0
  2 88  1  0  0  0
  3  4  1  0  0  0
  3 89  1  0  0  0
  3 90  1  0  0  0
  4  5  1  0  0  0
  4 91  1  0  0  0
  4 92  1  0  0  0
  5  6  1  0  0  0
  5 26  1  0  0  0
  5 93  1  0  0  0
  6 25  1  0  0  0
  6 94  1  0  0  0
  6 95  1  0  0  0
  7  8  2  0  0  0
  7 26  1  0  0  0
  7 29  1  0  0  0
  8  9  1  0  0  0
  8 22  1  0  0  0
  9 10  1  0  0  0
  9 27  2  0  0  0
 10 11  2  0  0  0
 10 15  1  0  0  0
 11 12  1  0  0  0
 11 96  1  0  0  0
 12 13  2  0  0  0
 12 97  1  0  0  0
 13 14  1  0  0  0
 13 31  1  0  0  0
 14 15  2  0  0  0
 14 98  1  0  0  0
 15 99  1  0  0  0
 16 17  2  0  0  0
 16 21  1  0  0  0
 16 31  1  0  0  0
 17 18  1  0  0  0
 17100  1  0  0  0
 18 19  2  0  0  0
 18101  1  0  0  0
 19 20  1  0  0  0
 19 24  1  0  0  0
 20 21  2  0  0  0
 20102  1  0  0  0
 21 23  1  0  0  0
 22 28  1  0  0  0
 22 32  2  0  0  0
 26 27  1  0  0  0
 28103  1  0  0  0
 28104  1  0  0  0
 29105  1  0  0  0
 29106  1  0  0  0
 33 34  1  0  0  0
 33 66  1  0  0  0
 33 70  2  0  0  0
 34 36  1  0  0  0
 34 59  1  0  0  0
 34107  1  0  0  0
 35 44  2  0  0  0
 35 45  1  0  0  0
 35 68  1  0  0  0
 36 56  1  0  0  0
 36108  1  0  0  0
 37 39  1  0  0  0
 37 47  1  0  0  0
 37 66  1  0  0  0
 37109  1  0  0  0
 38 43  2  0  0  0
 38 46  1  0  0  0
 38 47  1  0  0  0
 39 64  1  0  0  0
 39 67  2  0  0  0
 40 52  1  0  0  0
 40 53  2  0  0  0
 40 58  1  0  0  0
 41110  1  0  0  0
 41111  1  0  0  0
 41112  1  0  0  0
 41 48  1  0  0  0
 42 43  1  0  0  0
 42 66  1  0  0  0
 42113  1  0  0  0
 42114  1  0  0  0
 43 44  1  0  0  0
 44115  1  0  0  0
 45 46  2  0  0  0
 45116  1  0  0  0
 46117  1  0  0  0
 47118  1  0  0  0
 47119  1  0  0  0
 48 56  1  0  0  0
 48 65  1  0  0  0
 48120  1  0  0  0
 49 50  1  0  0  0
 49 53  1  0  0  0
 49 64  1  0  0  0
 49121  1  0  0  0
 50 51  1  0  0  0
 50122  1  0  0  0
 50123  1  0  0  0
 51 52  1  0  0  0
 51124  1  0  0  0
 51125  1  0  0  0
 52126  1  0  0  0
 52127  1  0  0  0
 53 54  1  0  0  0
 54 55  2  0  0  0
 54128  1  0  0  0
 55 57  1  0  0  0
 55129  1  0  0  0
 56 69  2  0  0  0
 57 58  2  0  0  0
 57130  1  0  0  0
 58131  1  0  0  0
 59 60  1  0  0  0
 59 61  1  0  0  0
 59 62  1  0  0  0
 60132  1  0  0  0
 60133  1  0  0  0
 60134  1  0  0  0
 61135  1  0  0  0
 61136  1  0  0  0
 61137  1  0  0  0
 62138  1  0  0  0
 62139  1  0  0  0
 62140  1  0  0  0
 63 65  1  0  0  0
 63141  1  0  0  0
 63142  1  0  0  0
 63143  1  0  0  0
 64144  1  0  0  0
 65145  1  0  0  0
 68 81  1  0  0  0
 71 72  2  0  0  0
 71 74  1  0  0  0
 71146  1  0  0  0
 72 76  1  0  0  0
 72147  1  0  0  0
 73 74  2  0  0  0
 73 75  1  0  0  0
 73148  1  0  0  0
 74 83  1  0  0  0
 75 76  2  0  0  0
 75 82  1  0  0  0
 76 85  1  0  0  0
 77 81  1  0  0  0
 77 84  1  0  0  0
 77 86  2  0  0  0
 78 79  1  0  0  0
 78 80  1  0  0  0
 78149  1  0  0  0
 78150  1  0  0  0
 79 81  1  0  0  0
 79151  1  0  0  0
 79152  1  0  0  0
 80 84  1  0  0  0
 80153  1  0  0  0
 80154  1  0  0  0
 81155  1  0  0  0
 82156  1  0  0  0
 82157  1  0  0  0
 82158  1  0  0  0
 83 84  1  0  0  0
 83159  1  0  0  0
 83160  1  0  0  0
 85161  1  0  0  0
M  ISO  4   1 100  68 101  81 101  85 100
M  END
> <chiral flag>
0

> <version>
0

> <s_m_source_file>
/data/baiqing/PycharmProjects/Reinvent-master-3.2/result/LINK_invent/BTK/process_docking_weight1_custom_product_contain_oxygen_bond_distance_aromatic_linkinvent_7_9_3/rearranged_h_0045.sdf

> <i_m_source_file_index>
17

> <r_mmod_Potential_Energy-OPLS-2005>
117.557327270508

> <r_mmod_Stretch_Energy-OPLS-2005>
86.92041015625

> <r_mmod_Bend_Energy-OPLS-2005>
156.34733581543

> <r_mmod_Torsional_Energy-OPLS-2005>
244.77294921875

> <r_mmod_Improper_Torsional_Energy-OPLS-2005>
7.10629320144653

> <r_mmod_Van_der_Waal_Energy-OPLS-2005>
157.878189086914

> <r_mmod_Electrostatic_Energy-OPLS-2005>
-351.009368896484

> <r_mmod_Solvation_Energy-OPLS-2005>
-235.037734985352

> <b_mmod_Minimization_Converged-OPLS-2005>
0

> <r_mmod_RMS_Derivative-OPLS-2005>
2.23557615280151

$$$$
17
                    3D
 Structure written by MMmdl.
167176  0  0  1  0            999 V2000
  -30.7277  -14.6774   20.5402 C   0  0  0  0  0  0
  -30.4206  -12.4294   19.4829 C   0  0  0  0  0  0
  -29.5139  -12.5288   18.2389 C   0  0  0  0  0  0
  -28.0356  -12.3594   18.6371 C   0  0  0  0  0  0
  -27.6459  -13.2361   19.8549 C   0  0  2  0  0  0
  -28.6901  -13.1619   20.9917 C   0  0  0  0  0  0
  -25.2380  -13.8096   20.5624 C   0  0  0  0  0  0
  -24.1734  -13.0334   20.9176 C   0  0  0  0  0  0
  -24.6397  -11.6857   20.8733 C   0  0  0  0  0  0
  -23.9085  -10.4238   21.0374 C   0  0  0  0  0  0
  -24.3634   -9.4166   21.9160 C   0  0  0  0  0  0
  -23.6303   -8.2212   22.0760 C   0  0  0  0  0  0
  -22.4271   -8.0261   21.3556 C   0  0  0  0  0  0
  -21.9900   -9.0229   20.4655 C   0  0  0  0  0  0
  -22.7243  -10.2093   20.3027 C   0  0  0  0  0  0
  -21.6852   -6.0729   22.5289 C   0  0  0  0  0  0
  -21.4030   -6.5629   23.8232 C   0  0  0  0  0  0
  -21.3652   -5.6768   24.9182 C   0  0  0  0  0  0
  -21.6031   -4.3037   24.7220 C   0  0  0  0  0  0
  -21.8827   -3.8137   23.4345 C   0  0  0  0  0  0
  -21.9203   -4.6959   22.3406 C   0  0  0  0  0  0
  -22.7747  -13.5137   21.1826 C   0  0  0  0  0  0
  -22.1676   -4.2150   21.0976 F   0  0  0  0  0  0
  -21.5598   -3.4520   25.7727 F   0  0  0  0  0  0
  -30.0165  -13.4940   20.4372 N   0  0  0  0  0  0
  -26.2937  -12.9413   20.3283 N   0  0  0  0  0  0
  -25.9350  -11.6542   20.5753 N   0  0  0  0  0  0
  -22.0400  -12.8183   22.0426 N   0  0  0  0  0  0
  -25.3653  -15.1790   20.3937 N   0  0  0  0  0  0
  -31.8295  -14.7604   19.9926 O   0  0  0  0  0  0
  -21.6631   -6.8867   21.4246 O   0  0  0  0  0  0
  -22.3429  -14.5437   20.6650 O   0  0  0  0  0  0
  -24.6265  -31.8591   23.2024 C   0  0  0  0  0  0
  -25.9114  -32.4775   23.8341 C   0  0  1  0  0  0
  -27.2301  -27.3135   20.1252 C   0  0  0  0  0  0
  -25.5932  -33.8587   24.2249 N   0  0  0  0  0  0
  -23.4219  -30.4794   21.5482 C   0  0  2  0  0  0
  -24.8698  -28.9326   20.1144 C   0  0  0  0  0  0
  -22.7484  -29.4612   22.4984 C   0  0  0  0  0  0
  -18.0277  -28.1391   22.8491 C   0  0  0  0  0  0
  -24.1497  -36.7282   23.2634 C   0  0  0  0  0  0
  -25.9639  -30.7833   21.3817 C   0  0  0  0  0  0
  -26.0376  -29.4122   20.7198 C   0  0  0  0  0  0
  -27.2213  -28.6157   20.7128 C   0  0  0  0  0  0
  -26.0442  -26.8889   19.4867 C   0  0  0  0  0  0
  -24.8746  -27.6765   19.4854 C   0  0  0  0  0  0
  -23.6365  -29.8121   20.1643 C   0  0  0  0  0  0
  -25.4133  -36.3086   24.0306 C   0  0  1  0  0  0
  -20.5876  -28.3683   23.1290 C   0  0  2  0  0  0
  -20.6778  -26.9408   22.5429 C   0  0  0  0  0  0
  -19.5749  -26.6384   21.5229 C   0  0  0  0  0  0
  -18.1922  -26.7942   22.1625 C   0  0  0  0  0  0
  -19.1531  -28.8862   23.2877 C   0  0  0  0  0  0
  -18.9454  -30.1469   23.8879 C   0  0  0  0  0  0
  -17.6452  -30.6593   24.0571 C   0  0  0  0  0  0
  -25.9062  -34.9447   23.5082 C   0  0  0  0  0  0
  -16.5337  -29.9089   23.6348 C   0  0  0  0  0  0
  -16.7268  -28.6512   23.0359 C   0  0  0  0  0  0
  -26.4484  -31.6609   25.0737 C   0  0  0  0  0  0
  -25.3699  -31.3774   26.1457 C   0  0  0  0  0  0
  -27.0334  -30.3021   24.6236 C   0  0  0  0  0  0
  -27.6037  -32.4368   25.7504 C   0  0  0  0  0  0
  -27.5588  -37.1804   24.8452 C   0  0  0  0  0  0
  -21.4196  -29.3021   22.3702 N   0  0  0  0  0  0
  -26.4310  -37.3783   23.9388 N   0  0  0  0  0  0
  -24.6887  -31.0588   22.0991 N   0  0  0  0  0  0
  -23.4208  -28.8151   23.3071 O   0  0  0  0  0  0
  -28.3536  -26.4714   20.1320 O   0  0  0  0  0  0
  -26.5640  -34.8917   22.4653 O   0  0  0  0  0  0
  -23.5419  -32.1396   23.7326 O   0  0  0  0  0  0
  -31.2152  -19.4975   20.6477 C   0  0  0  0  0  0
  -28.9297  -19.2304   20.0134 C   0  0  0  0  0  0
  -30.0231  -20.1074   20.1799 C   0  0  0  0  0  0
  -31.3235  -18.0970   20.9351 C   0  0  0  0  0  0
  -29.0204  -17.8289   20.2885 C   0  0  0  0  0  0
  -30.2175  -17.1979   20.7523 C   0  0  0  0  0  0
  -29.0361  -23.9660   19.8183 C   0  0  0  0  0  0
  -29.1948  -23.8028   22.6370 C   0  0  0  0  0  0
  -28.3589  -24.9922   22.1237 C   0  0  0  0  0  0
  -28.9468  -22.5225   21.8175 C   0  0  0  0  0  0
  -28.1816  -25.0617   20.5854 C   0  0  1  0  0  0
  -32.6696  -17.6189   21.4563 C   0  0  0  0  0  0
  -27.7753  -17.0102   20.0814 C   0  0  0  0  0  0
  -30.1500  -15.6598   22.6718 C   0  0  0  0  0  0
  -29.9946  -21.6098   19.6903 C   0  0  0  0  0  0
  -29.2671  -22.7282   20.4009 N   0  0  0  0  0  0
  -30.2086  -15.7802   21.2090 N   0  0  0  0  0  0
  -29.4423  -24.2278   18.6817 O   0  0  0  0  0  0
  -31.4696  -12.4985   19.1900 H   0  0  0  0  0  0
  -30.3223  -11.4484   19.9507 H   0  0  0  0  0  0
  -29.7961  -11.7737   17.5032 H   0  0  0  0  0  0
  -29.6592  -13.4993   17.7593 H   0  0  0  0  0  0
  -27.8685  -11.3079   18.8680 H   0  0  0  0  0  0
  -27.3904  -12.5904   17.7877 H   0  0  0  0  0  0
  -27.6426  -14.2598   19.4918 H   0  0  0  0  0  0
  -28.7099  -12.1712   21.4479 H   0  0  0  0  0  0
  -28.3865  -13.8511   21.7781 H   0  0  0  0  0  0
  -25.2795   -9.5648   22.4715 H   0  0  0  0  0  0
  -24.0011   -7.4610   22.7492 H   0  0  0  0  0  0
  -21.0820   -8.8749   19.8985 H   0  0  0  0  0  0
  -22.3712  -10.9619   19.6113 H   0  0  0  0  0  0
  -21.2048   -7.6141   23.9752 H   0  0  0  0  0  0
  -21.1448   -6.0481   25.9085 H   0  0  0  0  0  0
  -22.0616   -2.7602   23.2834 H   0  0  0  0  0  0
  -22.4006  -11.9867   22.4858 H   0  0  0  0  0  0
  -21.1024  -13.1235   22.2605 H   0  0  0  0  0  0
  -24.5701  -15.7988   20.5032 H   0  0  0  0  0  0
  -26.1951  -15.6476   20.0561 H   0  0  0  0  0  0
  -26.7190  -32.5445   23.1089 H   0  0  0  0  0  0
  -25.0103  -33.9744   25.0405 H   0  0  0  0  0  0
  -22.7146  -31.2985   21.4061 H   0  0  0  0  0  0
  -23.3771  -35.9607   23.3310 H   0  0  0  0  0  0
  -24.3568  -36.8905   22.2048 H   0  0  0  0  0  0
  -23.7243  -37.6475   23.6662 H   0  0  0  0  0  0
  -26.1097  -31.5499   20.6201 H   0  0  0  0  0  0
  -26.8385  -30.8210   22.0209 H   0  0  0  0  0  0
  -28.1193  -28.9842   21.1874 H   0  0  0  0  0  0
  -26.0124  -25.9401   18.9702 H   0  0  0  0  0  0
  -23.9847  -27.3096   18.9921 H   0  0  0  0  0  0
  -23.7511  -30.5873   19.4059 H   0  0  0  0  0  0
  -22.7575  -29.2376   19.8676 H   0  0  0  0  0  0
  -25.1328  -36.1931   25.0802 H   0  0  0  0  0  0
  -20.9946  -28.3259   24.1412 H   0  0  0  0  0  0
  -20.5698  -26.2281   23.3625 H   0  0  0  0  0  0
  -21.6644  -26.7468   22.1197 H   0  0  0  0  0  0
  -19.6904  -25.6292   21.1261 H   0  0  0  0  0  0
  -19.6689  -27.3190   20.6756 H   0  0  0  0  0  0
  -17.4209  -26.6698   21.4015 H   0  0  0  0  0  0
  -18.0294  -26.0084   22.9013 H   0  0  0  0  0  0
  -19.7931  -30.7301   24.2218 H   0  0  0  0  0  0
  -17.5004  -31.6267   24.5183 H   0  0  0  0  0  0
  -15.5331  -30.2978   23.7692 H   0  0  0  0  0  0
  -15.8670  -28.0828   22.7067 H   0  0  0  0  0  0
  -24.5834  -30.7183   25.7759 H   0  0  0  0  0  0
  -24.8949  -32.2968   26.4901 H   0  0  0  0  0  0
  -25.7993  -30.8907   27.0227 H   0  0  0  0  0  0
  -26.2931  -29.6793   24.1209 H   0  0  0  0  0  0
  -27.3937  -29.7267   25.4773 H   0  0  0  0  0  0
  -27.8844  -30.4281   23.9538 H   0  0  0  0  0  0
  -27.2619  -33.3641   26.2112 H   0  0  0  0  0  0
  -28.3819  -32.6993   25.0324 H   0  0  0  0  0  0
  -28.0756  -31.8508   26.5398 H   0  0  0  0  0  0
  -28.2610  -38.0098   24.7523 H   0  0  0  0  0  0
  -28.1085  -36.2633   24.6275 H   0  0  0  0  0  0
  -27.2298  -37.1457   25.8852 H   0  0  0  0  0  0
  -20.9383  -29.8714   21.6879 H   0  0  0  0  0  0
  -26.0182  -38.2857   24.1399 H   0  0  0  0  0  0
  -32.0894  -20.1217   20.7724 H   0  0  0  0  0  0
  -28.0017  -19.6390   19.6379 H   0  0  0  0  0  0
  -28.9844  -23.6279   23.6927 H   0  0  0  0  0  0
  -30.2554  -24.0569   22.5808 H   0  0  0  0  0  0
  -28.8017  -25.9176   22.4902 H   0  0  0  0  0  0
  -27.3696  -24.9418   22.5804 H   0  0  0  0  0  0
  -27.9061  -22.2038   21.9036 H   0  0  0  0  0  0
  -29.5587  -21.7228   22.2366 H   0  0  0  0  0  0
  -27.1632  -24.7339   20.3866 H   0  0  0  0  0  0
  -33.4558  -18.3396   21.2264 H   0  0  0  0  0  0
  -32.9710  -16.6779   21.0068 H   0  0  0  0  0  0
  -32.6469  -17.5057   22.5384 H   0  0  0  0  0  0
  -26.8880  -17.6393   20.0058 H   0  0  0  0  0  0
  -27.6342  -16.3376   20.9262 H   0  0  0  0  0  0
  -27.8689  -16.4374   19.1586 H   0  0  0  0  0  0
  -29.3970  -16.3367   23.0759 H   0  0  0  0  0  0
  -31.1048  -15.9389   23.1138 H   0  0  0  0  0  0
  -29.9307  -14.6541   23.0293 H   0  0  0  0  0  0
  -29.6110  -21.5740   18.6690 H   0  0  0  0  0  0
  -31.0306  -21.9362   19.5876 H   0  0  0  0  0  0
  1 25  1  0  0  0
  1 30  2  0  0  0
  1 87  1  0  0  0
  2  3  1  0  0  0
  2 25  1  0  0  0
  2 89  1  0  0  0
  2 90  1  0  0  0
  3  4  1  0  0  0
  3 91  1  0  0  0
  3 92  1  0  0  0
  4  5  1  0  0  0
  4 93  1  0  0  0
  4 94  1  0  0  0
  5  6  1  0  0  0
  5 26  1  0  0  0
  5 95  1  0  0  0
  6 25  1  0  0  0
  6 96  1  0  0  0
  6 97  1  0  0  0
  7  8  2  0  0  0
  7 26  1  0  0  0
  7 29  1  0  0  0
  8  9  1  0  0  0
  8 22  1  0  0  0
  9 10  1  0  0  0
  9 27  2  0  0  0
 10 11  2  0  0  0
 10 15  1  0  0  0
 11 12  1  0  0  0
 11 98  1  0  0  0
 12 13  2  0  0  0
 12 99  1  0  0  0
 13 14  1  0  0  0
 13 31  1  0  0  0
 14 15  2  0  0  0
 14100  1  0  0  0
 15101  1  0  0  0
 16 17  2  0  0  0
 16 21  1  0  0  0
 16 31  1  0  0  0
 17 18  1  0  0  0
 17102  1  0  0  0
 18 19  2  0  0  0
 18103  1  0  0  0
 19 20  1  0  0  0
 19 24  1  0  0  0
 20 21  2  0  0  0
 20104  1  0  0  0
 21 23  1  0  0  0
 22 28  1  0  0  0
 22 32  2  0  0  0
 26 27  1  0  0  0
 28105  1  0  0  0
 28106  1  0  0  0
 29107  1  0  0  0
 29108  1  0  0  0
 33 34  1  0  0  0
 33 66  1  0  0  0
 33 70  2  0  0  0
 34 36  1  0  0  0
 34 59  1  0  0  0
 34109  1  0  0  0
 35 44  2  0  0  0
 35 45  1  0  0  0
 35 68  1  0  0  0
 36 56  1  0  0  0
 36110  1  0  0  0
 37 39  1  0  0  0
 37 47  1  0  0  0
 37 66  1  0  0  0
 37111  1  0  0  0
 38 43  2  0  0  0
 38 46  1  0  0  0
 38 47  1  0  0  0
 39 64  1  0  0  0
 39 67  2  0  0  0
 40 52  1  0  0  0
 40 53  2  0  0  0
 40 58  1  0  0  0
 41112  1  0  0  0
 41113  1  0  0  0
 41114  1  0  0  0
 41 48  1  0  0  0
 42 43  1  0  0  0
 42 66  1  0  0  0
 42115  1  0  0  0
 42116  1  0  0  0
 43 44  1  0  0  0
 44117  1  0  0  0
 45 46  2  0  0  0
 45118  1  0  0  0
 46119  1  0  0  0
 47120  1  0  0  0
 47121  1  0  0  0
 48 56  1  0  0  0
 48 65  1  0  0  0
 48122  1  0  0  0
 49 50  1  0  0  0
 49 53  1  0  0  0
 49 64  1  0  0  0
 49123  1  0  0  0
 50 51  1  0  0  0
 50124  1  0  0  0
 50125  1  0  0  0
 51 52  1  0  0  0
 51126  1  0  0  0
 51127  1  0  0  0
 52128  1  0  0  0
 52129  1  0  0  0
 53 54  1  0  0  0
 54 55  2  0  0  0
 54130  1  0  0  0
 55 57  1  0  0  0
 55131  1  0  0  0
 56 69  2  0  0  0
 57 58  2  0  0  0
 57132  1  0  0  0
 58133  1  0  0  0
 59 60  1  0  0  0
 59 61  1  0  0  0
 59 62  1  0  0  0
 60134  1  0  0  0
 60135  1  0  0  0
 60136  1  0  0  0
 61137  1  0  0  0
 61138  1  0  0  0
 61139  1  0  0  0
 62140  1  0  0  0
 62141  1  0  0  0
 62142  1  0  0  0
 63 65  1  0  0  0
 63143  1  0  0  0
 63144  1  0  0  0
 63145  1  0  0  0
 64146  1  0  0  0
 65147  1  0  0  0
 68 81  1  0  0  0
 71 73  2  0  0  0
 71 74  1  0  0  0
 71148  1  0  0  0
 72 73  1  0  0  0
 72 75  2  0  0  0
 72149  1  0  0  0
 73 85  1  0  0  0
 74 76  2  0  0  0
 74 82  1  0  0  0
 75 76  1  0  0  0
 75 83  1  0  0  0
 76 87  1  0  0  0
 77 81  1  0  0  0
 77 86  1  0  0  0
 77 88  2  0  0  0
 78 79  1  0  0  0
 78 80  1  0  0  0
 78150  1  0  0  0
 78151  1  0  0  0
 79 81  1  0  0  0
 79152  1  0  0  0
 79153  1  0  0  0
 80 86  1  0  0  0
 80154  1  0  0  0
 80155  1  0  0  0
 81156  1  0  0  0
 82157  1  0  0  0
 82158  1  0  0  0
 82159  1  0  0  0
 83160  1  0  0  0
 83161  1  0  0  0
 83162  1  0  0  0
 84 87  1  0  0  0
 84163  1  0  0  0
 84164  1  0  0  0
 84165  1  0  0  0
 85 86  1  0  0  0
 85166  1  0  0  0
 85167  1  0  0  0
M  ISO  4   1 100  68 101  81 101  87 100
M  END
> <chiral flag>
0

> <version>
0

> <s_m_source_file>
/data/baiqing/PycharmProjects/Reinvent-master-3.2/result/LINK_invent/BTK/process_docking_weight1_custom_product_contain_oxygen_bond_distance_aromatic_linkinvent_7_9_3/rearranged_h_0045.sdf

> <i_m_source_file_index>
18

> <r_mmod_Potential_Energy-OPLS-2005>
339.723388671875

> <r_mmod_Stretch_Energy-OPLS-2005>
101.701553344727

> <r_mmod_Bend_Energy-OPLS-2005>
159.216125488281

> <r_mmod_Torsional_Energy-OPLS-2005>
357.954772949219

> <r_mmod_Improper_Torsional_Energy-OPLS-2005>
5.79249334335327

> <r_mmod_Van_der_Waal_Energy-OPLS-2005>
155.226577758789

> <r_mmod_Electrostatic_Energy-OPLS-2005>
-283.366729736328

> <r_mmod_Solvation_Energy-OPLS-2005>
-212.894577026367

> <b_mmod_Minimization_Converged-OPLS-2005>
0

> <r_mmod_RMS_Derivative-OPLS-2005>
2.9955050945282

$$$$
18
                    3D
 Structure written by MMmdl.
182191  0  0  1  0            999 V2000
  -29.4434  -16.1230   21.0629 C   0  0  0  0  0  0
  -30.2326  -13.6132   19.8544 C   0  0  0  0  0  0
  -29.5694  -12.9360   18.5745 C   0  0  0  0  0  0
  -28.1794  -12.3686   18.8842 C   0  0  0  0  0  0
  -27.5165  -13.3162   19.8927 C   0  0  2  0  0  0
  -28.3498  -13.6493   21.1423 C   0  0  0  0  0  0
  -25.1792  -13.8241   20.5749 C   0  0  0  0  0  0
  -24.1291  -13.0363   20.9296 C   0  0  0  0  0  0
  -24.6041  -11.6876   20.8741 C   0  0  0  0  0  0
  -23.8877  -10.4235   21.0414 C   0  0  0  0  0  0
  -24.3517   -9.4193   21.9185 C   0  0  0  0  0  0
  -23.6249   -8.2202   22.0743 C   0  0  0  0  0  0
  -22.4234   -8.0216   21.3534 C   0  0  0  0  0  0
  -21.9818   -9.0157   20.4635 C   0  0  0  0  0  0
  -22.7078  -10.2059   20.3051 C   0  0  0  0  0  0
  -21.6838   -6.0696   22.5284 C   0  0  0  0  0  0
  -21.4001   -6.5615   23.8211 C   0  0  0  0  0  0
  -21.3656   -5.6779   24.9182 C   0  0  0  0  0  0
  -21.6046   -4.3041   24.7240 C   0  0  0  0  0  0
  -21.8823   -3.8120   23.4367 C   0  0  0  0  0  0
  -21.9192   -4.6928   22.3416 C   0  0  0  0  0  0
  -22.7380  -13.5122   21.1997 C   0  0  0  0  0  0
  -22.1660   -4.2115   21.0994 F   0  0  0  0  0  0
  -21.5637   -3.4530   25.7758 F   0  0  0  0  0  0
  -29.3269  -14.6357   20.6943 N   0  0  0  0  0  0
  -26.2041  -12.9462   20.3057 N   0  0  0  0  0  0
  -25.8911  -11.6557   20.5572 N   0  0  0  0  0  0
  -22.0114  -12.8108   22.0589 N   0  0  0  0  0  0
  -25.3529  -15.2019   20.4315 N   0  0  0  0  0  0
  -30.6912  -16.2167   20.7856 O   0  0  0  0  0  0
  -21.6613   -6.8815   21.4237 O   0  0  0  0  0  0
  -22.3104  -14.5448   20.6850 O   0  0  0  0  0  0
  -24.7620  -31.3134   23.5884 C   0  0  0  0  0  0
  -25.7984  -32.3423   24.3168 C   0  0  1  0  0  0
  -27.3055  -27.4992   19.9317 C   0  0  0  0  0  0
  -25.4543  -33.8058   24.4685 N   0  0  0  0  0  0
  -23.9494  -30.0530   21.7154 C   0  0  2  0  0  0
  -24.3801  -29.2240   19.0211 C   0  0  0  0  0  0
  -23.8745  -28.4155   22.7757 C   0  0  0  0  0  0
  -18.1558  -28.0228   22.7709 C   0  0  0  0  0  0
  -24.1764  -36.6579   23.3014 C   0  0  0  0  0  0
  -25.3042  -31.1527   20.3507 C   0  0  0  0  0  0
  -25.8470  -30.1009   19.3737 C   0  0  0  0  0  0
  -27.3640  -29.2445   19.7586 C   0  0  0  0  0  0
  -25.8639  -26.5584   19.6793 C   0  0  0  0  0  0
  -24.4303  -27.3842   19.1471 C   0  0  0  0  0  0
  -23.3410  -30.1344   19.9339 C   0  0  0  0  0  0
  -25.4184  -36.2986   24.1420 C   0  0  1  0  0  0
  -20.8396  -27.5643   22.8050 C   0  0  2  0  0  0
  -20.4816  -26.2900   22.1450 C   0  0  0  0  0  0
  -19.3134  -26.4510   21.2307 C   0  0  0  0  0  0
  -18.0663  -26.7105   22.0494 C   0  0  0  0  0  0
  -19.4483  -28.5503   23.1348 C   0  0  0  0  0  0
  -19.2659  -29.8162   23.8425 C   0  0  0  0  0  0
  -18.0117  -30.4755   24.0506 C   0  0  0  0  0  0
  -25.9534  -34.8912   23.7861 C   0  0  0  0  0  0
  -16.8087  -29.8884   23.6391 C   0  0  0  0  0  0
  -16.8979  -28.6430   23.0162 C   0  0  0  0  0  0
  -26.4810  -31.6497   25.5026 C   0  0  0  0  0  0
  -25.4595  -31.3312   26.5954 C   0  0  0  0  0  0
  -27.1690  -30.3300   25.0674 C   0  0  0  0  0  0
  -27.6250  -32.5252   26.0867 C   0  0  0  0  0  0
  -27.5739  -37.2195   24.8690 C   0  0  0  0  0  0
  -22.5552  -27.5768   22.5403 N   0  0  0  0  0  0
  -26.4287  -37.3690   23.9762 N   0  0  0  0  0  0
  -24.6743  -30.8319   22.0708 N   0  0  0  0  0  0
  -24.7274  -28.1707   23.5911 O   0  0  0  0  0  0
  -28.2651  -26.9329   19.2358 O   0  0  0  0  0  0
  -26.7047  -34.8129   22.8027 O   0  0  0  0  0  0
  -23.7856  -31.2446   24.3286 O   0  0  0  0  0  0
  -26.0520  -22.3646   23.3767 C   0  0  0  0  0  0
  -23.8055  -22.8630   22.7925 C   0  0  0  0  0  0
  -25.0779  -20.6398   22.0816 C   0  0  0  0  0  0
  -24.7733  -23.5705   23.5686 C   0  0  0  0  0  0
  -26.3838  -20.7951   22.6396 C   0  0  0  0  0  0
  -23.9465  -21.5626   22.1405 C   0  0  0  0  0  0
  -23.3916  -28.5008   20.9521 C   0  0  0  0  0  0
  -22.2707  -28.6851   24.7236 C   0  0  0  0  0  0
  -24.5257  -33.0778   21.8117 C   0  0  0  0  0  0
  -26.6632  -32.0343   21.9497 C   0  0  0  0  0  0
  -22.5886  -32.0164   22.2668 C   0  0  0  0  0  0
  -26.7121  -29.7808   21.9544 C   0  0  0  0  0  0
  -22.0337  -29.9045   22.7736 C   0  0  1  0  0  0
  -27.5953  -26.1825   16.9619 C   0  0  0  0  0  0
  -21.6682  -27.5205   18.8483 C   0  0  0  0  0  0
  -24.1971  -25.4702   24.3757 C   0  0  0  0  0  0
  -27.8003  -19.2267   22.2593 C   0  0  0  0  0  0
  -26.2710  -28.1819   18.1065 C   0  0  0  0  0  0
  -27.7080  -27.3670   17.9442 C   0  0  1  0  0  0
  -25.4301  -28.4840   20.8601 N   0  0  0  0  0  0
  -22.9327  -27.0231   24.9113 N   0  0  0  0  0  0
  -28.3390  -17.3725   21.5792 N   0  0  0  0  0  0
  -22.1867  -27.9369   20.1805 N   0  3  0  0  0  0
  -21.8014  -29.1928   25.7406 O   0  0  0  0  0  0
  -22.5412  -21.0306   21.2952 Cl  0  0  0  0  0  0
  -31.1247  -14.1403   19.5165 H   0  0  0  0  0  0
  -30.6299  -12.8382   20.5130 H   0  0  0  0  0  0
  -30.2167  -12.1646   18.1565 H   0  0  0  0  0  0
  -29.4706  -13.7020   17.8044 H   0  0  0  0  0  0
  -28.2766  -11.3759   19.3240 H   0  0  0  0  0  0
  -27.5793  -12.2622   17.9805 H   0  0  0  0  0  0
  -27.3868  -14.2375   19.3229 H   0  0  0  0  0  0
  -28.7760  -12.7641   21.6177 H   0  0  0  0  0  0
  -27.7410  -14.1238   21.9128 H   0  0  0  0  0  0
  -25.2659   -9.5724   22.4752 H   0  0  0  0  0  0
  -23.9983   -7.4601   22.7455 H   0  0  0  0  0  0
  -21.0751   -8.8633   19.8949 H   0  0  0  0  0  0
  -22.3501  -10.9591   19.6169 H   0  0  0  0  0  0
  -21.1978   -7.6121   23.9704 H   0  0  0  0  0  0
  -21.1478   -6.0512   25.9084 H   0  0  0  0  0  0
  -22.0608   -2.7582   23.2876 H   0  0  0  0  0  0
  -22.3757  -11.9752   22.4914 H   0  0  0  0  0  0
  -21.0760  -13.1128   22.2897 H   0  0  0  0  0  0
  -24.5692  -15.8408   20.5167 H   0  0  0  0  0  0
  -26.1389  -15.6050   19.9383 H   0  0  0  0  0  0
  -26.7873  -32.5197   24.0505 H   0  0  0  0  0  0
  -24.7745  -34.0047   25.1872 H   0  0  0  0  0  0
  -24.6153  -29.6476   22.3110 H   0  0  0  0  0  0
  -23.3861  -35.9175   23.4308 H   0  0  0  0  0  0
  -24.4121  -36.7048   22.2377 H   0  0  0  0  0  0
  -23.7587  -37.6207   23.5951 H   0  0  0  0  0  0
  -24.7500  -31.8991   19.7978 H   0  0  0  0  0  0
  -26.0046  -31.8491   19.8978 H   0  0  0  0  0  0
  -28.2975  -29.7877   19.8208 H   0  0  0  0  0  0
  -25.9074  -25.4786   19.6100 H   0  0  0  0  0  0
  -23.7352  -26.6590   18.7782 H   0  0  0  0  0  0
  -23.1136  -31.0973   19.4694 H   0  0  0  0  0  0
  -22.2601  -30.0779   19.8383 H   0  0  0  0  0  0
  -25.1113  -36.2784   25.1894 H   0  0  0  0  0  0
  -20.7455  -27.1056   23.7840 H   0  0  0  0  0  0
  -20.2115  -25.5068   22.8650 H   0  0  0  0  0  0
  -21.3086  -25.8456   21.5881 H   0  0  0  0  0  0
  -19.1843  -25.5340   20.6520 H   0  0  0  0  0  0
  -19.4605  -27.2486   20.5088 H   0  0  0  0  0  0
  -17.2114  -26.7285   21.3724 H   0  0  0  0  0  0
  -17.8733  -25.9076   22.7631 H   0  0  0  0  0  0
  -20.1049  -30.3486   24.2633 H   0  0  0  0  0  0
  -18.0027  -31.4261   24.5644 H   0  0  0  0  0  0
  -15.8610  -30.3786   23.8065 H   0  0  0  0  0  0
  -15.9873  -28.1606   22.6942 H   0  0  0  0  0  0
  -24.8440  -30.4606   26.3766 H   0  0  0  0  0  0
  -24.7983  -32.1740   26.8006 H   0  0  0  0  0  0
  -25.9678  -31.0950   27.5311 H   0  0  0  0  0  0
  -26.4560  -29.5230   24.9166 H   0  0  0  0  0  0
  -27.7959  -29.9649   25.8812 H   0  0  0  0  0  0
  -27.8475  -30.4634   24.2242 H   0  0  0  0  0  0
  -27.2620  -33.4964   26.4258 H   0  0  0  0  0  0
  -28.4398  -32.7077   25.3823 H   0  0  0  0  0  0
  -28.0805  -32.0542   26.9589 H   0  0  0  0  0  0
  -28.2538  -38.0623   24.7377 H   0  0  0  0  0  0
  -28.1467  -36.3123   24.6727 H   0  0  0  0  0  0
  -27.2616  -37.2084   25.9148 H   0  0  0  0  0  0
  -22.8203  -26.6413   22.8247 H   0  0  0  0  0  0
  -26.0151  -38.2825   24.1384 H   0  0  0  0  0  0
  -26.9369  -22.7107   23.8909 H   0  0  0  0  0  0
  -22.8523  -23.3559   22.6696 H   0  0  0  0  0  0
  -24.9205  -19.7230   21.5326 H   0  0  0  0  0  0
  -24.4328  -33.5337   20.8248 H   0  0  0  0  0  0
  -24.3596  -34.0275   22.2759 H   0  0  0  0  0  0
  -27.5368  -32.4910   22.4071 H   0  0  0  0  0  0
  -27.2806  -32.4015   21.1253 H   0  0  0  0  0  0
  -21.9474  -32.2614   21.4209 H   0  0  0  0  0  0
  -22.1194  -32.6117   23.0511 H   0  0  0  0  0  0
  -26.5522  -29.4294   22.9493 H   0  0  0  0  0  0
  -27.7646  -29.4743   21.9652 H   0  0  0  0  0  0
  -21.0675  -29.9743   22.3155 H   0  0  0  0  0  0
  -26.9571  -25.3864   17.3472 H   0  0  0  0  0  0
  -28.5695  -25.7505   16.7383 H   0  0  0  0  0  0
  -27.1604  -26.5046   16.0156 H   0  0  0  0  0  0
  -21.6660  -26.4362   18.7388 H   0  0  0  0  0  0
  -22.2131  -27.9871   18.0286 H   0  0  0  0  0  0
  -20.6371  -27.8518   18.7379 H   0  0  0  0  0  0
  -25.1381  -25.9739   24.1720 H   0  0  0  0  0  0
  -24.3493  -25.1568   25.4105 H   0  0  0  0  0  0
  -28.1163  -19.0916   23.2974 H   0  0  0  0  0  0
  -28.6060  -19.8123   21.8168 H   0  0  0  0  0  0
  -25.6331  -27.6981   17.3544 H   0  0  0  0  0  0
  -26.4284  -29.0764   17.4841 H   0  0  0  0  0  0
  -28.4328  -28.0654   17.5196 H   0  0  0  0  0  0
  -22.6652  -26.7966   25.8612 H   0  0  0  0  0  0
  -27.4561  -16.8787   21.5730 H   0  0  0  0  0  0
  -21.3840  -27.9738   20.7919 H   0  0  0  0  0  0
  1 25  1  0  0  0
  1 30  2  0  0  0
  1 92  1  0  0  0
  2  3  1  0  0  0
  2 25  1  0  0  0
  2 96  1  0  0  0
  2 97  1  0  0  0
  3  4  1  0  0  0
  3 98  1  0  0  0
  3 99  1  0  0  0
  4  5  1  0  0  0
  4100  1  0  0  0
  4101  1  0  0  0
  5  6  1  0  0  0
  5 26  1  0  0  0
  5102  1  0  0  0
  6 25  1  0  0  0
  6103  1  0  0  0
  6104  1  0  0  0
  7  8  2  0  0  0
  7 26  1  0  0  0
  7 29  1  0  0  0
  8  9  1  0  0  0
  8 22  1  0  0  0
  9 10  1  0  0  0
  9 27  2  0  0  0
 10 11  2  0  0  0
 10 15  1  0  0  0
 11 12  1  0  0  0
 11105  1  0  0  0
 12 13  2  0  0  0
 12106  1  0  0  0
 13 14  1  0  0  0
 13 31  1  0  0  0
 14 15  2  0  0  0
 14107  1  0  0  0
 15108  1  0  0  0
 16 17  2  0  0  0
 16 21  1  0  0  0
 16 31  1  0  0  0
 17 18  1  0  0  0
 17109  1  0  0  0
 18 19  2  0  0  0
 18110  1  0  0  0
 19 20  1  0  0  0
 19 24  1  0  0  0
 20 21  2  0  0  0
 20111  1  0  0  0
 21 23  1  0  0  0
 22 28  1  0  0  0
 22 32  2  0  0  0
 26 27  1  0  0  0
 28112  1  0  0  0
 28113  1  0  0  0
 29114  1  0  0  0
 29115  1  0  0  0
 33 34  1  0  0  0
 33 66  1  0  0  0
 33 70  2  0  0  0
 34 36  1  0  0  0
 34 59  1  0  0  0
 34116  1  0  0  0
 35 44  2  0  0  0
 35 45  1  0  0  0
 35 68  1  0  0  0
 36 56  1  0  0  0
 36117  1  0  0  0
 37 39  1  0  0  0
 37 47  1  0  0  0
 37 66  1  0  0  0
 37118  1  0  0  0
 38 43  2  0  0  0
 38 46  1  0  0  0
 38 47  1  0  0  0
 39 64  1  0  0  0
 39 67  2  0  0  0
 40 52  1  0  0  0
 40 53  2  0  0  0
 40 58  1  0  0  0
 41119  1  0  0  0
 41120  1  0  0  0
 41121  1  0  0  0
 41 48  1  0  0  0
 42 43  1  0  0  0
 42 66  1  0  0  0
 42122  1  0  0  0
 42123  1  0  0  0
 43 44  1  0  0  0
 44124  1  0  0  0
 45 46  2  0  0  0
 45125  1  0  0  0
 46126  1  0  0  0
 47127  1  0  0  0
 47128  1  0  0  0
 48 56  1  0  0  0
 48 65  1  0  0  0
 48129  1  0  0  0
 49 50  1  0  0  0
 49 53  1  0  0  0
 49 64  1  0  0  0
 49130  1  0  0  0
 50 51  1  0  0  0
 50131  1  0  0  0
 50132  1  0  0  0
 51 52  1  0  0  0
 51133  1  0  0  0
 51134  1  0  0  0
 52135  1  0  0  0
 52136  1  0  0  0
 53 54  1  0  0  0
 54 55  2  0  0  0
 54137  1  0  0  0
 55 57  1  0  0  0
 55138  1  0  0  0
 56 69  2  0  0  0
 57 58  2  0  0  0
 57139  1  0  0  0
 58140  1  0  0  0
 59 60  1  0  0  0
 59 61  1  0  0  0
 59 62  1  0  0  0
 60141  1  0  0  0
 60142  1  0  0  0
 60143  1  0  0  0
 61144  1  0  0  0
 61145  1  0  0  0
 61146  1  0  0  0
 62147  1  0  0  0
 62148  1  0  0  0
 62149  1  0  0  0
 63 65  1  0  0  0
 63150  1  0  0  0
 63151  1  0  0  0
 63152  1  0  0  0
 64153  1  0  0  0
 65154  1  0  0  0
 68 89  1  0  0  0
 71 74  2  0  0  0
 71 75  1  0  0  0
 71155  1  0  0  0
 72 74  1  0  0  0
 72 76  2  0  0  0
 72156  1  0  0  0
 73 75  2  0  0  0
 73 76  1  0  0  0
 73157  1  0  0  0
 74 86  1  0  0  0
 75 87  1  0  0  0
 76 95  1  0  0  0
 77 83  1  0  0  0
 77 90  1  0  0  0
 77 93  2  0  0  0
 78 91  1  0  0  0
 78 94  2  0  0  0
 78 83  1  0  0  0
 79 80  1  0  0  0
 79 81  1  0  0  0
 79158  1  0  0  0
 79159  1  0  0  0
 80 82  1  0  0  0
 80160  1  0  0  0
 80161  1  0  0  0
 81 83  1  0  0  0
 81162  1  0  0  0
 81163  1  0  0  0
 82 90  1  0  0  0
 82164  1  0  0  0
 82165  1  0  0  0
 83166  1  0  0  0
 84167  1  0  0  0
 84168  1  0  0  0
 84169  1  0  0  0
 84 89  1  0  0  0
 85 93  1  0  0  0
 85170  1  0  0  0
 85171  1  0  0  0
 85172  1  0  0  0
 86 91  1  0  0  0
 86173  1  0  0  0
 86174  1  0  0  0
 87 92  1  0  0  0
 87175  1  0  0  0
 87176  1  0  0  0
 88 89  1  0  0  0
 88 90  1  0  0  0
 88177  1  0  0  0
 88178  1  0  0  0
 89179  1  0  0  0
 91180  1  0  0  0
 92181  1  0  0  0
 93182  1  0  0  0
M  CHG  1  93   1
M  ISO  4   1 100  68 101  89 101  92 100
M  END
> <chiral flag>
0

> <version>
0

> <s_m_source_file>
/data/baiqing/PycharmProjects/Reinvent-master-3.2/result/LINK_invent/BTK/process_docking_weight1_custom_product_contain_oxygen_bond_distance_aromatic_linkinvent_7_9_3/rearranged_h_0045.sdf

> <i_m_source_file_index>
19

> <r_mmod_Potential_Energy-OPLS-2005>
29395.638671875

> <r_mmod_Stretch_Energy-OPLS-2005>
16222.2705078125

> <r_mmod_Bend_Energy-OPLS-2005>
2700.87866210938

> <r_mmod_Torsional_Energy-OPLS-2005>
679.049255371094

> <r_mmod_Improper_Torsional_Energy-OPLS-2005>
87.0945053100586

> <r_mmod_Van_der_Waal_Energy-OPLS-2005>
6567.8486328125

> <r_mmod_Electrostatic_Energy-OPLS-2005>
-284.576721191406

> <r_mmod_Solvation_Energy-OPLS-2005>
-376.941680908203

> <b_mmod_Minimization_Converged-OPLS-2005>
0

> <r_mmod_RMS_Derivative-OPLS-2005>
7.91857147216797

$$$$
19
                    3D
 Structure written by MMmdl.
164173  0  0  1  0            999 V2000
  -30.5152  -15.0675   20.4468 C   0  0  0  0  0  0
  -30.4248  -12.6796   19.5159 C   0  0  0  0  0  0
  -29.5187  -12.5607   18.2693 C   0  0  0  0  0  0
  -28.0625  -12.3070   18.6933 C   0  0  0  0  0  0
  -27.6162  -13.2590   19.8332 C   0  0  2  0  0  0
  -28.6494  -13.3541   20.9738 C   0  0  0  0  0  0
  -25.2395  -13.8227   20.5723 C   0  0  0  0  0  0
  -24.1733  -13.0427   20.9232 C   0  0  0  0  0  0
  -24.6372  -11.6912   20.8740 C   0  0  0  0  0  0
  -23.9079  -10.4270   21.0378 C   0  0  0  0  0  0
  -24.3631   -9.4199   21.9170 C   0  0  0  0  0  0
  -23.6305   -8.2235   22.0755 C   0  0  0  0  0  0
  -22.4295   -8.0262   21.3537 C   0  0  0  0  0  0
  -21.9925   -9.0228   20.4634 C   0  0  0  0  0  0
  -22.7246  -10.2108   20.3039 C   0  0  0  0  0  0
  -21.6854   -6.0723   22.5269 C   0  0  0  0  0  0
  -21.4009   -6.5631   23.8200 C   0  0  0  0  0  0
  -21.3664   -5.6787   24.9165 C   0  0  0  0  0  0
  -21.6052   -4.3051   24.7219 C   0  0  0  0  0  0
  -21.8825   -3.8141   23.4342 C   0  0  0  0  0  0
  -21.9203   -4.6948   22.3388 C   0  0  0  0  0  0
  -22.7758  -13.5180   21.1887 C   0  0  0  0  0  0
  -22.1661   -4.2142   21.0966 F   0  0  0  0  0  0
  -21.5642   -3.4536   25.7738 F   0  0  0  0  0  0
  -29.9069  -13.8035   20.3645 N   0  0  0  0  0  0
  -26.2813  -12.9466   20.3230 N   0  0  0  0  0  0
  -25.9313  -11.6586   20.5742 N   0  0  0  0  0  0
  -22.0429  -12.8155   22.0439 N   0  0  0  0  0  0
  -25.4066  -15.1957   20.4138 N   0  0  0  0  0  0
  -31.7187  -15.0727   20.1519 O   0  0  0  0  0  0
  -21.6640   -6.8868   21.4236 O   0  0  0  0  0  0
  -22.3429  -14.5477   20.6738 O   0  0  0  0  0  0
  -24.6522  -31.8350   23.1796 C   0  0  0  0  0  0
  -25.9261  -32.4637   23.8211 C   0  0  1  0  0  0
  -27.2103  -27.0393   20.1773 C   0  0  0  0  0  0
  -25.5995  -33.8444   24.2138 N   0  0  0  0  0  0
  -23.4588  -30.4523   21.5246 C   0  0  2  0  0  0
  -24.9079  -28.8603   20.1071 C   0  0  0  0  0  0
  -22.7601  -29.4507   22.4796 C   0  0  0  0  0  0
  -18.0310  -28.1405   22.8471 C   0  0  0  0  0  0
  -24.1485  -36.7204   23.2650 C   0  0  0  0  0  0
  -26.0200  -30.6765   21.3946 C   0  0  0  0  0  0
  -26.0846  -29.2792   20.7378 C   0  0  0  0  0  0
  -27.2286  -28.3845   20.7556 C   0  0  0  0  0  0
  -26.0109  -26.7439   19.4947 C   0  0  0  0  0  0
  -24.8897  -27.6100   19.4657 C   0  0  0  0  0  0
  -23.6909  -29.7772   20.1460 C   0  0  0  0  0  0
  -25.4119  -36.2985   24.0314 C   0  0  1  0  0  0
  -20.5933  -28.3738   23.1207 C   0  0  2  0  0  0
  -20.6797  -26.9436   22.5392 C   0  0  0  0  0  0
  -19.5766  -26.6374   21.5206 C   0  0  0  0  0  0
  -18.1942  -26.7940   22.1610 C   0  0  0  0  0  0
  -19.1572  -28.8879   23.2835 C   0  0  0  0  0  0
  -18.9495  -30.1471   23.8869 C   0  0  0  0  0  0
  -17.6496  -30.6596   24.0560 C   0  0  0  0  0  0
  -25.9089  -34.9370   23.5026 C   0  0  0  0  0  0
  -16.5380  -29.9086   23.6358 C   0  0  0  0  0  0
  -16.7296  -28.6507   23.0368 C   0  0  0  0  0  0
  -26.4561  -31.6558   25.0704 C   0  0  0  0  0  0
  -25.3710  -31.3723   26.1372 C   0  0  0  0  0  0
  -27.0505  -30.2963   24.6337 C   0  0  0  0  0  0
  -27.6068  -32.4367   25.7494 C   0  0  0  0  0  0
  -27.5563  -37.1747   24.8463 C   0  0  0  0  0  0
  -21.4282  -29.3052   22.3568 N   0  0  0  0  0  0
  -26.4256  -37.3721   23.9444 N   0  0  0  0  0  0
  -24.7308  -31.0118   22.0878 N   0  0  0  0  0  0
  -23.4215  -28.8073   23.2984 O   0  0  0  0  0  0
  -28.2560  -26.0276   20.3338 O   0  0  0  0  0  0
  -26.5672  -34.8885   22.4605 O   0  0  0  0  0  0
  -23.5622  -32.1271   23.6972 O   0  0  0  0  0  0
  -32.2168  -18.5090   22.6020 C   0  0  0  0  0  0
  -31.0478  -20.1404   21.2947 C   0  0  0  0  0  0
  -32.1419  -19.7994   22.0922 C   0  0  0  0  0  0
  -31.3057  -17.5166   22.2081 C   0  0  0  0  0  0
  -30.0281  -19.2298   20.9152 C   0  0  0  0  0  0
  -30.3167  -17.7191   21.1766 C   0  0  0  0  0  0
  -28.5303  -23.0678   20.6326 C   0  0  0  0  0  0
  -28.7043  -23.0690   17.7639 C   0  0  0  0  0  0
  -27.8969  -24.2319   18.3753 C   0  0  0  0  0  0
  -28.5681  -21.7367   18.5418 C   0  0  0  0  0  0
  -28.4202  -24.5309   19.7802 C   0  0  1  0  0  0
  -33.1530  -20.8521   22.5096 C   0  0  0  0  0  0
  -31.4156  -16.2450   23.0538 C   0  0  0  0  0  0
  -28.7429  -20.2106   20.5023 C   0  0  0  0  0  0
  -28.7406  -21.7707   20.0100 N   0  0  0  0  0  0
  -29.8074  -16.3249   20.6718 N   0  0  0  0  0  0
  -28.4467  -23.1334   21.8619 O   0  0  0  0  0  0
  -31.4584  -12.8386   19.2033 H   0  0  0  0  0  0
  -30.4295  -11.7432   20.0770 H   0  0  0  0  0  0
  -29.8646  -11.7602   17.6140 H   0  0  0  0  0  0
  -29.5784  -13.4821   17.6870 H   0  0  0  0  0  0
  -27.9999  -11.2729   19.0369 H   0  0  0  0  0  0
  -27.3931  -12.3898   17.8367 H   0  0  0  0  0  0
  -27.5589  -14.2464   19.3749 H   0  0  0  0  0  0
  -28.7688  -12.3982   21.4861 H   0  0  0  0  0  0
  -28.3222  -14.0723   21.7280 H   0  0  0  0  0  0
  -25.2768   -9.5682   22.4757 H   0  0  0  0  0  0
  -24.0013   -7.4632   22.7489 H   0  0  0  0  0  0
  -21.0871   -8.8732   19.8940 H   0  0  0  0  0  0
  -22.3694  -10.9642   19.6162 H   0  0  0  0  0  0
  -21.1978   -7.6141   23.9700 H   0  0  0  0  0  0
  -21.1487   -6.0511   25.9067 H   0  0  0  0  0  0
  -22.0606   -2.7600   23.2836 H   0  0  0  0  0  0
  -22.4070  -11.9830   22.4819 H   0  0  0  0  0  0
  -21.1029  -13.1141   22.2646 H   0  0  0  0  0  0
  -24.6397  -15.8505   20.5269 H   0  0  0  0  0  0
  -26.2442  -15.6309   20.0505 H   0  0  0  0  0  0
  -26.7317  -32.5207   23.0921 H   0  0  0  0  0  0
  -25.0185  -33.9553   25.0325 H   0  0  0  0  0  0
  -22.7674  -31.2819   21.3631 H   0  0  0  0  0  0
  -23.3785  -35.9495   23.3246 H   0  0  0  0  0  0
  -24.3578  -36.8909   22.2083 H   0  0  0  0  0  0
  -23.7202  -37.6348   23.6745 H   0  0  0  0  0  0
  -26.1932  -31.4262   20.6217 H   0  0  0  0  0  0
  -26.8852  -30.7227   22.0450 H   0  0  0  0  0  0
  -28.1158  -28.6981   21.2858 H   0  0  0  0  0  0
  -25.8885  -25.7853   19.0223 H   0  0  0  0  0  0
  -23.9913  -27.2858   18.9593 H   0  0  0  0  0  0
  -23.8431  -30.5519   19.3944 H   0  0  0  0  0  0
  -22.8032  -29.2308   19.8233 H   0  0  0  0  0  0
  -25.1307  -36.1768   25.0802 H   0  0  0  0  0  0
  -21.0020  -28.3337   24.1328 H   0  0  0  0  0  0
  -20.5697  -26.2347   23.3620 H   0  0  0  0  0  0
  -21.6660  -26.7422   22.1190 H   0  0  0  0  0  0
  -19.6938  -25.6270   21.1267 H   0  0  0  0  0  0
  -19.6722  -27.3153   20.6722 H   0  0  0  0  0  0
  -17.4219  -26.6701   21.4002 H   0  0  0  0  0  0
  -18.0330  -26.0068   22.8993 H   0  0  0  0  0  0
  -19.7977  -30.7292   24.2224 H   0  0  0  0  0  0
  -17.5053  -31.6280   24.5163 H   0  0  0  0  0  0
  -15.5382  -30.2989   23.7696 H   0  0  0  0  0  0
  -15.8700  -28.0827   22.7111 H   0  0  0  0  0  0
  -24.5915  -30.7069   25.7643 H   0  0  0  0  0  0
  -24.8891  -32.2900   26.4756 H   0  0  0  0  0  0
  -25.7971  -30.8903   27.0180 H   0  0  0  0  0  0
  -26.3162  -29.6625   24.1356 H   0  0  0  0  0  0
  -27.4147  -29.7329   25.4936 H   0  0  0  0  0  0
  -27.9033  -30.4250   23.9674 H   0  0  0  0  0  0
  -27.2653  -33.3731   26.1920 H   0  0  0  0  0  0
  -28.3937  -32.6828   25.0357 H   0  0  0  0  0  0
  -28.0652  -31.8598   26.5532 H   0  0  0  0  0  0
  -28.2500  -38.0118   24.7602 H   0  0  0  0  0  0
  -28.1139  -36.2657   24.6171 H   0  0  0  0  0  0
  -27.2297  -37.1228   25.8861 H   0  0  0  0  0  0
  -20.9502  -29.8776   21.6763 H   0  0  0  0  0  0
  -26.0098  -38.2757   24.1525 H   0  0  0  0  0  0
  -32.9793  -18.2756   23.3349 H   0  0  0  0  0  0
  -30.9585  -21.1909   21.0552 H   0  0  0  0  0  0
  -29.7577  -23.3457   17.6900 H   0  0  0  0  0  0
  -28.3747  -22.9071   16.7382 H   0  0  0  0  0  0
  -26.8416  -23.9601   18.4072 H   0  0  0  0  0  0
  -27.9924  -25.1182   17.7477 H   0  0  0  0  0  0
  -29.2697  -21.0177   18.1148 H   0  0  0  0  0  0
  -27.5689  -21.3402   18.3501 H   0  0  0  0  0  0
  -29.4892  -24.6431   19.5941 H   0  0  0  0  0  0
  -33.7388  -20.5227   23.3696 H   0  0  0  0  0  0
  -32.6556  -21.7809   22.7879 H   0  0  0  0  0  0
  -33.8430  -21.0643   21.6940 H   0  0  0  0  0  0
  -31.6564  -16.4954   24.0871 H   0  0  0  0  0  0
  -32.2149  -15.5957   22.6954 H   0  0  0  0  0  0
  -30.4805  -15.6858   23.1026 H   0  0  0  0  0  0
  -28.1310  -20.2243   21.4057 H   0  0  0  0  0  0
  -28.1399  -19.6289   19.8034 H   0  0  0  0  0  0
  -28.8029  -16.2416   20.6152 H   0  0  0  0  0  0
  1 25  1  0  0  0
  1 30  2  0  0  0
  1 86  1  0  0  0
  2  3  1  0  0  0
  2 25  1  0  0  0
  2 88  1  0  0  0
  2 89  1  0  0  0
  3  4  1  0  0  0
  3 90  1  0  0  0
  3 91  1  0  0  0
  4  5  1  0  0  0
  4 92  1  0  0  0
  4 93  1  0  0  0
  5  6  1  0  0  0
  5 26  1  0  0  0
  5 94  1  0  0  0
  6 25  1  0  0  0
  6 95  1  0  0  0
  6 96  1  0  0  0
  7  8  2  0  0  0
  7 26  1  0  0  0
  7 29  1  0  0  0
  8  9  1  0  0  0
  8 22  1  0  0  0
  9 10  1  0  0  0
  9 27  2  0  0  0
 10 11  2  0  0  0
 10 15  1  0  0  0
 11 12  1  0  0  0
 11 97  1  0  0  0
 12 13  2  0  0  0
 12 98  1  0  0  0
 13 14  1  0  0  0
 13 31  1  0  0  0
 14 15  2  0  0  0
 14 99  1  0  0  0
 15100  1  0  0  0
 16 17  2  0  0  0
 16 21  1  0  0  0
 16 31  1  0  0  0
 17 18  1  0  0  0
 17101  1  0  0  0
 18 19  2  0  0  0
 18102  1  0  0  0
 19 20  1  0  0  0
 19 24  1  0  0  0
 20 21  2  0  0  0
 20103  1  0  0  0
 21 23  1  0  0  0
 22 28  1  0  0  0
 22 32  2  0  0  0
 26 27  1  0  0  0
 28104  1  0  0  0
 28105  1  0  0  0
 29106  1  0  0  0
 29107  1  0  0  0
 33 34  1  0  0  0
 33 66  1  0  0  0
 33 70  2  0  0  0
 34 36  1  0  0  0
 34 59  1  0  0  0
 34108  1  0  0  0
 35 44  2  0  0  0
 35 45  1  0  0  0
 35 68  1  0  0  0
 36 56  1  0  0  0
 36109  1  0  0  0
 37 39  1  0  0  0
 37 47  1  0  0  0
 37 66  1  0  0  0
 37110  1  0  0  0
 38 43  2  0  0  0
 38 46  1  0  0  0
 38 47  1  0  0  0
 39 64  1  0  0  0
 39 67  2  0  0  0
 40 52  1  0  0  0
 40 53  2  0  0  0
 40 58  1  0  0  0
 41111  1  0  0  0
 41112  1  0  0  0
 41113  1  0  0  0
 41 48  1  0  0  0
 42 43  1  0  0  0
 42 66  1  0  0  0
 42114  1  0  0  0
 42115  1  0  0  0
 43 44  1  0  0  0
 44116  1  0  0  0
 45 46  2  0  0  0
 45117  1  0  0  0
 46118  1  0  0  0
 47119  1  0  0  0
 47120  1  0  0  0
 48 56  1  0  0  0
 48 65  1  0  0  0
 48121  1  0  0  0
 49 50  1  0  0  0
 49 53  1  0  0  0
 49 64  1  0  0  0
 49122  1  0  0  0
 50 51  1  0  0  0
 50123  1  0  0  0
 50124  1  0  0  0
 51 52  1  0  0  0
 51125  1  0  0  0
 51126  1  0  0  0
 52127  1  0  0  0
 52128  1  0  0  0
 53 54  1  0  0  0
 54 55  2  0  0  0
 54129  1  0  0  0
 55 57  1  0  0  0
 55130  1  0  0  0
 56 69  2  0  0  0
 57 58  2  0  0  0
 57131  1  0  0  0
 58132  1  0  0  0
 59 60  1  0  0  0
 59 61  1  0  0  0
 59 62  1  0  0  0
 60133  1  0  0  0
 60134  1  0  0  0
 60135  1  0  0  0
 61136  1  0  0  0
 61137  1  0  0  0
 61138  1  0  0  0
 62139  1  0  0  0
 62140  1  0  0  0
 62141  1  0  0  0
 63 65  1  0  0  0
 63142  1  0  0  0
 63143  1  0  0  0
 63144  1  0  0  0
 64145  1  0  0  0
 65146  1  0  0  0
 68 81  1  0  0  0
 71 73  2  0  0  0
 71 74  1  0  0  0
 71147  1  0  0  0
 72 73  1  0  0  0
 72 75  2  0  0  0
 72148  1  0  0  0
 73 82  1  0  0  0
 74 76  2  0  0  0
 74 83  1  0  0  0
 75 76  1  0  0  0
 75 84  1  0  0  0
 76 86  1  0  0  0
 77 81  1  0  0  0
 77 85  1  0  0  0
 77 87  2  0  0  0
 78 79  1  0  0  0
 78 80  1  0  0  0
 78149  1  0  0  0
 78150  1  0  0  0
 79 81  1  0  0  0
 79151  1  0  0  0
 79152  1  0  0  0
 80 85  1  0  0  0
 80153  1  0  0  0
 80154  1  0  0  0
 81155  1  0  0  0
 82156  1  0  0  0
 82157  1  0  0  0
 82158  1  0  0  0
 83159  1  0  0  0
 83160  1  0  0  0
 83161  1  0  0  0
 84 85  1  0  0  0
 84162  1  0  0  0
 84163  1  0  0  0
 86164  1  0  0  0
M  ISO  4   1 100  68 101  81 101  86 100
M  END
> <chiral flag>
0

> <version>
0

> <s_m_source_file>
/data/baiqing/PycharmProjects/Reinvent-master-3.2/result/LINK_invent/BTK/process_docking_weight1_custom_product_contain_oxygen_bond_distance_aromatic_linkinvent_7_9_3/rearranged_h_0045.sdf

> <i_m_source_file_index>
20

> <r_mmod_Potential_Energy-OPLS-2005>
1012.36254882812

> <r_mmod_Stretch_Energy-OPLS-2005>
411.267578125

> <r_mmod_Bend_Energy-OPLS-2005>
445.288513183594

> <r_mmod_Torsional_Energy-OPLS-2005>
294.006439208984

> <r_mmod_Improper_Torsional_Energy-OPLS-2005>
6.91437149047852

> <r_mmod_Van_der_Waal_Energy-OPLS-2005>
154.613174438477

> <r_mmod_Electrostatic_Energy-OPLS-2005>
-347.516845703125

> <r_mmod_Solvation_Energy-OPLS-2005>
-238.956771850586

> <b_mmod_Minimization_Converged-OPLS-2005>
0

> <r_mmod_RMS_Derivative-OPLS-2005>
3.09028339385986

$$$$
20
                    3D
 Structure written by MMmdl.
162170  0  0  1  0            999 V2000
  -30.7845  -14.4300   20.4364 C   0  0  0  0  0  0
  -30.4127  -12.2312   19.4469 C   0  0  0  0  0  0
  -29.5226  -12.4641   18.2089 C   0  0  0  0  0  0
  -28.0334  -12.3575   18.6042 C   0  0  0  0  0  0
  -27.6670  -13.2085   19.8575 C   0  0  2  0  0  0
  -28.7188  -13.0585   20.9876 C   0  0  0  0  0  0
  -25.2581  -13.8070   20.5563 C   0  0  0  0  0  0
  -24.1887  -13.0331   20.9059 C   0  0  0  0  0  0
  -24.6446  -11.6820   20.8569 C   0  0  0  0  0  0
  -23.9140  -10.4231   21.0254 C   0  0  0  0  0  0
  -24.3735   -9.4255   21.9141 C   0  0  0  0  0  0
  -23.6389   -8.2322   22.0813 C   0  0  0  0  0  0
  -22.4386   -8.0340   21.3591 C   0  0  0  0  0  0
  -21.9957   -9.0255   20.4703 C   0  0  0  0  0  0
  -22.7269  -10.2105   20.2964 C   0  0  0  0  0  0
  -21.6872   -6.0848   22.5277 C   0  0  0  0  0  0
  -21.4080   -6.5729   23.8222 C   0  0  0  0  0  0
  -21.3602   -5.6851   24.9142 C   0  0  0  0  0  0
  -21.5959   -4.3105   24.7186 C   0  0  0  0  0  0
  -21.8816   -3.8256   23.4300 C   0  0  0  0  0  0
  -21.9207   -4.7086   22.3376 C   0  0  0  0  0  0
  -22.7899  -13.5144   21.1711 C   0  0  0  0  0  0
  -22.1688   -4.2271   21.0959 F   0  0  0  0  0  0
  -21.5515   -3.4571   25.7693 F   0  0  0  0  0  0
  -30.0604  -13.2776   20.4205 N   0  0  0  0  0  0
  -26.3084  -12.9301   20.3230 N   0  0  0  0  0  0
  -25.9408  -11.6447   20.5689 N   0  0  0  0  0  0
  -22.0524  -12.8237   22.0321 N   0  0  0  0  0  0
  -25.4087  -15.1796   20.4140 N   0  0  0  0  0  0
  -31.9472  -14.5147   20.0494 O   0  0  0  0  0  0
  -21.6688   -6.9022   21.4281 O   0  0  0  0  0  0
  -22.3609  -14.5398   20.6533 O   0  0  0  0  0  0
  -24.6216  -31.8673   23.2167 C   0  0  0  0  0  0
  -25.9094  -32.4872   23.8433 C   0  0  1  0  0  0
  -27.1970  -27.3809   20.0959 C   0  0  0  0  0  0
  -25.5946  -33.8665   24.2367 N   0  0  0  0  0  0
  -23.4051  -30.5009   21.5636 C   0  0  2  0  0  0
  -24.8513  -28.9918   20.1031 C   0  0  0  0  0  0
  -22.7361  -29.4687   22.5008 C   0  0  0  0  0  0
  -18.0120  -28.1179   22.8360 C   0  0  0  0  0  0
  -24.1524  -36.7302   23.2634 C   0  0  0  0  0  0
  -25.9452  -30.8099   21.3916 C   0  0  0  0  0  0
  -26.0182  -29.4570   20.7243 C   0  0  0  0  0  0
  -27.1985  -28.6626   20.7125 C   0  0  0  0  0  0
  -26.0145  -26.9957   19.4020 C   0  0  0  0  0  0
  -24.8487  -27.7631   19.4404 C   0  0  0  0  0  0
  -23.6237  -29.8737   20.1658 C   0  0  0  0  0  0
  -25.4142  -36.3092   24.0330 C   0  0  1  0  0  0
  -20.5800  -28.3638   23.1211 C   0  0  2  0  0  0
  -20.6829  -26.9386   22.5191 C   0  0  0  0  0  0
  -19.5664  -26.6117   21.5184 C   0  0  0  0  0  0
  -18.1763  -26.7701   22.1477 C   0  0  0  0  0  0
  -19.1354  -28.8688   23.2821 C   0  0  0  0  0  0
  -18.9212  -30.1217   23.9021 C   0  0  0  0  0  0
  -17.6238  -30.6376   24.0679 C   0  0  0  0  0  0
  -25.9024  -34.9498   23.5151 C   0  0  0  0  0  0
  -16.5225  -29.8865   23.6277 C   0  0  0  0  0  0
  -16.7125  -28.6301   23.0246 C   0  0  0  0  0  0
  -26.4515  -31.6626   25.0778 C   0  0  0  0  0  0
  -25.3716  -31.3746   26.1489 C   0  0  0  0  0  0
  -27.0339  -30.3054   24.6175 C   0  0  0  0  0  0
  -27.6089  -32.4350   25.7520 C   0  0  0  0  0  0
  -27.5587  -37.1818   24.8463 C   0  0  0  0  0  0
  -21.4087  -29.3204   22.3823 N   0  0  0  0  0  0
  -26.4290  -37.3791   23.9420 N   0  0  0  0  0  0
  -24.6726  -31.0711   22.1127 N   0  0  0  0  0  0
  -23.4104  -28.8153   23.2992 O   0  0  0  0  0  0
  -28.2835  -26.5050   20.1886 O   0  0  0  0  0  0
  -26.5576  -34.8907   22.4706 O   0  0  0  0  0  0
  -23.5391  -32.1437   23.7541 O   0  0  0  0  0  0
  -29.3460  -20.5092   20.1270 C   0  0  0  0  0  0
  -30.1100  -19.3310   20.0409 C   0  0  0  0  0  0
  -28.0911  -20.4850   20.7540 C   0  0  0  0  0  0
  -29.6825  -18.1175   20.6175 C   0  0  0  0  0  0
  -27.6575  -19.2876   21.4230 C   0  0  0  0  0  0
  -28.4684  -18.1029   21.3710 C   0  0  0  0  0  0
  -27.1908  -21.6530   20.5948 C   0  0  0  0  0  0
  -26.3423  -19.2784   22.2268 C   0  0  0  0  0  0
  -28.0041  -16.8274   22.0835 C   0  0  0  0  0  0
  -30.5913  -16.9045   20.3225 C   0  0  0  0  0  0
  -28.5437  -23.8944   20.7310 C   0  0  0  0  0  0
  -27.9719  -25.0998   19.9076 C   0  0  0  0  0  0
  -26.0197  -21.4130   20.0187 N   0  0  0  0  0  0
  -30.0934  -15.5526   20.6497 N   0  0  0  0  0  0
  -27.4069  -22.9424   20.9210 N   0  3  0  0  0  0
  -31.4715  -12.2279   19.1786 H   0  0  0  0  0  0
  -30.2401  -11.2408   19.8727 H   0  0  0  0  0  0
  -29.7684  -11.7397   17.4294 H   0  0  0  0  0  0
  -29.7118  -13.4543   17.7910 H   0  0  0  0  0  0
  -27.8315  -11.3063   18.8016 H   0  0  0  0  0  0
  -27.4091  -12.6306   17.7575 H   0  0  0  0  0  0
  -27.6822  -14.2478   19.5343 H   0  0  0  0  0  0
  -28.6732  -12.0600   21.4201 H   0  0  0  0  0  0
  -28.5113  -13.7445   21.8107 H   0  0  0  0  0  0
  -25.2883   -9.5724   22.4779 H   0  0  0  0  0  0
  -23.9961   -7.4770   22.7679 H   0  0  0  0  0  0
  -21.0775   -8.8850   19.9188 H   0  0  0  0  0  0
  -22.3711  -10.9687   19.6111 H   0  0  0  0  0  0
  -21.2232   -7.6273   23.9718 H   0  0  0  0  0  0
  -21.1330   -6.0630   25.9015 H   0  0  0  0  0  0
  -22.0683   -2.7755   23.2725 H   0  0  0  0  0  0
  -22.4039  -11.9890   22.4747 H   0  0  0  0  0  0
  -21.1229  -13.1439   22.2556 H   0  0  0  0  0  0
  -24.6193  -15.8048   20.5406 H   0  0  0  0  0  0
  -26.2756  -15.6505   20.1878 H   0  0  0  0  0  0
  -26.7212  -32.5601   23.1193 H   0  0  0  0  0  0
  -25.0187  -33.9822   25.0580 H   0  0  0  0  0  0
  -22.6960  -31.3228   21.4453 H   0  0  0  0  0  0
  -23.3755  -35.9657   23.3293 H   0  0  0  0  0  0
  -24.3602  -36.8894   22.2018 H   0  0  0  0  0  0
  -23.7256  -37.6517   23.6647 H   0  0  0  0  0  0
  -26.0816  -31.5789   20.6341 H   0  0  0  0  0  0
  -26.8268  -30.8499   22.0184 H   0  0  0  0  0  0
  -28.0900  -29.0173   21.2153 H   0  0  0  0  0  0
  -25.9480  -26.0936   18.8140 H   0  0  0  0  0  0
  -23.9658  -27.4159   18.9164 H   0  0  0  0  0  0
  -23.7726  -30.6741   19.4393 H   0  0  0  0  0  0
  -22.7405  -29.3175   19.8431 H   0  0  0  0  0  0
  -25.1295  -36.1936   25.0802 H   0  0  0  0  0  0
  -20.9903  -28.3286   24.1327 H   0  0  0  0  0  0
  -20.6207  -26.2111   23.3292 H   0  0  0  0  0  0
  -21.6627  -26.7649   22.0672 H   0  0  0  0  0  0
  -19.6698  -27.2733   20.6592 H   0  0  0  0  0  0
  -19.6897  -25.5927   21.1499 H   0  0  0  0  0  0
  -17.4085  -26.6655   21.3866 H   0  0  0  0  0  0
  -17.9774  -25.9811   22.8719 H   0  0  0  0  0  0
  -19.7636  -30.6852   24.2642 H   0  0  0  0  0  0
  -17.4722  -31.5996   24.5540 H   0  0  0  0  0  0
  -15.5226  -30.2743   23.7578 H   0  0  0  0  0  0
  -15.8395  -28.0727   22.7022 H   0  0  0  0  0  0
  -24.5911  -30.7104   25.7768 H   0  0  0  0  0  0
  -24.8902  -32.2906   26.4909 H   0  0  0  0  0  0
  -25.7979  -30.8877   27.0269 H   0  0  0  0  0  0
  -26.2860  -29.6841   24.1233 H   0  0  0  0  0  0
  -27.4071  -29.7281   25.4637 H   0  0  0  0  0  0
  -27.8757  -30.4364   23.9378 H   0  0  0  0  0  0
  -27.2739  -33.3661   26.2117 H   0  0  0  0  0  0
  -28.3881  -32.6903   25.0322 H   0  0  0  0  0  0
  -28.0847  -31.8499   26.5378 H   0  0  0  0  0  0
  -28.2597  -38.0121   24.7525 H   0  0  0  0  0  0
  -28.1098  -36.2643   24.6314 H   0  0  0  0  0  0
  -27.2331  -37.1501   25.8875 H   0  0  0  0  0  0
  -20.9239  -29.9358   21.7430 H   0  0  0  0  0  0
  -26.0167  -38.2869   24.1448 H   0  0  0  0  0  0
  -29.6955  -21.4045   19.6300 H   0  0  0  0  0  0
  -31.0237  -19.3532   19.4666 H   0  0  0  0  0  0
  -25.5013  -19.7580   21.7318 H   0  0  0  0  0  0
  -26.4724  -19.7836   23.1840 H   0  0  0  0  0  0
  -25.9251  -18.2994   22.4298 H   0  0  0  0  0  0
  -28.8256  -16.2990   22.5536 H   0  0  0  0  0  0
  -27.5253  -16.1555   21.3710 H   0  0  0  0  0  0
  -27.3266  -16.9682   22.9086 H   0  0  0  0  0  0
  -30.7826  -16.9323   19.2410 H   0  0  0  0  0  0
  -31.5699  -17.0688   20.7909 H   0  0  0  0  0  0
  -28.9061  -24.2133   21.7076 H   0  0  0  0  0  0
  -29.3895  -23.4405   20.2155 H   0  0  0  0  0  0
  -26.9199  -24.9648   20.1163 H   0  0  0  0  0  0
  -28.1054  -24.9026   18.8426 H   0  0  0  0  0  0
  -25.9009  -20.4974   19.6118 H   0  0  0  0  0  0
  -25.3830  -22.1339   19.7373 H   0  0  0  0  0  0
  -29.1523  -15.4656   21.0031 H   0  0  0  0  0  0
  -26.5980  -23.4246   21.2980 H   0  0  0  0  0  0
  1 25  1  0  0  0
  1 30  2  0  0  0
  1 84  1  0  0  0
  2  3  1  0  0  0
  2 25  1  0  0  0
  2 86  1  0  0  0
  2 87  1  0  0  0
  3  4  1  0  0  0
  3 88  1  0  0  0
  3 89  1  0  0  0
  4  5  1  0  0  0
  4 90  1  0  0  0
  4 91  1  0  0  0
  5  6  1  0  0  0
  5 26  1  0  0  0
  5 92  1  0  0  0
  6 25  1  0  0  0
  6 93  1  0  0  0
  6 94  1  0  0  0
  7  8  2  0  0  0
  7 26  1  0  0  0
  7 29  1  0  0  0
  8  9  1  0  0  0
  8 22  1  0  0  0
  9 10  1  0  0  0
  9 27  2  0  0  0
 10 11  2  0  0  0
 10 15  1  0  0  0
 11 12  1  0  0  0
 11 95  1  0  0  0
 12 13  2  0  0  0
 12 96  1  0  0  0
 13 14  1  0  0  0
 13 31  1  0  0  0
 14 15  2  0  0  0
 14 97  1  0  0  0
 15 98  1  0  0  0
 16 17  2  0  0  0
 16 21  1  0  0  0
 16 31  1  0  0  0
 17 18  1  0  0  0
 17 99  1  0  0  0
 18 19  2  0  0  0
 18100  1  0  0  0
 19 20  1  0  0  0
 19 24  1  0  0  0
 20 21  2  0  0  0
 20101  1  0  0  0
 21 23  1  0  0  0
 22 28  1  0  0  0
 22 32  2  0  0  0
 26 27  1  0  0  0
 28102  1  0  0  0
 28103  1  0  0  0
 29104  1  0  0  0
 29105  1  0  0  0
 33 34  1  0  0  0
 33 66  1  0  0  0
 33 70  2  0  0  0
 34 36  1  0  0  0
 34 59  1  0  0  0
 34106  1  0  0  0
 35 44  2  0  0  0
 35 45  1  0  0  0
 35 68  1  0  0  0
 36 56  1  0  0  0
 36107  1  0  0  0
 37 39  1  0  0  0
 37 47  1  0  0  0
 37 66  1  0  0  0
 37108  1  0  0  0
 38 43  2  0  0  0
 38 46  1  0  0  0
 38 47  1  0  0  0
 39 64  1  0  0  0
 39 67  2  0  0  0
 40 52  1  0  0  0
 40 53  2  0  0  0
 40 58  1  0  0  0
 41109  1  0  0  0
 41110  1  0  0  0
 41111  1  0  0  0
 41 48  1  0  0  0
 42 43  1  0  0  0
 42 66  1  0  0  0
 42112  1  0  0  0
 42113  1  0  0  0
 43 44  1  0  0  0
 44114  1  0  0  0
 45 46  2  0  0  0
 45115  1  0  0  0
 46116  1  0  0  0
 47117  1  0  0  0
 47118  1  0  0  0
 48 56  1  0  0  0
 48 65  1  0  0  0
 48119  1  0  0  0
 49 50  1  0  0  0
 49 53  1  0  0  0
 49 64  1  0  0  0
 49120  1  0  0  0
 50 51  1  0  0  0
 50121  1  0  0  0
 50122  1  0  0  0
 51 52  1  0  0  0
 51123  1  0  0  0
 51124  1  0  0  0
 52125  1  0  0  0
 52126  1  0  0  0
 53 54  1  0  0  0
 54 55  2  0  0  0
 54127  1  0  0  0
 55 57  1  0  0  0
 55128  1  0  0  0
 56 69  2  0  0  0
 57 58  2  0  0  0
 57129  1  0  0  0
 58130  1  0  0  0
 59 60  1  0  0  0
 59 61  1  0  0  0
 59 62  1  0  0  0
 60131  1  0  0  0
 60132  1  0  0  0
 60133  1  0  0  0
 61134  1  0  0  0
 61135  1  0  0  0
 61136  1  0  0  0
 62137  1  0  0  0
 62138  1  0  0  0
 62139  1  0  0  0
 63 65  1  0  0  0
 63140  1  0  0  0
 63141  1  0  0  0
 63142  1  0  0  0
 64143  1  0  0  0
 65144  1  0  0  0
 68 82  1  0  0  0
 71 72  2  0  0  0
 71 73  1  0  0  0
 71145  1  0  0  0
 72 74  1  0  0  0
 72146  1  0  0  0
 73 75  2  0  0  0
 73 77  1  0  0  0
 74 76  2  0  0  0
 74 80  1  0  0  0
 75 76  1  0  0  0
 75 78  1  0  0  0
 76 79  1  0  0  0
 77 83  1  0  0  0
 77 85  2  0  0  0
 78147  1  0  0  0
 78148  1  0  0  0
 78149  1  0  0  0
 79150  1  0  0  0
 79151  1  0  0  0
 79152  1  0  0  0
 80 84  1  0  0  0
 80153  1  0  0  0
 80154  1  0  0  0
 81 82  1  0  0  0
 81 85  1  0  0  0
 81155  1  0  0  0
 81156  1  0  0  0
 82157  1  0  0  0
 82158  1  0  0  0
 83159  1  0  0  0
 83160  1  0  0  0
 84161  1  0  0  0
 85162  1  0  0  0
M  CHG  1  85   1
M  ISO  4   1 100  68 101  82 101  84 100
M  END
> <chiral flag>
0

> <version>
0

> <s_m_source_file>
/data/baiqing/PycharmProjects/Reinvent-master-3.2/result/LINK_invent/BTK/process_docking_weight1_custom_product_contain_oxygen_bond_distance_aromatic_linkinvent_7_9_3/rearranged_h_0045.sdf

> <i_m_source_file_index>
21

> <r_mmod_Potential_Energy-OPLS-2005>
-88.2111587524414

> <r_mmod_Stretch_Energy-OPLS-2005>
56.6814079284668

> <r_mmod_Bend_Energy-OPLS-2005>
155.735214233398

> <r_mmod_Torsional_Energy-OPLS-2005>
263.972198486328

> <r_mmod_Improper_Torsional_Energy-OPLS-2005>
7.53253698348999

> <r_mmod_Van_der_Waal_Energy-OPLS-2005>
206.70915222168

> <r_mmod_Electrostatic_Energy-OPLS-2005>
-406.151306152344

> <r_mmod_Solvation_Energy-OPLS-2005>
-410.742553710938

> <b_mmod_Minimization_Converged-OPLS-2005>
0

> <r_mmod_RMS_Derivative-OPLS-2005>
13.8437919616699

$$$$
21
                    3D
 Structure written by MMmdl.
158167  0  0  1  0            999 V2000
  -30.5796  -14.6643   20.5009 C   0  0  0  0  0  0
  -30.4488  -12.4111   19.4560 C   0  0  0  0  0  0
  -29.5159  -12.4992   18.2254 C   0  0  0  0  0  0
  -28.0320  -12.3546   18.6277 C   0  0  0  0  0  0
  -27.6553  -13.2146   19.8646 C   0  0  2  0  0  0
  -28.6971  -13.0468   20.9927 C   0  0  0  0  0  0
  -25.2572  -13.8172   20.5610 C   0  0  0  0  0  0
  -24.1833  -13.0453   20.9132 C   0  0  0  0  0  0
  -24.6383  -11.6916   20.8700 C   0  0  0  0  0  0
  -23.9035  -10.4306   21.0381 C   0  0  0  0  0  0
  -24.3608   -9.4244   21.9167 C   0  0  0  0  0  0
  -23.6305   -8.2273   22.0752 C   0  0  0  0  0  0
  -22.4292   -8.0296   21.3541 C   0  0  0  0  0  0
  -21.9898   -9.0255   20.4638 C   0  0  0  0  0  0
  -22.7202  -10.2140   20.3036 C   0  0  0  0  0  0
  -21.6876   -6.0750   22.5268 C   0  0  0  0  0  0
  -21.4029   -6.5656   23.8205 C   0  0  0  0  0  0
  -21.3646   -5.6802   24.9153 C   0  0  0  0  0  0
  -21.6037   -4.3065   24.7202 C   0  0  0  0  0  0
  -21.8837   -3.8162   23.4326 C   0  0  0  0  0  0
  -21.9214   -4.6979   22.3383 C   0  0  0  0  0  0
  -22.7861  -13.5249   21.1797 C   0  0  0  0  0  0
  -22.1677   -4.2171   21.0959 F   0  0  0  0  0  0
  -21.5609   -3.4534   25.7708 F   0  0  0  0  0  0
  -30.0070  -13.4211   20.4399 N   0  0  0  0  0  0
  -26.2991  -12.9329   20.3281 N   0  0  0  0  0  0
  -25.9321  -11.6491   20.5744 N   0  0  0  0  0  0
  -22.0514  -12.8252   22.0362 N   0  0  0  0  0  0
  -25.4314  -15.1882   20.3991 N   0  0  0  0  0  0
  -31.7193  -14.8665   20.0680 O   0  0  0  0  0  0
  -21.6676   -6.8885   21.4229 O   0  0  0  0  0  0
  -22.3559  -14.5572   20.6667 O   0  0  0  0  0  0
  -24.6230  -31.8595   23.1967 C   0  0  0  0  0  0
  -25.9068  -32.4792   23.8302 C   0  0  1  0  0  0
  -27.2522  -27.3438   20.1145 C   0  0  0  0  0  0
  -25.5883  -33.8587   24.2236 N   0  0  0  0  0  0
  -23.4183  -30.4797   21.5359 C   0  0  2  0  0  0
  -24.8718  -28.9180   20.1273 C   0  0  0  0  0  0
  -22.7425  -29.4675   22.4921 C   0  0  0  0  0  0
  -18.0290  -28.1435   22.8553 C   0  0  0  0  0  0
  -24.1462  -36.7256   23.2646 C   0  0  0  0  0  0
  -25.9550  -30.8004   21.3606 C   0  0  0  0  0  0
  -26.0387  -29.4210   20.7201 C   0  0  0  0  0  0
  -27.2323  -28.6435   20.7055 C   0  0  0  0  0  0
  -26.0632  -26.8730   19.5256 C   0  0  0  0  0  0
  -24.8804  -27.6458   19.5316 C   0  0  0  0  0  0
  -23.6350  -29.7944   20.1600 C   0  0  0  0  0  0
  -25.4089  -36.3079   24.0331 C   0  0  1  0  0  0
  -20.5883  -28.3712   23.1295 C   0  0  2  0  0  0
  -20.6792  -26.9439   22.5422 C   0  0  0  0  0  0
  -19.5748  -26.6439   21.5241 C   0  0  0  0  0  0
  -18.1917  -26.8009   22.1635 C   0  0  0  0  0  0
  -19.1542  -28.8873   23.2948 C   0  0  0  0  0  0
  -18.9509  -30.1496   23.8932 C   0  0  0  0  0  0
  -17.6515  -30.6653   24.0599 C   0  0  0  0  0  0
  -25.9021  -34.9470   23.5080 C   0  0  0  0  0  0
  -16.5383  -29.9182   23.6365 C   0  0  0  0  0  0
  -16.7277  -28.6586   23.0391 C   0  0  0  0  0  0
  -26.4461  -31.6614   25.0671 C   0  0  0  0  0  0
  -25.3707  -31.3807   26.1399 C   0  0  0  0  0  0
  -27.0281  -30.3047   24.6094 C   0  0  0  0  0  0
  -27.5994  -32.4357   25.7469 C   0  0  0  0  0  0
  -27.5548  -37.1774   24.8468 C   0  0  0  0  0  0
  -21.4140  -29.3087   22.3664 N   0  0  0  0  0  0
  -26.4255  -37.3786   23.9435 N   0  0  0  0  0  0
  -24.6835  -31.0627   22.0897 N   0  0  0  0  0  0
  -23.4144  -28.8215   23.3002 O   0  0  0  0  0  0
  -28.4003  -26.5487   20.0424 O   0  0  0  0  0  0
  -26.5623  -34.8953   22.4663 O   0  0  0  0  0  0
  -23.5402  -32.1362   23.7327 O   0  0  0  0  0  0
  -28.8879  -19.3916   21.2956 C   0  0  0  0  0  0
  -30.0205  -17.6755   19.4055 C   0  0  0  0  0  0
  -29.1801  -19.9651   20.0255 C   0  0  0  0  0  0
  -29.7090  -17.1155   20.6695 C   0  0  0  0  0  0
  -29.1606  -18.0269   21.6161 C   0  0  0  0  0  0
  -29.7695  -19.0476   19.0908 C   0  0  0  0  0  0
  -28.4583  -23.9355   19.8214 C   0  0  0  0  0  0
  -29.5843  -23.9434   22.4980 C   0  0  0  0  0  0
  -29.6099  -25.2278   21.6652 C   0  0  0  0  0  0
  -29.5916  -22.6511   21.6439 C   0  0  0  0  0  0
  -28.4049  -25.2395   20.7245 C   0  0  1  0  0  0
  -28.7100  -21.4248   19.5798 C   0  0  0  0  0  0
  -28.8643  -22.7219   20.3617 N   0  0  0  0  0  0
  -29.7819  -15.6774   20.9718 N   0  0  0  0  0  0
  -28.0791  -24.0258   18.6494 O   0  0  0  0  0  0
  -28.7796  -17.4759   23.2110 Cl  0  0  0  0  0  0
  -30.1467  -19.5388   17.4765 Cl  0  0  0  0  0  0
  -31.4852  -12.5679   19.1525 H   0  0  0  0  0  0
  -30.4153  -11.4154   19.8996 H   0  0  0  0  0  0
  -29.7804  -11.7220   17.5054 H   0  0  0  0  0  0
  -29.6677  -13.4522   17.7158 H   0  0  0  0  0  0
  -27.8499  -11.3016   18.8439 H   0  0  0  0  0  0
  -27.3901  -12.6045   17.7813 H   0  0  0  0  0  0
  -27.6784  -14.2536   19.5359 H   0  0  0  0  0  0
  -28.7221  -12.0120   21.3380 H   0  0  0  0  0  0
  -28.4354  -13.6416   21.8683 H   0  0  0  0  0  0
  -25.2753   -9.5767   22.4726 H   0  0  0  0  0  0
  -24.0052   -7.4687   22.7472 H   0  0  0  0  0  0
  -21.0836   -8.8737   19.8950 H   0  0  0  0  0  0
  -22.3634  -10.9670   19.6149 H   0  0  0  0  0  0
  -21.2033   -7.6171   23.9706 H   0  0  0  0  0  0
  -21.1430   -6.0520   25.9055 H   0  0  0  0  0  0
  -22.0634   -2.7630   23.2796 H   0  0  0  0  0  0
  -22.4154  -11.9915   22.4722 H   0  0  0  0  0  0
  -21.1143  -13.1283   22.2587 H   0  0  0  0  0  0
  -24.6671  -15.8458   20.5012 H   0  0  0  0  0  0
  -26.2743  -15.6161   20.0391 H   0  0  0  0  0  0
  -26.7138  -32.5458   23.1057 H   0  0  0  0  0  0
  -25.0011  -33.9742   25.0373 H   0  0  0  0  0  0
  -22.7143  -31.3015   21.3814 H   0  0  0  0  0  0
  -23.3758  -35.9555   23.3311 H   0  0  0  0  0  0
  -24.3554  -36.8872   22.2065 H   0  0  0  0  0  0
  -23.7204  -37.6453   23.6667 H   0  0  0  0  0  0
  -26.0661  -31.5586   20.5833 H   0  0  0  0  0  0
  -26.8428  -30.8662   21.9779 H   0  0  0  0  0  0
  -28.1334  -29.0393   21.1542 H   0  0  0  0  0  0
  -26.0555  -25.8983   19.0563 H   0  0  0  0  0  0
  -23.9823  -27.2465   19.0803 H   0  0  0  0  0  0
  -23.7557  -30.5581   19.3910 H   0  0  0  0  0  0
  -22.7595  -29.2153   19.8594 H   0  0  0  0  0  0
  -25.1307  -36.1865   25.0833 H   0  0  0  0  0  0
  -20.9988  -28.3296   24.1405 H   0  0  0  0  0  0
  -20.5711  -26.2309   23.3621 H   0  0  0  0  0  0
  -21.6655  -26.7525   22.1166 H   0  0  0  0  0  0
  -19.6892  -25.6364   21.1250 H   0  0  0  0  0  0
  -19.6680  -27.3276   20.6799 H   0  0  0  0  0  0
  -17.4193  -26.6792   21.4036 H   0  0  0  0  0  0
  -18.0293  -26.0169   22.9026 H   0  0  0  0  0  0
  -19.7980  -30.7340   24.2256 H   0  0  0  0  0  0
  -17.5091  -31.6328   24.5226 H   0  0  0  0  0  0
  -15.5391  -30.3125   23.7722 H   0  0  0  0  0  0
  -15.8657  -28.0955   22.7078 H   0  0  0  0  0  0
  -24.5863  -30.7148   25.7782 H   0  0  0  0  0  0
  -24.8911  -32.3020   26.4734 H   0  0  0  0  0  0
  -25.8034  -30.9079   27.0216 H   0  0  0  0  0  0
  -26.2841  -29.6825   24.1100 H   0  0  0  0  0  0
  -27.4009  -29.7265   25.4556 H   0  0  0  0  0  0
  -27.8694  -30.4383   23.9279 H   0  0  0  0  0  0
  -27.2569  -33.3689   26.1955 H   0  0  0  0  0  0
  -28.3867  -32.6841   25.0339 H   0  0  0  0  0  0
  -28.0556  -31.8515   26.5473 H   0  0  0  0  0  0
  -28.2554  -38.0079   24.7548 H   0  0  0  0  0  0
  -28.1049  -36.2624   24.6246 H   0  0  0  0  0  0
  -27.2276  -37.1360   25.8868 H   0  0  0  0  0  0
  -20.9263  -29.8775   21.6893 H   0  0  0  0  0  0
  -26.0099  -38.2821   24.1544 H   0  0  0  0  0  0
  -28.3817  -19.9789   22.0443 H   0  0  0  0  0  0
  -30.4033  -17.0346   18.6241 H   0  0  0  0  0  0
  -28.6790  -23.9623   23.1035 H   0  0  0  0  0  0
  -30.4153  -23.9302   23.2040 H   0  0  0  0  0  0
  -30.5414  -25.3074   21.1018 H   0  0  0  0  0  0
  -29.5686  -26.0976   22.3244 H   0  0  0  0  0  0
  -29.1640  -21.8760   22.2700 H   0  0  0  0  0  0
  -30.6186  -22.3529   21.4312 H   0  0  0  0  0  0
  -27.4997  -25.1576   21.3264 H   0  0  0  0  0  0
  -27.6380  -21.3311   19.3980 H   0  0  0  0  0  0
  -29.1381  -21.6321   18.6002 H   0  0  0  0  0  0
  -29.0026  -15.3448   21.5196 H   0  0  0  0  0  0
  1 25  1  0  0  0
  1 30  2  0  0  0
  1 84  1  0  0  0
  2  3  1  0  0  0
  2 25  1  0  0  0
  2 88  1  0  0  0
  2 89  1  0  0  0
  3  4  1  0  0  0
  3 90  1  0  0  0
  3 91  1  0  0  0
  4  5  1  0  0  0
  4 92  1  0  0  0
  4 93  1  0  0  0
  5  6  1  0  0  0
  5 26  1  0  0  0
  5 94  1  0  0  0
  6 25  1  0  0  0
  6 95  1  0  0  0
  6 96  1  0  0  0
  7  8  2  0  0  0
  7 26  1  0  0  0
  7 29  1  0  0  0
  8  9  1  0  0  0
  8 22  1  0  0  0
  9 10  1  0  0  0
  9 27  2  0  0  0
 10 11  2  0  0  0
 10 15  1  0  0  0
 11 12  1  0  0  0
 11 97  1  0  0  0
 12 13  2  0  0  0
 12 98  1  0  0  0
 13 14  1  0  0  0
 13 31  1  0  0  0
 14 15  2  0  0  0
 14 99  1  0  0  0
 15100  1  0  0  0
 16 17  2  0  0  0
 16 21  1  0  0  0
 16 31  1  0  0  0
 17 18  1  0  0  0
 17101  1  0  0  0
 18 19  2  0  0  0
 18102  1  0  0  0
 19 20  1  0  0  0
 19 24  1  0  0  0
 20 21  2  0  0  0
 20103  1  0  0  0
 21 23  1  0  0  0
 22 28  1  0  0  0
 22 32  2  0  0  0
 26 27  1  0  0  0
 28104  1  0  0  0
 28105  1  0  0  0
 29106  1  0  0  0
 29107  1  0  0  0
 33 34  1  0  0  0
 33 66  1  0  0  0
 33 70  2  0  0  0
 34 36  1  0  0  0
 34 59  1  0  0  0
 34108  1  0  0  0
 35 44  2  0  0  0
 35 45  1  0  0  0
 35 68  1  0  0  0
 36 56  1  0  0  0
 36109  1  0  0  0
 37 39  1  0  0  0
 37 47  1  0  0  0
 37 66  1  0  0  0
 37110  1  0  0  0
 38 43  2  0  0  0
 38 46  1  0  0  0
 38 47  1  0  0  0
 39 64  1  0  0  0
 39 67  2  0  0  0
 40 52  1  0  0  0
 40 53  2  0  0  0
 40 58  1  0  0  0
 41111  1  0  0  0
 41112  1  0  0  0
 41113  1  0  0  0
 41 48  1  0  0  0
 42 43  1  0  0  0
 42 66  1  0  0  0
 42114  1  0  0  0
 42115  1  0  0  0
 43 44  1  0  0  0
 44116  1  0  0  0
 45 46  2  0  0  0
 45117  1  0  0  0
 46118  1  0  0  0
 47119  1  0  0  0
 47120  1  0  0  0
 48 56  1  0  0  0
 48 65  1  0  0  0
 48121  1  0  0  0
 49 50  1  0  0  0
 49 53  1  0  0  0
 49 64  1  0  0  0
 49122  1  0  0  0
 50 51  1  0  0  0
 50123  1  0  0  0
 50124  1  0  0  0
 51 52  1  0  0  0
 51125  1  0  0  0
 51126  1  0  0  0
 52127  1  0  0  0
 52128  1  0  0  0
 53 54  1  0  0  0
 54 55  2  0  0  0
 54129  1  0  0  0
 55 57  1  0  0  0
 55130  1  0  0  0
 56 69  2  0  0  0
 57 58  2  0  0  0
 57131  1  0  0  0
 58132  1  0  0  0
 59 60  1  0  0  0
 59 61  1  0  0  0
 59 62  1  0  0  0
 60133  1  0  0  0
 60134  1  0  0  0
 60135  1  0  0  0
 61136  1  0  0  0
 61137  1  0  0  0
 61138  1  0  0  0
 62139  1  0  0  0
 62140  1  0  0  0
 62141  1  0  0  0
 63 65  1  0  0  0
 63142  1  0  0  0
 63143  1  0  0  0
 63144  1  0  0  0
 64145  1  0  0  0
 65146  1  0  0  0
 68 81  1  0  0  0
 71 73  2  0  0  0
 71 75  1  0  0  0
 71147  1  0  0  0
 72 74  1  0  0  0
 72 76  2  0  0  0
 72148  1  0  0  0
 73 76  1  0  0  0
 73 82  1  0  0  0
 74 75  2  0  0  0
 74 84  1  0  0  0
 75 86  1  0  0  0
 76 87  1  0  0  0
 77 81  1  0  0  0
 77 83  1  0  0  0
 77 85  2  0  0  0
 78 79  1  0  0  0
 78 80  1  0  0  0
 78149  1  0  0  0
 78150  1  0  0  0
 79 81  1  0  0  0
 79151  1  0  0  0
 79152  1  0  0  0
 80 83  1  0  0  0
 80153  1  0  0  0
 80154  1  0  0  0
 81155  1  0  0  0
 82 83  1  0  0  0
 82156  1  0  0  0
 82157  1  0  0  0
 84158  1  0  0  0
M  ISO  4   1 100  68 101  81 101  84 100
M  END
> <chiral flag>
0

> <version>
0

> <s_m_source_file>
/data/baiqing/PycharmProjects/Reinvent-master-3.2/result/LINK_invent/BTK/process_docking_weight1_custom_product_contain_oxygen_bond_distance_aromatic_linkinvent_7_9_3/rearranged_h_0045.sdf

> <i_m_source_file_index>
22

> <r_mmod_Potential_Energy-OPLS-2005>
127.831809997559

> <r_mmod_Stretch_Energy-OPLS-2005>
91.3547592163086

> <r_mmod_Bend_Energy-OPLS-2005>
156.50798034668

> <r_mmod_Torsional_Energy-OPLS-2005>
275.944213867188

> <r_mmod_Improper_Torsional_Energy-OPLS-2005>
5.25798749923706

> <r_mmod_Van_der_Waal_Energy-OPLS-2005>
147.189987182617

> <r_mmod_Electrostatic_Energy-OPLS-2005>
-362.141204833984

> <r_mmod_Solvation_Energy-OPLS-2005>
-232.733947753906

> <b_mmod_Minimization_Converged-OPLS-2005>
0

> <r_mmod_RMS_Derivative-OPLS-2005>
4.76626634597778

$$$$
22
                    3D
 Structure written by MMmdl.
166175  0  0  1  0            999 V2000
  -30.6646  -14.6184   20.5074 C   0  0  0  0  0  0
  -30.4190  -12.3817   19.4533 C   0  0  0  0  0  0
  -29.4990  -12.5012   18.2209 C   0  0  0  0  0  0
  -28.0230  -12.3438   18.6349 C   0  0  0  0  0  0
  -27.6463  -13.2230   19.8582 C   0  0  2  0  0  0
  -28.6903  -13.1016   20.9903 C   0  0  0  0  0  0
  -25.2523  -13.8187   20.5687 C   0  0  0  0  0  0
  -24.1805  -13.0438   20.9201 C   0  0  0  0  0  0
  -24.6383  -11.6915   20.8744 C   0  0  0  0  0  0
  -23.9062  -10.4290   21.0404 C   0  0  0  0  0  0
  -24.3617   -9.4203   21.9179 C   0  0  0  0  0  0
  -23.6290   -8.2239   22.0751 C   0  0  0  0  0  0
  -22.4272   -8.0277   21.3541 C   0  0  0  0  0  0
  -21.9908   -9.0252   20.4645 C   0  0  0  0  0  0
  -22.7237  -10.2129   20.3053 C   0  0  0  0  0  0
  -21.6854   -6.0732   22.5277 C   0  0  0  0  0  0
  -21.4013   -6.5635   23.8209 C   0  0  0  0  0  0
  -21.3660   -5.6790   24.9173 C   0  0  0  0  0  0
  -21.6047   -4.3052   24.7225 C   0  0  0  0  0  0
  -21.8819   -3.8143   23.4344 C   0  0  0  0  0  0
  -21.9190   -4.6959   22.3401 C   0  0  0  0  0  0
  -22.7825  -13.5221   21.1860 C   0  0  0  0  0  0
  -22.1660   -4.2146   21.0978 F   0  0  0  0  0  0
  -21.5631   -3.4536   25.7736 F   0  0  0  0  0  0
  -30.0020  -13.4231   20.4147 N   0  0  0  0  0  0
  -26.2950  -12.9382   20.3307 N   0  0  0  0  0  0
  -25.9311  -11.6530   20.5756 N   0  0  0  0  0  0
  -22.0473  -12.8216   22.0422 N   0  0  0  0  0  0
  -25.4215  -15.1911   20.4089 N   0  0  0  0  0  0
  -31.8325  -14.7090   20.1192 O   0  0  0  0  0  0
  -21.6635   -6.8876   21.4239 O   0  0  0  0  0  0
  -22.3510  -14.5527   20.6706 O   0  0  0  0  0  0
  -24.6232  -31.8621   23.2040 C   0  0  0  0  0  0
  -25.9098  -32.4789   23.8353 C   0  0  1  0  0  0
  -27.2133  -27.3293   20.1090 C   0  0  0  0  0  0
  -25.5925  -33.8588   24.2279 N   0  0  0  0  0  0
  -23.4139  -30.4885   21.5460 C   0  0  2  0  0  0
  -24.8571  -28.9466   20.1056 C   0  0  0  0  0  0
  -22.7456  -29.4646   22.4927 C   0  0  0  0  0  0
  -18.0288  -28.1398   22.8490 C   0  0  0  0  0  0
  -24.1483  -36.7304   23.2635 C   0  0  0  0  0  0
  -25.9536  -30.7946   21.3738 C   0  0  0  0  0  0
  -26.0232  -29.4226   20.7166 C   0  0  0  0  0  0
  -27.2016  -28.6225   20.7133 C   0  0  0  0  0  0
  -26.0303  -26.9124   19.4589 C   0  0  0  0  0  0
  -24.8621  -27.6968   19.4687 C   0  0  0  0  0  0
  -23.6267  -29.8284   20.1580 C   0  0  0  0  0  0
  -25.4109  -36.3088   24.0326 C   0  0  1  0  0  0
  -20.5889  -28.3703   23.1287 C   0  0  2  0  0  0
  -20.6780  -26.9433   22.5407 C   0  0  0  0  0  0
  -19.5755  -26.6399   21.5212 C   0  0  0  0  0  0
  -18.1935  -26.7943   22.1627 C   0  0  0  0  0  0
  -19.1538  -28.8866   23.2885 C   0  0  0  0  0  0
  -18.9464  -30.1466   23.8907 C   0  0  0  0  0  0
  -17.6465  -30.6596   24.0575 C   0  0  0  0  0  0
  -25.9049  -34.9459   23.5101 C   0  0  0  0  0  0
  -16.5356  -29.9102   23.6330 C   0  0  0  0  0  0
  -16.7278  -28.6520   23.0349 C   0  0  0  0  0  0
  -26.4492  -31.6593   25.0712 C   0  0  0  0  0  0
  -25.3735  -31.3736   26.1451 C   0  0  0  0  0  0
  -27.0328  -30.3018   24.6149 C   0  0  0  0  0  0
  -27.6045  -32.4328   25.7493 C   0  0  0  0  0  0
  -27.5576  -37.1810   24.8465 C   0  0  0  0  0  0
  -21.4174  -29.3058   22.3678 N   0  0  0  0  0  0
  -26.4285  -37.3785   23.9409 N   0  0  0  0  0  0
  -24.6825  -31.0648   22.0986 N   0  0  0  0  0  0
  -23.4198  -28.8189   23.2996 O   0  0  0  0  0  0
  -28.3423  -26.5025   20.1803 O   0  0  0  0  0  0
  -26.5608  -34.8924   22.4662 O   0  0  0  0  0  0
  -23.5407  -32.1417   23.7388 O   0  0  0  0  0  0
  -32.1351  -18.6057   21.8994 C   0  0  0  0  0  0
  -31.7087  -17.3345   21.4986 C   0  0  0  0  0  0
  -29.5241  -18.2713   21.0063 C   0  0  0  0  0  0
  -31.2642  -19.7142   21.9255 C   0  0  0  0  0  0
  -29.9359  -19.6025   21.4097 C   0  0  0  0  0  0
  -30.3830  -17.1106   21.0749 C   0  0  0  0  0  0
  -27.3167  -24.1699   20.6757 C   0  0  0  0  0  0
  -29.6859  -24.3769   19.8652 C   0  0  0  0  0  0
  -27.4916  -22.6251   20.4351 C   0  0  0  0  0  0
  -28.2792  -25.0630   19.8358 C   0  0  2  0  0  0
  -29.8720  -23.1659   20.8604 C   0  0  1  0  0  0
  -29.9443  -23.7264   22.3075 C   0  0  0  0  0  0
  -28.8877  -20.7897   21.5257 C   0  0  0  0  0  0
  -31.8100  -20.9487   22.6286 C   0  0  0  0  0  0
  -29.9291  -15.7384   20.8202 N   0  0  0  0  0  0
  -28.8723  -22.0518   20.6420 N   0  3  1  0  0  0
  -32.5660  -21.6681   21.8017 F   0  0  0  0  0  0
  -32.5494  -20.6038   23.6836 F   0  0  0  0  0  0
  -31.4641  -12.4785   19.1533 H   0  0  0  0  0  0
  -30.3313  -11.3922   19.9049 H   0  0  0  0  0  0
  -29.7615  -11.7474   17.4777 H   0  0  0  0  0  0
  -29.6472  -13.4697   17.7403 H   0  0  0  0  0  0
  -27.8606  -11.2921   18.8733 H   0  0  0  0  0  0
  -27.3676  -12.5674   17.7920 H   0  0  0  0  0  0
  -27.6586  -14.2548   19.5066 H   0  0  0  0  0  0
  -28.6977  -12.0900   21.3998 H   0  0  0  0  0  0
  -28.4431  -13.7621   21.8228 H   0  0  0  0  0  0
  -25.2763   -9.5675   22.4751 H   0  0  0  0  0  0
  -23.9999   -7.4628   22.7468 H   0  0  0  0  0  0
  -21.0840   -8.8770   19.8950 H   0  0  0  0  0  0
  -22.3696  -10.9668   19.6160 H   0  0  0  0  0  0
  -21.2004   -7.6143   23.9714 H   0  0  0  0  0  0
  -21.1486   -6.0517   25.9077 H   0  0  0  0  0  0
  -22.0598   -2.7605   23.2844 H   0  0  0  0  0  0
  -22.4094  -11.9877   22.4812 H   0  0  0  0  0  0
  -21.1087  -13.1234   22.2624 H   0  0  0  0  0  0
  -24.6506  -15.8421   20.5120 H   0  0  0  0  0  0
  -26.2632  -15.6296   20.0585 H   0  0  0  0  0  0
  -26.7158  -32.5464   23.1096 H   0  0  0  0  0  0
  -25.0081  -33.9738   25.0432 H   0  0  0  0  0  0
  -22.7067  -31.3089   21.4082 H   0  0  0  0  0  0
  -23.3736  -35.9647   23.3300 H   0  0  0  0  0  0
  -24.3570  -36.8922   22.2049 H   0  0  0  0  0  0
  -23.7251  -37.6513   23.6656 H   0  0  0  0  0  0
  -26.0796  -31.5570   20.6044 H   0  0  0  0  0  0
  -26.8375  -30.8453   21.9980 H   0  0  0  0  0  0
  -28.0951  -28.9807   21.2050 H   0  0  0  0  0  0
  -25.9752  -25.9695   18.9383 H   0  0  0  0  0  0
  -23.9730  -27.3332   18.9725 H   0  0  0  0  0  0
  -23.7504  -30.6094   19.4066 H   0  0  0  0  0  0
  -22.7445  -29.2636   19.8490 H   0  0  0  0  0  0
  -25.1292  -36.1937   25.0819 H   0  0  0  0  0  0
  -20.9984  -28.3285   24.1406 H   0  0  0  0  0  0
  -20.5687  -26.2323   23.3610 H   0  0  0  0  0  0
  -21.6653  -26.7475   22.1202 H   0  0  0  0  0  0
  -19.6913  -25.6307   21.1251 H   0  0  0  0  0  0
  -19.6683  -27.3203   20.6736 H   0  0  0  0  0  0
  -17.4207  -26.6693   21.4027 H   0  0  0  0  0  0
  -18.0336  -26.0081   22.9018 H   0  0  0  0  0  0
  -19.7935  -30.7281   24.2278 H   0  0  0  0  0  0
  -17.5020  -31.6275   24.5181 H   0  0  0  0  0  0
  -15.5359  -30.3012   23.7639 H   0  0  0  0  0  0
  -15.8677  -28.0843   22.7056 H   0  0  0  0  0  0
  -24.5910  -30.7078   25.7796 H   0  0  0  0  0  0
  -24.8930  -32.2909   26.4860 H   0  0  0  0  0  0
  -25.8081  -30.8935   27.0229 H   0  0  0  0  0  0
  -26.2891  -29.6779   24.1180 H   0  0  0  0  0  0
  -27.4039  -29.7264   25.4640 H   0  0  0  0  0  0
  -27.8758  -30.4303   23.9356 H   0  0  0  0  0  0
  -27.2644  -33.3621   26.2073 H   0  0  0  0  0  0
  -28.3870  -32.6900   25.0342 H   0  0  0  0  0  0
  -28.0697  -31.8449   26.5415 H   0  0  0  0  0  0
  -28.2600  -38.0100   24.7504 H   0  0  0  0  0  0
  -28.1067  -36.2635   24.6301 H   0  0  0  0  0  0
  -27.2294  -37.1471   25.8866 H   0  0  0  0  0  0
  -20.9341  -29.8786   21.6904 H   0  0  0  0  0  0
  -26.0161  -38.2855   24.1418 H   0  0  0  0  0  0
  -33.1444  -18.7082   22.2743 H   0  0  0  0  0  0
  -32.4190  -16.5265   21.5915 H   0  0  0  0  0  0
  -28.4986  -18.1236   20.6963 H   0  0  0  0  0  0
  -27.4174  -24.3891   21.7369 H   0  0  0  0  0  0
  -26.2818  -24.4247   20.4572 H   0  0  0  0  0  0
  -29.9176  -24.0254   18.8583 H   0  0  0  0  0  0
  -30.4468  -25.1299   20.0720 H   0  0  0  0  0  0
  -27.2006  -22.3948   19.4102 H   0  0  0  0  0  0
  -26.7643  -22.1097   21.0642 H   0  0  0  0  0  0
  -27.9529  -25.0129   18.7953 H   0  0  0  0  0  0
  -30.8381  -22.7259   20.6266 H   0  0  0  0  0  0
  -29.4646  -23.1015   23.0574 H   0  0  0  0  0  0
  -29.4813  -24.7081   22.3928 H   0  0  0  0  0  0
  -30.9830  -23.8788   22.6025 H   0  0  0  0  0  0
  -28.8078  -21.0738   22.5732 H   0  0  0  0  0  0
  -27.9363  -20.2902   21.3383 H   0  0  0  0  0  0
  -31.0297  -21.5653   23.0506 H   0  0  0  0  0  0
  -28.9390  -15.5755   20.9207 H   0  0  0  0  0  0
  -29.1016  -21.6781   19.7320 H   0  0  0  0  0  0
  1 25  1  0  0  0
  1 30  2  0  0  0
  1 85  1  0  0  0
  2  3  1  0  0  0
  2 25  1  0  0  0
  2 89  1  0  0  0
  2 90  1  0  0  0
  3  4  1  0  0  0
  3 91  1  0  0  0
  3 92  1  0  0  0
  4  5  1  0  0  0
  4 93  1  0  0  0
  4 94  1  0  0  0
  5  6  1  0  0  0
  5 26  1  0  0  0
  5 95  1  0  0  0
  6 25  1  0  0  0
  6 96  1  0  0  0
  6 97  1  0  0  0
  7  8  2  0  0  0
  7 26  1  0  0  0
  7 29  1  0  0  0
  8  9  1  0  0  0
  8 22  1  0  0  0
  9 10  1  0  0  0
  9 27  2  0  0  0
 10 11  2  0  0  0
 10 15  1  0  0  0
 11 12  1  0  0  0
 11 98  1  0  0  0
 12 13  2  0  0  0
 12 99  1  0  0  0
 13 14  1  0  0  0
 13 31  1  0  0  0
 14 15  2  0  0  0
 14100  1  0  0  0
 15101  1  0  0  0
 16 17  2  0  0  0
 16 21  1  0  0  0
 16 31  1  0  0  0
 17 18  1  0  0  0
 17102  1  0  0  0
 18 19  2  0  0  0
 18103  1  0  0  0
 19 20  1  0  0  0
 19 24  1  0  0  0
 20 21  2  0  0  0
 20104  1  0  0  0
 21 23  1  0  0  0
 22 28  1  0  0  0
 22 32  2  0  0  0
 26 27  1  0  0  0
 28105  1  0  0  0
 28106  1  0  0  0
 29107  1  0  0  0
 29108  1  0  0  0
 33 34  1  0  0  0
 33 66  1  0  0  0
 33 70  2  0  0  0
 34 36  1  0  0  0
 34 59  1  0  0  0
 34109  1  0  0  0
 35 44  2  0  0  0
 35 45  1  0  0  0
 35 68  1  0  0  0
 36 56  1  0  0  0
 36110  1  0  0  0
 37 39  1  0  0  0
 37 47  1  0  0  0
 37 66  1  0  0  0
 37111  1  0  0  0
 38 43  2  0  0  0
 38 46  1  0  0  0
 38 47  1  0  0  0
 39 64  1  0  0  0
 39 67  2  0  0  0
 40 52  1  0  0  0
 40 53  2  0  0  0
 40 58  1  0  0  0
 41112  1  0  0  0
 41113  1  0  0  0
 41114  1  0  0  0
 41 48  1  0  0  0
 42 43  1  0  0  0
 42 66  1  0  0  0
 42115  1  0  0  0
 42116  1  0  0  0
 43 44  1  0  0  0
 44117  1  0  0  0
 45 46  2  0  0  0
 45118  1  0  0  0
 46119  1  0  0  0
 47120  1  0  0  0
 47121  1  0  0  0
 48 56  1  0  0  0
 48 65  1  0  0  0
 48122  1  0  0  0
 49 50  1  0  0  0
 49 53  1  0  0  0
 49 64  1  0  0  0
 49123  1  0  0  0
 50 51  1  0  0  0
 50124  1  0  0  0
 50125  1  0  0  0
 51 52  1  0  0  0
 51126  1  0  0  0
 51127  1  0  0  0
 52128  1  0  0  0
 52129  1  0  0  0
 53 54  1  0  0  0
 54 55  2  0  0  0
 54130  1  0  0  0
 55 57  1  0  0  0
 55131  1  0  0  0
 56 69  2  0  0  0
 57 58  2  0  0  0
 57132  1  0  0  0
 58133  1  0  0  0
 59 60  1  0  0  0
 59 61  1  0  0  0
 59 62  1  0  0  0
 60134  1  0  0  0
 60135  1  0  0  0
 60136  1  0  0  0
 61137  1  0  0  0
 61138  1  0  0  0
 61139  1  0  0  0
 62140  1  0  0  0
 62141  1  0  0  0
 62142  1  0  0  0
 63 65  1  0  0  0
 63143  1  0  0  0
 63144  1  0  0  0
 63145  1  0  0  0
 64146  1  0  0  0
 65147  1  0  0  0
 68 80  1  0  0  0
 71 72  2  0  0  0
 71 74  1  0  0  0
 71148  1  0  0  0
 72 76  1  0  0  0
 72149  1  0  0  0
 73 75  1  0  0  0
 73 76  2  0  0  0
 73150  1  0  0  0
 74 75  2  0  0  0
 74 84  1  0  0  0
 75 83  1  0  0  0
 76 85  1  0  0  0
 77 79  1  0  0  0
 77 80  1  0  0  0
 77151  1  0  0  0
 77152  1  0  0  0
 78 80  1  0  0  0
 78 81  1  0  0  0
 78153  1  0  0  0
 78154  1  0  0  0
 79 86  1  0  0  0
 79155  1  0  0  0
 79156  1  0  0  0
 80157  1  0  0  0
 81 82  1  0  0  0
 81 86  1  0  0  0
 81158  1  0  0  0
 82159  1  0  0  0
 82160  1  0  0  0
 82161  1  0  0  0
 83162  1  0  0  0
 83163  1  0  0  0
 83 86  1  0  0  0
 84 87  1  0  0  0
 84 88  1  0  0  0
 84164  1  0  0  0
 85165  1  0  0  0
 86166  1  0  0  0
M  CHG  1  86   1
M  ISO  4   1 100  68 101  80 101  85 100
M  END
> <chiral flag>
0

> <version>
0

> <s_m_source_file>
/data/baiqing/PycharmProjects/Reinvent-master-3.2/result/LINK_invent/BTK/process_docking_weight1_custom_product_contain_oxygen_bond_distance_aromatic_linkinvent_7_9_3/rearranged_h_0045.sdf

> <i_m_source_file_index>
23

> <r_mmod_Potential_Energy-OPLS-2005>
64.3655395507812

> <r_mmod_Stretch_Energy-OPLS-2005>
92.1213760375977

> <r_mmod_Bend_Energy-OPLS-2005>
173.766021728516

> <r_mmod_Torsional_Energy-OPLS-2005>
277.867980957031

> <r_mmod_Improper_Torsional_Energy-OPLS-2005>
7.04563188552856

> <r_mmod_Van_der_Waal_Energy-OPLS-2005>
171.729339599609

> <r_mmod_Electrostatic_Energy-OPLS-2005>
-242.896896362305

> <r_mmod_Solvation_Energy-OPLS-2005>
-459.404754638672

> <b_mmod_Minimization_Converged-OPLS-2005>
0

> <r_mmod_RMS_Derivative-OPLS-2005>
1.36239039897919

$$$$
23
                    3D
 Structure written by MMmdl.
161170  0  0  1  0            999 V2000
  -30.5779  -14.7624   20.4625 C   0  0  0  0  0  0
  -30.4418  -12.4717   19.4508 C   0  0  0  0  0  0
  -29.5069  -12.4987   18.2213 C   0  0  0  0  0  0
  -28.0344  -12.3138   18.6454 C   0  0  0  0  0  0
  -27.6362  -13.2216   19.8398 C   0  0  2  0  0  0
  -28.6860  -13.1654   20.9682 C   0  0  0  0  0  0
  -25.2506  -13.8164   20.5706 C   0  0  0  0  0  0
  -24.1786  -13.0426   20.9209 C   0  0  0  0  0  0
  -24.6366  -11.6898   20.8745 C   0  0  0  0  0  0
  -23.9042  -10.4283   21.0408 C   0  0  0  0  0  0
  -24.3598   -9.4203   21.9186 C   0  0  0  0  0  0
  -23.6277   -8.2238   22.0756 C   0  0  0  0  0  0
  -22.4261   -8.0274   21.3548 C   0  0  0  0  0  0
  -21.9890   -9.0247   20.4653 C   0  0  0  0  0  0
  -22.7214  -10.2128   20.3064 C   0  0  0  0  0  0
  -21.6849   -6.0726   22.5274 C   0  0  0  0  0  0
  -21.4014   -6.5635   23.8206 C   0  0  0  0  0  0
  -21.3661   -5.6787   24.9168 C   0  0  0  0  0  0
  -21.6043   -4.3048   24.7220 C   0  0  0  0  0  0
  -21.8819   -3.8141   23.4340 C   0  0  0  0  0  0
  -21.9193   -4.6956   22.3397 C   0  0  0  0  0  0
  -22.7817  -13.5225   21.1869 C   0  0  0  0  0  0
  -22.1661   -4.2141   21.0976 F   0  0  0  0  0  0
  -21.5629   -3.4536   25.7732 F   0  0  0  0  0  0
  -29.9753  -13.5307   20.3691 N   0  0  0  0  0  0
  -26.2905  -12.9347   20.3245 N   0  0  0  0  0  0
  -25.9283  -11.6501   20.5725 N   0  0  0  0  0  0
  -22.0456  -12.8227   22.0428 N   0  0  0  0  0  0
  -25.4190  -15.1889   20.4147 N   0  0  0  0  0  0
  -31.7932  -14.8742   20.2769 O   0  0  0  0  0  0
  -21.6637   -6.8867   21.4237 O   0  0  0  0  0  0
  -22.3508  -14.5540   20.6720 O   0  0  0  0  0  0
  -24.6314  -31.8540   23.1962 C   0  0  0  0  0  0
  -25.9132  -32.4750   23.8316 C   0  0  1  0  0  0
  -27.2220  -27.2553   20.1499 C   0  0  0  0  0  0
  -25.5917  -33.8552   24.2239 N   0  0  0  0  0  0
  -23.4294  -30.4738   21.5395 C   0  0  2  0  0  0
  -24.8779  -28.9087   20.1216 C   0  0  0  0  0  0
  -22.7502  -29.4596   22.4915 C   0  0  0  0  0  0
  -18.0292  -28.1389   22.8485 C   0  0  0  0  0  0
  -24.1486  -36.7284   23.2644 C   0  0  0  0  0  0
  -25.9748  -30.7659   21.3762 C   0  0  0  0  0  0
  -26.0489  -29.3835   20.7279 C   0  0  0  0  0  0
  -27.2281  -28.5706   20.7249 C   0  0  0  0  0  0
  -26.0296  -26.8376   19.5289 C   0  0  0  0  0  0
  -24.8721  -27.6431   19.5116 C   0  0  0  0  0  0
  -23.6502  -29.7993   20.1594 C   0  0  0  0  0  0
  -25.4116  -36.3069   24.0326 C   0  0  1  0  0  0
  -20.5898  -28.3701   23.1267 C   0  0  2  0  0  0
  -20.6777  -26.9416   22.5410 C   0  0  0  0  0  0
  -19.5750  -26.6384   21.5212 C   0  0  0  0  0  0
  -18.1932  -26.7931   22.1626 C   0  0  0  0  0  0
  -19.1546  -28.8861   23.2873 C   0  0  0  0  0  0
  -18.9467  -30.1460   23.8897 C   0  0  0  0  0  0
  -17.6466  -30.6590   24.0564 C   0  0  0  0  0  0
  -25.9053  -34.9438   23.5089 C   0  0  0  0  0  0
  -16.5357  -29.9088   23.6330 C   0  0  0  0  0  0
  -16.7279  -28.6504   23.0355 C   0  0  0  0  0  0
  -26.4493  -31.6587   25.0719 C   0  0  0  0  0  0
  -25.3708  -31.3752   26.1436 C   0  0  0  0  0  0
  -27.0350  -30.3003   24.6221 C   0  0  0  0  0  0
  -27.6044  -32.4340   25.7488 C   0  0  0  0  0  0
  -27.5570  -37.1806   24.8471 C   0  0  0  0  0  0
  -21.4211  -29.3046   22.3655 N   0  0  0  0  0  0
  -26.4295  -37.3762   23.9395 N   0  0  0  0  0  0
  -24.6975  -31.0503   22.0936 N   0  0  0  0  0  0
  -23.4198  -28.8146   23.3024 O   0  0  0  0  0  0
  -28.3312  -26.3883   20.0893 O   0  0  0  0  0  0
  -26.5638  -34.8913   22.4666 O   0  0  0  0  0  0
  -23.5462  -32.1366   23.7250 O   0  0  0  0  0  0
  -29.4019  -18.4745   20.3039 C   0  0  0  0  0  0
  -30.0004  -17.3239   22.3513 C   0  0  0  0  0  0
  -29.1860  -19.7527   20.9840 C   0  0  0  0  0  0
  -29.2552  -19.6863   22.4089 C   0  0  0  0  0  0
  -29.7794  -17.2304   20.9664 C   0  0  0  0  0  0
  -29.7293  -18.5125   23.0578 C   0  0  0  0  0  0
  -28.2840  -23.6828   20.1728 C   0  0  0  0  0  0
  -30.1027  -23.9283   22.3941 C   0  0  0  0  0  0
  -29.6806  -25.2451   21.7303 C   0  0  0  0  0  0
  -30.2571  -22.8213   21.3343 C   0  0  0  0  0  0
  -28.3857  -25.1253   20.9030 C   0  0  1  0  0  0
  -28.7430  -20.8135   23.2983 C   0  0  0  0  0  0
  -28.7514  -21.0939   20.1885 C   0  0  0  0  0  0
  -28.9999  -22.5615   20.6202 N   0  0  0  0  0  0
  -29.7436  -15.8712   20.3687 N   0  0  0  0  0  0
  -27.4664  -23.5678   19.2549 O   0  0  0  0  0  0
  -29.9279  -18.4725   24.7768 Cl  0  0  0  0  0  0
  -31.4779  -12.6247   19.1433 H   0  0  0  0  0  0
  -30.4100  -11.4983   19.9428 H   0  0  0  0  0  0
  -29.7920  -11.7202   17.5126 H   0  0  0  0  0  0
  -29.6190  -13.4475   17.6937 H   0  0  0  0  0  0
  -27.9011  -11.2670   18.9211 H   0  0  0  0  0  0
  -27.3711  -12.4904   17.7974 H   0  0  0  0  0  0
  -27.6215  -14.2375   19.4458 H   0  0  0  0  0  0
  -28.7326  -12.1694   21.4113 H   0  0  0  0  0  0
  -28.4230  -13.8533   21.7740 H   0  0  0  0  0  0
  -25.2739   -9.5686   22.4755 H   0  0  0  0  0  0
  -23.9988   -7.4631   22.7474 H   0  0  0  0  0  0
  -21.0819   -8.8768   19.8954 H   0  0  0  0  0  0
  -22.3670  -10.9670   19.6176 H   0  0  0  0  0  0
  -21.2011   -7.6141   23.9708 H   0  0  0  0  0  0
  -21.1483   -6.0516   25.9071 H   0  0  0  0  0  0
  -22.0597   -2.7602   23.2843 H   0  0  0  0  0  0
  -22.4069  -11.9892   22.4829 H   0  0  0  0  0  0
  -21.1085  -13.1274   22.2642 H   0  0  0  0  0  0
  -24.6510  -15.8394   20.5395 H   0  0  0  0  0  0
  -26.2649  -15.6390   20.0915 H   0  0  0  0  0  0
  -26.7204  -32.5402   23.1065 H   0  0  0  0  0  0
  -25.0033  -33.9682   25.0362 H   0  0  0  0  0  0
  -22.7263  -31.2957   21.3878 H   0  0  0  0  0  0
  -23.3735  -35.9633   23.3345 H   0  0  0  0  0  0
  -24.3561  -36.8871   22.2050 H   0  0  0  0  0  0
  -23.7265  -37.6505   23.6650 H   0  0  0  0  0  0
  -26.1119  -31.5219   20.6018 H   0  0  0  0  0  0
  -26.8523  -30.8193   22.0090 H   0  0  0  0  0  0
  -28.1337  -28.9370   21.1870 H   0  0  0  0  0  0
  -25.9932  -25.8668   19.0549 H   0  0  0  0  0  0
  -23.9755  -27.2735   19.0328 H   0  0  0  0  0  0
  -23.7784  -30.5701   19.3984 H   0  0  0  0  0  0
  -22.7689  -29.2320   19.8553 H   0  0  0  0  0  0
  -25.1305  -36.1917   25.0821 H   0  0  0  0  0  0
  -20.9990  -28.3280   24.1387 H   0  0  0  0  0  0
  -20.5664  -26.2313   23.3618 H   0  0  0  0  0  0
  -21.6644  -26.7428   22.1211 H   0  0  0  0  0  0
  -19.6908  -25.6292   21.1247 H   0  0  0  0  0  0
  -19.6685  -27.3191   20.6738 H   0  0  0  0  0  0
  -17.4199  -26.6678   21.4033 H   0  0  0  0  0  0
  -18.0333  -26.0076   22.9026 H   0  0  0  0  0  0
  -19.7942  -30.7274   24.2271 H   0  0  0  0  0  0
  -17.5020  -31.6268   24.5165 H   0  0  0  0  0  0
  -15.5358  -30.2990   23.7652 H   0  0  0  0  0  0
  -15.8680  -28.0819   22.7075 H   0  0  0  0  0  0
  -24.5867  -30.7123   25.7756 H   0  0  0  0  0  0
  -24.8918  -32.2933   26.4852 H   0  0  0  0  0  0
  -25.8008  -30.8921   27.0221 H   0  0  0  0  0  0
  -26.2948  -29.6745   24.1223 H   0  0  0  0  0  0
  -27.4002  -29.7271   25.4754 H   0  0  0  0  0  0
  -27.8833  -30.4274   23.9491 H   0  0  0  0  0  0
  -27.2641  -33.3638   26.2057 H   0  0  0  0  0  0
  -28.3848  -32.6909   25.0315 H   0  0  0  0  0  0
  -28.0721  -31.8479   26.5410 H   0  0  0  0  0  0
  -28.2625  -38.0063   24.7458 H   0  0  0  0  0  0
  -28.1027  -36.2594   24.6375 H   0  0  0  0  0  0
  -27.2281  -37.1553   25.8873 H   0  0  0  0  0  0
  -20.9403  -29.8762   21.6851 H   0  0  0  0  0  0
  -26.0178  -38.2844   24.1358 H   0  0  0  0  0  0
  -29.2325  -18.4424   19.2361 H   0  0  0  0  0  0
  -30.2829  -16.4463   22.9137 H   0  0  0  0  0  0
  -29.3658  -23.6419   23.1453 H   0  0  0  0  0  0
  -31.0443  -24.0671   22.9269 H   0  0  0  0  0  0
  -30.4885  -25.5874   21.0826 H   0  0  0  0  0  0
  -29.5567  -26.0166   22.4913 H   0  0  0  0  0  0
  -30.6649  -21.9190   21.7849 H   0  0  0  0  0  0
  -31.0038  -23.1261   20.5995 H   0  0  0  0  0  0
  -27.5479  -25.1431   21.6022 H   0  0  0  0  0  0
  -29.5698  -21.3566   23.7535 H   0  0  0  0  0  0
  -28.1333  -20.4095   24.1064 H   0  0  0  0  0  0
  -28.0938  -21.5095   22.7733 H   0  0  0  0  0  0
  -27.6747  -20.9964   20.0433 H   0  0  0  0  0  0
  -29.1732  -21.0063   19.1875 H   0  0  0  0  0  0
  -28.8329  -15.6188   20.0194 H   0  0  0  0  0  0
  1 25  1  0  0  0
  1 30  2  0  0  0
  1 85  1  0  0  0
  2  3  1  0  0  0
  2 25  1  0  0  0
  2 88  1  0  0  0
  2 89  1  0  0  0
  3  4  1  0  0  0
  3 90  1  0  0  0
  3 91  1  0  0  0
  4  5  1  0  0  0
  4 92  1  0  0  0
  4 93  1  0  0  0
  5  6  1  0  0  0
  5 26  1  0  0  0
  5 94  1  0  0  0
  6 25  1  0  0  0
  6 95  1  0  0  0
  6 96  1  0  0  0
  7  8  2  0  0  0
  7 26  1  0  0  0
  7 29  1  0  0  0
  8  9  1  0  0  0
  8 22  1  0  0  0
  9 10  1  0  0  0
  9 27  2  0  0  0
 10 11  2  0  0  0
 10 15  1  0  0  0
 11 12  1  0  0  0
 11 97  1  0  0  0
 12 13  2  0  0  0
 12 98  1  0  0  0
 13 14  1  0  0  0
 13 31  1  0  0  0
 14 15  2  0  0  0
 14 99  1  0  0  0
 15100  1  0  0  0
 16 17  2  0  0  0
 16 21  1  0  0  0
 16 31  1  0  0  0
 17 18  1  0  0  0
 17101  1  0  0  0
 18 19  2  0  0  0
 18102  1  0  0  0
 19 20  1  0  0  0
 19 24  1  0  0  0
 20 21  2  0  0  0
 20103  1  0  0  0
 21 23  1  0  0  0
 22 28  1  0  0  0
 22 32  2  0  0  0
 26 27  1  0  0  0
 28104  1  0  0  0
 28105  1  0  0  0
 29106  1  0  0  0
 29107  1  0  0  0
 33 34  1  0  0  0
 33 66  1  0  0  0
 33 70  2  0  0  0
 34 36  1  0  0  0
 34 59  1  0  0  0
 34108  1  0  0  0
 35 44  2  0  0  0
 35 45  1  0  0  0
 35 68  1  0  0  0
 36 56  1  0  0  0
 36109  1  0  0  0
 37 39  1  0  0  0
 37 47  1  0  0  0
 37 66  1  0  0  0
 37110  1  0  0  0
 38 43  2  0  0  0
 38 46  1  0  0  0
 38 47  1  0  0  0
 39 64  1  0  0  0
 39 67  2  0  0  0
 40 52  1  0  0  0
 40 53  2  0  0  0
 40 58  1  0  0  0
 41111  1  0  0  0
 41112  1  0  0  0
 41113  1  0  0  0
 41 48  1  0  0  0
 42 43  1  0  0  0
 42 66  1  0  0  0
 42114  1  0  0  0
 42115  1  0  0  0
 43 44  1  0  0  0
 44116  1  0  0  0
 45 46  2  0  0  0
 45117  1  0  0  0
 46118  1  0  0  0
 47119  1  0  0  0
 47120  1  0  0  0
 48 56  1  0  0  0
 48 65  1  0  0  0
 48121  1  0  0  0
 49 50  1  0  0  0
 49 53  1  0  0  0
 49 64  1  0  0  0
 49122  1  0  0  0
 50 51  1  0  0  0
 50123  1  0  0  0
 50124  1  0  0  0
 51 52  1  0  0  0
 51125  1  0  0  0
 51126  1  0  0  0
 52127  1  0  0  0
 52128  1  0  0  0
 53 54  1  0  0  0
 54 55  2  0  0  0
 54129  1  0  0  0
 55 57  1  0  0  0
 55130  1  0  0  0
 56 69  2  0  0  0
 57 58  2  0  0  0
 57131  1  0  0  0
 58132  1  0  0  0
 59 60  1  0  0  0
 59 61  1  0  0  0
 59 62  1  0  0  0
 60133  1  0  0  0
 60134  1  0  0  0
 60135  1  0  0  0
 61136  1  0  0  0
 61137  1  0  0  0
 61138  1  0  0  0
 62139  1  0  0  0
 62140  1  0  0  0
 62141  1  0  0  0
 63 65  1  0  0  0
 63142  1  0  0  0
 63143  1  0  0  0
 63144  1  0  0  0
 64145  1  0  0  0
 65146  1  0  0  0
 68 81  1  0  0  0
 71 73  2  0  0  0
 71 75  1  0  0  0
 71147  1  0  0  0
 72 75  2  0  0  0
 72 76  1  0  0  0
 72148  1  0  0  0
 73 74  1  0  0  0
 73 83  1  0  0  0
 74 76  2  0  0  0
 74 82  1  0  0  0
 75 85  1  0  0  0
 76 87  1  0  0  0
 77 81  1  0  0  0
 77 84  1  0  0  0
 77 86  2  0  0  0
 78 79  1  0  0  0
 78 80  1  0  0  0
 78149  1  0  0  0
 78150  1  0  0  0
 79 81  1  0  0  0
 79151  1  0  0  0
 79152  1  0  0  0
 80 84  1  0  0  0
 80153  1  0  0  0
 80154  1  0  0  0
 81155  1  0  0  0
 82156  1  0  0  0
 82157  1  0  0  0
 82158  1  0  0  0
 83 84  1  0  0  0
 83159  1  0  0  0
 83160  1  0  0  0
 85161  1  0  0  0
M  ISO  4   1 100  68 101  81 101  85 100
M  END
> <chiral flag>
0

> <version>
0

> <s_m_source_file>
/data/baiqing/PycharmProjects/Reinvent-master-3.2/result/LINK_invent/BTK/process_docking_weight1_custom_product_contain_oxygen_bond_distance_aromatic_linkinvent_7_9_3/rearranged_h_0045.sdf

> <i_m_source_file_index>
24

> <r_mmod_Potential_Energy-OPLS-2005>
316.201904296875

> <r_mmod_Stretch_Energy-OPLS-2005>
140.038772583008

> <r_mmod_Bend_Energy-OPLS-2005>
179.885284423828

> <r_mmod_Torsional_Energy-OPLS-2005>
309.009735107422

> <r_mmod_Improper_Torsional_Energy-OPLS-2005>
14.6721086502075

> <r_mmod_Van_der_Waal_Energy-OPLS-2005>
139.183547973633

> <r_mmod_Electrostatic_Energy-OPLS-2005>
-329.96484375

> <r_mmod_Solvation_Energy-OPLS-2005>
-229.345153808594

> <b_mmod_Minimization_Converged-OPLS-2005>
0

> <r_mmod_RMS_Derivative-OPLS-2005>
1.15264713764191

$$$$
24
                    3D
 Structure written by MMmdl.
155163  0  0  1  0            999 V2000
  -30.7184  -14.4504   20.5957 C   0  0  0  0  0  0
  -30.4189  -12.2982   19.4291 C   0  0  0  0  0  0
  -29.4985  -12.5200   18.2118 C   0  0  0  0  0  0
  -28.0179  -12.3810   18.6169 C   0  0  0  0  0  0
  -27.6655  -13.2103   19.8815 C   0  0  2  0  0  0
  -28.7029  -12.9824   21.0047 C   0  0  0  0  0  0
  -25.2603  -13.8171   20.5695 C   0  0  0  0  0  0
  -24.1852  -13.0448   20.9179 C   0  0  0  0  0  0
  -24.6409  -11.6916   20.8728 C   0  0  0  0  0  0
  -23.9073  -10.4301   21.0396 C   0  0  0  0  0  0
  -24.3621   -9.4214   21.9178 C   0  0  0  0  0  0
  -23.6294   -8.2251   22.0752 C   0  0  0  0  0  0
  -22.4270   -8.0295   21.3551 C   0  0  0  0  0  0
  -21.9903   -9.0270   20.4651 C   0  0  0  0  0  0
  -22.7241  -10.2143   20.3055 C   0  0  0  0  0  0
  -21.6857   -6.0742   22.5279 C   0  0  0  0  0  0
  -21.4025   -6.5646   23.8217 C   0  0  0  0  0  0
  -21.3658   -5.6792   24.9176 C   0  0  0  0  0  0
  -21.6034   -4.3054   24.7228 C   0  0  0  0  0  0
  -21.8819   -3.8153   23.4348 C   0  0  0  0  0  0
  -21.9197   -4.6969   22.3401 C   0  0  0  0  0  0
  -22.7871  -13.5250   21.1840 C   0  0  0  0  0  0
  -22.1662   -4.2154   21.0977 F   0  0  0  0  0  0
  -21.5618   -3.4535   25.7742 F   0  0  0  0  0  0
  -30.0408  -13.2771   20.4625 N   0  0  0  0  0  0
  -26.3046  -12.9347   20.3385 N   0  0  0  0  0  0
  -25.9333  -11.6498   20.5749 N   0  0  0  0  0  0
  -22.0510  -12.8248   22.0397 N   0  0  0  0  0  0
  -25.4337  -15.1886   20.4102 N   0  0  0  0  0  0
  -31.8284  -14.6292   20.0877 O   0  0  0  0  0  0
  -21.6640   -6.8887   21.4244 O   0  0  0  0  0  0
  -22.3557  -14.5559   20.6690 O   0  0  0  0  0  0
  -24.6173  -31.8679   23.2128 C   0  0  0  0  0  0
  -25.9068  -32.4819   23.8405 C   0  0  1  0  0  0
  -27.2285  -27.4271   20.0896 C   0  0  0  0  0  0
  -25.5912  -33.8615   24.2327 N   0  0  0  0  0  0
  -23.4035  -30.4960   21.5542 C   0  0  2  0  0  0
  -24.8467  -28.9691   20.1132 C   0  0  0  0  0  0
  -22.7417  -29.4664   22.4989 C   0  0  0  0  0  0
  -18.0275  -28.1365   22.8486 C   0  0  0  0  0  0
  -24.1485  -36.7324   23.2627 C   0  0  0  0  0  0
  -25.9363  -30.8303   21.3703 C   0  0  0  0  0  0
  -26.0099  -29.4675   20.7128 C   0  0  0  0  0  0
  -27.2019  -28.7038   20.7004 C   0  0  0  0  0  0
  -26.0435  -26.9604   19.4662 C   0  0  0  0  0  0
  -24.8587  -27.7142   19.4882 C   0  0  0  0  0  0
  -23.6110  -29.8365   20.1664 C   0  0  0  0  0  0
  -25.4097  -36.3109   24.0335 C   0  0  1  0  0  0
  -20.5866  -28.3657   23.1305 C   0  0  2  0  0  0
  -20.6766  -26.9387   22.5410 C   0  0  0  0  0  0
  -19.5743  -26.6374   21.5203 C   0  0  0  0  0  0
  -18.1923  -26.7911   22.1615 C   0  0  0  0  0  0
  -19.1527  -28.8824   23.2893 C   0  0  0  0  0  0
  -18.9452  -30.1437   23.8901 C   0  0  0  0  0  0
  -17.6455  -30.6566   24.0570 C   0  0  0  0  0  0
  -25.9041  -34.9476   23.5127 C   0  0  0  0  0  0
  -16.5345  -29.9073   23.6323 C   0  0  0  0  0  0
  -16.7267  -28.6490   23.0336 C   0  0  0  0  0  0
  -26.4473  -31.6601   25.0745 C   0  0  0  0  0  0
  -25.3736  -31.3716   26.1497 C   0  0  0  0  0  0
  -27.0311  -30.3040   24.6143 C   0  0  0  0  0  0
  -27.6058  -32.4316   25.7493 C   0  0  0  0  0  0
  -27.5595  -37.1784   24.8431 C   0  0  0  0  0  0
  -21.4142  -29.3032   22.3718 N   0  0  0  0  0  0
  -26.4268  -37.3813   23.9437 N   0  0  0  0  0  0
  -24.6703  -31.0787   22.1032 N   0  0  0  0  0  0
  -23.4186  -28.8194   23.3024 O   0  0  0  0  0  0
  -28.3897  -26.6705   20.1311 O   0  0  0  0  0  0
  -26.5602  -34.8929   22.4692 O   0  0  0  0  0  0
  -23.5367  -32.1425   23.7529 O   0  0  0  0  0  0
  -31.4296  -18.8326   20.3207 C   0  0  0  0  0  0
  -31.3964  -17.4869   20.7392 C   0  0  0  0  0  0
  -28.9774  -17.6033   20.9000 C   0  0  0  0  0  0
  -30.2369  -19.5679   20.1359 C   0  0  0  0  0  0
  -29.0031  -18.9565   20.4819 C   0  0  0  0  0  0
  -30.1618  -16.8357   20.9676 C   0  0  0  0  0  0
  -30.1111  -22.2097   20.1880 C   0  0  0  0  0  0
  -29.3790  -24.3920   20.3494 C   0  0  0  0  0  0
  -27.6892  -19.7099   20.3534 C   0  0  0  0  0  0
  -30.3110  -20.9165   19.4040 C   0  0  0  0  0  0
  -28.2598  -25.2795   19.7798 C   0  0  0  0  0  0
  -29.4392  -23.1739   19.6849 N   0  0  0  0  0  0
  -30.0570  -15.4346   21.2405 N   0  0  0  0  0  0
  -30.0653  -24.7804   21.2990 O   0  0  0  0  0  0
  -31.4663  -12.3803   19.1328 H   0  0  0  0  0  0
  -30.3017  -11.2855   19.8169 H   0  0  0  0  0  0
  -29.7364  -11.8073   17.4202 H   0  0  0  0  0  0
  -29.6758  -13.5123   17.7943 H   0  0  0  0  0  0
  -27.8208  -11.3240   18.7986 H   0  0  0  0  0  0
  -27.3744  -12.6713   17.7851 H   0  0  0  0  0  0
  -27.7133  -14.2612   19.5949 H   0  0  0  0  0  0
  -28.6710  -11.9462   21.3438 H   0  0  0  0  0  0
  -28.4600  -13.5789   21.8846 H   0  0  0  0  0  0
  -25.2761   -9.5685   22.4758 H   0  0  0  0  0  0
  -24.0007   -7.4635   22.7460 H   0  0  0  0  0  0
  -21.0836   -8.8788   19.8957 H   0  0  0  0  0  0
  -22.3697  -10.9684   19.6169 H   0  0  0  0  0  0
  -21.2027   -7.6155   23.9724 H   0  0  0  0  0  0
  -21.1470   -6.0522   25.9075 H   0  0  0  0  0  0
  -22.0599   -2.7617   23.2848 H   0  0  0  0  0  0
  -22.4108  -11.9910   22.4793 H   0  0  0  0  0  0
  -21.1134  -13.1290   22.2603 H   0  0  0  0  0  0
  -24.6701  -15.8472   20.5164 H   0  0  0  0  0  0
  -26.2832  -15.6203   20.0702 H   0  0  0  0  0  0
  -26.7147  -32.5517   23.1174 H   0  0  0  0  0  0
  -25.0058  -33.9761   25.0465 H   0  0  0  0  0  0
  -22.6927  -31.3136   21.4194 H   0  0  0  0  0  0
  -23.3762  -35.9638   23.3231 H   0  0  0  0  0  0
  -24.3607  -36.9001   22.2055 H   0  0  0  0  0  0
  -23.7208  -37.6498   23.6684 H   0  0  0  0  0  0
  -26.0584  -31.5985   20.6050 H   0  0  0  0  0  0
  -26.8216  -30.8749   21.9930 H   0  0  0  0  0  0
  -28.0967  -29.0837   21.1731 H   0  0  0  0  0  0
  -25.9987  -26.0134   18.9508 H   0  0  0  0  0  0
  -23.9669  -27.3280   19.0143 H   0  0  0  0  0  0
  -23.7223  -30.6155   19.4112 H   0  0  0  0  0  0
  -22.7331  -29.2606   19.8676 H   0  0  0  0  0  0
  -25.1259  -36.1959   25.0822 H   0  0  0  0  0  0
  -20.9960  -28.3227   24.1424 H   0  0  0  0  0  0
  -20.5658  -26.2258   23.3596 H   0  0  0  0  0  0
  -21.6638  -26.7417   22.1208 H   0  0  0  0  0  0
  -19.6907  -25.6293   21.1212 H   0  0  0  0  0  0
  -19.6680  -27.3198   20.6744 H   0  0  0  0  0  0
  -17.4189  -26.6662   21.4021 H   0  0  0  0  0  0
  -18.0325  -26.0041   22.8998 H   0  0  0  0  0  0
  -19.7931  -30.7256   24.2259 H   0  0  0  0  0  0
  -17.5008  -31.6240   24.5182 H   0  0  0  0  0  0
  -15.5348  -30.2974   23.7637 H   0  0  0  0  0  0
  -15.8669  -28.0821   22.7032 H   0  0  0  0  0  0
  -24.5878  -30.7099   25.7833 H   0  0  0  0  0  0
  -24.8963  -32.2879   26.4980 H   0  0  0  0  0  0
  -25.8078  -30.8845   27.0236 H   0  0  0  0  0  0
  -26.2867  -29.6796   24.1190 H   0  0  0  0  0  0
  -27.4064  -29.7285   25.4614 H   0  0  0  0  0  0
  -27.8708  -30.4354   23.9316 H   0  0  0  0  0  0
  -27.2683  -33.3597   26.2116 H   0  0  0  0  0  0
  -28.3830  -32.6904   25.0293 H   0  0  0  0  0  0
  -28.0769  -31.8414   26.5361 H   0  0  0  0  0  0
  -28.2522  -38.0173   24.7642 H   0  0  0  0  0  0
  -28.1181  -36.2723   24.6038 H   0  0  0  0  0  0
  -27.2355  -37.1178   25.8834 H   0  0  0  0  0  0
  -20.9296  -29.8770   21.6957 H   0  0  0  0  0  0
  -26.0151  -38.2867   24.1530 H   0  0  0  0  0  0
  -32.3847  -19.2778   20.0771 H   0  0  0  0  0  0
  -32.3313  -16.9516   20.8288 H   0  0  0  0  0  0
  -28.0257  -17.1351   21.1107 H   0  0  0  0  0  0
  -30.6012  -22.2411   21.1658 H   0  0  0  0  0  0
  -26.8563  -19.1307   20.7540 H   0  0  0  0  0  0
  -27.4692  -19.9299   19.3088 H   0  0  0  0  0  0
  -27.7242  -20.6490   20.9060 H   0  0  0  0  0  0
  -29.5863  -20.8893   18.5891 H   0  0  0  0  0  0
  -31.2789  -20.9895   18.9071 H   0  0  0  0  0  0
  -27.3426  -24.8521   20.1886 H   0  0  0  0  0  0
  -28.2269  -25.1848   18.6926 H   0  0  0  0  0  0
  -29.1848  -15.1322   21.6475 H   0  0  0  0  0  0
  1 25  1  0  0  0
  1 30  2  0  0  0
  1 83  1  0  0  0
  2  3  1  0  0  0
  2 25  1  0  0  0
  2 85  1  0  0  0
  2 86  1  0  0  0
  3  4  1  0  0  0
  3 87  1  0  0  0
  3 88  1  0  0  0
  4  5  1  0  0  0
  4 89  1  0  0  0
  4 90  1  0  0  0
  5  6  1  0  0  0
  5 26  1  0  0  0
  5 91  1  0  0  0
  6 25  1  0  0  0
  6 92  1  0  0  0
  6 93  1  0  0  0
  7  8  2  0  0  0
  7 26  1  0  0  0
  7 29  1  0  0  0
  8  9  1  0  0  0
  8 22  1  0  0  0
  9 10  1  0  0  0
  9 27  2  0  0  0
 10 11  2  0  0  0
 10 15  1  0  0  0
 11 12  1  0  0  0
 11 94  1  0  0  0
 12 13  2  0  0  0
 12 95  1  0  0  0
 13 14  1  0  0  0
 13 31  1  0  0  0
 14 15  2  0  0  0
 14 96  1  0  0  0
 15 97  1  0  0  0
 16 17  2  0  0  0
 16 21  1  0  0  0
 16 31  1  0  0  0
 17 18  1  0  0  0
 17 98  1  0  0  0
 18 19  2  0  0  0
 18 99  1  0  0  0
 19 20  1  0  0  0
 19 24  1  0  0  0
 20 21  2  0  0  0
 20100  1  0  0  0
 21 23  1  0  0  0
 22 28  1  0  0  0
 22 32  2  0  0  0
 26 27  1  0  0  0
 28101  1  0  0  0
 28102  1  0  0  0
 29103  1  0  0  0
 29104  1  0  0  0
 33 34  1  0  0  0
 33 66  1  0  0  0
 33 70  2  0  0  0
 34 36  1  0  0  0
 34 59  1  0  0  0
 34105  1  0  0  0
 35 44  2  0  0  0
 35 45  1  0  0  0
 35 68  1  0  0  0
 36 56  1  0  0  0
 36106  1  0  0  0
 37 39  1  0  0  0
 37 47  1  0  0  0
 37 66  1  0  0  0
 37107  1  0  0  0
 38 43  2  0  0  0
 38 46  1  0  0  0
 38 47  1  0  0  0
 39 64  1  0  0  0
 39 67  2  0  0  0
 40 52  1  0  0  0
 40 53  2  0  0  0
 40 58  1  0  0  0
 41108  1  0  0  0
 41109  1  0  0  0
 41110  1  0  0  0
 41 48  1  0  0  0
 42 43  1  0  0  0
 42 66  1  0  0  0
 42111  1  0  0  0
 42112  1  0  0  0
 43 44  1  0  0  0
 44113  1  0  0  0
 45 46  2  0  0  0
 45114  1  0  0  0
 46115  1  0  0  0
 47116  1  0  0  0
 47117  1  0  0  0
 48 56  1  0  0  0
 48 65  1  0  0  0
 48118  1  0  0  0
 49 50  1  0  0  0
 49 53  1  0  0  0
 49 64  1  0  0  0
 49119  1  0  0  0
 50 51  1  0  0  0
 50120  1  0  0  0
 50121  1  0  0  0
 51 52  1  0  0  0
 51122  1  0  0  0
 51123  1  0  0  0
 52124  1  0  0  0
 52125  1  0  0  0
 53 54  1  0  0  0
 54 55  2  0  0  0
 54126  1  0  0  0
 55 57  1  0  0  0
 55127  1  0  0  0
 56 69  2  0  0  0
 57 58  2  0  0  0
 57128  1  0  0  0
 58129  1  0  0  0
 59 60  1  0  0  0
 59 61  1  0  0  0
 59 62  1  0  0  0
 60130  1  0  0  0
 60131  1  0  0  0
 60132  1  0  0  0
 61133  1  0  0  0
 61134  1  0  0  0
 61135  1  0  0  0
 62136  1  0  0  0
 62137  1  0  0  0
 62138  1  0  0  0
 63 65  1  0  0  0
 63139  1  0  0  0
 63140  1  0  0  0
 63141  1  0  0  0
 64142  1  0  0  0
 65143  1  0  0  0
 68 81  1  0  0  0
 71 72  2  0  0  0
 71 74  1  0  0  0
 71144  1  0  0  0
 72 76  1  0  0  0
 72145  1  0  0  0
 73 75  1  0  0  0
 73 76  2  0  0  0
 73146  1  0  0  0
 74 75  2  0  0  0
 74 80  1  0  0  0
 75 79  1  0  0  0
 76 83  1  0  0  0
 77 80  1  0  0  0
 77 82  2  0  0  0
 77147  1  0  0  0
 78 81  1  0  0  0
 78 82  1  0  0  0
 78 84  2  0  0  0
 79148  1  0  0  0
 79149  1  0  0  0
 79150  1  0  0  0
 80151  1  0  0  0
 80152  1  0  0  0
 81153  1  0  0  0
 81154  1  0  0  0
 83155  1  0  0  0
M  ISO  4   1 100  68 101  81 101  83 100
M  END
> <chiral flag>
0

> <version>
0

> <s_m_source_file>
/data/baiqing/PycharmProjects/Reinvent-master-3.2/result/LINK_invent/BTK/process_docking_weight1_custom_product_contain_oxygen_bond_distance_aromatic_linkinvent_7_9_3/rearranged_h_0045.sdf

> <i_m_source_file_index>
25

> <r_mmod_Potential_Energy-OPLS-2005>
-13.7636575698853

> <r_mmod_Stretch_Energy-OPLS-2005>
39.2060470581055

> <r_mmod_Bend_Energy-OPLS-2005>
107.891845703125

> <r_mmod_Torsional_Energy-OPLS-2005>
222.328338623047

> <r_mmod_Improper_Torsional_Energy-OPLS-2005>
5.19986772537231

> <r_mmod_Van_der_Waal_Energy-OPLS-2005>
166.728485107422

> <r_mmod_Electrostatic_Energy-OPLS-2005>
-356.794494628906

> <r_mmod_Solvation_Energy-OPLS-2005>
-211.232559204102

> <b_mmod_Minimization_Converged-OPLS-2005>
0

> <r_mmod_RMS_Derivative-OPLS-2005>
1.49320578575134

$$$$
25
                    3D
 Structure written by MMmdl.
158166  0  0  1  0            999 V2000
  -30.7025  -14.4399   20.5989 C   0  0  0  0  0  0
  -30.4228  -12.2949   19.4192 C   0  0  0  0  0  0
  -29.4914  -12.5168   18.2097 C   0  0  0  0  0  0
  -28.0148  -12.3651   18.6220 C   0  0  0  0  0  0
  -27.6628  -13.2002   19.8814 C   0  0  2  0  0  0
  -28.7018  -12.9601   21.0006 C   0  0  0  0  0  0
  -25.2576  -13.8158   20.5654 C   0  0  0  0  0  0
  -24.1813  -13.0450   20.9158 C   0  0  0  0  0  0
  -24.6368  -11.6917   20.8744 C   0  0  0  0  0  0
  -23.9044  -10.4303   21.0405 C   0  0  0  0  0  0
  -24.3601   -9.4218   21.9181 C   0  0  0  0  0  0
  -23.6276   -8.2252   22.0757 C   0  0  0  0  0  0
  -22.4260   -8.0289   21.3545 C   0  0  0  0  0  0
  -21.9887   -9.0268   20.4651 C   0  0  0  0  0  0
  -22.7217  -10.2145   20.3058 C   0  0  0  0  0  0
  -21.6862   -6.0735   22.5282 C   0  0  0  0  0  0
  -21.4028   -6.5630   23.8222 C   0  0  0  0  0  0
  -21.3654   -5.6781   24.9176 C   0  0  0  0  0  0
  -21.6036   -4.3041   24.7220 C   0  0  0  0  0  0
  -21.8818   -3.8145   23.4343 C   0  0  0  0  0  0
  -21.9189   -4.6969   22.3401 C   0  0  0  0  0  0
  -22.7838  -13.5265   21.1801 C   0  0  0  0  0  0
  -22.1645   -4.2153   21.0979 F   0  0  0  0  0  0
  -21.5627   -3.4519   25.7727 F   0  0  0  0  0  0
  -30.0393  -13.2618   20.4582 N   0  0  0  0  0  0
  -26.3016  -12.9316   20.3393 N   0  0  0  0  0  0
  -25.9295  -11.6483   20.5801 N   0  0  0  0  0  0
  -22.0445  -12.8325   22.0379 N   0  0  0  0  0  0
  -25.4301  -15.1869   20.4038 N   0  0  0  0  0  0
  -31.8065  -14.6590   20.0913 O   0  0  0  0  0  0
  -21.6632   -6.8879   21.4243 O   0  0  0  0  0  0
  -22.3547  -14.5556   20.6615 O   0  0  0  0  0  0
  -24.6142  -31.8682   23.2122 C   0  0  0  0  0  0
  -25.9033  -32.4833   23.8408 C   0  0  1  0  0  0
  -27.2400  -27.4424   20.1051 C   0  0  0  0  0  0
  -25.5900  -33.8636   24.2340 N   0  0  0  0  0  0
  -23.4060  -30.4890   21.5487 C   0  0  2  0  0  0
  -24.8560  -28.9525   20.1173 C   0  0  0  0  0  0
  -22.7416  -29.4640   22.4973 C   0  0  0  0  0  0
  -18.0269  -28.1394   22.8507 C   0  0  0  0  0  0
  -24.1484  -36.7321   23.2641 C   0  0  0  0  0  0
  -25.9312  -30.8314   21.3669 C   0  0  0  0  0  0
  -26.0112  -29.4638   20.7242 C   0  0  0  0  0  0
  -27.2067  -28.7116   20.7246 C   0  0  0  0  0  0
  -26.0756  -26.9424   19.4882 C   0  0  0  0  0  0
  -24.8809  -27.6890   19.4990 C   0  0  0  0  0  0
  -23.6199  -29.8216   20.1626 C   0  0  0  0  0  0
  -25.4101  -36.3114   24.0338 C   0  0  1  0  0  0
  -20.5857  -28.3677   23.1316 C   0  0  2  0  0  0
  -20.6753  -26.9412   22.5418 C   0  0  0  0  0  0
  -19.5722  -26.6383   21.5230 C   0  0  0  0  0  0
  -18.1902  -26.7944   22.1634 C   0  0  0  0  0  0
  -19.1521  -28.8851   23.2911 C   0  0  0  0  0  0
  -18.9454  -30.1451   23.8928 C   0  0  0  0  0  0
  -17.6467  -30.6603   24.0591 C   0  0  0  0  0  0
  -25.9024  -34.9479   23.5135 C   0  0  0  0  0  0
  -16.5350  -29.9122   23.6330 C   0  0  0  0  0  0
  -16.7257  -28.6540   23.0357 C   0  0  0  0  0  0
  -26.4470  -31.6627   25.0745 C   0  0  0  0  0  0
  -25.3756  -31.3732   26.1514 C   0  0  0  0  0  0
  -27.0304  -30.3079   24.6102 C   0  0  0  0  0  0
  -27.6045  -32.4360   25.7503 C   0  0  0  0  0  0
  -27.5569  -37.1807   24.8463 C   0  0  0  0  0  0
  -21.4140  -29.3058   22.3730 N   0  0  0  0  0  0
  -26.4286  -37.3791   23.9417 N   0  0  0  0  0  0
  -24.6685  -31.0768   22.1022 N   0  0  0  0  0  0
  -23.4185  -28.8156   23.2993 O   0  0  0  0  0  0
  -28.3856  -26.6857   20.0710 O   0  0  0  0  0  0
  -26.5587  -34.8935   22.4689 O   0  0  0  0  0  0
  -23.5338  -32.1418   23.7516 O   0  0  0  0  0  0
  -30.7202  -19.5482   23.8961 C   0  0  0  0  0  0
  -30.7480  -18.7578   25.0596 C   0  0  0  0  0  0
  -30.4222  -16.7655   23.7067 C   0  0  0  0  0  0
  -30.5391  -18.9631   22.6208 C   0  0  0  0  0  0
  -30.4128  -17.5437   22.5216 C   0  0  0  0  0  0
  -30.5826  -17.3674   24.9668 C   0  0  0  0  0  0
  -29.1190  -23.3646   21.2296 C   0  0  0  0  0  0
  -29.4282  -24.6425   20.9110 C   0  0  0  0  0  0
  -30.0160  -22.2699   20.8730 C   0  0  0  0  0  0
  -30.5292  -19.8837   21.3901 C   0  0  0  0  0  0
  -30.2821  -16.8496   21.1612 C   0  0  0  0  0  0
  -28.5716  -25.8621   21.2244 C   0  0  0  0  0  0
  -29.8009  -21.1477   21.5803 N   0  0  0  0  0  0
  -30.0006  -15.4102   21.2029 N   0  0  0  0  0  0
  -30.8876  -22.3335   20.0045 O   0  0  0  0  0  0
  -30.5777  -16.3985   26.3946 Cl  0  0  0  0  0  0
  -31.4643  -12.4021   19.1158 H   0  0  0  0  0  0
  -30.3299  -11.2754   19.7971 H   0  0  0  0  0  0
  -29.7307  -11.8151   17.4098 H   0  0  0  0  0  0
  -29.6544  -13.5157   17.8031 H   0  0  0  0  0  0
  -27.8282  -11.3084   18.8137 H   0  0  0  0  0  0
  -27.3625  -12.6372   17.7923 H   0  0  0  0  0  0
  -27.7134  -14.2505   19.5950 H   0  0  0  0  0  0
  -28.6689  -11.9201   21.3255 H   0  0  0  0  0  0
  -28.4608  -13.5445   21.8893 H   0  0  0  0  0  0
  -25.2744   -9.5687   22.4765 H   0  0  0  0  0  0
  -23.9974   -7.4641   22.7482 H   0  0  0  0  0  0
  -21.0813   -8.8810   19.8964 H   0  0  0  0  0  0
  -22.3681  -10.9693   19.6177 H   0  0  0  0  0  0
  -21.2041   -7.6144   23.9731 H   0  0  0  0  0  0
  -21.1461   -6.0504   25.9079 H   0  0  0  0  0  0
  -22.0601   -2.7608   23.2844 H   0  0  0  0  0  0
  -22.4022  -12.0002   22.4836 H   0  0  0  0  0  0
  -21.1072  -13.1420   22.2537 H   0  0  0  0  0  0
  -24.6639  -15.8436   20.5066 H   0  0  0  0  0  0
  -26.2889  -15.6274   20.1008 H   0  0  0  0  0  0
  -26.7106  -32.5547   23.1176 H   0  0  0  0  0  0
  -25.0100  -33.9817   25.0513 H   0  0  0  0  0  0
  -22.6963  -31.3043   21.4042 H   0  0  0  0  0  0
  -23.3747  -35.9656   23.3329 H   0  0  0  0  0  0
  -24.3583  -36.8916   22.2053 H   0  0  0  0  0  0
  -23.7228  -37.6528   23.6647 H   0  0  0  0  0  0
  -26.0362  -31.5880   20.5894 H   0  0  0  0  0  0
  -26.8242  -30.8915   21.9784 H   0  0  0  0  0  0
  -28.0992  -29.0982   21.1973 H   0  0  0  0  0  0
  -26.0944  -25.9755   19.0047 H   0  0  0  0  0  0
  -23.9938  -27.2917   19.0268 H   0  0  0  0  0  0
  -23.7397  -30.5977   19.4038 H   0  0  0  0  0  0
  -22.7442  -29.2455   19.8573 H   0  0  0  0  0  0
  -25.1264  -36.1978   25.0828 H   0  0  0  0  0  0
  -20.9937  -28.3241   24.1437 H   0  0  0  0  0  0
  -20.5642  -26.2295   23.3607 H   0  0  0  0  0  0
  -21.6624  -26.7447   22.1204 H   0  0  0  0  0  0
  -19.6882  -25.6293   21.1256 H   0  0  0  0  0  0
  -19.6666  -27.3213   20.6778 H   0  0  0  0  0  0
  -17.4167  -26.6714   21.4036 H   0  0  0  0  0  0
  -18.0290  -26.0083   22.9020 H   0  0  0  0  0  0
  -19.7939  -30.7262   24.2298 H   0  0  0  0  0  0
  -17.5037  -31.6286   24.5196 H   0  0  0  0  0  0
  -15.5359  -30.3066   23.7628 H   0  0  0  0  0  0
  -15.8648  -28.0890   22.7042 H   0  0  0  0  0  0
  -24.5914  -30.7082   25.7882 H   0  0  0  0  0  0
  -24.8965  -32.2888   26.4994 H   0  0  0  0  0  0
  -25.8122  -30.8900   27.0254 H   0  0  0  0  0  0
  -26.2830  -29.6845   24.1182 H   0  0  0  0  0  0
  -27.4113  -29.7312   25.4534 H   0  0  0  0  0  0
  -27.8659  -30.4437   23.9232 H   0  0  0  0  0  0
  -27.2657  -33.3644   26.2110 H   0  0  0  0  0  0
  -28.3836  -32.6949   25.0326 H   0  0  0  0  0  0
  -28.0741  -31.8478   26.5395 H   0  0  0  0  0  0
  -28.2581  -38.0113   24.7520 H   0  0  0  0  0  0
  -28.1049  -36.2632   24.6258 H   0  0  0  0  0  0
  -27.2292  -37.1447   25.8869 H   0  0  0  0  0  0
  -20.9276  -29.8876   21.7060 H   0  0  0  0  0  0
  -26.0173  -38.2853   24.1463 H   0  0  0  0  0  0
  -30.8473  -20.6173   23.9931 H   0  0  0  0  0  0
  -30.8931  -19.2171   26.0278 H   0  0  0  0  0  0
  -30.3158  -15.6909   23.6739 H   0  0  0  0  0  0
  -28.1903  -23.1599   21.7457 H   0  0  0  0  0  0
  -30.3592  -24.8570   20.4048 H   0  0  0  0  0  0
  -30.0959  -19.3938   20.5208 H   0  0  0  0  0  0
  -31.5721  -20.0873   21.1374 H   0  0  0  0  0  0
  -31.1800  -17.0627   20.5769 H   0  0  0  0  0  0
  -29.4458  -17.2972   20.6237 H   0  0  0  0  0  0
  -29.0769  -26.4513   21.9911 H   0  0  0  0  0  0
  -27.6155  -25.5413   21.6446 H   0  0  0  0  0  0
  -29.0735  -21.1559   22.2805 H   0  0  0  0  0  0
  -29.1044  -15.1446   21.5814 H   0  0  0  0  0  0
  1 25  1  0  0  0
  1 30  2  0  0  0
  1 84  1  0  0  0
  2  3  1  0  0  0
  2 25  1  0  0  0
  2 87  1  0  0  0
  2 88  1  0  0  0
  3  4  1  0  0  0
  3 89  1  0  0  0
  3 90  1  0  0  0
  4  5  1  0  0  0
  4 91  1  0  0  0
  4 92  1  0  0  0
  5  6  1  0  0  0
  5 26  1  0  0  0
  5 93  1  0  0  0
  6 25  1  0  0  0
  6 94  1  0  0  0
  6 95  1  0  0  0
  7  8  2  0  0  0
  7 26  1  0  0  0
  7 29  1  0  0  0
  8  9  1  0  0  0
  8 22  1  0  0  0
  9 10  1  0  0  0
  9 27  2  0  0  0
 10 11  2  0  0  0
 10 15  1  0  0  0
 11 12  1  0  0  0
 11 96  1  0  0  0
 12 13  2  0  0  0
 12 97  1  0  0  0
 13 14  1  0  0  0
 13 31  1  0  0  0
 14 15  2  0  0  0
 14 98  1  0  0  0
 15 99  1  0  0  0
 16 17  2  0  0  0
 16 21  1  0  0  0
 16 31  1  0  0  0
 17 18  1  0  0  0
 17100  1  0  0  0
 18 19  2  0  0  0
 18101  1  0  0  0
 19 20  1  0  0  0
 19 24  1  0  0  0
 20 21  2  0  0  0
 20102  1  0  0  0
 21 23  1  0  0  0
 22 28  1  0  0  0
 22 32  2  0  0  0
 26 27  1  0  0  0
 28103  1  0  0  0
 28104  1  0  0  0
 29105  1  0  0  0
 29106  1  0  0  0
 33 34  1  0  0  0
 33 66  1  0  0  0
 33 70  2  0  0  0
 34 36  1  0  0  0
 34 59  1  0  0  0
 34107  1  0  0  0
 35 44  2  0  0  0
 35 45  1  0  0  0
 35 68  1  0  0  0
 36 56  1  0  0  0
 36108  1  0  0  0
 37 39  1  0  0  0
 37 47  1  0  0  0
 37 66  1  0  0  0
 37109  1  0  0  0
 38 43  2  0  0  0
 38 46  1  0  0  0
 38 47  1  0  0  0
 39 64  1  0  0  0
 39 67  2  0  0  0
 40 52  1  0  0  0
 40 53  2  0  0  0
 40 58  1  0  0  0
 41110  1  0  0  0
 41111  1  0  0  0
 41112  1  0  0  0
 41 48  1  0  0  0
 42 43  1  0  0  0
 42 66  1  0  0  0
 42113  1  0  0  0
 42114  1  0  0  0
 43 44  1  0  0  0
 44115  1  0  0  0
 45 46  2  0  0  0
 45116  1  0  0  0
 46117  1  0  0  0
 47118  1  0  0  0
 47119  1  0  0  0
 48 56  1  0  0  0
 48 65  1  0  0  0
 48120  1  0  0  0
 49 50  1  0  0  0
 49 53  1  0  0  0
 49 64  1  0  0  0
 49121  1  0  0  0
 50 51  1  0  0  0
 50122  1  0  0  0
 50123  1  0  0  0
 51 52  1  0  0  0
 51124  1  0  0  0
 51125  1  0  0  0
 52126  1  0  0  0
 52127  1  0  0  0
 53 54  1  0  0  0
 54 55  2  0  0  0
 54128  1  0  0  0
 55 57  1  0  0  0
 55129  1  0  0  0
 56 69  2  0  0  0
 57 58  2  0  0  0
 57130  1  0  0  0
 58131  1  0  0  0
 59 60  1  0  0  0
 59 61  1  0  0  0
 59 62  1  0  0  0
 60132  1  0  0  0
 60133  1  0  0  0
 60134  1  0  0  0
 61135  1  0  0  0
 61136  1  0  0  0
 61137  1  0  0  0
 62138  1  0  0  0
 62139  1  0  0  0
 62140  1  0  0  0
 63 65  1  0  0  0
 63141  1  0  0  0
 63142  1  0  0  0
 63143  1  0  0  0
 64144  1  0  0  0
 65145  1  0  0  0
 68 82  1  0  0  0
 71 72  2  0  0  0
 71 74  1  0  0  0
 71146  1  0  0  0
 72 76  1  0  0  0
 72147  1  0  0  0
 73 75  1  0  0  0
 73 76  2  0  0  0
 73148  1  0  0  0
 74 75  2  0  0  0
 74 80  1  0  0  0
 75 81  1  0  0  0
 76 86  1  0  0  0
 77 78  2  0  0  0
 77 79  1  0  0  0
 77149  1  0  0  0
 78 82  1  0  0  0
 78150  1  0  0  0
 79 83  1  0  0  0
 79 85  2  0  0  0
 80 83  1  0  0  0
 80151  1  0  0  0
 80152  1  0  0  0
 81 84  1  0  0  0
 81153  1  0  0  0
 81154  1  0  0  0
 82155  1  0  0  0
 82156  1  0  0  0
 83157  1  0  0  0
 84158  1  0  0  0
M  ISO  4   1 100  68 101  82 101  84 100
M  END
> <chiral flag>
0

> <version>
0

> <s_m_source_file>
/data/baiqing/PycharmProjects/Reinvent-master-3.2/result/LINK_invent/BTK/process_docking_weight1_custom_product_contain_oxygen_bond_distance_aromatic_linkinvent_7_9_3/rearranged_h_0045.sdf

> <i_m_source_file_index>
26

> <r_mmod_Potential_Energy-OPLS-2005>
-243.68278503418

> <r_mmod_Stretch_Energy-OPLS-2005>
36.2288703918457

> <r_mmod_Bend_Energy-OPLS-2005>
87.0477142333984

> <r_mmod_Torsional_Energy-OPLS-2005>
216.455627441406

> <r_mmod_Improper_Torsional_Energy-OPLS-2005>
3.84253096580505

> <r_mmod_Van_der_Waal_Energy-OPLS-2005>
157.200103759766

> <r_mmod_Electrostatic_Energy-OPLS-2005>
-515.440307617188

> <r_mmod_Solvation_Energy-OPLS-2005>
-238.777328491211

> <b_mmod_Minimization_Converged-OPLS-2005>
0

> <r_mmod_RMS_Derivative-OPLS-2005>
2.93951368331909

$$$$
26
                    3D
 Structure written by MMmdl.
158166  0  0  1  0            999 V2000
  -30.7201  -14.4162   20.6566 C   0  0  0  0  0  0
  -30.4311  -12.3058   19.3969 C   0  0  0  0  0  0
  -29.4880  -12.5191   18.1955 C   0  0  0  0  0  0
  -28.0117  -12.3736   18.6132 C   0  0  0  0  0  0
  -27.6677  -13.1982   19.8807 C   0  0  2  0  0  0
  -28.7068  -12.9313   20.9911 C   0  0  0  0  0  0
  -25.2614  -13.8145   20.5675 C   0  0  0  0  0  0
  -24.1842  -13.0437   20.9147 C   0  0  0  0  0  0
  -24.6382  -11.6900   20.8710 C   0  0  0  0  0  0
  -23.9046  -10.4289   21.0391 C   0  0  0  0  0  0
  -24.3599   -9.4209   21.9172 C   0  0  0  0  0  0
  -23.6282   -8.2243   22.0749 C   0  0  0  0  0  0
  -22.4260   -8.0273   21.3541 C   0  0  0  0  0  0
  -21.9890   -9.0245   20.4646 C   0  0  0  0  0  0
  -22.7215  -10.2128   20.3049 C   0  0  0  0  0  0
  -21.6853   -6.0724   22.5274 C   0  0  0  0  0  0
  -21.4010   -6.5633   23.8204 C   0  0  0  0  0  0
  -21.3662   -5.6786   24.9166 C   0  0  0  0  0  0
  -21.6044   -4.3051   24.7222 C   0  0  0  0  0  0
  -21.8823   -3.8140   23.4345 C   0  0  0  0  0  0
  -21.9193   -4.6951   22.3396 C   0  0  0  0  0  0
  -22.7865  -13.5240   21.1830 C   0  0  0  0  0  0
  -22.1661   -4.2136   21.0977 F   0  0  0  0  0  0
  -21.5637   -3.4536   25.7738 F   0  0  0  0  0  0
  -30.0484  -13.2488   20.4594 N   0  0  0  0  0  0
  -26.3054  -12.9302   20.3394 N   0  0  0  0  0  0
  -25.9309  -11.6469   20.5752 N   0  0  0  0  0  0
  -22.0515  -12.8231   22.0402 N   0  0  0  0  0  0
  -25.4355  -15.1860   20.4101 N   0  0  0  0  0  0
  -31.7635  -14.7045   20.0598 O   0  0  0  0  0  0
  -21.6638   -6.8861   21.4232 O   0  0  0  0  0  0
  -22.3549  -14.5553   20.6696 O   0  0  0  0  0  0
  -24.6187  -31.8672   23.2112 C   0  0  0  0  0  0
  -25.9078  -32.4814   23.8393 C   0  0  1  0  0  0
  -27.2339  -27.4263   20.0680 C   0  0  0  0  0  0
  -25.5928  -33.8610   24.2325 N   0  0  0  0  0  0
  -23.4038  -30.4944   21.5533 C   0  0  2  0  0  0
  -24.8466  -28.9664   20.1133 C   0  0  0  0  0  0
  -22.7420  -29.4659   22.4992 C   0  0  0  0  0  0
  -18.0274  -28.1378   22.8501 C   0  0  0  0  0  0
  -24.1482  -36.7302   23.2636 C   0  0  0  0  0  0
  -25.9359  -30.8276   21.3661 C   0  0  0  0  0  0
  -26.0101  -29.4619   20.7119 C   0  0  0  0  0  0
  -27.2022  -28.6968   20.6949 C   0  0  0  0  0  0
  -26.0402  -26.9548   19.4646 C   0  0  0  0  0  0
  -24.8558  -27.7095   19.4936 C   0  0  0  0  0  0
  -23.6107  -29.8348   20.1660 C   0  0  0  0  0  0
  -25.4094  -36.3104   24.0345 C   0  0  1  0  0  0
  -20.5861  -28.3668   23.1315 C   0  0  2  0  0  0
  -20.6752  -26.9396   22.5413 C   0  0  0  0  0  0
  -19.5726  -26.6385   21.5217 C   0  0  0  0  0  0
  -18.1909  -26.7928   22.1631 C   0  0  0  0  0  0
  -19.1523  -28.8839   23.2906 C   0  0  0  0  0  0
  -18.9464  -30.1453   23.8909 C   0  0  0  0  0  0
  -17.6469  -30.6589   24.0581 C   0  0  0  0  0  0
  -25.9032  -34.9476   23.5120 C   0  0  0  0  0  0
  -16.5360  -29.9092   23.6341 C   0  0  0  0  0  0
  -16.7265  -28.6514   23.0343 C   0  0  0  0  0  0
  -26.4498  -31.6593   25.0723 C   0  0  0  0  0  0
  -25.3766  -31.3717   26.1485 C   0  0  0  0  0  0
  -27.0330  -30.3043   24.6093 C   0  0  0  0  0  0
  -27.6082  -32.4315   25.7463 C   0  0  0  0  0  0
  -27.5579  -37.1780   24.8459 C   0  0  0  0  0  0
  -21.4145  -29.3051   22.3738 N   0  0  0  0  0  0
  -26.4274  -37.3795   23.9436 N   0  0  0  0  0  0
  -24.6712  -31.0767   22.1021 N   0  0  0  0  0  0
  -23.4187  -28.8188   23.3025 O   0  0  0  0  0  0
  -28.4126  -26.6893   20.0664 O   0  0  0  0  0  0
  -26.5584  -34.8936   22.4680 O   0  0  0  0  0  0
  -23.5378  -32.1447   23.7499 O   0  0  0  0  0  0
  -30.4861  -19.3818   22.3930 C   0  0  0  0  0  0
  -30.0821  -18.4767   23.3918 C   0  0  0  0  0  0
  -30.7529  -17.5286   20.8304 C   0  0  0  0  0  0
  -30.8148  -18.9169   21.1031 C   0  0  0  0  0  0
  -29.9910  -17.0967   23.1140 C   0  0  0  0  0  0
  -30.3392  -16.6098   21.8306 C   0  0  0  0  0  0
  -29.5264  -23.2202   19.7397 C   0  0  0  0  0  0
  -29.6240  -24.5625   19.6018 C   0  0  0  0  0  0
  -30.6814  -22.3596   19.9418 C   0  0  0  0  0  0
  -29.5177  -16.1548   24.2102 C   0  0  0  0  0  0
  -31.2415  -19.9078   20.0209 C   0  0  0  0  0  0
  -28.4117  -25.4453   19.3456 C   0  0  0  0  0  0
  -30.1686  -15.2159   21.5833 N   0  0  0  0  0  0
  -30.3435  -21.0605   19.9067 N   0  0  0  0  0  0
  -31.8403  -22.7459   20.1087 O   0  0  0  0  0  0
  -31.4690  -12.4334   19.0835 H   0  0  0  0  0  0
  -30.3571  -11.2813   19.7662 H   0  0  0  0  0  0
  -29.7211  -11.8060   17.4037 H   0  0  0  0  0  0
  -29.6515  -13.5110   17.7713 H   0  0  0  0  0  0
  -27.8198  -11.3162   18.7990 H   0  0  0  0  0  0
  -27.3577  -12.6604   17.7886 H   0  0  0  0  0  0
  -27.7266  -14.2529   19.6088 H   0  0  0  0  0  0
  -28.6780  -11.8810   21.2821 H   0  0  0  0  0  0
  -28.4457  -13.4785   21.8964 H   0  0  0  0  0  0
  -25.2741   -9.5686   22.4745 H   0  0  0  0  0  0
  -23.9992   -7.4632   22.7466 H   0  0  0  0  0  0
  -21.0822   -8.8759   19.8953 H   0  0  0  0  0  0
  -22.3665  -10.9665   19.6160 H   0  0  0  0  0  0
  -21.1996   -7.6139   23.9702 H   0  0  0  0  0  0
  -21.1486   -6.0519   25.9069 H   0  0  0  0  0  0
  -22.0599   -2.7603   23.2855 H   0  0  0  0  0  0
  -22.4137  -11.9888   22.4779 H   0  0  0  0  0  0
  -21.1144  -13.1270   22.2640 H   0  0  0  0  0  0
  -24.6757  -15.8479   20.5228 H   0  0  0  0  0  0
  -26.3038  -15.6249   20.1287 H   0  0  0  0  0  0
  -26.7146  -32.5510   23.1141 H   0  0  0  0  0  0
  -25.0151  -33.9773   25.0525 H   0  0  0  0  0  0
  -22.6952  -31.3150   21.4171 H   0  0  0  0  0  0
  -23.3759  -35.9621   23.3284 H   0  0  0  0  0  0
  -24.3588  -36.8914   22.2055 H   0  0  0  0  0  0
  -23.7221  -37.6500   23.6650 H   0  0  0  0  0  0
  -26.0489  -31.5924   20.5967 H   0  0  0  0  0  0
  -26.8244  -30.8798   21.9831 H   0  0  0  0  0  0
  -28.1005  -29.0813   21.1560 H   0  0  0  0  0  0
  -25.9749  -26.0089   18.9506 H   0  0  0  0  0  0
  -23.9623  -27.3211   19.0254 H   0  0  0  0  0  0
  -23.7173  -30.6142   19.4105 H   0  0  0  0  0  0
  -22.7334  -29.2580   19.8676 H   0  0  0  0  0  0
  -25.1255  -36.1956   25.0833 H   0  0  0  0  0  0
  -20.9965  -28.3228   24.1430 H   0  0  0  0  0  0
  -20.5655  -26.2273   23.3600 H   0  0  0  0  0  0
  -21.6618  -26.7425   22.1200 H   0  0  0  0  0  0
  -19.6877  -25.6303   21.1222 H   0  0  0  0  0  0
  -19.6665  -27.3225   20.6769 H   0  0  0  0  0  0
  -17.4176  -26.6717   21.4028 H   0  0  0  0  0  0
  -18.0289  -26.0047   22.9002 H   0  0  0  0  0  0
  -19.7940  -30.7269   24.2257 H   0  0  0  0  0  0
  -17.5028  -31.6274   24.5182 H   0  0  0  0  0  0
  -15.5359  -30.3005   23.7662 H   0  0  0  0  0  0
  -15.8657  -28.0857   22.7025 H   0  0  0  0  0  0
  -24.5954  -30.7018   25.7855 H   0  0  0  0  0  0
  -24.8949  -32.2880   26.4915 H   0  0  0  0  0  0
  -25.8141  -30.8927   27.0258 H   0  0  0  0  0  0
  -26.2861  -29.6768   24.1217 H   0  0  0  0  0  0
  -27.4197  -29.7305   25.4529 H   0  0  0  0  0  0
  -27.8647  -30.4373   23.9170 H   0  0  0  0  0  0
  -27.2729  -33.3640   26.2024 H   0  0  0  0  0  0
  -28.3892  -32.6831   25.0267 H   0  0  0  0  0  0
  -28.0750  -31.8445   26.5385 H   0  0  0  0  0  0
  -28.2567  -38.0112   24.7574 H   0  0  0  0  0  0
  -28.1103  -36.2650   24.6181 H   0  0  0  0  0  0
  -27.2319  -37.1298   25.8867 H   0  0  0  0  0  0
  -20.9299  -29.8836   21.7021 H   0  0  0  0  0  0
  -26.0158  -38.2852   24.1518 H   0  0  0  0  0  0
  -30.5406  -20.4376   22.6208 H   0  0  0  0  0  0
  -29.8282  -18.8534   24.3729 H   0  0  0  0  0  0
  -30.9980  -17.1791   19.8371 H   0  0  0  0  0  0
  -28.5457  -22.7691   19.6833 H   0  0  0  0  0  0
  -30.5871  -25.0526   19.6411 H   0  0  0  0  0  0
  -29.2319  -16.7000   25.1109 H   0  0  0  0  0  0
  -30.3099  -15.4552   24.4798 H   0  0  0  0  0  0
  -28.6480  -15.5843   23.8832 H   0  0  0  0  0  0
  -31.2723  -19.4064   19.0524 H   0  0  0  0  0  0
  -32.2652  -20.2226   20.2313 H   0  0  0  0  0  0
  -27.5485  -24.8381   19.6170 H   0  0  0  0  0  0
  -28.3522  -25.6546   18.2763 H   0  0  0  0  0  0
  -29.4507  -14.7675   22.1307 H   0  0  0  0  0  0
  -29.3696  -20.8445   19.7426 H   0  0  0  0  0  0
  1 25  1  0  0  0
  1 30  2  0  0  0
  1 83  1  0  0  0
  2  3  1  0  0  0
  2 25  1  0  0  0
  2 86  1  0  0  0
  2 87  1  0  0  0
  3  4  1  0  0  0
  3 88  1  0  0  0
  3 89  1  0  0  0
  4  5  1  0  0  0
  4 90  1  0  0  0
  4 91  1  0  0  0
  5  6  1  0  0  0
  5 26  1  0  0  0
  5 92  1  0  0  0
  6 25  1  0  0  0
  6 93  1  0  0  0
  6 94  1  0  0  0
  7  8  2  0  0  0
  7 26  1  0  0  0
  7 29  1  0  0  0
  8  9  1  0  0  0
  8 22  1  0  0  0
  9 10  1  0  0  0
  9 27  2  0  0  0
 10 11  2  0  0  0
 10 15  1  0  0  0
 11 12  1  0  0  0
 11 95  1  0  0  0
 12 13  2  0  0  0
 12 96  1  0  0  0
 13 14  1  0  0  0
 13 31  1  0  0  0
 14 15  2  0  0  0
 14 97  1  0  0  0
 15 98  1  0  0  0
 16 17  2  0  0  0
 16 21  1  0  0  0
 16 31  1  0  0  0
 17 18  1  0  0  0
 17 99  1  0  0  0
 18 19  2  0  0  0
 18100  1  0  0  0
 19 20  1  0  0  0
 19 24  1  0  0  0
 20 21  2  0  0  0
 20101  1  0  0  0
 21 23  1  0  0  0
 22 28  1  0  0  0
 22 32  2  0  0  0
 26 27  1  0  0  0
 28102  1  0  0  0
 28103  1  0  0  0
 29104  1  0  0  0
 29105  1  0  0  0
 33 34  1  0  0  0
 33 66  1  0  0  0
 33 70  2  0  0  0
 34 36  1  0  0  0
 34 59  1  0  0  0
 34106  1  0  0  0
 35 44  2  0  0  0
 35 45  1  0  0  0
 35 68  1  0  0  0
 36 56  1  0  0  0
 36107  1  0  0  0
 37 39  1  0  0  0
 37 47  1  0  0  0
 37 66  1  0  0  0
 37108  1  0  0  0
 38 43  2  0  0  0
 38 46  1  0  0  0
 38 47  1  0  0  0
 39 64  1  0  0  0
 39 67  2  0  0  0
 40 52  1  0  0  0
 40 53  2  0  0  0
 40 58  1  0  0  0
 41109  1  0  0  0
 41110  1  0  0  0
 41111  1  0  0  0
 41 48  1  0  0  0
 42 43  1  0  0  0
 42 66  1  0  0  0
 42112  1  0  0  0
 42113  1  0  0  0
 43 44  1  0  0  0
 44114  1  0  0  0
 45 46  2  0  0  0
 45115  1  0  0  0
 46116  1  0  0  0
 47117  1  0  0  0
 47118  1  0  0  0
 48 56  1  0  0  0
 48 65  1  0  0  0
 48119  1  0  0  0
 49 50  1  0  0  0
 49 53  1  0  0  0
 49 64  1  0  0  0
 49120  1  0  0  0
 50 51  1  0  0  0
 50121  1  0  0  0
 50122  1  0  0  0
 51 52  1  0  0  0
 51123  1  0  0  0
 51124  1  0  0  0
 52125  1  0  0  0
 52126  1  0  0  0
 53 54  1  0  0  0
 54 55  2  0  0  0
 54127  1  0  0  0
 55 57  1  0  0  0
 55128  1  0  0  0
 56 69  2  0  0  0
 57 58  2  0  0  0
 57129  1  0  0  0
 58130  1  0  0  0
 59 60  1  0  0  0
 59 61  1  0  0  0
 59 62  1  0  0  0
 60131  1  0  0  0
 60132  1  0  0  0
 60133  1  0  0  0
 61134  1  0  0  0
 61135  1  0  0  0
 61136  1  0  0  0
 62137  1  0  0  0
 62138  1  0  0  0
 62139  1  0  0  0
 63 65  1  0  0  0
 63140  1  0  0  0
 63141  1  0  0  0
 63142  1  0  0  0
 64143  1  0  0  0
 65144  1  0  0  0
 68 82  1  0  0  0
 71 72  2  0  0  0
 71 74  1  0  0  0
 71145  1  0  0  0
 72 75  1  0  0  0
 72146  1  0  0  0
 73 74  2  0  0  0
 73 76  1  0  0  0
 73147  1  0  0  0
 74 81  1  0  0  0
 75 76  2  0  0  0
 75 80  1  0  0  0
 76 83  1  0  0  0
 77 78  2  0  0  0
 77 79  1  0  0  0
 77148  1  0  0  0
 78 82  1  0  0  0
 78149  1  0  0  0
 79 84  1  0  0  0
 79 85  2  0  0  0
 80150  1  0  0  0
 80151  1  0  0  0
 80152  1  0  0  0
 81 84  1  0  0  0
 81153  1  0  0  0
 81154  1  0  0  0
 82155  1  0  0  0
 82156  1  0  0  0
 83157  1  0  0  0
 84158  1  0  0  0
M  ISO  4   1 100  68 101  82 101  83 100
M  END
> <chiral flag>
0

> <version>
0

> <s_m_source_file>
/data/baiqing/PycharmProjects/Reinvent-master-3.2/result/LINK_invent/BTK/process_docking_weight1_custom_product_contain_oxygen_bond_distance_aromatic_linkinvent_7_9_3/rearranged_h_0045.sdf

> <i_m_source_file_index>
27

> <r_mmod_Potential_Energy-OPLS-2005>
-214.302719116211

> <r_mmod_Stretch_Energy-OPLS-2005>
37.3403778076172

> <r_mmod_Bend_Energy-OPLS-2005>
99.1258392333984

> <r_mmod_Torsional_Energy-OPLS-2005>
198.734588623047

> <r_mmod_Improper_Torsional_Energy-OPLS-2005>
2.32406949996948

> <r_mmod_Van_der_Waal_Energy-OPLS-2005>
166.216705322266

> <r_mmod_Electrostatic_Energy-OPLS-2005>
-491.063354492188

> <r_mmod_Solvation_Energy-OPLS-2005>
-237.195159912109

> <b_mmod_Minimization_Converged-OPLS-2005>
0

> <r_mmod_RMS_Derivative-OPLS-2005>
1.81724750995636

$$$$
27
                    3D
 Structure written by MMmdl.
163171  0  0  1  0            999 V2000
  -30.5746  -14.6697   20.4271 C   0  0  0  0  0  0
  -30.4372  -12.3918   19.4485 C   0  0  0  0  0  0
  -29.5023  -12.4969   18.2218 C   0  0  0  0  0  0
  -28.0214  -12.3470   18.6262 C   0  0  0  0  0  0
  -27.6483  -13.2142   19.8580 C   0  0  2  0  0  0
  -28.6999  -13.0695   20.9831 C   0  0  0  0  0  0
  -25.2533  -13.8177   20.5663 C   0  0  0  0  0  0
  -24.1805  -13.0419   20.9194 C   0  0  0  0  0  0
  -24.6395  -11.6908   20.8757 C   0  0  0  0  0  0
  -23.9067  -10.4304   21.0425 C   0  0  0  0  0  0
  -24.3626   -9.4226   21.9190 C   0  0  0  0  0  0
  -23.6306   -8.2250   22.0758 C   0  0  0  0  0  0
  -22.4273   -8.0297   21.3563 C   0  0  0  0  0  0
  -21.9918   -9.0261   20.4641 C   0  0  0  0  0  0
  -22.7246  -10.2142   20.3064 C   0  0  0  0  0  0
  -21.6848   -6.0762   22.5274 C   0  0  0  0  0  0
  -21.4019   -6.5663   23.8211 C   0  0  0  0  0  0
  -21.3669   -5.6802   24.9155 C   0  0  0  0  0  0
  -21.6030   -4.3065   24.7202 C   0  0  0  0  0  0
  -21.8825   -3.8159   23.4321 C   0  0  0  0  0  0
  -21.9199   -4.6986   22.3379 C   0  0  0  0  0  0
  -22.7839  -13.5237   21.1836 C   0  0  0  0  0  0
  -22.1657   -4.2173   21.0957 F   0  0  0  0  0  0
  -21.5626   -3.4545   25.7716 F   0  0  0  0  0  0
  -30.0113  -13.4211   20.4136 N   0  0  0  0  0  0
  -26.2967  -12.9345   20.3320 N   0  0  0  0  0  0
  -25.9319  -11.6504   20.5782 N   0  0  0  0  0  0
  -22.0481  -12.8225   22.0407 N   0  0  0  0  0  0
  -25.4238  -15.1888   20.4058 N   0  0  0  0  0  0
  -31.7337  -14.8603   20.0471 O   0  0  0  0  0  0
  -21.6645   -6.8883   21.4234 O   0  0  0  0  0  0
  -22.3511  -14.5539   20.6690 O   0  0  0  0  0  0
  -24.6202  -31.8621   23.2040 C   0  0  0  0  0  0
  -25.9047  -32.4814   23.8337 C   0  0  1  0  0  0
  -27.1945  -27.3395   20.0988 C   0  0  0  0  0  0
  -25.5853  -33.8615   24.2272 N   0  0  0  0  0  0
  -23.4079  -30.4883   21.5507 C   0  0  2  0  0  0
  -24.8459  -28.9520   20.1005 C   0  0  0  0  0  0
  -22.7433  -29.4595   22.4976 C   0  0  0  0  0  0
  -18.0267  -28.1419   22.8488 C   0  0  0  0  0  0
  -24.1480  -36.7288   23.2658 C   0  0  0  0  0  0
  -25.9473  -30.8007   21.3646 C   0  0  0  0  0  0
  -26.0188  -29.4328   20.7015 C   0  0  0  0  0  0
  -27.1982  -28.6380   20.6860 C   0  0  0  0  0  0
  -26.0026  -26.8989   19.4865 C   0  0  0  0  0  0
  -24.8430  -27.6924   19.4798 C   0  0  0  0  0  0
  -23.6118  -29.8294   20.1618 C   0  0  0  0  0  0
  -25.4085  -36.3094   24.0358 C   0  0  1  0  0  0
  -20.5869  -28.3628   23.1343 C   0  0  2  0  0  0
  -20.6761  -26.9364   22.5443 C   0  0  0  0  0  0
  -19.5740  -26.6372   21.5256 C   0  0  0  0  0  0
  -18.1918  -26.7975   22.1648 C   0  0  0  0  0  0
  -19.1544  -28.8838   23.2921 C   0  0  0  0  0  0
  -18.9484  -30.1473   23.8870 C   0  0  0  0  0  0
  -17.6496  -30.6600   24.0570 C   0  0  0  0  0  0
  -25.9013  -34.9466   23.5107 C   0  0  0  0  0  0
  -16.5355  -29.9111   23.6365 C   0  0  0  0  0  0
  -16.7275  -28.6561   23.0319 C   0  0  0  0  0  0
  -26.4425  -31.6628   25.0696 C   0  0  0  0  0  0
  -25.3690  -31.3797   26.1463 C   0  0  0  0  0  0
  -27.0212  -30.3036   24.6071 C   0  0  0  0  0  0
  -27.5955  -32.4372   25.7487 C   0  0  0  0  0  0
  -27.5564  -37.1767   24.8464 C   0  0  0  0  0  0
  -21.4142  -29.3004   22.3718 N   0  0  0  0  0  0
  -26.4260  -37.3772   23.9451 N   0  0  0  0  0  0
  -24.6795  -31.0640   22.0987 N   0  0  0  0  0  0
  -23.4196  -28.8136   23.2998 O   0  0  0  0  0  0
  -28.2984  -26.4938   20.0943 O   0  0  0  0  0  0
  -26.5605  -34.8928   22.4694 O   0  0  0  0  0  0
  -23.5356  -32.1419   23.7348 O   0  0  0  0  0  0
  -30.0588  -19.2081   19.2412 C   0  0  0  0  0  0
  -30.3027  -17.8240   19.4876 C   0  0  0  0  0  0
  -29.1172  -19.9799   19.9756 C   0  0  0  0  0  0
  -28.4158  -19.2818   21.0060 C   0  0  0  0  0  0
  -28.7074  -17.9002   21.2975 C   0  0  0  0  0  0
  -29.6269  -17.1271   20.5206 C   0  0  0  0  0  0
  -28.3430  -23.8998   19.8177 C   0  0  0  0  0  0
  -27.2786  -19.9811   21.7574 C   0  0  0  0  0  0
  -27.9950  -17.2335   22.4704 C   0  0  0  0  0  0
  -29.2965  -22.4700   22.8132 C   0  0  0  0  0  0
  -28.7827  -21.4400   19.4641 C   0  0  0  0  0  0
  -28.1267  -25.1760   20.7376 C   0  0  0  0  0  0
  -29.8372  -22.7130   21.3888 C   0  0  0  0  0  0
  -29.7044  -15.6799   20.7441 N   0  0  0  0  0  0
  -28.8275  -22.6974   20.3135 N   0  0  0  0  0  0
  -27.9982  -23.9911   18.6341 O   0  0  0  0  0  0
  -31.4784  -12.5190   19.1499 H   0  0  0  0  0  0
  -30.3741  -11.4013   19.9023 H   0  0  0  0  0  0
  -29.7621  -11.7386   17.4831 H   0  0  0  0  0  0
  -29.6491  -13.4635   17.7369 H   0  0  0  0  0  0
  -27.8360  -11.2938   18.8364 H   0  0  0  0  0  0
  -27.3761  -12.5979   17.7838 H   0  0  0  0  0  0
  -27.6574  -14.2479   19.5154 H   0  0  0  0  0  0
  -28.7191  -12.0453   21.3610 H   0  0  0  0  0  0
  -28.4509  -13.6958   21.8422 H   0  0  0  0  0  0
  -25.2774   -9.5701   22.4772 H   0  0  0  0  0  0
  -24.0020   -7.4642   22.7496 H   0  0  0  0  0  0
  -21.0839   -8.8770   19.8941 H   0  0  0  0  0  0
  -22.3700  -10.9681   19.6177 H   0  0  0  0  0  0
  -21.2019   -7.6179   23.9712 H   0  0  0  0  0  0
  -21.1473   -6.0534   25.9061 H   0  0  0  0  0  0
  -22.0599   -2.7628   23.2796 H   0  0  0  0  0  0
  -22.4130  -11.9867   22.4735 H   0  0  0  0  0  0
  -21.1106  -13.1258   22.2656 H   0  0  0  0  0  0
  -24.6483  -15.8357   20.4990 H   0  0  0  0  0  0
  -26.2663  -15.6331   20.0634 H   0  0  0  0  0  0
  -26.7073  -32.5419   23.1039 H   0  0  0  0  0  0
  -24.9981  -33.9807   25.0390 H   0  0  0  0  0  0
  -22.6998  -31.3085   21.4158 H   0  0  0  0  0  0
  -23.3766  -35.9602   23.3288 H   0  0  0  0  0  0
  -24.3584  -36.8916   22.2085 H   0  0  0  0  0  0
  -23.7228  -37.6471   23.6678 H   0  0  0  0  0  0
  -26.0629  -31.5680   20.5985 H   0  0  0  0  0  0
  -26.8345  -30.8520   21.9838 H   0  0  0  0  0  0
  -28.1027  -28.9989   21.1552 H   0  0  0  0  0  0
  -25.9670  -25.9224   19.0239 H   0  0  0  0  0  0
  -23.9450  -27.3186   19.0037 H   0  0  0  0  0  0
  -23.7111  -30.6128   19.4099 H   0  0  0  0  0  0
  -22.7295  -29.2589   19.8624 H   0  0  0  0  0  0
  -25.1269  -36.1923   25.0847 H   0  0  0  0  0  0
  -20.9951  -28.3194   24.1474 H   0  0  0  0  0  0
  -20.5711  -26.2207   23.3618 H   0  0  0  0  0  0
  -21.6621  -26.7444   22.1188 H   0  0  0  0  0  0
  -19.6902  -25.6305   21.1255 H   0  0  0  0  0  0
  -19.6724  -27.3213   20.6819 H   0  0  0  0  0  0
  -17.4186  -26.6709   21.4055 H   0  0  0  0  0  0
  -18.0268  -26.0165   22.9072 H   0  0  0  0  0  0
  -19.7975  -30.7299   24.2174 H   0  0  0  0  0  0
  -17.5070  -31.6295   24.5164 H   0  0  0  0  0  0
  -15.5377  -30.3000   23.7763 H   0  0  0  0  0  0
  -15.8669  -28.0922   22.6988 H   0  0  0  0  0  0
  -24.5860  -30.7124   25.7836 H   0  0  0  0  0  0
  -24.8917  -32.3010   26.4794 H   0  0  0  0  0  0
  -25.8069  -30.9066   27.0274 H   0  0  0  0  0  0
  -26.2737  -29.6866   24.1059 H   0  0  0  0  0  0
  -27.3912  -29.7172   25.4493 H   0  0  0  0  0  0
  -27.8603  -30.4321   23.9244 H   0  0  0  0  0  0
  -27.2505  -33.3683   26.1984 H   0  0  0  0  0  0
  -28.3816  -32.6909   25.0377 H   0  0  0  0  0  0
  -28.0546  -31.8573   26.5500 H   0  0  0  0  0  0
  -28.2508  -38.0114   24.7517 H   0  0  0  0  0  0
  -28.1130  -36.2635   24.6253 H   0  0  0  0  0  0
  -27.2312  -37.1365   25.8872 H   0  0  0  0  0  0
  -20.9252  -29.8724   21.6963 H   0  0  0  0  0  0
  -26.0144  -38.2831   24.1505 H   0  0  0  0  0  0
  -30.5712  -19.6693   18.4099 H   0  0  0  0  0  0
  -30.9831  -17.3042   18.8280 H   0  0  0  0  0  0
  -27.0183  -20.9500   21.3364 H   0  0  0  0  0  0
  -27.5260  -20.1282   22.8078 H   0  0  0  0  0  0
  -26.3639  -19.3911   21.7257 H   0  0  0  0  0  0
  -26.9217  -17.1902   22.2957 H   0  0  0  0  0  0
  -28.1873  -17.8052   23.3769 H   0  0  0  0  0  0
  -28.3295  -16.2188   22.6789 H   0  0  0  0  0  0
  -29.8844  -23.0249   23.5471 H   0  0  0  0  0  0
  -29.4007  -21.4193   23.0858 H   0  0  0  0  0  0
  -28.2535  -22.7707   22.9411 H   0  0  0  0  0  0
  -27.7978  -21.3636   18.9962 H   0  0  0  0  0  0
  -29.4520  -21.6471   18.6286 H   0  0  0  0  0  0
  -28.7983  -25.1665   21.5932 H   0  0  0  0  0  0
  -27.1344  -25.0928   21.1802 H   0  0  0  0  0  0
  -30.6297  -22.0026   21.1512 H   0  0  0  0  0  0
  -30.3591  -23.6705   21.3765 H   0  0  0  0  0  0
  -28.8524  -15.3063   21.1308 H   0  0  0  0  0  0
  1 25  1  0  0  0
  1 30  2  0  0  0
  1 84  1  0  0  0
  2  3  1  0  0  0
  2 25  1  0  0  0
  2 87  1  0  0  0
  2 88  1  0  0  0
  3  4  1  0  0  0
  3 89  1  0  0  0
  3 90  1  0  0  0
  4  5  1  0  0  0
  4 91  1  0  0  0
  4 92  1  0  0  0
  5  6  1  0  0  0
  5 26  1  0  0  0
  5 93  1  0  0  0
  6 25  1  0  0  0
  6 94  1  0  0  0
  6 95  1  0  0  0
  7  8  2  0  0  0
  7 26  1  0  0  0
  7 29  1  0  0  0
  8  9  1  0  0  0
  8 22  1  0  0  0
  9 10  1  0  0  0
  9 27  2  0  0  0
 10 11  2  0  0  0
 10 15  1  0  0  0
 11 12  1  0  0  0
 11 96  1  0  0  0
 12 13  2  0  0  0
 12 97  1  0  0  0
 13 14  1  0  0  0
 13 31  1  0  0  0
 14 15  2  0  0  0
 14 98  1  0  0  0
 15 99  1  0  0  0
 16 17  2  0  0  0
 16 21  1  0  0  0
 16 31  1  0  0  0
 17 18  1  0  0  0
 17100  1  0  0  0
 18 19  2  0  0  0
 18101  1  0  0  0
 19 20  1  0  0  0
 19 24  1  0  0  0
 20 21  2  0  0  0
 20102  1  0  0  0
 21 23  1  0  0  0
 22 28  1  0  0  0
 22 32  2  0  0  0
 26 27  1  0  0  0
 28103  1  0  0  0
 28104  1  0  0  0
 29105  1  0  0  0
 29106  1  0  0  0
 33 34  1  0  0  0
 33 66  1  0  0  0
 33 70  2  0  0  0
 34 36  1  0  0  0
 34 59  1  0  0  0
 34107  1  0  0  0
 35 44  2  0  0  0
 35 45  1  0  0  0
 35 68  1  0  0  0
 36 56  1  0  0  0
 36108  1  0  0  0
 37 39  1  0  0  0
 37 47  1  0  0  0
 37 66  1  0  0  0
 37109  1  0  0  0
 38 43  2  0  0  0
 38 46  1  0  0  0
 38 47  1  0  0  0
 39 64  1  0  0  0
 39 67  2  0  0  0
 40 52  1  0  0  0
 40 53  2  0  0  0
 40 58  1  0  0  0
 41110  1  0  0  0
 41111  1  0  0  0
 41112  1  0  0  0
 41 48  1  0  0  0
 42 43  1  0  0  0
 42 66  1  0  0  0
 42113  1  0  0  0
 42114  1  0  0  0
 43 44  1  0  0  0
 44115  1  0  0  0
 45 46  2  0  0  0
 45116  1  0  0  0
 46117  1  0  0  0
 47118  1  0  0  0
 47119  1  0  0  0
 48 56  1  0  0  0
 48 65  1  0  0  0
 48120  1  0  0  0
 49 50  1  0  0  0
 49 53  1  0  0  0
 49 64  1  0  0  0
 49121  1  0  0  0
 50 51  1  0  0  0
 50122  1  0  0  0
 50123  1  0  0  0
 51 52  1  0  0  0
 51124  1  0  0  0
 51125  1  0  0  0
 52126  1  0  0  0
 52127  1  0  0  0
 53 54  1  0  0  0
 54 55  2  0  0  0
 54128  1  0  0  0
 55 57  1  0  0  0
 55129  1  0  0  0
 56 69  2  0  0  0
 57 58  2  0  0  0
 57130  1  0  0  0
 58131  1  0  0  0
 59 60  1  0  0  0
 59 61  1  0  0  0
 59 62  1  0  0  0
 60132  1  0  0  0
 60133  1  0  0  0
 60134  1  0  0  0
 61135  1  0  0  0
 61136  1  0  0  0
 61137  1  0  0  0
 62138  1  0  0  0
 62139  1  0  0  0
 62140  1  0  0  0
 63 65  1  0  0  0
 63141  1  0  0  0
 63142  1  0  0  0
 63143  1  0  0  0
 64144  1  0  0  0
 65145  1  0  0  0
 68 82  1  0  0  0
 71 72  2  0  0  0
 71 73  1  0  0  0
 71146  1  0  0  0
 72 76  1  0  0  0
 72147  1  0  0  0
 73 74  2  0  0  0
 73 81  1  0  0  0
 74 75  1  0  0  0
 74 78  1  0  0  0
 75 76  2  0  0  0
 75 79  1  0  0  0
 76 84  1  0  0  0
 77 82  1  0  0  0
 77 85  1  0  0  0
 77 86  2  0  0  0
 78148  1  0  0  0
 78149  1  0  0  0
 78150  1  0  0  0
 79151  1  0  0  0
 79152  1  0  0  0
 79153  1  0  0  0
 80 83  1  0  0  0
 80154  1  0  0  0
 80155  1  0  0  0
 80156  1  0  0  0
 81 85  1  0  0  0
 81157  1  0  0  0
 81158  1  0  0  0
 82159  1  0  0  0
 82160  1  0  0  0
 83 85  1  0  0  0
 83161  1  0  0  0
 83162  1  0  0  0
 84163  1  0  0  0
M  ISO  4   1 100  68 101  82 101  84 100
M  END
> <chiral flag>
0

> <version>
0

> <s_m_source_file>
/data/baiqing/PycharmProjects/Reinvent-master-3.2/result/LINK_invent/BTK/process_docking_weight1_custom_product_contain_oxygen_bond_distance_aromatic_linkinvent_7_9_3/rearranged_h_0045.sdf

> <i_m_source_file_index>
28

> <r_mmod_Potential_Energy-OPLS-2005>
137.996154785156

> <r_mmod_Stretch_Energy-OPLS-2005>
85.6376647949219

> <r_mmod_Bend_Energy-OPLS-2005>
156.158248901367

> <r_mmod_Torsional_Energy-OPLS-2005>
281.504119873047

> <r_mmod_Improper_Torsional_Energy-OPLS-2005>
7.39611768722534

> <r_mmod_Van_der_Waal_Energy-OPLS-2005>
148.372665405273

> <r_mmod_Electrostatic_Energy-OPLS-2005>
-372.584930419922

> <r_mmod_Solvation_Energy-OPLS-2005>
-222.459106445312

> <b_mmod_Minimization_Converged-OPLS-2005>
0

> <r_mmod_RMS_Derivative-OPLS-2005>
6.73055839538574

$$$$
28
                    3D
 Structure written by MMmdl.
158167  0  0  1  0            999 V2000
  -30.6570  -14.7299   20.4631 C   0  0  0  0  0  0
  -30.4251  -12.4421   19.4865 C   0  0  0  0  0  0
  -29.5119  -12.5169   18.2451 C   0  0  0  0  0  0
  -28.0392  -12.3369   18.6552 C   0  0  0  0  0  0
  -27.6464  -13.2336   19.8607 C   0  0  2  0  0  0
  -28.6923  -13.1904   20.9982 C   0  0  0  0  0  0
  -25.2539  -13.8220   20.5706 C   0  0  0  0  0  0
  -24.1837  -13.0469   20.9220 C   0  0  0  0  0  0
  -24.6442  -11.6940   20.8784 C   0  0  0  0  0  0
  -23.9122  -10.4311   21.0428 C   0  0  0  0  0  0
  -24.3666   -9.4225   21.9205 C   0  0  0  0  0  0
  -23.6328   -8.2259   22.0780 C   0  0  0  0  0  0
  -22.4294   -8.0309   21.3570 C   0  0  0  0  0  0
  -21.9962   -9.0285   20.4655 C   0  0  0  0  0  0
  -22.7300  -10.2160   20.3076 C   0  0  0  0  0  0
  -21.6870   -6.0764   22.5303 C   0  0  0  0  0  0
  -21.4004   -6.5655   23.8242 C   0  0  0  0  0  0
  -21.3676   -5.6809   24.9203 C   0  0  0  0  0  0
  -21.6043   -4.3071   24.7252 C   0  0  0  0  0  0
  -21.8806   -3.8163   23.4362 C   0  0  0  0  0  0
  -21.9194   -4.6988   22.3421 C   0  0  0  0  0  0
  -22.7837  -13.5251   21.1851 C   0  0  0  0  0  0
  -22.1659   -4.2185   21.0987 F   0  0  0  0  0  0
  -21.5649   -3.4567   25.7776 F   0  0  0  0  0  0
  -29.9963  -13.5210   20.4082 N   0  0  0  0  0  0
  -26.2990  -12.9431   20.3372 N   0  0  0  0  0  0
  -25.9381  -11.6577   20.5832 N   0  0  0  0  0  0
  -22.0490  -12.8233   22.0401 N   0  0  0  0  0  0
  -25.4190  -15.1945   20.4030 N   0  0  0  0  0  0
  -31.8452  -14.7737   20.1384 O   0  0  0  0  0  0
  -21.6653   -6.8903   21.4271 O   0  0  0  0  0  0
  -22.3510  -14.5570   20.6739 O   0  0  0  0  0  0
  -24.6298  -31.8556   23.1982 C   0  0  0  0  0  0
  -25.9128  -32.4748   23.8324 C   0  0  1  0  0  0
  -27.2181  -27.2577   20.1436 C   0  0  0  0  0  0
  -25.5930  -33.8549   24.2235 N   0  0  0  0  0  0
  -23.4285  -30.4734   21.5440 C   0  0  2  0  0  0
  -24.8779  -28.9198   20.1151 C   0  0  0  0  0  0
  -22.7495  -29.4574   22.4944 C   0  0  0  0  0  0
  -18.0293  -28.1410   22.8490 C   0  0  0  0  0  0
  -24.1504  -36.7282   23.2633 C   0  0  0  0  0  0
  -25.9719  -30.7653   21.3802 C   0  0  0  0  0  0
  -26.0480  -29.3845   20.7294 C   0  0  0  0  0  0
  -27.2225  -28.5643   20.7362 C   0  0  0  0  0  0
  -26.0315  -26.8644   19.4914 C   0  0  0  0  0  0
  -24.8736  -27.6644   19.4864 C   0  0  0  0  0  0
  -23.6493  -29.8069   20.1606 C   0  0  0  0  0  0
  -25.4131  -36.3036   24.0301 C   0  0  1  0  0  0
  -20.5890  -28.3695   23.1304 C   0  0  2  0  0  0
  -20.6788  -26.9423   22.5418 C   0  0  0  0  0  0
  -19.5760  -26.6398   21.5224 C   0  0  0  0  0  0
  -18.1939  -26.7955   22.1631 C   0  0  0  0  0  0
  -19.1547  -28.8871   23.2887 C   0  0  0  0  0  0
  -18.9468  -30.1486   23.8878 C   0  0  0  0  0  0
  -17.6467  -30.6612   24.0563 C   0  0  0  0  0  0
  -25.9079  -34.9422   23.5076 C   0  0  0  0  0  0
  -16.5359  -29.9105   23.6346 C   0  0  0  0  0  0
  -16.7278  -28.6531   23.0349 C   0  0  0  0  0  0
  -26.4499  -31.6571   25.0713 C   0  0  0  0  0  0
  -25.3732  -31.3740   26.1442 C   0  0  0  0  0  0
  -27.0333  -30.2977   24.6202 C   0  0  0  0  0  0
  -27.6051  -32.4303   25.7498 C   0  0  0  0  0  0
  -27.5566  -37.1798   24.8458 C   0  0  0  0  0  0
  -21.4198  -29.3033   22.3683 N   0  0  0  0  0  0
  -26.4291  -37.3737   23.9387 N   0  0  0  0  0  0
  -24.6959  -31.0488   22.0983 N   0  0  0  0  0  0
  -23.4174  -28.8126   23.3075 O   0  0  0  0  0  0
  -28.2970  -26.3441   20.1653 O   0  0  0  0  0  0
  -26.5647  -34.8892   22.4646 O   0  0  0  0  0  0
  -23.5451  -32.1391   23.7276 O   0  0  0  0  0  0
  -31.6949  -17.6986   20.7990 C   0  0  0  0  0  0
  -32.1176  -19.0424   20.7322 C   0  0  0  0  0  0
  -29.4217  -18.4564   20.4318 C   0  0  0  0  0  0
  -29.8291  -19.8586   20.3593 C   0  0  0  0  0  0
  -30.3357  -17.3354   20.6228 C   0  0  0  0  0  0
  -31.2194  -20.0995   20.4827 C   0  0  0  0  0  0
  -28.6659  -23.6785   19.9548 C   0  0  0  0  0  0
  -28.1264  -23.5385   22.8050 C   0  0  0  0  0  0
  -28.3633  -24.9312   22.1996 C   0  0  0  0  0  0
  -28.9736  -22.4626   22.0961 C   0  0  0  0  0  0
  -28.0335  -24.9556   20.7003 C   0  0  1  0  0  0
  -28.8287  -21.0585   19.9959 C   0  0  0  0  0  0
  -28.8430  -22.4635   20.6277 N   0  0  0  0  0  0
  -29.9262  -15.8999   20.6575 N   0  0  0  0  0  0
  -28.8669  -23.7643   18.7396 O   0  0  0  0  0  0
  -31.8898  -21.6769   20.2632 Cl  0  0  0  0  0  0
  -31.4726  -12.5279   19.1923 H   0  0  0  0  0  0
  -30.3328  -11.4686   19.9722 H   0  0  0  0  0  0
  -29.7940  -11.7573   17.5164 H   0  0  0  0  0  0
  -29.6450  -13.4815   17.7513 H   0  0  0  0  0  0
  -27.8902  -11.2831   18.8998 H   0  0  0  0  0  0
  -27.3863  -12.5427   17.8069 H   0  0  0  0  0  0
  -27.6378  -14.2543   19.4762 H   0  0  0  0  0  0
  -28.7245  -12.2075   21.4690 H   0  0  0  0  0  0
  -28.4307  -13.9017   21.7848 H   0  0  0  0  0  0
  -25.2820   -9.5720   22.4779 H   0  0  0  0  0  0
  -24.0063   -7.4639   22.7481 H   0  0  0  0  0  0
  -21.0931   -8.8822   19.8900 H   0  0  0  0  0  0
  -22.3806  -10.9708   19.6177 H   0  0  0  0  0  0
  -21.1966   -7.6146   23.9764 H   0  0  0  0  0  0
  -21.1511   -6.0531   25.9116 H   0  0  0  0  0  0
  -22.0556   -2.7615   23.2876 H   0  0  0  0  0  0
  -22.4136  -11.9859   22.4708 H   0  0  0  0  0  0
  -21.1088  -13.1218   22.2610 H   0  0  0  0  0  0
  -24.6362  -15.8350   20.4706 H   0  0  0  0  0  0
  -26.2560  -15.6349   20.0456 H   0  0  0  0  0  0
  -26.7191  -32.5386   23.1059 H   0  0  0  0  0  0
  -25.0037  -33.9700   25.0348 H   0  0  0  0  0  0
  -22.7232  -31.2936   21.3967 H   0  0  0  0  0  0
  -23.3730  -35.9658   23.3337 H   0  0  0  0  0  0
  -24.3561  -36.8876   22.2037 H   0  0  0  0  0  0
  -23.7335  -37.6516   23.6670 H   0  0  0  0  0  0
  -26.1042  -31.5234   20.6059 H   0  0  0  0  0  0
  -26.8513  -30.8204   22.0110 H   0  0  0  0  0  0
  -28.1149  -28.9103   21.2390 H   0  0  0  0  0  0
  -25.9885  -25.9062   18.9949 H   0  0  0  0  0  0
  -23.9799  -27.2992   18.9999 H   0  0  0  0  0  0
  -23.7754  -30.5854   19.4071 H   0  0  0  0  0  0
  -22.7677  -29.2412   19.8534 H   0  0  0  0  0  0
  -25.1332  -36.1857   25.0794 H   0  0  0  0  0  0
  -20.9965  -28.3270   24.1434 H   0  0  0  0  0  0
  -20.5741  -26.2286   23.3605 H   0  0  0  0  0  0
  -21.6656  -26.7492   22.1184 H   0  0  0  0  0  0
  -19.6931  -25.6307   21.1266 H   0  0  0  0  0  0
  -19.6727  -27.3200   20.6752 H   0  0  0  0  0  0
  -17.4213  -26.6699   21.4030 H   0  0  0  0  0  0
  -18.0344  -26.0110   22.9043 H   0  0  0  0  0  0
  -19.7941  -30.7325   24.2216 H   0  0  0  0  0  0
  -17.5022  -31.6289   24.5180 H   0  0  0  0  0  0
  -15.5364  -30.2999   23.7703 H   0  0  0  0  0  0
  -15.8672  -28.0859   22.7060 H   0  0  0  0  0  0
  -24.5880  -30.7114   25.7772 H   0  0  0  0  0  0
  -24.8962  -32.2934   26.4867 H   0  0  0  0  0  0
  -25.8045  -30.8899   27.0222 H   0  0  0  0  0  0
  -26.2914  -29.6726   24.1214 H   0  0  0  0  0  0
  -27.3989  -29.7221   25.4719 H   0  0  0  0  0  0
  -27.8811  -30.4217   23.9455 H   0  0  0  0  0  0
  -27.2645  -33.3585   26.2108 H   0  0  0  0  0  0
  -28.3873  -32.6896   25.0345 H   0  0  0  0  0  0
  -28.0733  -31.8415   26.5403 H   0  0  0  0  0  0
  -28.2591  -38.0077   24.7431 H   0  0  0  0  0  0
  -28.1044  -36.2595   24.6378 H   0  0  0  0  0  0
  -27.2256  -37.1564   25.8851 H   0  0  0  0  0  0
  -20.9394  -29.8692   21.6824 H   0  0  0  0  0  0
  -26.0146  -38.2798   24.1386 H   0  0  0  0  0  0
  -32.4574  -16.9548   20.9771 H   0  0  0  0  0  0
  -33.1718  -19.2639   20.8397 H   0  0  0  0  0  0
  -28.3754  -18.2356   20.2927 H   0  0  0  0  0  0
  -27.0678  -23.2780   22.7417 H   0  0  0  0  0  0
  -28.3681  -23.5591   23.8690 H   0  0  0  0  0  0
  -29.3989  -25.2310   22.3507 H   0  0  0  0  0  0
  -27.7510  -25.6651   22.7259 H   0  0  0  0  0  0
  -28.7243  -21.4822   22.5051 H   0  0  0  0  0  0
  -30.0216  -22.6351   22.3427 H   0  0  0  0  0  0
  -26.9654  -24.7519   20.6332 H   0  0  0  0  0  0
  -27.8170  -20.6807   20.1496 H   0  0  0  0  0  0
  -28.9065  -21.1786   18.9144 H   0  0  0  0  0  0
  -28.9379  -15.7392   20.7819 H   0  0  0  0  0  0
  1 25  1  0  0  0
  1 30  2  0  0  0
  1 84  1  0  0  0
  2  3  1  0  0  0
  2 25  1  0  0  0
  2 87  1  0  0  0
  2 88  1  0  0  0
  3  4  1  0  0  0
  3 89  1  0  0  0
  3 90  1  0  0  0
  4  5  1  0  0  0
  4 91  1  0  0  0
  4 92  1  0  0  0
  5  6  1  0  0  0
  5 26  1  0  0  0
  5 93  1  0  0  0
  6 25  1  0  0  0
  6 94  1  0  0  0
  6 95  1  0  0  0
  7  8  2  0  0  0
  7 26  1  0  0  0
  7 29  1  0  0  0
  8  9  1  0  0  0
  8 22  1  0  0  0
  9 10  1  0  0  0
  9 27  2  0  0  0
 10 11  2  0  0  0
 10 15  1  0  0  0
 11 12  1  0  0  0
 11 96  1  0  0  0
 12 13  2  0  0  0
 12 97  1  0  0  0
 13 14  1  0  0  0
 13 31  1  0  0  0
 14 15  2  0  0  0
 14 98  1  0  0  0
 15 99  1  0  0  0
 16 17  2  0  0  0
 16 21  1  0  0  0
 16 31  1  0  0  0
 17 18  1  0  0  0
 17100  1  0  0  0
 18 19  2  0  0  0
 18101  1  0  0  0
 19 20  1  0  0  0
 19 24  1  0  0  0
 20 21  2  0  0  0
 20102  1  0  0  0
 21 23  1  0  0  0
 22 28  1  0  0  0
 22 32  2  0  0  0
 26 27  1  0  0  0
 28103  1  0  0  0
 28104  1  0  0  0
 29105  1  0  0  0
 29106  1  0  0  0
 33 34  1  0  0  0
 33 66  1  0  0  0
 33 70  2  0  0  0
 34 36  1  0  0  0
 34 59  1  0  0  0
 34107  1  0  0  0
 35 44  2  0  0  0
 35 45  1  0  0  0
 35 68  1  0  0  0
 36 56  1  0  0  0
 36108  1  0  0  0
 37 39  1  0  0  0
 37 47  1  0  0  0
 37 66  1  0  0  0
 37109  1  0  0  0
 38 43  2  0  0  0
 38 46  1  0  0  0
 38 47  1  0  0  0
 39 64  1  0  0  0
 39 67  2  0  0  0
 40 52  1  0  0  0
 40 53  2  0  0  0
 40 58  1  0  0  0
 41110  1  0  0  0
 41111  1  0  0  0
 41112  1  0  0  0
 41 48  1  0  0  0
 42 43  1  0  0  0
 42 66  1  0  0  0
 42113  1  0  0  0
 42114  1  0  0  0
 43 44  1  0  0  0
 44115  1  0  0  0
 45 46  2  0  0  0
 45116  1  0  0  0
 46117  1  0  0  0
 47118  1  0  0  0
 47119  1  0  0  0
 48 56  1  0  0  0
 48 65  1  0  0  0
 48120  1  0  0  0
 49 50  1  0  0  0
 49 53  1  0  0  0
 49 64  1  0  0  0
 49121  1  0  0  0
 50 51  1  0  0  0
 50122  1  0  0  0
 50123  1  0  0  0
 51 52  1  0  0  0
 51124  1  0  0  0
 51125  1  0  0  0
 52126  1  0  0  0
 52127  1  0  0  0
 53 54  1  0  0  0
 54 55  2  0  0  0
 54128  1  0  0  0
 55 57  1  0  0  0
 55129  1  0  0  0
 56 69  2  0  0  0
 57 58  2  0  0  0
 57130  1  0  0  0
 58131  1  0  0  0
 59 60  1  0  0  0
 59 61  1  0  0  0
 59 62  1  0  0  0
 60132  1  0  0  0
 60133  1  0  0  0
 60134  1  0  0  0
 61135  1  0  0  0
 61136  1  0  0  0
 61137  1  0  0  0
 62138  1  0  0  0
 62139  1  0  0  0
 62140  1  0  0  0
 63 65  1  0  0  0
 63141  1  0  0  0
 63142  1  0  0  0
 63143  1  0  0  0
 64144  1  0  0  0
 65145  1  0  0  0
 68 81  1  0  0  0
 71 72  2  0  0  0
 71 75  1  0  0  0
 71146  1  0  0  0
 72 76  1  0  0  0
 72147  1  0  0  0
 73 74  1  0  0  0
 73 75  2  0  0  0
 73148  1  0  0  0
 74 76  2  0  0  0
 74 82  1  0  0  0
 75 84  1  0  0  0
 76 86  1  0  0  0
 77 81  1  0  0  0
 77 83  1  0  0  0
 77 85  2  0  0  0
 78 79  1  0  0  0
 78 80  1  0  0  0
 78149  1  0  0  0
 78150  1  0  0  0
 79 81  1  0  0  0
 79151  1  0  0  0
 79152  1  0  0  0
 80 83  1  0  0  0
 80153  1  0  0  0
 80154  1  0  0  0
 81155  1  0  0  0
 82 83  1  0  0  0
 82156  1  0  0  0
 82157  1  0  0  0
 84158  1  0  0  0
M  ISO  4   1 100  68 101  81 101  84 100
M  END
> <chiral flag>
0

> <version>
0

> <s_m_source_file>
/data/baiqing/PycharmProjects/Reinvent-master-3.2/result/LINK_invent/BTK/process_docking_weight1_custom_product_contain_oxygen_bond_distance_aromatic_linkinvent_7_9_3/rearranged_h_0045.sdf

> <i_m_source_file_index>
29

> <r_mmod_Potential_Energy-OPLS-2005>
225.621215820312

> <r_mmod_Stretch_Energy-OPLS-2005>
134.255874633789

> <r_mmod_Bend_Energy-OPLS-2005>
164.042922973633

> <r_mmod_Torsional_Energy-OPLS-2005>
259.438110351562

> <r_mmod_Improper_Torsional_Energy-OPLS-2005>
7.33725738525391

> <r_mmod_Van_der_Waal_Energy-OPLS-2005>
143.650787353516

> <r_mmod_Electrostatic_Energy-OPLS-2005>
-336.653656005859

> <r_mmod_Solvation_Energy-OPLS-2005>
-230.80078125

> <b_mmod_Minimization_Converged-OPLS-2005>
0

> <r_mmod_RMS_Derivative-OPLS-2005>
4.12359094619751

$$$$
29
                    3D
 Structure written by MMmdl.
158167  0  0  1  0            999 V2000
  -30.6042  -14.7803   20.4938 C   0  0  0  0  0  0
  -30.4414  -12.4795   19.5092 C   0  0  0  0  0  0
  -29.5246  -12.4544   18.2641 C   0  0  0  0  0  0
  -28.0532  -12.2640   18.6857 C   0  0  0  0  0  0
  -27.6289  -13.2231   19.8285 C   0  0  2  0  0  0
  -28.6634  -13.2093   20.9675 C   0  0  0  0  0  0
  -25.2442  -13.8210   20.5738 C   0  0  0  0  0  0
  -24.1717  -13.0401   20.9229 C   0  0  0  0  0  0
  -24.6292  -11.6936   20.8756 C   0  0  0  0  0  0
  -23.8942  -10.4332   21.0431 C   0  0  0  0  0  0
  -24.3563   -9.4237   21.9168 C   0  0  0  0  0  0
  -23.6288   -8.2249   22.0714 C   0  0  0  0  0  0
  -22.4251   -8.0287   21.3530 C   0  0  0  0  0  0
  -21.9882   -9.0220   20.4616 C   0  0  0  0  0  0
  -22.7143  -10.2133   20.3031 C   0  0  0  0  0  0
  -21.6836   -6.0731   22.5297 C   0  0  0  0  0  0
  -21.4026   -6.5651   23.8229 C   0  0  0  0  0  0
  -21.3651   -5.6793   24.9192 C   0  0  0  0  0  0
  -21.5998   -4.3045   24.7217 C   0  0  0  0  0  0
  -21.8821   -3.8135   23.4349 C   0  0  0  0  0  0
  -21.9222   -4.6981   22.3414 C   0  0  0  0  0  0
  -22.7767  -13.5219   21.1929 C   0  0  0  0  0  0
  -22.1664   -4.2152   21.0987 F   0  0  0  0  0  0
  -21.5644   -3.4546   25.7747 F   0  0  0  0  0  0
  -29.9563  -13.5717   20.3896 N   0  0  0  0  0  0
  -26.2828  -12.9357   20.3193 N   0  0  0  0  0  0
  -25.9218  -11.6490   20.5744 N   0  0  0  0  0  0
  -22.0384  -12.8185   22.0477 N   0  0  0  0  0  0
  -25.4096  -15.1892   20.4324 N   0  0  0  0  0  0
  -31.8191  -14.8168   20.2882 O   0  0  0  0  0  0
  -21.6598   -6.8875   21.4245 O   0  0  0  0  0  0
  -22.3450  -14.5471   20.6763 O   0  0  0  0  0  0
  -24.6360  -31.8522   23.1920 C   0  0  0  0  0  0
  -25.9164  -32.4721   23.8286 C   0  0  1  0  0  0
  -27.2223  -27.2153   20.1871 C   0  0  0  0  0  0
  -25.5951  -33.8527   24.2213 N   0  0  0  0  0  0
  -23.4391  -30.4736   21.5235 C   0  0  2  0  0  0
  -24.8873  -28.9130   20.1133 C   0  0  0  0  0  0
  -22.7520  -29.4764   22.4816 C   0  0  0  0  0  0
  -18.0410  -28.1258   22.8493 C   0  0  0  0  0  0
  -24.1481  -36.7280   23.2634 C   0  0  0  0  0  0
  -25.9826  -30.7589   21.3792 C   0  0  0  0  0  0
  -26.0544  -29.3723   20.7369 C   0  0  0  0  0  0
  -27.2200  -28.5346   20.7707 C   0  0  0  0  0  0
  -26.0357  -26.8466   19.5032 C   0  0  0  0  0  0
  -24.8877  -27.6609   19.4832 C   0  0  0  0  0  0
  -23.6577  -29.8005   20.1440 C   0  0  0  0  0  0
  -25.4104  -36.3037   24.0313 C   0  0  1  0  0  0
  -20.5970  -28.3906   23.1237 C   0  0  2  0  0  0
  -20.7001  -26.9850   22.4878 C   0  0  0  0  0  0
  -19.5969  -26.7497   21.4480 C   0  0  0  0  0  0
  -18.2326  -26.7998   22.1360 C   0  0  0  0  0  0
  -19.1526  -28.8941   23.2946 C   0  0  0  0  0  0
  -18.9103  -30.1464   23.9164 C   0  0  0  0  0  0
  -17.5921  -30.6269   24.0661 C   0  0  0  0  0  0
  -25.9067  -34.9423   23.5065 C   0  0  0  0  0  0
  -16.5060  -29.8679   23.5996 C   0  0  0  0  0  0
  -16.7334  -28.6202   23.0011 C   0  0  0  0  0  0
  -26.4518  -31.6568   25.0698 C   0  0  0  0  0  0
  -25.3761  -31.3750   26.1433 C   0  0  0  0  0  0
  -27.0416  -30.2998   24.6244 C   0  0  0  0  0  0
  -27.6079  -32.4326   25.7454 C   0  0  0  0  0  0
  -27.5585  -37.1788   24.8463 C   0  0  0  0  0  0
  -21.4211  -29.3277   22.3599 N   0  0  0  0  0  0
  -26.4291  -37.3742   23.9405 N   0  0  0  0  0  0
  -24.7040  -31.0516   22.0874 N   0  0  0  0  0  0
  -23.4213  -28.8428   23.3012 O   0  0  0  0  0  0
  -28.2914  -26.2803   20.3238 O   0  0  0  0  0  0
  -26.5642  -34.8939   22.4648 O   0  0  0  0  0  0
  -23.5492  -32.1372   23.7165 O   0  0  0  0  0  0
  -27.4443  -18.0659   22.1007 C   0  0  0  0  0  0
  -27.8987  -19.3844   21.8900 C   0  0  0  0  0  0
  -28.1604  -16.9432   21.6230 C   0  0  0  0  0  0
  -29.8060  -18.4751   20.7035 C   0  0  0  0  0  0
  -29.1074  -19.6495   21.2171 C   0  0  0  0  0  0
  -29.3520  -17.1026   20.8845 C   0  0  0  0  0  0
  -28.8763  -23.6949   20.9792 C   0  0  0  0  0  0
  -27.9029  -22.9844   18.3116 C   0  0  0  0  0  0
  -28.3169  -24.4285   18.6468 C   0  0  0  0  0  0
  -28.2010  -21.9011   19.3725 C   0  0  0  0  0  0
  -28.0565  -24.7855   20.1139 C   0  0  1  0  0  0
  -29.6497  -21.1592   21.1902 C   0  0  0  0  0  0
  -28.8676  -22.3397   20.5998 N   0  0  0  0  0  0
  -29.9021  -15.9339   20.1592 N   0  0  0  0  0  0
  -29.4911  -24.0808   21.9800 O   0  0  0  0  0  0
  -31.4807  -12.6170   19.2063 H   0  0  0  0  0  0
  -30.4136  -11.5260   20.0403 H   0  0  0  0  0  0
  -29.8320  -11.6466   17.5941 H   0  0  0  0  0  0
  -29.6348  -13.3774   17.6947 H   0  0  0  0  0  0
  -27.9524  -11.2304   19.0333 H   0  0  0  0  0  0
  -27.3923  -12.3517   17.8247 H   0  0  0  0  0  0
  -27.6073  -14.2219   19.3926 H   0  0  0  0  0  0
  -28.7104  -12.2205   21.4189 H   0  0  0  0  0  0
  -28.3918  -13.9103   21.7573 H   0  0  0  0  0  0
  -25.2696   -9.5781   22.4730 H   0  0  0  0  0  0
  -23.9995   -7.4657   22.7463 H   0  0  0  0  0  0
  -21.0782   -8.8665   19.8980 H   0  0  0  0  0  0
  -22.3497  -10.9640   19.6143 H   0  0  0  0  0  0
  -21.1963   -7.6150   23.9734 H   0  0  0  0  0  0
  -21.1477   -6.0514   25.9089 H   0  0  0  0  0  0
  -22.0592   -2.7601   23.2830 H   0  0  0  0  0  0
  -22.3948  -11.9848   22.4970 H   0  0  0  0  0  0
  -21.1014  -13.1329   22.2645 H   0  0  0  0  0  0
  -24.6419  -15.8339   20.5914 H   0  0  0  0  0  0
  -26.2640  -15.6586   20.1507 H   0  0  0  0  0  0
  -26.7268  -32.5376   23.1046 H   0  0  0  0  0  0
  -25.0013  -33.9640   25.0295 H   0  0  0  0  0  0
  -22.7481  -31.2995   21.3743 H   0  0  0  0  0  0
  -23.3739  -35.9627   23.3261 H   0  0  0  0  0  0
  -24.3572  -36.8940   22.2072 H   0  0  0  0  0  0
  -23.7292  -37.6493   23.6678 H   0  0  0  0  0  0
  -26.1411  -31.5154   20.6058 H   0  0  0  0  0  0
  -26.8514  -30.8001   22.0241 H   0  0  0  0  0  0
  -28.0951  -28.8748   21.3072 H   0  0  0  0  0  0
  -25.9523  -25.8957   19.0002 H   0  0  0  0  0  0
  -24.0007  -27.3085   18.9788 H   0  0  0  0  0  0
  -23.7903  -30.5741   19.3882 H   0  0  0  0  0  0
  -22.7742  -29.2358   19.8348 H   0  0  0  0  0  0
  -25.1294  -36.1850   25.0815 H   0  0  0  0  0  0
  -21.0063  -28.3368   24.1343 H   0  0  0  0  0  0
  -21.6850  -26.8440   22.0375 H   0  0  0  0  0  0
  -20.6323  -26.2107   23.2531 H   0  0  0  0  0  0
  -19.6399  -27.5501   20.7071 H   0  0  0  0  0  0
  -19.7483  -25.8095   20.9211 H   0  0  0  0  0  0
  -18.1271  -25.9765   22.8434 H   0  0  0  0  0  0
  -17.4468  -26.6950   21.3862 H   0  0  0  0  0  0
  -19.7277  -30.7427   24.2931 H   0  0  0  0  0  0
  -17.4068  -31.5844   24.5392 H   0  0  0  0  0  0
  -15.4909  -30.2403   23.6754 H   0  0  0  0  0  0
  -15.9085  -28.0405   22.6019 H   0  0  0  0  0  0
  -24.5895  -30.7117   25.7784 H   0  0  0  0  0  0
  -24.9003  -32.2943   26.4867 H   0  0  0  0  0  0
  -25.8098  -30.8952   27.0206 H   0  0  0  0  0  0
  -26.3049  -29.6689   24.1260 H   0  0  0  0  0  0
  -27.4083  -29.7311   25.4790 H   0  0  0  0  0  0
  -27.8893  -30.4262   23.9506 H   0  0  0  0  0  0
  -27.2656  -33.3595   26.2040 H   0  0  0  0  0  0
  -28.3843  -32.6930   25.0252 H   0  0  0  0  0  0
  -28.0765  -31.8464   26.5359 H   0  0  0  0  0  0
  -28.2563  -38.0111   24.7486 H   0  0  0  0  0  0
  -28.1101  -36.2651   24.6255 H   0  0  0  0  0  0
  -27.2291  -37.1374   25.8856 H   0  0  0  0  0  0
  -20.9553  -29.8419   21.6225 H   0  0  0  0  0  0
  -26.0140  -38.2797   24.1439 H   0  0  0  0  0  0
  -26.5195  -17.9101   22.6437 H   0  0  0  0  0  0
  -27.2969  -20.1901   22.2883 H   0  0  0  0  0  0
  -27.7354  -15.9679   21.7868 H   0  0  0  0  0  0
  -30.7229  -18.6415   20.1478 H   0  0  0  0  0  0
  -28.4067  -22.6941   17.3900 H   0  0  0  0  0  0
  -26.8301  -22.9645   18.0993 H   0  0  0  0  0  0
  -27.7867  -25.1094   17.9759 H   0  0  0  0  0  0
  -29.3797  -24.5689   18.4401 H   0  0  0  0  0  0
  -28.8372  -21.1451   18.9006 H   0  0  0  0  0  0
  -27.2905  -21.3674   19.6560 H   0  0  0  0  0  0
  -27.0207  -24.5579   20.3595 H   0  0  0  0  0  0
  -30.6165  -21.1385   20.6813 H   0  0  0  0  0  0
  -29.8649  -21.4056   22.2299 H   0  0  0  0  0  0
  -30.4290  -16.3072   19.3861 H   0  0  0  0  0  0
  1 25  1  0  0  0
  1 30  2  0  0  0
  1 84  1  0  0  0
  2  3  1  0  0  0
  2 25  1  0  0  0
  2 86  1  0  0  0
  2 87  1  0  0  0
  3  4  1  0  0  0
  3 88  1  0  0  0
  3 89  1  0  0  0
  4  5  1  0  0  0
  4 90  1  0  0  0
  4 91  1  0  0  0
  5  6  1  0  0  0
  5 26  1  0  0  0
  5 92  1  0  0  0
  6 25  1  0  0  0
  6 93  1  0  0  0
  6 94  1  0  0  0
  7  8  2  0  0  0
  7 26  1  0  0  0
  7 29  1  0  0  0
  8  9  1  0  0  0
  8 22  1  0  0  0
  9 10  1  0  0  0
  9 27  2  0  0  0
 10 11  2  0  0  0
 10 15  1  0  0  0
 11 12  1  0  0  0
 11 95  1  0  0  0
 12 13  2  0  0  0
 12 96  1  0  0  0
 13 14  1  0  0  0
 13 31  1  0  0  0
 14 15  2  0  0  0
 14 97  1  0  0  0
 15 98  1  0  0  0
 16 17  2  0  0  0
 16 21  1  0  0  0
 16 31  1  0  0  0
 17 18  1  0  0  0
 17 99  1  0  0  0
 18 19  2  0  0  0
 18100  1  0  0  0
 19 20  1  0  0  0
 19 24  1  0  0  0
 20 21  2  0  0  0
 20101  1  0  0  0
 21 23  1  0  0  0
 22 28  1  0  0  0
 22 32  2  0  0  0
 26 27  1  0  0  0
 28102  1  0  0  0
 28103  1  0  0  0
 29104  1  0  0  0
 29105  1  0  0  0
 33 34  1  0  0  0
 33 66  1  0  0  0
 33 70  2  0  0  0
 34 36  1  0  0  0
 34 59  1  0  0  0
 34106  1  0  0  0
 35 44  2  0  0  0
 35 45  1  0  0  0
 35 68  1  0  0  0
 36 56  1  0  0  0
 36107  1  0  0  0
 37 39  1  0  0  0
 37 47  1  0  0  0
 37 66  1  0  0  0
 37108  1  0  0  0
 38 43  2  0  0  0
 38 46  1  0  0  0
 38 47  1  0  0  0
 39 64  1  0  0  0
 39 67  2  0  0  0
 40 52  1  0  0  0
 40 53  2  0  0  0
 40 58  1  0  0  0
 41109  1  0  0  0
 41110  1  0  0  0
 41111  1  0  0  0
 41 48  1  0  0  0
 42 43  1  0  0  0
 42 66  1  0  0  0
 42112  1  0  0  0
 42113  1  0  0  0
 43 44  1  0  0  0
 44114  1  0  0  0
 45 46  2  0  0  0
 45115  1  0  0  0
 46116  1  0  0  0
 47117  1  0  0  0
 47118  1  0  0  0
 48 56  1  0  0  0
 48 65  1  0  0  0
 48119  1  0  0  0
 49 50  1  0  0  0
 49 53  1  0  0  0
 49 64  1  0  0  0
 49120  1  0  0  0
 50 51  1  0  0  0
 50121  1  0  0  0
 50122  1  0  0  0
 51 52  1  0  0  0
 51123  1  0  0  0
 51124  1  0  0  0
 52125  1  0  0  0
 52126  1  0  0  0
 53 54  1  0  0  0
 54 55  2  0  0  0
 54127  1  0  0  0
 55 57  1  0  0  0
 55128  1  0  0  0
 56 69  2  0  0  0
 57 58  2  0  0  0
 57129  1  0  0  0
 58130  1  0  0  0
 59 60  1  0  0  0
 59 61  1  0  0  0
 59 62  1  0  0  0
 60131  1  0  0  0
 60132  1  0  0  0
 60133  1  0  0  0
 61134  1  0  0  0
 61135  1  0  0  0
 61136  1  0  0  0
 62137  1  0  0  0
 62138  1  0  0  0
 62139  1  0  0  0
 63 65  1  0  0  0
 63140  1  0  0  0
 63141  1  0  0  0
 63142  1  0  0  0
 64143  1  0  0  0
 65144  1  0  0  0
 68 81  1  0  0  0
 71 72  2  0  0  0
 71 73  1  0  0  0
 71145  1  0  0  0
 72 75  1  0  0  0
 72146  1  0  0  0
 73 76  2  0  0  0
 73147  1  0  0  0
 74 75  2  0  0  0
 74 76  1  0  0  0
 74148  1  0  0  0
 75 82  1  0  0  0
 76 84  1  0  0  0
 77 81  1  0  0  0
 77 83  1  0  0  0
 77 85  2  0  0  0
 78 79  1  0  0  0
 78 80  1  0  0  0
 78149  1  0  0  0
 78150  1  0  0  0
 79 81  1  0  0  0
 79151  1  0  0  0
 79152  1  0  0  0
 80 83  1  0  0  0
 80153  1  0  0  0
 80154  1  0  0  0
 81155  1  0  0  0
 82 83  1  0  0  0
 82156  1  0  0  0
 82157  1  0  0  0
 84158  1  0  0  0
M  ISO  4   1 100  68 101  81 101  84 100
M  END
> <chiral flag>
0

> <version>
0

> <s_m_source_file>
/data/baiqing/PycharmProjects/Reinvent-master-3.2/result/LINK_invent/BTK/process_docking_weight1_custom_product_contain_oxygen_bond_distance_aromatic_linkinvent_7_9_3/rearranged_h_0045.sdf

> <i_m_source_file_index>
30

> <r_mmod_Potential_Energy-OPLS-2005>
390.760406494141

> <r_mmod_Stretch_Energy-OPLS-2005>
141.500473022461

> <r_mmod_Bend_Energy-OPLS-2005>
210.102935791016

> <r_mmod_Torsional_Energy-OPLS-2005>
308.340240478516

> <r_mmod_Improper_Torsional_Energy-OPLS-2005>
31.4140930175781

> <r_mmod_Van_der_Waal_Energy-OPLS-2005>
140.430740356445

> <r_mmod_Electrostatic_Energy-OPLS-2005>
-344.031311035156

> <r_mmod_Solvation_Energy-OPLS-2005>
-224.844024658203

> <b_mmod_Minimization_Converged-OPLS-2005>
0

> <r_mmod_RMS_Derivative-OPLS-2005>
11.9895992279053

$$$$
30
                    3D
 Structure written by MMmdl.
167175  0  0  1  0            999 V2000
  -30.7586  -14.5911   20.5435 C   0  0  0  0  0  0
  -30.4012  -12.3809   19.4773 C   0  0  0  0  0  0
  -29.4957  -12.5074   18.2386 C   0  0  0  0  0  0
  -28.0261  -12.3409   18.6531 C   0  0  0  0  0  0
  -27.6485  -13.2327   19.8682 C   0  0  2  0  0  0
  -28.6927  -13.1553   21.0094 C   0  0  0  0  0  0
  -25.2542  -13.8206   20.5738 C   0  0  0  0  0  0
  -24.1806  -13.0447   20.9177 C   0  0  0  0  0  0
  -24.6399  -11.6923   20.8736 C   0  0  0  0  0  0
  -23.9073  -10.4299   21.0396 C   0  0  0  0  0  0
  -24.3611   -9.4222   21.9195 C   0  0  0  0  0  0
  -23.6291   -8.2250   22.0754 C   0  0  0  0  0  0
  -22.4283   -8.0272   21.3536 C   0  0  0  0  0  0
  -21.9925   -9.0239   20.4635 C   0  0  0  0  0  0
  -22.7238  -10.2140   20.3055 C   0  0  0  0  0  0
  -21.6872   -6.0732   22.5264 C   0  0  0  0  0  0
  -21.4010   -6.5634   23.8191 C   0  0  0  0  0  0
  -21.3665   -5.6796   24.9154 C   0  0  0  0  0  0
  -21.6049   -4.3052   24.7213 C   0  0  0  0  0  0
  -21.8826   -3.8143   23.4340 C   0  0  0  0  0  0
  -21.9182   -4.6963   22.3389 C   0  0  0  0  0  0
  -22.7820  -13.5237   21.1820 C   0  0  0  0  0  0
  -22.1662   -4.2147   21.0970 F   0  0  0  0  0  0
  -21.5629   -3.4540   25.7731 F   0  0  0  0  0  0
  -30.0127  -13.4428   20.4360 N   0  0  0  0  0  0
  -26.2986  -12.9422   20.3413 N   0  0  0  0  0  0
  -25.9346  -11.6560   20.5817 N   0  0  0  0  0  0
  -22.0459  -12.8215   22.0365 N   0  0  0  0  0  0
  -25.4245  -15.1925   20.4109 N   0  0  0  0  0  0
  -31.8666  -14.6434   20.0053 O   0  0  0  0  0  0
  -21.6641   -6.8879   21.4239 O   0  0  0  0  0  0
  -22.3502  -14.5534   20.6668 O   0  0  0  0  0  0
  -24.6240  -31.8583   23.2038 C   0  0  0  0  0  0
  -25.9097  -32.4767   23.8346 C   0  0  1  0  0  0
  -27.2267  -27.3354   20.1082 C   0  0  0  0  0  0
  -25.5927  -33.8568   24.2247 N   0  0  0  0  0  0
  -23.4174  -30.4814   21.5456 C   0  0  2  0  0  0
  -24.8638  -28.9444   20.1077 C   0  0  0  0  0  0
  -22.7450  -29.4583   22.4914 C   0  0  0  0  0  0
  -18.0249  -28.1403   22.8432 C   0  0  0  0  0  0
  -24.1496  -36.7284   23.2633 C   0  0  0  0  0  0
  -25.9570  -30.7941   21.3774 C   0  0  0  0  0  0
  -26.0304  -29.4263   20.7119 C   0  0  0  0  0  0
  -27.2063  -28.6282   20.7076 C   0  0  0  0  0  0
  -26.0369  -26.9030   19.4732 C   0  0  0  0  0  0
  -24.8708  -27.6910   19.4813 C   0  0  0  0  0  0
  -23.6324  -29.8195   20.1605 C   0  0  0  0  0  0
  -25.4129  -36.3070   24.0305 C   0  0  1  0  0  0
  -20.5847  -28.3674   23.1300 C   0  0  2  0  0  0
  -20.6770  -26.9406   22.5418 C   0  0  0  0  0  0
  -19.5767  -26.6377   21.5222 C   0  0  0  0  0  0
  -18.1915  -26.7924   22.1594 C   0  0  0  0  0  0
  -19.1508  -28.8839   23.2858 C   0  0  0  0  0  0
  -18.9459  -30.1418   23.8897 C   0  0  0  0  0  0
  -17.6467  -30.6591   24.0534 C   0  0  0  0  0  0
  -25.9062  -34.9440   23.5075 C   0  0  0  0  0  0
  -16.5342  -29.9089   23.6358 C   0  0  0  0  0  0
  -16.7241  -28.6513   23.0348 C   0  0  0  0  0  0
  -26.4525  -31.6600   25.0721 C   0  0  0  0  0  0
  -25.3761  -31.3720   26.1433 C   0  0  0  0  0  0
  -27.0370  -30.3009   24.6200 C   0  0  0  0  0  0
  -27.6058  -32.4347   25.7513 C   0  0  0  0  0  0
  -27.5580  -37.1776   24.8462 C   0  0  0  0  0  0
  -21.4160  -29.3021   22.3680 N   0  0  0  0  0  0
  -26.4285  -37.3779   23.9412 N   0  0  0  0  0  0
  -24.6850  -31.0581   22.1000 N   0  0  0  0  0  0
  -23.4154  -28.8087   23.2963 O   0  0  0  0  0  0
  -28.3850  -26.5523   20.1754 O   0  0  0  0  0  0
  -26.5637  -34.8900   22.4646 O   0  0  0  0  0  0
  -23.5407  -32.1408   23.7350 O   0  0  0  0  0  0
  -32.3133  -16.4277   22.2269 C   0  0  0  0  0  0
  -33.4029  -17.2815   22.4612 C   0  0  0  0  0  0
  -32.1641  -19.0774   21.4227 C   0  0  0  0  0  0
  -31.0066  -18.2689   21.2461 C   0  0  0  0  0  0
  -31.1405  -16.8410   21.5276 C   0  0  0  0  0  0
  -33.3442  -18.6019   22.0144 C   0  0  0  0  0  0
  -27.5104  -21.1209   20.2500 C   0  0  0  0  0  0
  -25.2987  -20.3677   20.0238 C   0  0  0  0  0  0
  -29.4929  -20.2297   22.9946 C   0  0  0  0  0  0
  -29.7448  -19.0860   20.8024 C   0  0  0  0  0  0
  -28.9438  -24.1316   20.9045 C   0  0  0  0  0  0
  -28.4379  -25.1322   19.7867 C   0  0  0  0  0  0
  -28.7269  -21.5620   21.0540 C   0  0  2  0  0  0
  -26.4643  -20.6828   20.8289 N   0  0  0  0  0  0
  -30.2655  -15.7321   21.1383 N   0  0  0  0  0  0
  -29.4120  -22.7672   20.4895 N   0  0  0  0  0  0
  -29.6452  -20.4324   21.5250 N   0  3  1  0  0  0
  -34.6974  -19.6524   22.2297 Cl  0  0  0  0  0  0
  -31.4505  -12.4306   19.1826 H   0  0  0  0  0  0
  -30.2801  -11.4007   19.9426 H   0  0  0  0  0  0
  -29.7624  -11.7575   17.4942 H   0  0  0  0  0  0
  -29.6393  -13.4783   17.7601 H   0  0  0  0  0  0
  -27.8749  -11.2905   18.9024 H   0  0  0  0  0  0
  -27.3645  -12.5510   17.8112 H   0  0  0  0  0  0
  -27.6539  -14.2589   19.4984 H   0  0  0  0  0  0
  -28.6961  -12.1658   21.4683 H   0  0  0  0  0  0
  -28.4447  -13.8584   21.8070 H   0  0  0  0  0  0
  -25.2760   -9.5707   22.4772 H   0  0  0  0  0  0
  -23.9985   -7.4662   22.7497 H   0  0  0  0  0  0
  -21.0854   -8.8766   19.8929 H   0  0  0  0  0  0
  -22.3699  -10.9676   19.6152 H   0  0  0  0  0  0
  -21.2015   -7.6138   23.9701 H   0  0  0  0  0  0
  -21.1485   -6.0518   25.9064 H   0  0  0  0  0  0
  -22.0605   -2.7600   23.2829 H   0  0  0  0  0  0
  -22.4069  -11.9876   22.4737 H   0  0  0  0  0  0
  -21.1070  -13.1212   22.2553 H   0  0  0  0  0  0
  -24.6574  -15.8483   20.5106 H   0  0  0  0  0  0
  -26.2796  -15.6289   20.0925 H   0  0  0  0  0  0
  -26.7109  -32.5427   23.1052 H   0  0  0  0  0  0
  -25.0118  -33.9712   25.0412 H   0  0  0  0  0  0
  -22.7161  -31.3047   21.3991 H   0  0  0  0  0  0
  -23.3753  -35.9612   23.3319 H   0  0  0  0  0  0
  -24.3585  -36.8955   22.2050 H   0  0  0  0  0  0
  -23.7265  -37.6486   23.6665 H   0  0  0  0  0  0
  -26.0897  -31.5654   20.6187 H   0  0  0  0  0  0
  -26.8348  -30.8302   22.0124 H   0  0  0  0  0  0
  -28.1031  -28.9874   21.1952 H   0  0  0  0  0  0
  -25.9599  -25.9586   18.9609 H   0  0  0  0  0  0
  -23.9769  -27.3230   18.9931 H   0  0  0  0  0  0
  -23.7394  -30.5978   19.4015 H   0  0  0  0  0  0
  -22.7528  -29.2472   19.8626 H   0  0  0  0  0  0
  -25.1316  -36.1921   25.0791 H   0  0  0  0  0  0
  -20.9890  -28.3229   24.1440 H   0  0  0  0  0  0
  -20.5758  -26.2258   23.3596 H   0  0  0  0  0  0
  -21.6620  -26.7500   22.1147 H   0  0  0  0  0  0
  -19.7007  -25.6319   21.1213 H   0  0  0  0  0  0
  -19.6756  -27.3214   20.6785 H   0  0  0  0  0  0
  -17.4212  -26.6661   21.3981 H   0  0  0  0  0  0
  -18.0256  -26.0108   22.9035 H   0  0  0  0  0  0
  -19.7953  -30.7174   24.2311 H   0  0  0  0  0  0
  -17.5054  -31.6286   24.5107 H   0  0  0  0  0  0
  -15.5348  -30.2990   23.7708 H   0  0  0  0  0  0
  -15.8645  -28.0815   22.7124 H   0  0  0  0  0  0
  -24.5951  -30.7086   25.7744 H   0  0  0  0  0  0
  -24.8918  -32.2845   26.4858 H   0  0  0  0  0  0
  -25.8035  -30.8886   27.0215 H   0  0  0  0  0  0
  -26.2940  -29.6743   24.1236 H   0  0  0  0  0  0
  -27.4112  -29.7306   25.4726 H   0  0  0  0  0  0
  -27.8785  -30.4333   23.9399 H   0  0  0  0  0  0
  -27.2669  -33.3656   26.2044 H   0  0  0  0  0  0
  -28.3852  -32.6923   25.0344 H   0  0  0  0  0  0
  -28.0700  -31.8539   26.5486 H   0  0  0  0  0  0
  -28.2543  -38.0119   24.7510 H   0  0  0  0  0  0
  -28.1128  -36.2639   24.6263 H   0  0  0  0  0  0
  -27.2268  -37.1411   25.8857 H   0  0  0  0  0  0
  -20.9349  -29.8731   21.6890 H   0  0  0  0  0  0
  -26.0182  -38.2848   24.1453 H   0  0  0  0  0  0
  -32.4289  -15.3992   22.5383 H   0  0  0  0  0  0
  -34.2923  -16.9097   22.9521 H   0  0  0  0  0  0
  -32.1601  -20.1159   21.1304 H   0  0  0  0  0  0
  -27.6045  -21.2374   19.1647 H   0  0  0  0  0  0
  -24.9238  -19.3693   20.2609 H   0  0  0  0  0  0
  -25.4682  -20.4067   18.9424 H   0  0  0  0  0  0
  -24.4894  -21.0640   20.2524 H   0  0  0  0  0  0
  -30.2099  -19.5184   23.4039 H   0  0  0  0  0  0
  -28.4942  -19.8658   23.2336 H   0  0  0  0  0  0
  -29.6469  -21.1644   23.5385 H   0  0  0  0  0  0
  -28.8451  -18.4934   20.9685 H   0  0  0  0  0  0
  -29.8188  -19.2564   19.7278 H   0  0  0  0  0  0
  -28.1910  -24.0665   21.6935 H   0  0  0  0  0  0
  -29.8054  -24.6075   21.3789 H   0  0  0  0  0  0
  -27.5068  -24.7366   19.3919 H   0  0  0  0  0  0
  -29.1348  -25.0927   18.9499 H   0  0  0  0  0  0
  -28.3040  -21.9581   21.9783 H   0  0  0  0  0  0
  -29.2995  -15.7522   21.4323 H   0  0  0  0  0  0
  -29.5930  -22.6949   19.4921 H   0  0  0  0  0  0
  -30.5664  -20.8264   21.4250 H   0  0  0  0  0  0
  1 25  1  0  0  0
  1 30  2  0  0  0
  1 85  1  0  0  0
  2  3  1  0  0  0
  2 25  1  0  0  0
  2 89  1  0  0  0
  2 90  1  0  0  0
  3  4  1  0  0  0
  3 91  1  0  0  0
  3 92  1  0  0  0
  4  5  1  0  0  0
  4 93  1  0  0  0
  4 94  1  0  0  0
  5  6  1  0  0  0
  5 26  1  0  0  0
  5 95  1  0  0  0
  6 25  1  0  0  0
  6 96  1  0  0  0
  6 97  1  0  0  0
  7  8  2  0  0  0
  7 26  1  0  0  0
  7 29  1  0  0  0
  8  9  1  0  0  0
  8 22  1  0  0  0
  9 10  1  0  0  0
  9 27  2  0  0  0
 10 11  2  0  0  0
 10 15  1  0  0  0
 11 12  1  0  0  0
 11 98  1  0  0  0
 12 13  2  0  0  0
 12 99  1  0  0  0
 13 14  1  0  0  0
 13 31  1  0  0  0
 14 15  2  0  0  0
 14100  1  0  0  0
 15101  1  0  0  0
 16 17  2  0  0  0
 16 21  1  0  0  0
 16 31  1  0  0  0
 17 18  1  0  0  0
 17102  1  0  0  0
 18 19  2  0  0  0
 18103  1  0  0  0
 19 20  1  0  0  0
 19 24  1  0  0  0
 20 21  2  0  0  0
 20104  1  0  0  0
 21 23  1  0  0  0
 22 28  1  0  0  0
 22 32  2  0  0  0
 26 27  1  0  0  0
 28105  1  0  0  0
 28106  1  0  0  0
 29107  1  0  0  0
 29108  1  0  0  0
 33 34  1  0  0  0
 33 66  1  0  0  0
 33 70  2  0  0  0
 34 36  1  0  0  0
 34 59  1  0  0  0
 34109  1  0  0  0
 35 44  2  0  0  0
 35 45  1  0  0  0
 35 68  1  0  0  0
 36 56  1  0  0  0
 36110  1  0  0  0
 37 39  1  0  0  0
 37 47  1  0  0  0
 37 66  1  0  0  0
 37111  1  0  0  0
 38 43  2  0  0  0
 38 46  1  0  0  0
 38 47  1  0  0  0
 39 64  1  0  0  0
 39 67  2  0  0  0
 40 52  1  0  0  0
 40 53  2  0  0  0
 40 58  1  0  0  0
 41112  1  0  0  0
 41113  1  0  0  0
 41114  1  0  0  0
 41 48  1  0  0  0
 42 43  1  0  0  0
 42 66  1  0  0  0
 42115  1  0  0  0
 42116  1  0  0  0
 43 44  1  0  0  0
 44117  1  0  0  0
 45 46  2  0  0  0
 45118  1  0  0  0
 46119  1  0  0  0
 47120  1  0  0  0
 47121  1  0  0  0
 48 56  1  0  0  0
 48 65  1  0  0  0
 48122  1  0  0  0
 49 50  1  0  0  0
 49 53  1  0  0  0
 49 64  1  0  0  0
 49123  1  0  0  0
 50 51  1  0  0  0
 50124  1  0  0  0
 50125  1  0  0  0
 51 52  1  0  0  0
 51126  1  0  0  0
 51127  1  0  0  0
 52128  1  0  0  0
 52129  1  0  0  0
 53 54  1  0  0  0
 54 55  2  0  0  0
 54130  1  0  0  0
 55 57  1  0  0  0
 55131  1  0  0  0
 56 69  2  0  0  0
 57 58  2  0  0  0
 57132  1  0  0  0
 58133  1  0  0  0
 59 60  1  0  0  0
 59 61  1  0  0  0
 59 62  1  0  0  0
 60134  1  0  0  0
 60135  1  0  0  0
 60136  1  0  0  0
 61137  1  0  0  0
 61138  1  0  0  0
 61139  1  0  0  0
 62140  1  0  0  0
 62141  1  0  0  0
 62142  1  0  0  0
 63 65  1  0  0  0
 63143  1  0  0  0
 63144  1  0  0  0
 63145  1  0  0  0
 64146  1  0  0  0
 65147  1  0  0  0
 68 82  1  0  0  0
 71 72  2  0  0  0
 71 75  1  0  0  0
 71148  1  0  0  0
 72 76  1  0  0  0
 72149  1  0  0  0
 73 74  1  0  0  0
 73 76  2  0  0  0
 73150  1  0  0  0
 74 75  2  0  0  0
 74 80  1  0  0  0
 75 85  1  0  0  0
 76 88  1  0  0  0
 77 83  1  0  0  0
 77 84  2  0  0  0
 77151  1  0  0  0
 78 84  1  0  0  0
 78152  1  0  0  0
 78153  1  0  0  0
 78154  1  0  0  0
 79155  1  0  0  0
 79156  1  0  0  0
 79157  1  0  0  0
 79 87  1  0  0  0
 80 87  1  0  0  0
 80158  1  0  0  0
 80159  1  0  0  0
 81 82  1  0  0  0
 81 86  1  0  0  0
 81160  1  0  0  0
 81161  1  0  0  0
 82162  1  0  0  0
 82163  1  0  0  0
 83 86  1  0  0  0
 83 87  1  0  0  0
 83164  1  0  0  0
 85165  1  0  0  0
 86166  1  0  0  0
 87167  1  0  0  0
M  CHG  1  87   1
M  ISO  4   1 100  68 101  82 101  85 100
M  END
> <chiral flag>
0

> <version>
0

> <s_m_source_file>
/data/baiqing/PycharmProjects/Reinvent-master-3.2/result/LINK_invent/BTK/process_docking_weight1_custom_product_contain_oxygen_bond_distance_aromatic_linkinvent_7_9_3/rearranged_h_0045.sdf

> <i_m_source_file_index>
31

> <r_mmod_Potential_Energy-OPLS-2005>
58.7461547851562

> <r_mmod_Stretch_Energy-OPLS-2005>
89.3188934326172

> <r_mmod_Bend_Energy-OPLS-2005>
199.027648925781

> <r_mmod_Torsional_Energy-OPLS-2005>
259.451843261719

> <r_mmod_Improper_Torsional_Energy-OPLS-2005>
2.81127214431763

> <r_mmod_Van_der_Waal_Energy-OPLS-2005>
165.51545715332

> <r_mmod_Electrostatic_Energy-OPLS-2005>
-233.624176025391

> <r_mmod_Solvation_Energy-OPLS-2005>
-464.916107177734

> <b_mmod_Minimization_Converged-OPLS-2005>
0

> <r_mmod_RMS_Derivative-OPLS-2005>
4.99937725067139

$$$$
31
                    3D
 Structure written by MMmdl.
154162  0  0  1  0            999 V2000
  -30.7224  -14.5230   20.5959 C   0  0  0  0  0  0
  -30.4190  -12.3451   19.4290 C   0  0  0  0  0  0
  -29.4903  -12.5114   18.2105 C   0  0  0  0  0  0
  -28.0147  -12.3631   18.6299 C   0  0  0  0  0  0
  -27.6587  -13.2155   19.8749 C   0  0  2  0  0  0
  -28.7054  -13.0327   20.9972 C   0  0  0  0  0  0
  -25.2535  -13.8171   20.5662 C   0  0  0  0  0  0
  -24.1817  -13.0449   20.9219 C   0  0  0  0  0  0
  -24.6381  -11.6915   20.8789 C   0  0  0  0  0  0
  -23.9061  -10.4294   21.0435 C   0  0  0  0  0  0
  -24.3617   -9.4196   21.9187 C   0  0  0  0  0  0
  -23.6285   -8.2238   22.0758 C   0  0  0  0  0  0
  -22.4266   -8.0283   21.3555 C   0  0  0  0  0  0
  -21.9914   -9.0261   20.4658 C   0  0  0  0  0  0
  -22.7256  -10.2130   20.3067 C   0  0  0  0  0  0
  -21.6850   -6.0722   22.5276 C   0  0  0  0  0  0
  -21.4007   -6.5638   23.8201 C   0  0  0  0  0  0
  -21.3658   -5.6797   24.9169 C   0  0  0  0  0  0
  -21.6032   -4.3056   24.7224 C   0  0  0  0  0  0
  -21.8822   -3.8142   23.4355 C   0  0  0  0  0  0
  -21.9183   -4.6947   22.3406 C   0  0  0  0  0  0
  -22.7840  -13.5248   21.1847 C   0  0  0  0  0  0
  -22.1659   -4.2145   21.0979 F   0  0  0  0  0  0
  -21.5627   -3.4537   25.7734 F   0  0  0  0  0  0
  -30.0306  -13.3509   20.4420 N   0  0  0  0  0  0
  -26.3013  -12.9379   20.3386 N   0  0  0  0  0  0
  -25.9322  -11.6535   20.5841 N   0  0  0  0  0  0
  -22.0472  -12.8244   22.0394 N   0  0  0  0  0  0
  -25.4192  -15.1892   20.3953 N   0  0  0  0  0  0
  -31.8434  -14.6789   20.1052 O   0  0  0  0  0  0
  -21.6641   -6.8879   21.4248 O   0  0  0  0  0  0
  -22.3537  -14.5547   20.6666 O   0  0  0  0  0  0
  -24.6153  -31.8640   23.2087 C   0  0  0  0  0  0
  -25.9056  -32.4819   23.8367 C   0  0  1  0  0  0
  -27.2554  -27.4168   20.1068 C   0  0  0  0  0  0
  -25.5888  -33.8609   24.2271 N   0  0  0  0  0  0
  -23.4045  -30.4879   21.5482 C   0  0  2  0  0  0
  -24.8570  -28.9518   20.1137 C   0  0  0  0  0  0
  -22.7426  -29.4673   22.4972 C   0  0  0  0  0  0
  -18.0300  -28.1457   22.8412 C   0  0  0  0  0  0
  -24.1493  -36.7309   23.2635 C   0  0  0  0  0  0
  -25.9324  -30.8288   21.3640 C   0  0  0  0  0  0
  -26.0166  -29.4622   20.7086 C   0  0  0  0  0  0
  -27.2149  -28.7030   20.7002 C   0  0  0  0  0  0
  -26.0745  -26.9400   19.4861 C   0  0  0  0  0  0
  -24.8857  -27.6922   19.4908 C   0  0  0  0  0  0
  -23.6143  -29.8139   20.1656 C   0  0  0  0  0  0
  -25.4119  -36.3093   24.0320 C   0  0  1  0  0  0
  -20.5861  -28.3736   23.1330 C   0  0  2  0  0  0
  -20.6770  -26.9426   22.5546 C   0  0  0  0  0  0
  -19.5838  -26.6416   21.5248 C   0  0  0  0  0  0
  -18.1997  -26.7976   22.1578 C   0  0  0  0  0  0
  -19.1532  -28.8906   23.2851 C   0  0  0  0  0  0
  -18.9471  -30.1503   23.8862 C   0  0  0  0  0  0
  -17.6502  -30.6625   24.0529 C   0  0  0  0  0  0
  -25.9036  -34.9476   23.5096 C   0  0  0  0  0  0
  -16.5403  -29.9119   23.6306 C   0  0  0  0  0  0
  -16.7297  -28.6555   23.0324 C   0  0  0  0  0  0
  -26.4485  -31.6606   25.0685 C   0  0  0  0  0  0
  -25.3693  -31.3722   26.1377 C   0  0  0  0  0  0
  -27.0316  -30.3046   24.6071 C   0  0  0  0  0  0
  -27.6069  -32.4312   25.7440 C   0  0  0  0  0  0
  -27.5577  -37.1807   24.8464 C   0  0  0  0  0  0
  -21.4147  -29.3017   22.3653 N   0  0  0  0  0  0
  -26.4300  -37.3780   23.9395 N   0  0  0  0  0  0
  -24.6689  -31.0760   22.0980 N   0  0  0  0  0  0
  -23.4158  -28.8256   23.3083 O   0  0  0  0  0  0
  -28.4318  -26.6777   20.1576 O   0  0  0  0  0  0
  -26.5612  -34.8922   22.4660 O   0  0  0  0  0  0
  -23.5365  -32.1397   23.7487 O   0  0  0  0  0  0
  -30.3871  -19.4659   21.2563 C   0  0  0  0  0  0
  -28.1948  -20.5163   21.1516 C   0  0  0  0  0  0
  -28.3894  -18.0715   21.2218 C   0  0  0  0  0  0
  -29.6001  -20.6557   21.1623 C   0  0  0  0  0  0
  -29.7940  -18.1637   21.2917 C   0  0  0  0  0  0
  -27.6015  -19.2391   21.1718 C   0  0  0  0  0  0
  -29.5385  -24.4466   20.4597 C   0  0  0  0  0  0
  -30.2345  -22.0672   21.1105 C   0  0  0  0  0  0
  -30.6774  -16.9055   21.4561 C   0  0  0  0  0  0
  -28.3868  -25.2712   19.8137 C   0  0  0  0  0  0
  -29.3610  -23.1065   20.5236 N   0  0  0  0  0  0
  -30.0949  -15.5507   21.2252 N   0  0  0  0  0  0
  -30.5548  -25.0033   20.8883 O   0  0  0  0  0  0
  -25.8829  -19.1102   21.1378 Cl  0  0  0  0  0  0
  -31.4598  -12.4330   19.1205 H   0  0  0  0  0  0
  -30.3207  -11.3381   19.8345 H   0  0  0  0  0  0
  -29.7373  -11.7757   17.4430 H   0  0  0  0  0  0
  -29.6462  -13.4951   17.7612 H   0  0  0  0  0  0
  -27.8394  -11.3053   18.8386 H   0  0  0  0  0  0
  -27.3612  -12.6226   17.7972 H   0  0  0  0  0  0
  -27.6938  -14.2637   19.5709 H   0  0  0  0  0  0
  -28.6919  -12.0003   21.3525 H   0  0  0  0  0  0
  -28.4575  -13.6537   21.8557 H   0  0  0  0  0  0
  -25.2780   -9.5644   22.4733 H   0  0  0  0  0  0
  -23.9991   -7.4635   22.7481 H   0  0  0  0  0  0
  -21.0842   -8.8795   19.8967 H   0  0  0  0  0  0
  -22.3749  -10.9660   19.6151 H   0  0  0  0  0  0
  -21.2013   -7.6145   23.9722 H   0  0  0  0  0  0
  -21.1476   -6.0510   25.9074 H   0  0  0  0  0  0
  -22.0603   -2.7608   23.2848 H   0  0  0  0  0  0
  -22.4119  -11.9970   22.4865 H   0  0  0  0  0  0
  -21.1076  -13.1215   22.2576 H   0  0  0  0  0  0
  -24.6365  -15.8274   20.4758 H   0  0  0  0  0  0
  -26.2385  -15.6220   19.9861 H   0  0  0  0  0  0
  -26.7101  -32.5554   23.1117 H   0  0  0  0  0  0
  -25.0019  -33.9756   25.0401 H   0  0  0  0  0  0
  -22.6954  -31.3056   21.4089 H   0  0  0  0  0  0
  -23.3746  -35.9653   23.3317 H   0  0  0  0  0  0
  -24.3568  -36.8907   22.2041 H   0  0  0  0  0  0
  -23.7279  -37.6521   23.6647 H   0  0  0  0  0  0
  -26.0474  -31.5969   20.5975 H   0  0  0  0  0  0
  -26.8187  -30.8808   21.9853 H   0  0  0  0  0  0
  -28.1057  -29.1009   21.1685 H   0  0  0  0  0  0
  -26.0448  -25.9831   18.9845 H   0  0  0  0  0  0
  -24.0028  -27.2939   19.0091 H   0  0  0  0  0  0
  -23.7087  -30.5829   19.3992 H   0  0  0  0  0  0
  -22.7429  -29.2220   19.8817 H   0  0  0  0  0  0
  -25.1330  -36.1932   25.0819 H   0  0  0  0  0  0
  -20.9860  -28.3484   24.1486 H   0  0  0  0  0  0
  -20.5534  -26.2438   23.3819 H   0  0  0  0  0  0
  -21.6685  -26.7366   22.1495 H   0  0  0  0  0  0
  -19.6838  -27.3254   20.6808 H   0  0  0  0  0  0
  -19.7000  -25.6348   21.1237 H   0  0  0  0  0  0
  -17.4314  -26.6686   21.3950 H   0  0  0  0  0  0
  -18.0417  -26.0164   22.9024 H   0  0  0  0  0  0
  -19.7980  -30.7297   24.2225 H   0  0  0  0  0  0
  -17.5036  -31.6269   24.5212 H   0  0  0  0  0  0
  -15.5408  -30.3010   23.7680 H   0  0  0  0  0  0
  -15.8641  -28.0918   22.7108 H   0  0  0  0  0  0
  -24.5908  -30.7054   25.7650 H   0  0  0  0  0  0
  -24.8836  -32.2867   26.4764 H   0  0  0  0  0  0
  -25.7955  -30.8896   27.0174 H   0  0  0  0  0  0
  -26.2867  -29.6766   24.1150 H   0  0  0  0  0  0
  -27.4099  -29.7345   25.4565 H   0  0  0  0  0  0
  -27.8692  -30.4365   23.9219 H   0  0  0  0  0  0
  -27.2739  -33.3635   26.2029 H   0  0  0  0  0  0
  -28.3876  -32.6818   25.0236 H   0  0  0  0  0  0
  -28.0725  -31.8393   26.5329 H   0  0  0  0  0  0
  -28.2631  -38.0065   24.7488 H   0  0  0  0  0  0
  -28.1038  -36.2603   24.6351 H   0  0  0  0  0  0
  -27.2272  -37.1533   25.8856 H   0  0  0  0  0  0
  -20.9365  -29.8492   21.6641 H   0  0  0  0  0  0
  -26.0186  -38.2865   24.1338 H   0  0  0  0  0  0
  -31.4641  -19.5521   21.3107 H   0  0  0  0  0  0
  -27.5516  -21.3869   21.1318 H   0  0  0  0  0  0
  -27.8964  -17.1066   21.2254 H   0  0  0  0  0  0
  -31.1737  -22.0218   20.5562 H   0  0  0  0  0  0
  -30.4832  -22.3733   22.1277 H   0  0  0  0  0  0
  -31.5511  -17.0572   20.8238 H   0  0  0  0  0  0
  -31.0480  -16.9310   22.4828 H   0  0  0  0  0  0
  -27.4555  -24.8100   20.1506 H   0  0  0  0  0  0
  -28.4438  -25.1776   18.7257 H   0  0  0  0  0  0
  -28.4861  -22.7660   20.1563 H   0  0  0  0  0  0
  -29.1848  -15.3578   21.6155 H   0  0  0  0  0  0
  1 25  1  0  0  0
  1 30  2  0  0  0
  1 82  1  0  0  0
  2  3  1  0  0  0
  2 25  1  0  0  0
  2 85  1  0  0  0
  2 86  1  0  0  0
  3  4  1  0  0  0
  3 87  1  0  0  0
  3 88  1  0  0  0
  4  5  1  0  0  0
  4 89  1  0  0  0
  4 90  1  0  0  0
  5  6  1  0  0  0
  5 26  1  0  0  0
  5 91  1  0  0  0
  6 25  1  0  0  0
  6 92  1  0  0  0
  6 93  1  0  0  0
  7  8  2  0  0  0
  7 26  1  0  0  0
  7 29  1  0  0  0
  8  9  1  0  0  0
  8 22  1  0  0  0
  9 10  1  0  0  0
  9 27  2  0  0  0
 10 11  2  0  0  0
 10 15  1  0  0  0
 11 12  1  0  0  0
 11 94  1  0  0  0
 12 13  2  0  0  0
 12 95  1  0  0  0
 13 14  1  0  0  0
 13 31  1  0  0  0
 14 15  2  0  0  0
 14 96  1  0  0  0
 15 97  1  0  0  0
 16 17  2  0  0  0
 16 21  1  0  0  0
 16 31  1  0  0  0
 17 18  1  0  0  0
 17 98  1  0  0  0
 18 19  2  0  0  0
 18 99  1  0  0  0
 19 20  1  0  0  0
 19 24  1  0  0  0
 20 21  2  0  0  0
 20100  1  0  0  0
 21 23  1  0  0  0
 22 28  1  0  0  0
 22 32  2  0  0  0
 26 27  1  0  0  0
 28101  1  0  0  0
 28102  1  0  0  0
 29103  1  0  0  0
 29104  1  0  0  0
 33 34  1  0  0  0
 33 66  1  0  0  0
 33 70  2  0  0  0
 34 36  1  0  0  0
 34 59  1  0  0  0
 34105  1  0  0  0
 35 44  2  0  0  0
 35 45  1  0  0  0
 35 68  1  0  0  0
 36 56  1  0  0  0
 36106  1  0  0  0
 37 39  1  0  0  0
 37 47  1  0  0  0
 37 66  1  0  0  0
 37107  1  0  0  0
 38 43  2  0  0  0
 38 46  1  0  0  0
 38 47  1  0  0  0
 39 64  1  0  0  0
 39 67  2  0  0  0
 40 52  1  0  0  0
 40 53  2  0  0  0
 40 58  1  0  0  0
 41108  1  0  0  0
 41109  1  0  0  0
 41110  1  0  0  0
 41 48  1  0  0  0
 42 43  1  0  0  0
 42 66  1  0  0  0
 42111  1  0  0  0
 42112  1  0  0  0
 43 44  1  0  0  0
 44113  1  0  0  0
 45 46  2  0  0  0
 45114  1  0  0  0
 46115  1  0  0  0
 47116  1  0  0  0
 47117  1  0  0  0
 48 56  1  0  0  0
 48 65  1  0  0  0
 48118  1  0  0  0
 49 50  1  0  0  0
 49 53  1  0  0  0
 49 64  1  0  0  0
 49119  1  0  0  0
 50 51  1  0  0  0
 50120  1  0  0  0
 50121  1  0  0  0
 51 52  1  0  0  0
 51122  1  0  0  0
 51123  1  0  0  0
 52124  1  0  0  0
 52125  1  0  0  0
 53 54  1  0  0  0
 54 55  2  0  0  0
 54126  1  0  0  0
 55 57  1  0  0  0
 55127  1  0  0  0
 56 69  2  0  0  0
 57 58  2  0  0  0
 57128  1  0  0  0
 58129  1  0  0  0
 59 60  1  0  0  0
 59 61  1  0  0  0
 59 62  1  0  0  0
 60130  1  0  0  0
 60131  1  0  0  0
 60132  1  0  0  0
 61133  1  0  0  0
 61134  1  0  0  0
 61135  1  0  0  0
 62136  1  0  0  0
 62137  1  0  0  0
 62138  1  0  0  0
 63 65  1  0  0  0
 63139  1  0  0  0
 63140  1  0  0  0
 63141  1  0  0  0
 64142  1  0  0  0
 65143  1  0  0  0
 68 80  1  0  0  0
 71 74  2  0  0  0
 71 75  1  0  0  0
 71144  1  0  0  0
 72 74  1  0  0  0
 72 76  2  0  0  0
 72145  1  0  0  0
 73 75  2  0  0  0
 73 76  1  0  0  0
 73146  1  0  0  0
 74 78  1  0  0  0
 75 79  1  0  0  0
 76 84  1  0  0  0
 77 80  1  0  0  0
 77 81  1  0  0  0
 77 83  2  0  0  0
 78 81  1  0  0  0
 78147  1  0  0  0
 78148  1  0  0  0
 79 82  1  0  0  0
 79149  1  0  0  0
 79150  1  0  0  0
 80151  1  0  0  0
 80152  1  0  0  0
 81153  1  0  0  0
 82154  1  0  0  0
M  ISO  4   1 100  68 101  80 101  82 100
M  END
> <chiral flag>
0

> <version>
0

> <s_m_source_file>
/data/baiqing/PycharmProjects/Reinvent-master-3.2/result/LINK_invent/BTK/process_docking_weight1_custom_product_contain_oxygen_bond_distance_aromatic_linkinvent_7_9_3/rearranged_h_0045.sdf

> <i_m_source_file_index>
32

> <r_mmod_Potential_Energy-OPLS-2005>
-183.763397216797

> <r_mmod_Stretch_Energy-OPLS-2005>
49.4899978637695

> <r_mmod_Bend_Energy-OPLS-2005>
106.697380065918

> <r_mmod_Torsional_Energy-OPLS-2005>
185.523025512695

> <r_mmod_Improper_Torsional_Energy-OPLS-2005>
2.89176940917969

> <r_mmod_Van_der_Waal_Energy-OPLS-2005>
149.292236328125

> <r_mmod_Electrostatic_Energy-OPLS-2005>
-450.223693847656

> <r_mmod_Solvation_Energy-OPLS-2005>
-245.730560302734

> <b_mmod_Minimization_Converged-OPLS-2005>
0

> <r_mmod_RMS_Derivative-OPLS-2005>
6.86665439605713

$$$$
32
                    3D
 Structure written by MMmdl.
171180  0  0  1  0            999 V2000
  -30.5926  -14.8376   20.3142 C   0  0  0  0  0  0
  -30.4368  -12.4724   19.5037 C   0  0  0  0  0  0
  -29.5285  -12.3997   18.2647 C   0  0  0  0  0  0
  -28.0381  -12.2948   18.6593 C   0  0  0  0  0  0
  -27.6279  -13.2264   19.8354 C   0  0  2  0  0  0
  -28.6822  -13.2627   20.9561 C   0  0  0  0  0  0
  -25.2477  -13.8087   20.5880 C   0  0  0  0  0  0
  -24.1751  -13.0342   20.9247 C   0  0  0  0  0  0
  -24.6362  -11.6844   20.8744 C   0  0  0  0  0  0
  -23.9051  -10.4239   21.0389 C   0  0  0  0  0  0
  -24.3606   -9.4170   21.9173 C   0  0  0  0  0  0
  -23.6279   -8.2213   22.0748 C   0  0  0  0  0  0
  -22.4262   -8.0254   21.3535 C   0  0  0  0  0  0
  -21.9894   -9.0225   20.4638 C   0  0  0  0  0  0
  -22.7225  -10.2097   20.3040 C   0  0  0  0  0  0
  -21.6847   -6.0719   22.5274 C   0  0  0  0  0  0
  -21.4010   -6.5628   23.8206 C   0  0  0  0  0  0
  -21.3661   -5.6784   24.9170 C   0  0  0  0  0  0
  -21.6049   -4.3047   24.7222 C   0  0  0  0  0  0
  -21.8825   -3.8135   23.4345 C   0  0  0  0  0  0
  -21.9193   -4.6948   22.3399 C   0  0  0  0  0  0
  -22.7786  -13.5157   21.1890 C   0  0  0  0  0  0
  -22.1661   -4.2135   21.0977 F   0  0  0  0  0  0
  -21.5636   -3.4533   25.7735 F   0  0  0  0  0  0
  -29.9568  -13.6098   20.3194 N   0  0  0  0  0  0
  -26.2890  -12.9324   20.3314 N   0  0  0  0  0  0
  -25.9292  -11.6469   20.5761 N   0  0  0  0  0  0
  -22.0423  -12.8154   22.0440 N   0  0  0  0  0  0
  -25.4093  -15.1800   20.4651 N   0  0  0  0  0  0
  -31.8246  -14.8525   20.2304 O   0  0  0  0  0  0
  -21.6627   -6.8854   21.4233 O   0  0  0  0  0  0
  -22.3483  -14.5469   20.6736 O   0  0  0  0  0  0
  -24.6300  -31.8523   23.1943 C   0  0  0  0  0  0
  -25.9124  -32.4736   23.8301 C   0  0  1  0  0  0
  -27.2367  -27.2610   20.1336 C   0  0  0  0  0  0
  -25.5917  -33.8540   24.2229 N   0  0  0  0  0  0
  -23.4286  -30.4698   21.5358 C   0  0  2  0  0  0
  -24.8800  -28.9089   20.1043 C   0  0  0  0  0  0
  -22.7502  -29.4576   22.4902 C   0  0  0  0  0  0
  -18.0290  -28.1384   22.8487 C   0  0  0  0  0  0
  -24.1487  -36.7279   23.2643 C   0  0  0  0  0  0
  -25.9705  -30.7645   21.3732 C   0  0  0  0  0  0
  -26.0445  -29.3851   20.7173 C   0  0  0  0  0  0
  -27.2186  -28.5704   20.7232 C   0  0  0  0  0  0
  -26.0524  -26.8435   19.4900 C   0  0  0  0  0  0
  -24.8892  -27.6478   19.4795 C   0  0  0  0  0  0
  -23.6477  -29.7945   20.1531 C   0  0  0  0  0  0
  -25.4115  -36.3063   24.0326 C   0  0  1  0  0  0
  -20.5892  -28.3692   23.1273 C   0  0  2  0  0  0
  -20.6771  -26.9409   22.5413 C   0  0  0  0  0  0
  -19.5747  -26.6380   21.5215 C   0  0  0  0  0  0
  -18.1928  -26.7927   22.1627 C   0  0  0  0  0  0
  -19.1543  -28.8857   23.2875 C   0  0  0  0  0  0
  -18.9467  -30.1455   23.8896 C   0  0  0  0  0  0
  -17.6464  -30.6586   24.0560 C   0  0  0  0  0  0
  -25.9055  -34.9433   23.5089 C   0  0  0  0  0  0
  -16.5354  -29.9082   23.6328 C   0  0  0  0  0  0
  -16.7275  -28.6497   23.0356 C   0  0  0  0  0  0
  -26.4493  -31.6573   25.0704 C   0  0  0  0  0  0
  -25.3717  -31.3727   26.1427 C   0  0  0  0  0  0
  -27.0350  -30.2991   24.6199 C   0  0  0  0  0  0
  -27.6041  -32.4326   25.7481 C   0  0  0  0  0  0
  -27.5577  -37.1793   24.8465 C   0  0  0  0  0  0
  -21.4209  -29.3033   22.3657 N   0  0  0  0  0  0
  -26.4287  -37.3765   23.9412 N   0  0  0  0  0  0
  -24.6950  -31.0481   22.0912 N   0  0  0  0  0  0
  -23.4199  -28.8139   23.3021 O   0  0  0  0  0  0
  -28.3597  -26.4131   20.2586 O   0  0  0  0  0  0
  -26.5639  -34.8914   22.4664 O   0  0  0  0  0  0
  -23.5450  -32.1346   23.7237 O   0  0  0  0  0  0
  -31.1493  -20.4971   18.8212 C   0  0  0  0  0  0
  -28.5493  -15.2296   16.5821 C   0  0  0  0  0  0
  -30.2853  -21.5390   19.2031 C   0  0  0  0  0  0
  -27.4026  -14.9166   15.8288 C   0  0  0  0  0  0
  -26.0560  -16.2415   17.3525 C   0  0  0  0  0  0
  -31.0886  -19.2098   19.4003 C   0  0  0  0  0  0
  -28.4617  -15.9956   17.7680 C   0  0  0  0  0  0
  -30.0471  -18.8536   20.3090 C   0  0  0  0  0  0
  -29.2443  -19.9959   20.7807 C   0  0  0  0  0  0
  -29.3654  -21.3594   20.2475 C   0  0  0  0  0  0
  -26.1481  -15.4079   16.2259 C   0  0  0  0  0  0
  -27.2035  -16.5555   18.1064 C   0  0  0  0  0  0
  -32.2196  -18.2582   19.0350 C   0  0  0  0  0  0
  -28.2785  -19.7684   21.9370 C   0  0  0  0  0  0
  -29.7530  -16.3040   18.5351 C   0  0  0  0  0  0
  -29.9283  -17.3183   20.8551 C   0  0  0  0  0  0
  -27.9486  -23.6368   20.0713 C   0  0  0  0  0  0
  -28.5566  -25.0722   19.6131 C   0  0  0  0  0  0
  -28.7482  -22.5576   20.7894 N   0  0  0  0  0  0
  -29.8733  -16.0148   20.0009 N   0  0  0  0  0  0
  -24.7352  -15.0180   15.3155 Cl  0  0  0  0  0  0
  -27.0222  -17.6658   19.4076 Cl  0  0  0  0  0  0
  -31.4778  -12.5927   19.1980 H   0  0  0  0  0  0
  -30.3943  -11.5431   20.0735 H   0  0  0  0  0  0
  -29.8067  -11.5463   17.6454 H   0  0  0  0  0  0
  -29.7150  -13.2728   17.6556 H   0  0  0  0  0  0
  -27.8636  -11.2564   18.9423 H   0  0  0  0  0  0
  -27.4023  -12.4779   17.7925 H   0  0  0  0  0  0
  -27.5806  -14.2265   19.4228 H   0  0  0  0  0  0
  -28.7460  -12.3038   21.4724 H   0  0  0  0  0  0
  -28.4168  -14.0097   21.7060 H   0  0  0  0  0  0
  -25.2752   -9.5651   22.4745 H   0  0  0  0  0  0
  -23.9985   -7.4610   22.7473 H   0  0  0  0  0  0
  -21.0820   -8.8749   19.8950 H   0  0  0  0  0  0
  -22.3689  -10.9640   19.6150 H   0  0  0  0  0  0
  -21.1997   -7.6135   23.9703 H   0  0  0  0  0  0
  -21.1481   -6.0513   25.9073 H   0  0  0  0  0  0
  -22.0605   -2.7595   23.2850 H   0  0  0  0  0  0
  -22.4038  -11.9818   22.4833 H   0  0  0  0  0  0
  -21.1044  -13.1188   22.2647 H   0  0  0  0  0  0
  -24.6424  -15.8237   20.6172 H   0  0  0  0  0  0
  -26.2725  -15.6490   20.2235 H   0  0  0  0  0  0
  -26.7193  -32.5386   23.1044 H   0  0  0  0  0  0
  -25.0043  -33.9668   25.0362 H   0  0  0  0  0  0
  -22.7251  -31.2913   21.3844 H   0  0  0  0  0  0
  -23.3752  -35.9608   23.3298 H   0  0  0  0  0  0
  -24.3574  -36.8909   22.2058 H   0  0  0  0  0  0
  -23.7233  -37.6474   23.6673 H   0  0  0  0  0  0
  -26.1082  -31.5248   20.6030 H   0  0  0  0  0  0
  -26.8481  -30.8159   22.0064 H   0  0  0  0  0  0
  -28.1089  -28.9275   21.2216 H   0  0  0  0  0  0
  -26.0034  -25.8689   19.0268 H   0  0  0  0  0  0
  -23.9953  -27.2775   18.9968 H   0  0  0  0  0  0
  -23.7675  -30.5666   19.3920 H   0  0  0  0  0  0
  -22.7678  -29.2231   19.8526 H   0  0  0  0  0  0
  -25.1296  -36.1907   25.0818 H   0  0  0  0  0  0
  -20.9983  -28.3270   24.1395 H   0  0  0  0  0  0
  -20.5658  -26.2307   23.3620 H   0  0  0  0  0  0
  -21.6639  -26.7421   22.1213 H   0  0  0  0  0  0
  -19.6905  -25.6289   21.1246 H   0  0  0  0  0  0
  -19.6682  -27.3189   20.6744 H   0  0  0  0  0  0
  -17.4198  -26.6679   21.4029 H   0  0  0  0  0  0
  -18.0323  -26.0065   22.9018 H   0  0  0  0  0  0
  -19.7943  -30.7268   24.2271 H   0  0  0  0  0  0
  -17.5018  -31.6269   24.5157 H   0  0  0  0  0  0
  -15.5353  -30.2985   23.7650 H   0  0  0  0  0  0
  -15.8676  -28.0809   22.7079 H   0  0  0  0  0  0
  -24.5898  -30.7066   25.7759 H   0  0  0  0  0  0
  -24.8900  -32.2896   26.4834 H   0  0  0  0  0  0
  -25.8035  -30.8920   27.0216 H   0  0  0  0  0  0
  -26.2937  -29.6730   24.1220 H   0  0  0  0  0  0
  -27.4027  -29.7260   25.4721 H   0  0  0  0  0  0
  -27.8812  -30.4262   23.9445 H   0  0  0  0  0  0
  -27.2639  -33.3633   26.2035 H   0  0  0  0  0  0
  -28.3865  -32.6877   25.0322 H   0  0  0  0  0  0
  -28.0698  -31.8471   26.5420 H   0  0  0  0  0  0
  -28.2589  -38.0095   24.7514 H   0  0  0  0  0  0
  -28.1077  -36.2625   24.6288 H   0  0  0  0  0  0
  -27.2298  -37.1436   25.8868 H   0  0  0  0  0  0
  -20.9403  -29.8749   21.6852 H   0  0  0  0  0  0
  -26.0167  -38.2838   24.1411 H   0  0  0  0  0  0
  -31.9206  -20.7156   18.0954 H   0  0  0  0  0  0
  -29.5058  -14.8685   16.2325 H   0  0  0  0  0  0
  -30.4230  -22.5167   18.7633 H   0  0  0  0  0  0
  -27.4871  -14.3050   14.9420 H   0  0  0  0  0  0
  -25.0990  -16.6524   17.6373 H   0  0  0  0  0  0
  -33.1716  -18.7900   19.0529 H   0  0  0  0  0  0
  -32.0918  -17.8607   18.0285 H   0  0  0  0  0  0
  -32.3185  -17.4298   19.7325 H   0  0  0  0  0  0
  -27.5956  -18.9466   21.7352 H   0  0  0  0  0  0
  -27.6581  -20.6391   22.1437 H   0  0  0  0  0  0
  -28.8340  -19.5329   22.8448 H   0  0  0  0  0  0
  -29.8632  -17.3538   18.3111 H   0  0  0  0  0  0
  -30.5886  -15.8387   18.0075 H   0  0  0  0  0  0
  -29.0517  -17.2555   21.4962 H   0  0  0  0  0  0
  -30.7606  -17.2003   21.5505 H   0  0  0  0  0  0
  -27.5702  -23.1579   19.1667 H   0  0  0  0  0  0
  -27.0542  -23.8305   20.6649 H   0  0  0  0  0  0
  -28.2419  -25.2152   18.5786 H   0  0  0  0  0  0
  -29.6356  -24.9438   19.5291 H   0  0  0  0  0  0
  -28.4079  -22.4210   21.7372 H   0  0  0  0  0  0
  1 25  1  0  0  0
  1 30  2  0  0  0
  1 90  1  0  0  0
  2  3  1  0  0  0
  2 25  1  0  0  0
  2 93  1  0  0  0
  2 94  1  0  0  0
  3  4  1  0  0  0
  3 95  1  0  0  0
  3 96  1  0  0  0
  4  5  1  0  0  0
  4 97  1  0  0  0
  4 98  1  0  0  0
  5  6  1  0  0  0
  5 26  1  0  0  0
  5 99  1  0  0  0
  6 25  1  0  0  0
  6100  1  0  0  0
  6101  1  0  0  0
  7  8  2  0  0  0
  7 26  1  0  0  0
  7 29  1  0  0  0
  8  9  1  0  0  0
  8 22  1  0  0  0
  9 10  1  0  0  0
  9 27  2  0  0  0
 10 11  2  0  0  0
 10 15  1  0  0  0
 11 12  1  0  0  0
 11102  1  0  0  0
 12 13  2  0  0  0
 12103  1  0  0  0
 13 14  1  0  0  0
 13 31  1  0  0  0
 14 15  2  0  0  0
 14104  1  0  0  0
 15105  1  0  0  0
 16 17  2  0  0  0
 16 21  1  0  0  0
 16 31  1  0  0  0
 17 18  1  0  0  0
 17106  1  0  0  0
 18 19  2  0  0  0
 18107  1  0  0  0
 19 20  1  0  0  0
 19 24  1  0  0  0
 20 21  2  0  0  0
 20108  1  0  0  0
 21 23  1  0  0  0
 22 28  1  0  0  0
 22 32  2  0  0  0
 26 27  1  0  0  0
 28109  1  0  0  0
 28110  1  0  0  0
 29111  1  0  0  0
 29112  1  0  0  0
 33 34  1  0  0  0
 33 66  1  0  0  0
 33 70  2  0  0  0
 34 36  1  0  0  0
 34 59  1  0  0  0
 34113  1  0  0  0
 35 44  2  0  0  0
 35 45  1  0  0  0
 35 68  1  0  0  0
 36 56  1  0  0  0
 36114  1  0  0  0
 37 39  1  0  0  0
 37 47  1  0  0  0
 37 66  1  0  0  0
 37115  1  0  0  0
 38 43  2  0  0  0
 38 46  1  0  0  0
 38 47  1  0  0  0
 39 64  1  0  0  0
 39 67  2  0  0  0
 40 52  1  0  0  0
 40 53  2  0  0  0
 40 58  1  0  0  0
 41116  1  0  0  0
 41117  1  0  0  0
 41118  1  0  0  0
 41 48  1  0  0  0
 42 43  1  0  0  0
 42 66  1  0  0  0
 42119  1  0  0  0
 42120  1  0  0  0
 43 44  1  0  0  0
 44121  1  0  0  0
 45 46  2  0  0  0
 45122  1  0  0  0
 46123  1  0  0  0
 47124  1  0  0  0
 47125  1  0  0  0
 48 56  1  0  0  0
 48 65  1  0  0  0
 48126  1  0  0  0
 49 50  1  0  0  0
 49 53  1  0  0  0
 49 64  1  0  0  0
 49127  1  0  0  0
 50 51  1  0  0  0
 50128  1  0  0  0
 50129  1  0  0  0
 51 52  1  0  0  0
 51130  1  0  0  0
 51131  1  0  0  0
 52132  1  0  0  0
 52133  1  0  0  0
 53 54  1  0  0  0
 54 55  2  0  0  0
 54134  1  0  0  0
 55 57  1  0  0  0
 55135  1  0  0  0
 56 69  2  0  0  0
 57 58  2  0  0  0
 57136  1  0  0  0
 58137  1  0  0  0
 59 60  1  0  0  0
 59 61  1  0  0  0
 59 62  1  0  0  0
 60138  1  0  0  0
 60139  1  0  0  0
 60140  1  0  0  0
 61141  1  0  0  0
 61142  1  0  0  0
 61143  1  0  0  0
 62144  1  0  0  0
 62145  1  0  0  0
 62146  1  0  0  0
 63 65  1  0  0  0
 63147  1  0  0  0
 63148  1  0  0  0
 63149  1  0  0  0
 64150  1  0  0  0
 65151  1  0  0  0
 68 88  1  0  0  0
 71 73  2  0  0  0
 71 76  1  0  0  0
 71152  1  0  0  0
 72 74  2  0  0  0
 72 77  1  0  0  0
 72153  1  0  0  0
 73 80  1  0  0  0
 73154  1  0  0  0
 74 81  1  0  0  0
 74155  1  0  0  0
 75 81  2  0  0  0
 75 82  1  0  0  0
 75156  1  0  0  0
 76 78  2  0  0  0
 76 83  1  0  0  0
 77 82  2  0  0  0
 77 85  1  0  0  0
 78 79  1  0  0  0
 78 86  1  0  0  0
 79 80  2  0  0  0
 79 84  1  0  0  0
 80 89  1  0  0  0
 81 91  1  0  0  0
 82 92  1  0  0  0
 83157  1  0  0  0
 83158  1  0  0  0
 83159  1  0  0  0
 84160  1  0  0  0
 84161  1  0  0  0
 84162  1  0  0  0
 85 90  1  0  0  0
 85163  1  0  0  0
 85164  1  0  0  0
 86 90  1  0  0  0
 86165  1  0  0  0
 86166  1  0  0  0
 87 88  1  0  0  0
 87 89  1  0  0  0
 87167  1  0  0  0
 87168  1  0  0  0
 88169  1  0  0  0
 88170  1  0  0  0
 89171  1  0  0  0
M  ISO  4   1 100  68 101  88 101  90 100
M  END
> <chiral flag>
0

> <version>
0

> <s_m_source_file>
/data/baiqing/PycharmProjects/Reinvent-master-3.2/result/LINK_invent/BTK/process_docking_weight1_custom_product_contain_oxygen_bond_distance_aromatic_linkinvent_7_9_3/rearranged_h_0045.sdf

> <i_m_source_file_index>
33

> <r_mmod_Potential_Energy-OPLS-2005>
434.996948242188

> <r_mmod_Stretch_Energy-OPLS-2005>
159.474502563477

> <r_mmod_Bend_Energy-OPLS-2005>
253.840606689453

> <r_mmod_Torsional_Energy-OPLS-2005>
315.435607910156

> <r_mmod_Improper_Torsional_Energy-OPLS-2005>
18.2141151428223

> <r_mmod_Van_der_Waal_Energy-OPLS-2005>
146.672882080078

> <r_mmod_Electrostatic_Energy-OPLS-2005>
-383.599548339844

> <r_mmod_Solvation_Energy-OPLS-2005>
-198.972045898438

> <b_mmod_Minimization_Converged-OPLS-2005>
0

> <r_mmod_RMS_Derivative-OPLS-2005>
0.602282047271729

$$$$
33
                    3D
 Structure written by MMmdl.
151159  0  0  1  0            999 V2000
  -30.6029  -14.7534   20.4637 C   0  0  0  0  0  0
  -30.4350  -12.4623   19.4698 C   0  0  0  0  0  0
  -29.5089  -12.4978   18.2349 C   0  0  0  0  0  0
  -28.0369  -12.3169   18.6533 C   0  0  0  0  0  0
  -27.6394  -13.2271   19.8458 C   0  0  2  0  0  0
  -28.6841  -13.1691   20.9807 C   0  0  0  0  0  0
  -25.2507  -13.8183   20.5679 C   0  0  0  0  0  0
  -24.1801  -13.0435   20.9215 C   0  0  0  0  0  0
  -24.6390  -11.6914   20.8761 C   0  0  0  0  0  0
  -23.9065  -10.4292   21.0418 C   0  0  0  0  0  0
  -24.3618   -9.4205   21.9189 C   0  0  0  0  0  0
  -23.6293   -8.2238   22.0751 C   0  0  0  0  0  0
  -22.4274   -8.0280   21.3537 C   0  0  0  0  0  0
  -21.9909   -9.0255   20.4639 C   0  0  0  0  0  0
  -22.7240  -10.2135   20.3059 C   0  0  0  0  0  0
  -21.6851   -6.0738   22.5283 C   0  0  0  0  0  0
  -21.4013   -6.5640   23.8217 C   0  0  0  0  0  0
  -21.3658   -5.6791   24.9177 C   0  0  0  0  0  0
  -21.6045   -4.3054   24.7225 C   0  0  0  0  0  0
  -21.8820   -3.8148   23.4346 C   0  0  0  0  0  0
  -21.9191   -4.6966   22.3404 C   0  0  0  0  0  0
  -22.7824  -13.5225   21.1872 C   0  0  0  0  0  0
  -22.1661   -4.2150   21.0980 F   0  0  0  0  0  0
  -21.5627   -3.4538   25.7737 F   0  0  0  0  0  0
  -29.9807  -13.5269   20.3931 N   0  0  0  0  0  0
  -26.2924  -12.9380   20.3260 N   0  0  0  0  0  0
  -25.9313  -11.6532   20.5750 N   0  0  0  0  0  0
  -22.0468  -12.8211   22.0428 N   0  0  0  0  0  0
  -25.4186  -15.1908   20.4073 N   0  0  0  0  0  0
  -31.8006  -14.8411   20.1776 O   0  0  0  0  0  0
  -21.6637   -6.8878   21.4241 O   0  0  0  0  0  0
  -22.3509  -14.5528   20.6718 O   0  0  0  0  0  0
  -24.6302  -31.8536   23.1962 C   0  0  0  0  0  0
  -25.9124  -32.4746   23.8316 C   0  0  1  0  0  0
  -27.2261  -27.2623   20.1417 C   0  0  0  0  0  0
  -25.5920  -33.8549   24.2246 N   0  0  0  0  0  0
  -23.4286  -30.4734   21.5391 C   0  0  2  0  0  0
  -24.8775  -28.9105   20.1178 C   0  0  0  0  0  0
  -22.7500  -29.4588   22.4911 C   0  0  0  0  0  0
  -18.0289  -28.1371   22.8462 C   0  0  0  0  0  0
  -24.1486  -36.7286   23.2642 C   0  0  0  0  0  0
  -25.9723  -30.7688   21.3731 C   0  0  0  0  0  0
  -26.0483  -29.3876   20.7217 C   0  0  0  0  0  0
  -27.2292  -28.5775   20.7172 C   0  0  0  0  0  0
  -26.0343  -26.8438   19.5177 C   0  0  0  0  0  0
  -24.8741  -27.6464   19.5046 C   0  0  0  0  0  0
  -23.6478  -29.7988   20.1586 C   0  0  0  0  0  0
  -25.4117  -36.3065   24.0322 C   0  0  1  0  0  0
  -20.5892  -28.3683   23.1254 C   0  0  2  0  0  0
  -20.6767  -26.9397   22.5400 C   0  0  0  0  0  0
  -19.5756  -26.6364   21.5190 C   0  0  0  0  0  0
  -18.1935  -26.7908   22.1601 C   0  0  0  0  0  0
  -19.1544  -28.8844   23.2847 C   0  0  0  0  0  0
  -18.9474  -30.1443   23.8868 C   0  0  0  0  0  0
  -17.6476  -30.6572   24.0553 C   0  0  0  0  0  0
  -25.9047  -34.9431   23.5087 C   0  0  0  0  0  0
  -16.5363  -29.9073   23.6324 C   0  0  0  0  0  0
  -16.7276  -28.6491   23.0338 C   0  0  0  0  0  0
  -26.4495  -31.6582   25.0710 C   0  0  0  0  0  0
  -25.3715  -31.3740   26.1428 C   0  0  0  0  0  0
  -27.0354  -30.3004   24.6193 C   0  0  0  0  0  0
  -27.6042  -32.4333   25.7484 C   0  0  0  0  0  0
  -27.5576  -37.1800   24.8467 C   0  0  0  0  0  0
  -21.4210  -29.3042   22.3656 N   0  0  0  0  0  0
  -26.4294  -37.3763   23.9402 N   0  0  0  0  0  0
  -24.6960  -31.0503   22.0928 N   0  0  0  0  0  0
  -23.4196  -28.8133   23.3015 O   0  0  0  0  0  0
  -28.3301  -26.3851   20.1290 O   0  0  0  0  0  0
  -26.5629  -34.8905   22.4657 O   0  0  0  0  0  0
  -23.5450  -32.1359   23.7252 O   0  0  0  0  0  0
  -29.2621  -18.4394   20.3511 C   0  0  0  0  0  0
  -30.8710  -20.1253   21.0490 C   0  0  0  0  0  0
  -31.3955  -17.7238   21.2553 C   0  0  0  0  0  0
  -29.6019  -19.8517   20.5016 C   0  0  0  0  0  0
  -30.1486  -17.3377   20.7114 C   0  0  0  0  0  0
  -31.7474  -19.0825   21.4207 C   0  0  0  0  0  0
  -28.4376  -23.6981   19.9684 C   0  0  0  0  0  0
  -28.6878  -21.0681   20.0138 C   0  0  0  0  0  0
  -28.2235  -25.0490   20.8133 C   0  0  0  0  0  0
  -29.8062  -15.8886   20.6007 N   0  0  0  0  0  0
  -28.7972  -22.4944   20.5685 N   0  0  0  0  0  0
  -28.2090  -23.7331   18.7575 O   0  0  0  0  0  0
  -33.2896  -19.4754   22.0894 Cl  0  0  0  0  0  0
  -31.4740  -12.5945   19.1635 H   0  0  0  0  0  0
  -30.3892  -11.4890   19.9605 H   0  0  0  0  0  0
  -29.7944  -11.7194   17.5260 H   0  0  0  0  0  0
  -29.6289  -13.4480   17.7131 H   0  0  0  0  0  0
  -27.9031  -11.2707   18.9307 H   0  0  0  0  0  0
  -27.3756  -12.4914   17.8038 H   0  0  0  0  0  0
  -27.6305  -14.2445   19.4554 H   0  0  0  0  0  0
  -28.7240  -12.1728   21.4241 H   0  0  0  0  0  0
  -28.4176  -13.8531   21.7885 H   0  0  0  0  0  0
  -25.2763   -9.5679   22.4766 H   0  0  0  0  0  0
  -24.0002   -7.4626   22.7471 H   0  0  0  0  0  0
  -21.0839   -8.8777   19.8941 H   0  0  0  0  0  0
  -22.3705  -10.9674   19.6167 H   0  0  0  0  0  0
  -21.2007   -7.6147   23.9720 H   0  0  0  0  0  0
  -21.1476   -6.0520   25.9079 H   0  0  0  0  0  0
  -22.0600   -2.7609   23.2848 H   0  0  0  0  0  0
  -22.4084  -11.9872   22.4816 H   0  0  0  0  0  0
  -21.1082  -13.1225   22.2635 H   0  0  0  0  0  0
  -24.6464  -15.8395   20.5135 H   0  0  0  0  0  0
  -26.2536  -15.6297   20.0422 H   0  0  0  0  0  0
  -26.7195  -32.5400   23.1064 H   0  0  0  0  0  0
  -25.0074  -33.9680   25.0397 H   0  0  0  0  0  0
  -22.7255  -31.2957   21.3896 H   0  0  0  0  0  0
  -23.3740  -35.9625   23.3312 H   0  0  0  0  0  0
  -24.3587  -36.8901   22.2057 H   0  0  0  0  0  0
  -23.7244  -37.6490   23.6667 H   0  0  0  0  0  0
  -26.1075  -31.5265   20.5996 H   0  0  0  0  0  0
  -26.8511  -30.8235   22.0038 H   0  0  0  0  0  0
  -28.1319  -28.9426   21.1871 H   0  0  0  0  0  0
  -25.9975  -25.8723   19.0436 H   0  0  0  0  0  0
  -23.9784  -27.2750   19.0265 H   0  0  0  0  0  0
  -23.7759  -30.5706   19.3987 H   0  0  0  0  0  0
  -22.7663  -29.2303   19.8550 H   0  0  0  0  0  0
  -25.1302  -36.1911   25.0816 H   0  0  0  0  0  0
  -20.9983  -28.3252   24.1378 H   0  0  0  0  0  0
  -20.5641  -26.2292   23.3609 H   0  0  0  0  0  0
  -21.6640  -26.7412   22.1215 H   0  0  0  0  0  0
  -19.6921  -25.6272   21.1225 H   0  0  0  0  0  0
  -19.6688  -27.3165   20.6713 H   0  0  0  0  0  0
  -17.4198  -26.6636   21.4005 H   0  0  0  0  0  0
  -18.0359  -26.0052   22.9005 H   0  0  0  0  0  0
  -19.7952  -30.7255   24.2234 H   0  0  0  0  0  0
  -17.5034  -31.6254   24.5155 H   0  0  0  0  0  0
  -15.5362  -30.2970   23.7668 H   0  0  0  0  0  0
  -15.8670  -28.0811   22.7068 H   0  0  0  0  0  0
  -24.5885  -30.7088   25.7769 H   0  0  0  0  0  0
  -24.8903  -32.2909   26.4837 H   0  0  0  0  0  0
  -25.8012  -30.8931   27.0220 H   0  0  0  0  0  0
  -26.2946  -29.6736   24.1206 H   0  0  0  0  0  0
  -27.4047  -29.7276   25.4710 H   0  0  0  0  0  0
  -27.8809  -30.4309   23.9432 H   0  0  0  0  0  0
  -27.2659  -33.3648   26.2041 H   0  0  0  0  0  0
  -28.3858  -32.6876   25.0311 H   0  0  0  0  0  0
  -28.0705  -31.8473   26.5411 H   0  0  0  0  0  0
  -28.2600  -38.0092   24.7507 H   0  0  0  0  0  0
  -28.1063  -36.2616   24.6304 H   0  0  0  0  0  0
  -27.2294  -37.1478   25.8872 H   0  0  0  0  0  0
  -20.9394  -29.8787   21.6882 H   0  0  0  0  0  0
  -26.0159  -38.2830   24.1400 H   0  0  0  0  0  0
  -28.2956  -18.2010   19.9289 H   0  0  0  0  0  0
  -31.1913  -21.1503   21.1691 H   0  0  0  0  0  0
  -32.1075  -16.9765   21.5717 H   0  0  0  0  0  0
  -27.6517  -20.7554   20.1510 H   0  0  0  0  0  0
  -28.8217  -21.1241   18.9333 H   0  0  0  0  0  0
  -27.2572  -24.9740   21.3145 H   0  0  0  0  0  0
  -28.9662  -25.0459   21.6112 H   0  0  0  0  0  0
  -28.8195  -15.6825   20.6164 H   0  0  0  0  0  0
  -29.0008  -22.5530   21.5578 H   0  0  0  0  0  0
  1 25  1  0  0  0
  1 30  2  0  0  0
  1 80  1  0  0  0
  2  3  1  0  0  0
  2 25  1  0  0  0
  2 84  1  0  0  0
  2 85  1  0  0  0
  3  4  1  0  0  0
  3 86  1  0  0  0
  3 87  1  0  0  0
  4  5  1  0  0  0
  4 88  1  0  0  0
  4 89  1  0  0  0
  5  6  1  0  0  0
  5 26  1  0  0  0
  5 90  1  0  0  0
  6 25  1  0  0  0
  6 91  1  0  0  0
  6 92  1  0  0  0
  7  8  2  0  0  0
  7 26  1  0  0  0
  7 29  1  0  0  0
  8  9  1  0  0  0
  8 22  1  0  0  0
  9 10  1  0  0  0
  9 27  2  0  0  0
 10 11  2  0  0  0
 10 15  1  0  0  0
 11 12  1  0  0  0
 11 93  1  0  0  0
 12 13  2  0  0  0
 12 94  1  0  0  0
 13 14  1  0  0  0
 13 31  1  0  0  0
 14 15  2  0  0  0
 14 95  1  0  0  0
 15 96  1  0  0  0
 16 17  2  0  0  0
 16 21  1  0  0  0
 16 31  1  0  0  0
 17 18  1  0  0  0
 17 97  1  0  0  0
 18 19  2  0  0  0
 18 98  1  0  0  0
 19 20  1  0  0  0
 19 24  1  0  0  0
 20 21  2  0  0  0
 20 99  1  0  0  0
 21 23  1  0  0  0
 22 28  1  0  0  0
 22 32  2  0  0  0
 26 27  1  0  0  0
 28100  1  0  0  0
 28101  1  0  0  0
 29102  1  0  0  0
 29103  1  0  0  0
 33 34  1  0  0  0
 33 66  1  0  0  0
 33 70  2  0  0  0
 34 36  1  0  0  0
 34 59  1  0  0  0
 34104  1  0  0  0
 35 44  2  0  0  0
 35 45  1  0  0  0
 35 68  1  0  0  0
 36 56  1  0  0  0
 36105  1  0  0  0
 37 39  1  0  0  0
 37 47  1  0  0  0
 37 66  1  0  0  0
 37106  1  0  0  0
 38 43  2  0  0  0
 38 46  1  0  0  0
 38 47  1  0  0  0
 39 64  1  0  0  0
 39 67  2  0  0  0
 40 52  1  0  0  0
 40 53  2  0  0  0
 40 58  1  0  0  0
 41107  1  0  0  0
 41108  1  0  0  0
 41109  1  0  0  0
 41 48  1  0  0  0
 42 43  1  0  0  0
 42 66  1  0  0  0
 42110  1  0  0  0
 42111  1  0  0  0
 43 44  1  0  0  0
 44112  1  0  0  0
 45 46  2  0  0  0
 45113  1  0  0  0
 46114  1  0  0  0
 47115  1  0  0  0
 47116  1  0  0  0
 48 56  1  0  0  0
 48 65  1  0  0  0
 48117  1  0  0  0
 49 50  1  0  0  0
 49 53  1  0  0  0
 49 64  1  0  0  0
 49118  1  0  0  0
 50 51  1  0  0  0
 50119  1  0  0  0
 50120  1  0  0  0
 51 52  1  0  0  0
 51121  1  0  0  0
 51122  1  0  0  0
 52123  1  0  0  0
 52124  1  0  0  0
 53 54  1  0  0  0
 54 55  2  0  0  0
 54125  1  0  0  0
 55 57  1  0  0  0
 55126  1  0  0  0
 56 69  2  0  0  0
 57 58  2  0  0  0
 57127  1  0  0  0
 58128  1  0  0  0
 59 60  1  0  0  0
 59 61  1  0  0  0
 59 62  1  0  0  0
 60129  1  0  0  0
 60130  1  0  0  0
 60131  1  0  0  0
 61132  1  0  0  0
 61133  1  0  0  0
 61134  1  0  0  0
 62135  1  0  0  0
 62136  1  0  0  0
 62137  1  0  0  0
 63 65  1  0  0  0
 63138  1  0  0  0
 63139  1  0  0  0
 63140  1  0  0  0
 64141  1  0  0  0
 65142  1  0  0  0
 68 79  1  0  0  0
 71 74  2  0  0  0
 71 75  1  0  0  0
 71143  1  0  0  0
 72 74  1  0  0  0
 72 76  2  0  0  0
 72144  1  0  0  0
 73 75  2  0  0  0
 73 76  1  0  0  0
 73145  1  0  0  0
 74 78  1  0  0  0
 75 80  1  0  0  0
 76 83  1  0  0  0
 77 79  1  0  0  0
 77 81  1  0  0  0
 77 82  2  0  0  0
 78 81  1  0  0  0
 78146  1  0  0  0
 78147  1  0  0  0
 79148  1  0  0  0
 79149  1  0  0  0
 80150  1  0  0  0
 81151  1  0  0  0
M  ISO  4   1 100  68 101  79 101  80 100
M  END
> <chiral flag>
0

> <version>
0

> <s_m_source_file>
/data/baiqing/PycharmProjects/Reinvent-master-3.2/result/LINK_invent/BTK/process_docking_weight1_custom_product_contain_oxygen_bond_distance_aromatic_linkinvent_7_9_3/rearranged_h_0045.sdf

> <i_m_source_file_index>
34

> <r_mmod_Potential_Energy-OPLS-2005>
92.5576934814453

> <r_mmod_Stretch_Energy-OPLS-2005>
124.946868896484

> <r_mmod_Bend_Energy-OPLS-2005>
155.599044799805

> <r_mmod_Torsional_Energy-OPLS-2005>
236.898681640625

> <r_mmod_Improper_Torsional_Energy-OPLS-2005>
6.92039632797241

> <r_mmod_Van_der_Waal_Energy-OPLS-2005>
130.107131958008

> <r_mmod_Electrostatic_Energy-OPLS-2005>
-399.01806640625

> <r_mmod_Solvation_Energy-OPLS-2005>
-248.43359375

> <b_mmod_Minimization_Converged-OPLS-2005>
0

> <r_mmod_RMS_Derivative-OPLS-2005>
1.3744478225708

$$$$
34
                    3D
 Structure written by MMmdl.
164173  0  0  1  0            999 V2000
  -30.5740  -14.7698   20.4463 C   0  0  0  0  0  0
  -30.4461  -12.4745   19.4459 C   0  0  0  0  0  0
  -29.5095  -12.4989   18.2189 C   0  0  0  0  0  0
  -28.0348  -12.3166   18.6385 C   0  0  0  0  0  0
  -27.6363  -13.2231   19.8335 C   0  0  2  0  0  0
  -28.6871  -13.1642   20.9622 C   0  0  0  0  0  0
  -25.2508  -13.8150   20.5682 C   0  0  0  0  0  0
  -24.1793  -13.0411   20.9205 C   0  0  0  0  0  0
  -24.6375  -11.6890   20.8711 C   0  0  0  0  0  0
  -23.9043  -10.4281   21.0384 C   0  0  0  0  0  0
  -24.3599   -9.4211   21.9165 C   0  0  0  0  0  0
  -23.6287   -8.2233   22.0749 C   0  0  0  0  0  0
  -22.4267   -8.0250   21.3544 C   0  0  0  0  0  0
  -21.9892   -9.0215   20.4637 C   0  0  0  0  0  0
  -22.7211  -10.2109   20.3039 C   0  0  0  0  0  0
  -21.6848   -6.0719   22.5275 C   0  0  0  0  0  0
  -21.4010   -6.5632   23.8206 C   0  0  0  0  0  0
  -21.3663   -5.6782   24.9166 C   0  0  0  0  0  0
  -21.6047   -4.3047   24.7212 C   0  0  0  0  0  0
  -21.8826   -3.8142   23.4332 C   0  0  0  0  0  0
  -21.9199   -4.6953   22.3393 C   0  0  0  0  0  0
  -22.7825  -13.5214   21.1858 C   0  0  0  0  0  0
  -22.1664   -4.2145   21.0965 F   0  0  0  0  0  0
  -21.5627   -3.4526   25.7725 F   0  0  0  0  0  0
  -29.9779  -13.5325   20.3667 N   0  0  0  0  0  0
  -26.2905  -12.9343   20.3185 N   0  0  0  0  0  0
  -25.9302  -11.6500   20.5699 N   0  0  0  0  0  0
  -22.0464  -12.8209   22.0415 N   0  0  0  0  0  0
  -25.4175  -15.1870   20.4104 N   0  0  0  0  0  0
  -31.7896  -14.8852   20.2623 O   0  0  0  0  0  0
  -21.6635   -6.8848   21.4233 O   0  0  0  0  0  0
  -22.3528  -14.5525   20.6717 O   0  0  0  0  0  0
  -24.6557  -31.8579   23.2000 C   0  0  0  0  0  0
  -25.9329  -32.4767   23.8377 C   0  0  1  0  0  0
  -27.2408  -27.2458   20.1032 C   0  0  0  0  0  0
  -25.6088  -33.8558   24.2310 N   0  0  0  0  0  0
  -23.4688  -30.4802   21.5606 C   0  0  2  0  0  0
  -24.8854  -28.9121   20.1219 C   0  0  0  0  0  0
  -22.7884  -29.4766   22.5186 C   0  0  0  0  0  0
  -17.9982  -28.1220   22.8787 C   0  0  0  0  0  0
  -24.1504  -36.7229   23.2647 C   0  0  0  0  0  0
  -26.0043  -30.7615   21.3758 C   0  0  0  0  0  0
  -26.0669  -29.3844   20.7085 C   0  0  0  0  0  0
  -27.2449  -28.5681   20.6761 C   0  0  0  0  0  0
  -26.0072  -26.8147   19.5660 C   0  0  0  0  0  0
  -24.8605  -27.6345   19.5426 C   0  0  0  0  0  0
  -23.6601  -29.8037   20.1764 C   0  0  0  0  0  0
  -25.4143  -36.3054   24.0333 C   0  0  1  0  0  0
  -20.4835  -28.4637   22.7691 C   0  0  2  0  0  0
  -20.6979  -26.9669   22.5182 C   0  0  0  0  0  0
  -19.5522  -26.4610   21.6153 C   0  0  0  0  0  0
  -18.1591  -26.7495   22.2216 C   0  0  0  0  0  0
  -19.1197  -28.9005   23.2476 C   0  0  0  0  0  0
  -18.9419  -30.1545   23.8680 C   0  0  0  0  0  0
  -17.6451  -30.6574   24.0782 C   0  0  0  0  0  0
  -25.9101  -34.9430   23.5108 C   0  0  0  0  0  0
  -16.5269  -29.9019   23.6828 C   0  0  0  0  0  0
  -16.7045  -28.6321   23.1016 C   0  0  0  0  0  0
  -26.4620  -31.6571   25.0768 C   0  0  0  0  0  0
  -25.3785  -31.3712   26.1442 C   0  0  0  0  0  0
  -27.0525  -30.3009   24.6248 C   0  0  0  0  0  0
  -27.6160  -32.4307   25.7563 C   0  0  0  0  0  0
  -27.5589  -37.1779   24.8484 C   0  0  0  0  0  0
  -21.4658  -29.4508   22.3978 N   0  0  0  0  0  0
  -26.4309  -37.3757   23.9415 N   0  0  0  0  0  0
  -24.7321  -31.0521   22.1011 N   0  0  0  0  0  0
  -23.4265  -28.7495   23.2797 O   0  0  0  0  0  0
  -28.3825  -26.3993   20.1313 O   0  0  0  0  0  0
  -26.5605  -34.8914   22.4636 O   0  0  0  0  0  0
  -23.5661  -32.1395   23.7230 O   0  0  0  0  0  0
  -29.6564  -18.4979   20.1239 C   0  0  0  0  0  0
  -29.7142  -17.3958   22.2807 C   0  0  0  0  0  0
  -29.5239  -19.8247   20.7279 C   0  0  0  0  0  0
  -29.4593  -19.8567   22.1472 C   0  0  0  0  0  0
  -29.7743  -17.2562   20.8809 C   0  0  0  0  0  0
  -29.5437  -18.6529   22.9020 C   0  0  0  0  0  0
  -29.1052  -23.7569   20.2516 C   0  0  0  0  0  0
  -27.9731  -23.4231   17.4268 C   0  0  0  0  0  0
  -26.9562  -22.5513   18.1869 C   0  0  0  0  0  0
  -28.0846  -24.8655   17.9581 C   0  0  0  0  0  0
  -27.3253  -22.1718   19.6404 C   0  0  0  0  0  0
  -28.5510  -25.0548   19.4427 C   0  0  1  0  0  0
  -29.3458  -21.2028   22.8555 C   0  0  0  0  0  0
  -29.6369  -21.1994   19.8988 C   0  0  0  0  0  0
  -28.7169  -22.4362   19.9981 N   0  0  0  0  0  0
  -29.7299  -15.8722   20.3413 N   0  0  0  0  0  0
  -30.0463  -23.9562   21.0275 O   0  0  0  0  0  0
  -29.4428  -18.6636   24.6285 Cl  0  0  0  0  0  0
  -31.4783  -12.6368   19.1297 H   0  0  0  0  0  0
  -30.4242  -11.5014   19.9384 H   0  0  0  0  0  0
  -29.7955  -11.7167   17.5140 H   0  0  0  0  0  0
  -29.6278  -13.4463   17.6910 H   0  0  0  0  0  0
  -27.9001  -11.2691   18.9121 H   0  0  0  0  0  0
  -27.3760  -12.4979   17.7886 H   0  0  0  0  0  0
  -27.6220  -14.2401   19.4440 H   0  0  0  0  0  0
  -28.7340  -12.1678   21.4032 H   0  0  0  0  0  0
  -28.4232  -13.8449   21.7731 H   0  0  0  0  0  0
  -25.2738   -9.5691   22.4748 H   0  0  0  0  0  0
  -23.9997   -7.4626   22.7482 H   0  0  0  0  0  0
  -21.0814   -8.8725   19.8944 H   0  0  0  0  0  0
  -22.3648  -10.9640   19.6149 H   0  0  0  0  0  0
  -21.2004   -7.6141   23.9706 H   0  0  0  0  0  0
  -21.1476   -6.0508   25.9067 H   0  0  0  0  0  0
  -22.0611   -2.7608   23.2826 H   0  0  0  0  0  0
  -22.4094  -11.9881   22.4830 H   0  0  0  0  0  0
  -21.1065  -13.1226   22.2573 H   0  0  0  0  0  0
  -24.6442  -15.8318   20.5274 H   0  0  0  0  0  0
  -26.2594  -15.6408   20.0835 H   0  0  0  0  0  0
  -26.7416  -32.5374   23.1130 H   0  0  0  0  0  0
  -25.0329  -33.9674   25.0518 H   0  0  0  0  0  0
  -22.7786  -31.3118   21.4057 H   0  0  0  0  0  0
  -23.3791  -35.9536   23.3314 H   0  0  0  0  0  0
  -24.3592  -36.8832   22.2058 H   0  0  0  0  0  0
  -23.7222  -37.6417   23.6661 H   0  0  0  0  0  0
  -26.1559  -31.5278   20.6151 H   0  0  0  0  0  0
  -26.8771  -30.8004   22.0161 H   0  0  0  0  0  0
  -28.1575  -28.9365   21.1235 H   0  0  0  0  0  0
  -25.8737  -25.8040   19.2178 H   0  0  0  0  0  0
  -23.9428  -27.2450   19.1251 H   0  0  0  0  0  0
  -23.7744  -30.5754   19.4144 H   0  0  0  0  0  0
  -22.7704  -29.2367   19.8921 H   0  0  0  0  0  0
  -25.1322  -36.1903   25.0820 H   0  0  0  0  0  0
  -20.1640  -28.6885   21.7517 H   0  0  0  0  0  0
  -20.6975  -26.4278   23.4673 H   0  0  0  0  0  0
  -21.6613  -26.7767   22.0473 H   0  0  0  0  0  0
  -19.6624  -25.3916   21.4414 H   0  0  0  0  0  0
  -19.6234  -26.9187   20.6265 H   0  0  0  0  0  0
  -17.3936  -26.6143   21.4585 H   0  0  0  0  0  0
  -17.9500  -26.0038   22.9923 H   0  0  0  0  0  0
  -19.8001  -30.7597   24.1262 H   0  0  0  0  0  0
  -17.5115  -31.6330   24.5272 H   0  0  0  0  0  0
  -15.5305  -30.2896   23.8422 H   0  0  0  0  0  0
  -15.8395  -28.0456   22.8253 H   0  0  0  0  0  0
  -24.5903  -30.7168   25.7700 H   0  0  0  0  0  0
  -24.9049  -32.2886   26.4940 H   0  0  0  0  0  0
  -25.8031  -30.8768   27.0184 H   0  0  0  0  0  0
  -26.3146  -29.6666   24.1328 H   0  0  0  0  0  0
  -27.4314  -29.7341   25.4759 H   0  0  0  0  0  0
  -27.8965  -30.4337   23.9475 H   0  0  0  0  0  0
  -27.2778  -33.3590   26.2175 H   0  0  0  0  0  0
  -28.3971  -32.6905   25.0404 H   0  0  0  0  0  0
  -28.0853  -31.8424   26.5455 H   0  0  0  0  0  0
  -28.2622  -38.0066   24.7549 H   0  0  0  0  0  0
  -28.1077  -36.2600   24.6314 H   0  0  0  0  0  0
  -27.2298  -37.1415   25.8885 H   0  0  0  0  0  0
  -21.0889  -30.1735   21.7998 H   0  0  0  0  0  0
  -26.0181  -38.2833   24.1395 H   0  0  0  0  0  0
  -29.6863  -18.4354   19.0437 H   0  0  0  0  0  0
  -29.7507  -16.5162   22.9065 H   0  0  0  0  0  0
  -27.6662  -23.4736   16.3811 H   0  0  0  0  0  0
  -28.9518  -22.9401   17.4044 H   0  0  0  0  0  0
  -26.8135  -21.6306   17.6195 H   0  0  0  0  0  0
  -25.9788  -23.0394   18.1844 H   0  0  0  0  0  0
  -27.1437  -25.3529   17.7424 H   0  0  0  0  0  0
  -28.7848  -25.3933   17.3061 H   0  0  0  0  0  0
  -27.0985  -21.1188   19.8163 H   0  0  0  0  0  0
  -26.6830  -22.7113   20.3399 H   0  0  0  0  0  0
  -29.5720  -25.3276   19.1674 H   0  0  0  0  0  0
  -28.4175  -21.7017   22.5775 H   0  0  0  0  0  0
  -30.1848  -21.8340   22.5654 H   0  0  0  0  0  0
  -29.3644  -21.1463   23.9409 H   0  0  0  0  0  0
  -29.6506  -20.9260   18.8447 H   0  0  0  0  0  0
  -30.6526  -21.5549   20.0815 H   0  0  0  0  0  0
  -28.8001  -15.5862   20.0844 H   0  0  0  0  0  0
  1 25  1  0  0  0
  1 30  2  0  0  0
  1 86  1  0  0  0
  2  3  1  0  0  0
  2 25  1  0  0  0
  2 89  1  0  0  0
  2 90  1  0  0  0
  3  4  1  0  0  0
  3 91  1  0  0  0
  3 92  1  0  0  0
  4  5  1  0  0  0
  4 93  1  0  0  0
  4 94  1  0  0  0
  5  6  1  0  0  0
  5 26  1  0  0  0
  5 95  1  0  0  0
  6 25  1  0  0  0
  6 96  1  0  0  0
  6 97  1  0  0  0
  7  8  2  0  0  0
  7 26  1  0  0  0
  7 29  1  0  0  0
  8  9  1  0  0  0
  8 22  1  0  0  0
  9 10  1  0  0  0
  9 27  2  0  0  0
 10 11  2  0  0  0
 10 15  1  0  0  0
 11 12  1  0  0  0
 11 98  1  0  0  0
 12 13  2  0  0  0
 12 99  1  0  0  0
 13 14  1  0  0  0
 13 31  1  0  0  0
 14 15  2  0  0  0
 14100  1  0  0  0
 15101  1  0  0  0
 16 17  2  0  0  0
 16 21  1  0  0  0
 16 31  1  0  0  0
 17 18  1  0  0  0
 17102  1  0  0  0
 18 19  2  0  0  0
 18103  1  0  0  0
 19 20  1  0  0  0
 19 24  1  0  0  0
 20 21  2  0  0  0
 20104  1  0  0  0
 21 23  1  0  0  0
 22 28  1  0  0  0
 22 32  2  0  0  0
 26 27  1  0  0  0
 28105  1  0  0  0
 28106  1  0  0  0
 29107  1  0  0  0
 29108  1  0  0  0
 33 34  1  0  0  0
 33 66  1  0  0  0
 33 70  2  0  0  0
 34 36  1  0  0  0
 34 59  1  0  0  0
 34109  1  0  0  0
 35 44  2  0  0  0
 35 45  1  0  0  0
 35 68  1  0  0  0
 36 56  1  0  0  0
 36110  1  0  0  0
 37 39  1  0  0  0
 37 47  1  0  0  0
 37 66  1  0  0  0
 37111  1  0  0  0
 38 43  2  0  0  0
 38 46  1  0  0  0
 38 47  1  0  0  0
 39 64  1  0  0  0
 39 67  2  0  0  0
 40 52  1  0  0  0
 40 53  2  0  0  0
 40 58  1  0  0  0
 41112  1  0  0  0
 41113  1  0  0  0
 41114  1  0  0  0
 41 48  1  0  0  0
 42 43  1  0  0  0
 42 66  1  0  0  0
 42115  1  0  0  0
 42116  1  0  0  0
 43 44  1  0  0  0
 44117  1  0  0  0
 45 46  2  0  0  0
 45118  1  0  0  0
 46119  1  0  0  0
 47120  1  0  0  0
 47121  1  0  0  0
 48 56  1  0  0  0
 48 65  1  0  0  0
 48122  1  0  0  0
 49 50  1  0  0  0
 49 53  1  0  0  0
 49 64  1  0  0  0
 49123  1  0  0  0
 50 51  1  0  0  0
 50124  1  0  0  0
 50125  1  0  0  0
 51 52  1  0  0  0
 51126  1  0  0  0
 51127  1  0  0  0
 52128  1  0  0  0
 52129  1  0  0  0
 53 54  1  0  0  0
 54 55  2  0  0  0
 54130  1  0  0  0
 55 57  1  0  0  0
 55131  1  0  0  0
 56 69  2  0  0  0
 57 58  2  0  0  0
 57132  1  0  0  0
 58133  1  0  0  0
 59 60  1  0  0  0
 59 61  1  0  0  0
 59 62  1  0  0  0
 60134  1  0  0  0
 60135  1  0  0  0
 60136  1  0  0  0
 61137  1  0  0  0
 61138  1  0  0  0
 61139  1  0  0  0
 62140  1  0  0  0
 62141  1  0  0  0
 62142  1  0  0  0
 63 65  1  0  0  0
 63143  1  0  0  0
 63144  1  0  0  0
 63145  1  0  0  0
 64146  1  0  0  0
 65147  1  0  0  0
 68 82  1  0  0  0
 71 73  2  0  0  0
 71 75  1  0  0  0
 71148  1  0  0  0
 72 75  2  0  0  0
 72 76  1  0  0  0
 72149  1  0  0  0
 73 74  1  0  0  0
 73 84  1  0  0  0
 74 76  2  0  0  0
 74 83  1  0  0  0
 75 86  1  0  0  0
 76 88  1  0  0  0
 77 82  1  0  0  0
 77 85  1  0  0  0
 77 87  2  0  0  0
 78 79  1  0  0  0
 78 80  1  0  0  0
 78150  1  0  0  0
 78151  1  0  0  0
 79 81  1  0  0  0
 79152  1  0  0  0
 79153  1  0  0  0
 80 82  1  0  0  0
 80154  1  0  0  0
 80155  1  0  0  0
 81 85  1  0  0  0
 81156  1  0  0  0
 81157  1  0  0  0
 82158  1  0  0  0
 83159  1  0  0  0
 83160  1  0  0  0
 83161  1  0  0  0
 84 85  1  0  0  0
 84162  1  0  0  0
 84163  1  0  0  0
 86164  1  0  0  0
M  ISO  4   1 100  68 101  82 101  86 100
M  END
> <chiral flag>
0

> <version>
0

> <s_m_source_file>
/data/baiqing/PycharmProjects/Reinvent-master-3.2/result/LINK_invent/BTK/process_docking_weight1_custom_product_contain_oxygen_bond_distance_aromatic_linkinvent_7_9_3/rearranged_h_0045.sdf

> <i_m_source_file_index>
35

> <r_mmod_Potential_Energy-OPLS-2005>
598.909118652344

> <r_mmod_Stretch_Energy-OPLS-2005>
144.332290649414

> <r_mmod_Bend_Energy-OPLS-2005>
369.105255126953

> <r_mmod_Torsional_Energy-OPLS-2005>
329.027679443359

> <r_mmod_Improper_Torsional_Energy-OPLS-2005>
17.4899673461914

> <r_mmod_Van_der_Waal_Energy-OPLS-2005>
150.617599487305

> <r_mmod_Electrostatic_Energy-OPLS-2005>
-297.677917480469

> <r_mmod_Solvation_Energy-OPLS-2005>
-233.023086547852

> <b_mmod_Minimization_Converged-OPLS-2005>
0

> <r_mmod_RMS_Derivative-OPLS-2005>
4.00992012023926

$$$$
35
                    3D
 Structure written by MMmdl.
167176  0  0  1  0            999 V2000
  -30.5788  -14.7681   20.4466 C   0  0  0  0  0  0
  -30.4283  -12.4611   19.4992 C   0  0  0  0  0  0
  -29.5223  -12.5218   18.2482 C   0  0  0  0  0  0
  -28.0404  -12.3501   18.6445 C   0  0  0  0  0  0
  -27.6374  -13.2388   19.8533 C   0  0  2  0  0  0
  -28.6729  -13.1635   20.9951 C   0  0  0  0  0  0
  -25.2459  -13.8228   20.5717 C   0  0  0  0  0  0
  -24.1742  -13.0467   20.9217 C   0  0  0  0  0  0
  -24.6331  -11.6937   20.8719 C   0  0  0  0  0  0
  -23.9022  -10.4309   21.0388 C   0  0  0  0  0  0
  -24.3595   -9.4238   21.9165 C   0  0  0  0  0  0
  -23.6290   -8.2266   22.0750 C   0  0  0  0  0  0
  -22.4265   -8.0290   21.3553 C   0  0  0  0  0  0
  -21.9879   -9.0252   20.4658 C   0  0  0  0  0  0
  -22.7198  -10.2137   20.3044 C   0  0  0  0  0  0
  -21.6863   -6.0739   22.5271 C   0  0  0  0  0  0
  -21.4032   -6.5640   23.8207 C   0  0  0  0  0  0
  -21.3665   -5.6787   24.9164 C   0  0  0  0  0  0
  -21.6041   -4.3043   24.7216 C   0  0  0  0  0  0
  -21.8823   -3.8146   23.4330 C   0  0  0  0  0  0
  -21.9185   -4.6968   22.3393 C   0  0  0  0  0  0
  -22.7770  -13.5253   21.1882 C   0  0  0  0  0  0
  -22.1650   -4.2166   21.0969 F   0  0  0  0  0  0
  -21.5620   -3.4520   25.7726 F   0  0  0  0  0  0
  -29.9744  -13.5273   20.4251 N   0  0  0  0  0  0
  -26.2881  -12.9441   20.3259 N   0  0  0  0  0  0
  -25.9252  -11.6574   20.5689 N   0  0  0  0  0  0
  -22.0380  -12.8264   22.0434 N   0  0  0  0  0  0
  -25.4171  -15.1974   20.4163 N   0  0  0  0  0  0
  -31.7709  -14.8476   20.1363 O   0  0  0  0  0  0
  -21.6648   -6.8877   21.4232 O   0  0  0  0  0  0
  -22.3445  -14.5546   20.6718 O   0  0  0  0  0  0
  -24.6284  -31.8552   23.1946 C   0  0  0  0  0  0
  -25.9110  -32.4756   23.8286 C   0  0  1  0  0  0
  -27.2290  -27.2708   20.1435 C   0  0  0  0  0  0
  -25.5903  -33.8555   24.2224 N   0  0  0  0  0  0
  -23.4247  -30.4740   21.5398 C   0  0  2  0  0  0
  -24.8755  -28.9134   20.1160 C   0  0  0  0  0  0
  -22.7462  -29.4605   22.4936 C   0  0  0  0  0  0
  -18.0266  -28.1376   22.8479 C   0  0  0  0  0  0
  -24.1499  -36.7314   23.2640 C   0  0  0  0  0  0
  -25.9661  -30.7764   21.3666 C   0  0  0  0  0  0
  -26.0453  -29.3923   20.7226 C   0  0  0  0  0  0
  -27.2267  -28.5841   20.7243 C   0  0  0  0  0  0
  -26.0384  -26.8494   19.5219 C   0  0  0  0  0  0
  -24.8758  -27.6463   19.5068 C   0  0  0  0  0  0
  -23.6448  -29.8001   20.1592 C   0  0  0  0  0  0
  -25.4121  -36.3082   24.0324 C   0  0  1  0  0  0
  -20.5870  -28.3689   23.1283 C   0  0  2  0  0  0
  -20.6771  -26.9418   22.5404 C   0  0  0  0  0  0
  -19.5748  -26.6388   21.5202 C   0  0  0  0  0  0
  -18.1923  -26.7910   22.1624 C   0  0  0  0  0  0
  -19.1519  -28.8853   23.2866 C   0  0  0  0  0  0
  -18.9456  -30.1463   23.8864 C   0  0  0  0  0  0
  -17.6460  -30.6574   24.0580 C   0  0  0  0  0  0
  -25.9048  -34.9457   23.5089 C   0  0  0  0  0  0
  -16.5350  -29.9079   23.6349 C   0  0  0  0  0  0
  -16.7259  -28.6520   23.0324 C   0  0  0  0  0  0
  -26.4469  -31.6538   25.0654 C   0  0  0  0  0  0
  -25.3690  -31.3733   26.1379 C   0  0  0  0  0  0
  -27.0303  -30.2942   24.6131 C   0  0  0  0  0  0
  -27.6027  -32.4250   25.7436 C   0  0  0  0  0  0
  -27.5578  -37.1818   24.8456 C   0  0  0  0  0  0
  -21.4179  -29.3032   22.3666 N   0  0  0  0  0  0
  -26.4288  -37.3792   23.9403 N   0  0  0  0  0  0
  -24.6927  -31.0528   22.0904 N   0  0  0  0  0  0
  -23.4165  -28.8160   23.3033 O   0  0  0  0  0  0
  -28.3382  -26.4032   20.0902 O   0  0  0  0  0  0
  -26.5669  -34.8935   22.4677 O   0  0  0  0  0  0
  -23.5440  -32.1369   23.7234 O   0  0  0  0  0  0
  -30.8626  -18.7628   18.3812 C   0  0  0  0  0  0
  -30.8082  -17.5283   19.0468 C   0  0  0  0  0  0
  -29.2298  -18.5047   20.5955 C   0  0  0  0  0  0
  -30.0963  -19.8914   18.7686 C   0  0  0  0  0  0
  -29.2926  -19.8210   19.9460 C   0  0  0  0  0  0
  -29.9576  -17.3118   20.1480 C   0  0  0  0  0  0
  -28.2345  -23.6957   20.0990 C   0  0  0  0  0  0
  -29.7629  -23.8519   22.5519 C   0  0  0  0  0  0
  -29.5992  -25.1511   21.7525 C   0  0  0  0  0  0
  -29.8926  -22.6304   21.6168 C   0  0  0  0  0  0
  -28.3426  -25.1157   20.8665 C   0  0  1  0  0  0
  -28.9573  -21.0833   16.8149 C   0  0  0  0  0  0
  -31.4396  -21.3574   17.1201 C   0  0  0  0  0  0
  -28.3614  -21.0683   20.3722 C   0  0  0  0  0  0
  -30.1024  -21.1229   17.8447 C   0  0  0  0  0  0
  -28.8168  -22.5256   20.6159 N   0  0  0  0  0  0
  -29.8000  -15.9120   20.6619 N   0  0  0  0  0  0
  -27.5187  -23.6488   19.0946 O   0  0  0  0  0  0
  -31.4764  -12.5756   19.2175 H   0  0  0  0  0  0
  -30.3567  -11.4834   19.9810 H   0  0  0  0  0  0
  -29.8185  -11.7553   17.5312 H   0  0  0  0  0  0
  -29.6617  -13.4797   17.7438 H   0  0  0  0  0  0
  -27.8827  -11.2995   18.8896 H   0  0  0  0  0  0
  -27.3971  -12.5630   17.7896 H   0  0  0  0  0  0
  -27.6334  -14.2649   19.4828 H   0  0  0  0  0  0
  -28.7026  -12.1595   21.4214 H   0  0  0  0  0  0
  -28.4029  -13.8304   21.8145 H   0  0  0  0  0  0
  -25.2747   -9.5742   22.4706 H   0  0  0  0  0  0
  -24.0027   -7.4665   22.7453 H   0  0  0  0  0  0
  -21.0818   -8.8767   19.8949 H   0  0  0  0  0  0
  -22.3664  -10.9660   19.6141 H   0  0  0  0  0  0
  -21.2049   -7.6151   23.9727 H   0  0  0  0  0  0
  -21.1472   -6.0503   25.9075 H   0  0  0  0  0  0
  -22.0590   -2.7608   23.2814 H   0  0  0  0  0  0
  -22.3974  -11.9991   22.4933 H   0  0  0  0  0  0
  -21.0972  -13.1277   22.2537 H   0  0  0  0  0  0
  -24.6576  -15.8566   20.5458 H   0  0  0  0  0  0
  -26.2650  -15.6357   20.0787 H   0  0  0  0  0  0
  -26.7174  -32.5441   23.1032 H   0  0  0  0  0  0
  -24.9976  -33.9670   25.0323 H   0  0  0  0  0  0
  -22.7189  -31.2937   21.3892 H   0  0  0  0  0  0
  -23.3748  -35.9650   23.3269 H   0  0  0  0  0  0
  -24.3617  -36.8980   22.2063 H   0  0  0  0  0  0
  -23.7254  -37.6507   23.6692 H   0  0  0  0  0  0
  -26.0839  -31.5325   20.5890 H   0  0  0  0  0  0
  -26.8509  -30.8431   21.9880 H   0  0  0  0  0  0
  -28.1278  -28.9538   21.1934 H   0  0  0  0  0  0
  -26.0122  -25.8792   19.0473 H   0  0  0  0  0  0
  -23.9846  -27.2709   19.0220 H   0  0  0  0  0  0
  -23.7630  -30.5726   19.3986 H   0  0  0  0  0  0
  -22.7655  -29.2301   19.8586 H   0  0  0  0  0  0
  -25.1297  -36.1935   25.0817 H   0  0  0  0  0  0
  -20.9948  -28.3265   24.1410 H   0  0  0  0  0  0
  -20.5683  -26.2290   23.3591 H   0  0  0  0  0  0
  -21.6645  -26.7460   22.1202 H   0  0  0  0  0  0
  -19.6925  -25.6308   21.1208 H   0  0  0  0  0  0
  -19.6665  -27.3222   20.6746 H   0  0  0  0  0  0
  -17.4190  -26.6632   21.4029 H   0  0  0  0  0  0
  -18.0346  -26.0039   22.9016 H   0  0  0  0  0  0
  -19.7944  -30.7293   24.2168 H   0  0  0  0  0  0
  -17.5030  -31.6239   24.5208 H   0  0  0  0  0  0
  -15.5358  -30.2983   23.7691 H   0  0  0  0  0  0
  -15.8661  -28.0871   22.6992 H   0  0  0  0  0  0
  -24.5822  -30.7119   25.7731 H   0  0  0  0  0  0
  -24.8923  -32.2925   26.4785 H   0  0  0  0  0  0
  -25.7983  -30.8913   27.0162 H   0  0  0  0  0  0
  -26.2881  -29.6666   24.1175 H   0  0  0  0  0  0
  -27.3993  -29.7228   25.4656 H   0  0  0  0  0  0
  -27.8745  -30.4191   23.9351 H   0  0  0  0  0  0
  -27.2642  -33.3567   26.1972 H   0  0  0  0  0  0
  -28.3864  -32.6746   25.0277 H   0  0  0  0  0  0
  -28.0623  -31.8363   26.5381 H   0  0  0  0  0  0
  -28.2595  -38.0115   24.7514 H   0  0  0  0  0  0
  -28.1068  -36.2652   24.6253 H   0  0  0  0  0  0
  -27.2309  -37.1452   25.8861 H   0  0  0  0  0  0
  -20.9327  -29.8738   21.6891 H   0  0  0  0  0  0
  -26.0161  -38.2870   24.1360 H   0  0  0  0  0  0
  -31.4919  -18.7986   17.5068 H   0  0  0  0  0  0
  -31.3988  -16.7306   18.6235 H   0  0  0  0  0  0
  -28.5647  -18.4015   21.4423 H   0  0  0  0  0  0
  -28.9056  -23.7233   23.2131 H   0  0  0  0  0  0
  -30.6347  -23.9208   23.2059 H   0  0  0  0  0  0
  -30.4828  -25.3256   21.1349 H   0  0  0  0  0  0
  -29.5407  -25.9929   22.4428 H   0  0  0  0  0  0
  -29.9262  -21.7216   22.2207 H   0  0  0  0  0  0
  -30.8451  -22.6802   21.0873 H   0  0  0  0  0  0
  -27.4805  -25.1344   21.5364 H   0  0  0  0  0  0
  -27.9785  -21.0713   17.2907 H   0  0  0  0  0  0
  -29.0182  -20.2100   16.1651 H   0  0  0  0  0  0
  -28.9821  -21.9680   16.1757 H   0  0  0  0  0  0
  -32.2684  -21.3821   17.8275 H   0  0  0  0  0  0
  -31.4260  -22.3140   16.5988 H   0  0  0  0  0  0
  -31.6553  -20.5996   16.3656 H   0  0  0  0  0  0
  -27.8504  -20.7679   21.2862 H   0  0  0  0  0  0
  -27.5565  -21.0885   19.6383 H   0  0  0  0  0  0
  -29.9607  -22.0068   18.4542 H   0  0  0  0  0  0
  -28.8952  -15.7196   21.0637 H   0  0  0  0  0  0
  1 25  1  0  0  0
  1 30  2  0  0  0
  1 87  1  0  0  0
  2  3  1  0  0  0
  2 25  1  0  0  0
  2 89  1  0  0  0
  2 90  1  0  0  0
  3  4  1  0  0  0
  3 91  1  0  0  0
  3 92  1  0  0  0
  4  5  1  0  0  0
  4 93  1  0  0  0
  4 94  1  0  0  0
  5  6  1  0  0  0
  5 26  1  0  0  0
  5 95  1  0  0  0
  6 25  1  0  0  0
  6 96  1  0  0  0
  6 97  1  0  0  0
  7  8  2  0  0  0
  7 26  1  0  0  0
  7 29  1  0  0  0
  8  9  1  0  0  0
  8 22  1  0  0  0
  9 10  1  0  0  0
  9 27  2  0  0  0
 10 11  2  0  0  0
 10 15  1  0  0  0
 11 12  1  0  0  0
 11 98  1  0  0  0
 12 13  2  0  0  0
 12 99  1  0  0  0
 13 14  1  0  0  0
 13 31  1  0  0  0
 14 15  2  0  0  0
 14100  1  0  0  0
 15101  1  0  0  0
 16 17  2  0  0  0
 16 21  1  0  0  0
 16 31  1  0  0  0
 17 18  1  0  0  0
 17102  1  0  0  0
 18 19  2  0  0  0
 18103  1  0  0  0
 19 20  1  0  0  0
 19 24  1  0  0  0
 20 21  2  0  0  0
 20104  1  0  0  0
 21 23  1  0  0  0
 22 28  1  0  0  0
 22 32  2  0  0  0
 26 27  1  0  0  0
 28105  1  0  0  0
 28106  1  0  0  0
 29107  1  0  0  0
 29108  1  0  0  0
 33 34  1  0  0  0
 33 66  1  0  0  0
 33 70  2  0  0  0
 34 36  1  0  0  0
 34 59  1  0  0  0
 34109  1  0  0  0
 35 44  2  0  0  0
 35 45  1  0  0  0
 35 68  1  0  0  0
 36 56  1  0  0  0
 36110  1  0  0  0
 37 39  1  0  0  0
 37 47  1  0  0  0
 37 66  1  0  0  0
 37111  1  0  0  0
 38 43  2  0  0  0
 38 46  1  0  0  0
 38 47  1  0  0  0
 39 64  1  0  0  0
 39 67  2  0  0  0
 40 52  1  0  0  0
 40 53  2  0  0  0
 40 58  1  0  0  0
 41112  1  0  0  0
 41113  1  0  0  0
 41114  1  0  0  0
 41 48  1  0  0  0
 42 43  1  0  0  0
 42 66  1  0  0  0
 42115  1  0  0  0
 42116  1  0  0  0
 43 44  1  0  0  0
 44117  1  0  0  0
 45 46  2  0  0  0
 45118  1  0  0  0
 46119  1  0  0  0
 47120  1  0  0  0
 47121  1  0  0  0
 48 56  1  0  0  0
 48 65  1  0  0  0
 48122  1  0  0  0
 49 50  1  0  0  0
 49 53  1  0  0  0
 49 64  1  0  0  0
 49123  1  0  0  0
 50 51  1  0  0  0
 50124  1  0  0  0
 50125  1  0  0  0
 51 52  1  0  0  0
 51126  1  0  0  0
 51127  1  0  0  0
 52128  1  0  0  0
 52129  1  0  0  0
 53 54  1  0  0  0
 54 55  2  0  0  0
 54130  1  0  0  0
 55 57  1  0  0  0
 55131  1  0  0  0
 56 69  2  0  0  0
 57 58  2  0  0  0
 57132  1  0  0  0
 58133  1  0  0  0
 59 60  1  0  0  0
 59 61  1  0  0  0
 59 62  1  0  0  0
 60134  1  0  0  0
 60135  1  0  0  0
 60136  1  0  0  0
 61137  1  0  0  0
 61138  1  0  0  0
 61139  1  0  0  0
 62140  1  0  0  0
 62141  1  0  0  0
 62142  1  0  0  0
 63 65  1  0  0  0
 63143  1  0  0  0
 63144  1  0  0  0
 63145  1  0  0  0
 64146  1  0  0  0
 65147  1  0  0  0
 68 81  1  0  0  0
 71 72  2  0  0  0
 71 74  1  0  0  0
 71148  1  0  0  0
 72 76  1  0  0  0
 72149  1  0  0  0
 73 75  1  0  0  0
 73 76  2  0  0  0
 73150  1  0  0  0
 74 75  2  0  0  0
 74 85  1  0  0  0
 75 84  1  0  0  0
 76 87  1  0  0  0
 77 81  1  0  0  0
 77 86  1  0  0  0
 77 88  2  0  0  0
 78 79  1  0  0  0
 78 80  1  0  0  0
 78151  1  0  0  0
 78152  1  0  0  0
 79 81  1  0  0  0
 79153  1  0  0  0
 79154  1  0  0  0
 80 86  1  0  0  0
 80155  1  0  0  0
 80156  1  0  0  0
 81157  1  0  0  0
 82158  1  0  0  0
 82159  1  0  0  0
 82160  1  0  0  0
 82 85  1  0  0  0
 83 85  1  0  0  0
 83161  1  0  0  0
 83162  1  0  0  0
 83163  1  0  0  0
 84 86  1  0  0  0
 84164  1  0  0  0
 84165  1  0  0  0
 85166  1  0  0  0
 87167  1  0  0  0
M  ISO  4   1 100  68 101  81 101  87 100
M  END
> <chiral flag>
0

> <version>
0

> <s_m_source_file>
/data/baiqing/PycharmProjects/Reinvent-master-3.2/result/LINK_invent/BTK/process_docking_weight1_custom_product_contain_oxygen_bond_distance_aromatic_linkinvent_7_9_3/rearranged_h_0045.sdf

> <i_m_source_file_index>
36

> <r_mmod_Potential_Energy-OPLS-2005>
266.883544921875

> <r_mmod_Stretch_Energy-OPLS-2005>
149.607299804688

> <r_mmod_Bend_Energy-OPLS-2005>
183.349044799805

> <r_mmod_Torsional_Energy-OPLS-2005>
280.106170654297

> <r_mmod_Improper_Torsional_Energy-OPLS-2005>
6.72112798690796

> <r_mmod_Van_der_Waal_Energy-OPLS-2005>
140.931564331055

> <r_mmod_Electrostatic_Energy-OPLS-2005>
-359.326843261719

> <r_mmod_Solvation_Energy-OPLS-2005>
-218.522109985352

> <b_mmod_Minimization_Converged-OPLS-2005>
0

> <r_mmod_RMS_Derivative-OPLS-2005>
4.41924333572388

$$$$
36
                    3D
 Structure written by MMmdl.
160168  0  0  1  0            999 V2000
  -30.7061  -14.5300   20.5568 C   0  0  0  0  0  0
  -30.4259  -12.3445   19.4272 C   0  0  0  0  0  0
  -29.4941  -12.5014   18.2088 C   0  0  0  0  0  0
  -28.0186  -12.3497   18.6275 C   0  0  0  0  0  0
  -27.6572  -13.2124   19.8671 C   0  0  2  0  0  0
  -28.7050  -13.0435   20.9891 C   0  0  0  0  0  0
  -25.2585  -13.8171   20.5684 C   0  0  0  0  0  0
  -24.1841  -13.0452   20.9188 C   0  0  0  0  0  0
  -24.6407  -11.6928   20.8744 C   0  0  0  0  0  0
  -23.9062  -10.4309   21.0409 C   0  0  0  0  0  0
  -24.3611   -9.4215   21.9187 C   0  0  0  0  0  0
  -23.6295   -8.2244   22.0758 C   0  0  0  0  0  0
  -22.4273   -8.0290   21.3545 C   0  0  0  0  0  0
  -21.9913   -9.0259   20.4628 C   0  0  0  0  0  0
  -22.7246  -10.2140   20.3043 C   0  0  0  0  0  0
  -21.6856   -6.0743   22.5280 C   0  0  0  0  0  0
  -21.4011   -6.5640   23.8213 C   0  0  0  0  0  0
  -21.3654   -5.6792   24.9171 C   0  0  0  0  0  0
  -21.6042   -4.3056   24.7227 C   0  0  0  0  0  0
  -21.8817   -3.8150   23.4347 C   0  0  0  0  0  0
  -21.9190   -4.6969   22.3403 C   0  0  0  0  0  0
  -22.7851  -13.5233   21.1854 C   0  0  0  0  0  0
  -22.1661   -4.2162   21.0982 F   0  0  0  0  0  0
  -21.5629   -3.4536   25.7732 F   0  0  0  0  0  0
  -30.0273  -13.3539   20.4212 N   0  0  0  0  0  0
  -26.3009  -12.9349   20.3346 N   0  0  0  0  0  0
  -25.9333  -11.6506   20.5775 N   0  0  0  0  0  0
  -22.0497  -12.8196   22.0391 N   0  0  0  0  0  0
  -25.4330  -15.1890   20.4102 N   0  0  0  0  0  0
  -31.8593  -14.6792   20.1460 O   0  0  0  0  0  0
  -21.6638   -6.8892   21.4245 O   0  0  0  0  0  0
  -22.3530  -14.5560   20.6746 O   0  0  0  0  0  0
  -24.6213  -31.8629   23.2059 C   0  0  0  0  0  0
  -25.9074  -32.4804   23.8372 C   0  0  1  0  0  0
  -27.2418  -27.3834   20.0986 C   0  0  0  0  0  0
  -25.5922  -33.8593   24.2313 N   0  0  0  0  0  0
  -23.4115  -30.4863   21.5479 C   0  0  2  0  0  0
  -24.8604  -28.9521   20.1106 C   0  0  0  0  0  0
  -22.7456  -29.4615   22.4965 C   0  0  0  0  0  0
  -18.0274  -28.1374   22.8495 C   0  0  0  0  0  0
  -24.1480  -36.7272   23.2642 C   0  0  0  0  0  0
  -25.9491  -30.8123   21.3701 C   0  0  0  0  0  0
  -26.0267  -29.4457   20.7104 C   0  0  0  0  0  0
  -27.2183  -28.6712   20.6958 C   0  0  0  0  0  0
  -26.0506  -26.9247   19.4848 C   0  0  0  0  0  0
  -24.8717  -27.6924   19.4949 C   0  0  0  0  0  0
  -23.6219  -29.8193   20.1644 C   0  0  0  0  0  0
  -25.4110  -36.3105   24.0346 C   0  0  1  0  0  0
  -20.5885  -28.3649   23.1291 C   0  0  2  0  0  0
  -20.6772  -26.9377   22.5393 C   0  0  0  0  0  0
  -19.5745  -26.6366   21.5220 C   0  0  0  0  0  0
  -18.1895  -26.7919   22.1609 C   0  0  0  0  0  0
  -19.1533  -28.8832   23.2873 C   0  0  0  0  0  0
  -18.9473  -30.1438   23.8884 C   0  0  0  0  0  0
  -17.6476  -30.6564   24.0564 C   0  0  0  0  0  0
  -25.9051  -34.9469   23.5124 C   0  0  0  0  0  0
  -16.5361  -29.9069   23.6356 C   0  0  0  0  0  0
  -16.7270  -28.6498   23.0366 C   0  0  0  0  0  0
  -26.4503  -31.6602   25.0712 C   0  0  0  0  0  0
  -25.3769  -31.3700   26.1473 C   0  0  0  0  0  0
  -27.0395  -30.3079   24.6098 C   0  0  0  0  0  0
  -27.6058  -32.4386   25.7480 C   0  0  0  0  0  0
  -27.5579  -37.1783   24.8480 C   0  0  0  0  0  0
  -21.4181  -29.3018   22.3709 N   0  0  0  0  0  0
  -26.4306  -37.3775   23.9418 N   0  0  0  0  0  0
  -24.6788  -31.0705   22.0976 N   0  0  0  0  0  0
  -23.4203  -28.8137   23.2989 O   0  0  0  0  0  0
  -28.3936  -26.5950   20.1371 O   0  0  0  0  0  0
  -26.5574  -34.8918   22.4663 O   0  0  0  0  0  0
  -23.5390  -32.1416   23.7428 O   0  0  0  0  0  0
  -31.0099  -19.0058   18.3171 C   0  0  0  0  0  0
  -30.8275  -17.8973   19.1671 C   0  0  0  0  0  0
  -30.4185  -19.4210   21.0055 C   0  0  0  0  0  0
  -30.9137  -20.3408   18.7892 C   0  0  0  0  0  0
  -30.5587  -18.0851   20.5333 C   0  0  0  0  0  0
  -30.5698  -20.5604   20.1557 C   0  0  0  0  0  0
  -31.2033  -21.4613   17.8531 C   0  0  0  0  0  0
  -29.4333  -24.2753   20.3544 C   0  0  0  0  0  0
  -28.1432  -22.2704   19.7071 C   0  0  0  0  0  0
  -30.5209  -16.8885   21.5113 C   0  0  0  0  0  0
  -30.4181  -21.9918   20.7586 C   0  0  0  0  0  0
  -28.2221  -25.1612   19.9219 C   0  0  0  0  0  0
  -31.4386  -21.3456   16.6152 N   0  0  0  0  0  0
  -30.0037  -15.5741   21.0507 N   0  0  0  0  0  0
  -29.3546  -22.9090   20.2378 N   0  0  0  0  0  0
  -30.4388  -24.8314   20.8095 O   0  0  0  0  0  0
  -31.4690  -12.4492   19.1208 H   0  0  0  0  0  0
  -30.3405  -11.3436   19.8548 H   0  0  0  0  0  0
  -29.7424  -11.7621   17.4467 H   0  0  0  0  0  0
  -29.6439  -13.4801   17.7524 H   0  0  0  0  0  0
  -27.8440  -11.2963   18.8505 H   0  0  0  0  0  0
  -27.3608  -12.5960   17.7933 H   0  0  0  0  0  0
  -27.6857  -14.2522   19.5367 H   0  0  0  0  0  0
  -28.6974  -12.0194   21.3669 H   0  0  0  0  0  0
  -28.4622  -13.6752   21.8444 H   0  0  0  0  0  0
  -25.2763   -9.5695   22.4761 H   0  0  0  0  0  0
  -24.0007   -7.4637   22.7482 H   0  0  0  0  0  0
  -21.0841   -8.8768   19.8926 H   0  0  0  0  0  0
  -22.3715  -10.9669   19.6140 H   0  0  0  0  0  0
  -21.2003   -7.6148   23.9722 H   0  0  0  0  0  0
  -21.1473   -6.0518   25.9074 H   0  0  0  0  0  0
  -22.0597   -2.7615   23.2839 H   0  0  0  0  0  0
  -22.4095  -11.9809   22.4693 H   0  0  0  0  0  0
  -21.1124  -13.1207   22.2649 H   0  0  0  0  0  0
  -24.6729  -15.8531   20.5229 H   0  0  0  0  0  0
  -26.2883  -15.6215   20.0822 H   0  0  0  0  0  0
  -26.7121  -32.5514   23.1108 H   0  0  0  0  0  0
  -25.0201  -33.9741   25.0553 H   0  0  0  0  0  0
  -22.7024  -31.3054   21.4001 H   0  0  0  0  0  0
  -23.3776  -35.9570   23.3352 H   0  0  0  0  0  0
  -24.3567  -36.8857   22.2054 H   0  0  0  0  0  0
  -23.7213  -37.6468   23.6641 H   0  0  0  0  0  0
  -26.0788  -31.5801   20.6052 H   0  0  0  0  0  0
  -26.8307  -30.8553   21.9997 H   0  0  0  0  0  0
  -28.1160  -29.0447   21.1697 H   0  0  0  0  0  0
  -26.0005  -25.9661   18.9919 H   0  0  0  0  0  0
  -23.9774  -27.3074   19.0270 H   0  0  0  0  0  0
  -23.7242  -30.5902   19.4006 H   0  0  0  0  0  0
  -22.7497  -29.2352   19.8696 H   0  0  0  0  0  0
  -25.1281  -36.1964   25.0836 H   0  0  0  0  0  0
  -20.9965  -28.3201   24.1427 H   0  0  0  0  0  0
  -20.5693  -26.2226   23.3568 H   0  0  0  0  0  0
  -21.6613  -26.7397   22.1164 H   0  0  0  0  0  0
  -19.6893  -25.6278   21.1211 H   0  0  0  0  0  0
  -19.6718  -27.3204   20.6766 H   0  0  0  0  0  0
  -17.4183  -26.6721   21.3983 H   0  0  0  0  0  0
  -18.0280  -26.0019   22.8977 H   0  0  0  0  0  0
  -19.7947  -30.7246   24.2239 H   0  0  0  0  0  0
  -17.5033  -31.6263   24.5141 H   0  0  0  0  0  0
  -15.5359  -30.2961   23.7694 H   0  0  0  0  0  0
  -15.8673  -28.0803   22.7106 H   0  0  0  0  0  0
  -24.5950  -30.7034   25.7822 H   0  0  0  0  0  0
  -24.8933  -32.2846   26.4932 H   0  0  0  0  0  0
  -25.8127  -30.8885   27.0231 H   0  0  0  0  0  0
  -26.2956  -29.6793   24.1208 H   0  0  0  0  0  0
  -27.4294  -29.7369   25.4517 H   0  0  0  0  0  0
  -27.8706  -30.4470   23.9181 H   0  0  0  0  0  0
  -27.2663  -33.3723   26.1997 H   0  0  0  0  0  0
  -28.3893  -32.6930   25.0315 H   0  0  0  0  0  0
  -28.0699  -31.8559   26.5463 H   0  0  0  0  0  0
  -28.2597  -38.0067   24.7542 H   0  0  0  0  0  0
  -28.1072  -36.2612   24.6323 H   0  0  0  0  0  0
  -27.2277  -37.1453   25.8867 H   0  0  0  0  0  0
  -20.9349  -29.8783   21.6974 H   0  0  0  0  0  0
  -26.0214  -38.2849   24.1431 H   0  0  0  0  0  0
  -31.2662  -18.8116   17.2849 H   0  0  0  0  0  0
  -30.9445  -16.8996   18.7675 H   0  0  0  0  0  0
  -30.2192  -19.5784   22.0556 H   0  0  0  0  0  0
  -31.2271  -22.4635   18.2874 H   0  0  0  0  0  0
  -27.9663  -22.5754   18.6758 H   0  0  0  0  0  0
  -27.2726  -22.5393   20.3054 H   0  0  0  0  0  0
  -28.1845  -21.1817   19.7033 H   0  0  0  0  0  0
  -29.9226  -17.1796   22.3756 H   0  0  0  0  0  0
  -31.5315  -16.7475   21.9003 H   0  0  0  0  0  0
  -31.3934  -22.4745   20.6791 H   0  0  0  0  0  0
  -30.2486  -21.8955   21.8310 H   0  0  0  0  0  0
  -27.3571  -24.8164   20.4899 H   0  0  0  0  0  0
  -28.0282  -24.9804   18.8641 H   0  0  0  0  0  0
  -31.3981  -20.3779   16.3159 H   0  0  0  0  0  0
  -29.0405  -15.3761   21.2762 H   0  0  0  0  0  0
  1 25  1  0  0  0
  1 30  2  0  0  0
  1 84  1  0  0  0
  2  3  1  0  0  0
  2 25  1  0  0  0
  2 87  1  0  0  0
  2 88  1  0  0  0
  3  4  1  0  0  0
  3 89  1  0  0  0
  3 90  1  0  0  0
  4  5  1  0  0  0
  4 91  1  0  0  0
  4 92  1  0  0  0
  5  6  1  0  0  0
  5 26  1  0  0  0
  5 93  1  0  0  0
  6 25  1  0  0  0
  6 94  1  0  0  0
  6 95  1  0  0  0
  7  8  2  0  0  0
  7 26  1  0  0  0
  7 29  1  0  0  0
  8  9  1  0  0  0
  8 22  1  0  0  0
  9 10  1  0  0  0
  9 27  2  0  0  0
 10 11  2  0  0  0
 10 15  1  0  0  0
 11 12  1  0  0  0
 11 96  1  0  0  0
 12 13  2  0  0  0
 12 97  1  0  0  0
 13 14  1  0  0  0
 13 31  1  0  0  0
 14 15  2  0  0  0
 14 98  1  0  0  0
 15 99  1  0  0  0
 16 17  2  0  0  0
 16 21  1  0  0  0
 16 31  1  0  0  0
 17 18  1  0  0  0
 17100  1  0  0  0
 18 19  2  0  0  0
 18101  1  0  0  0
 19 20  1  0  0  0
 19 24  1  0  0  0
 20 21  2  0  0  0
 20102  1  0  0  0
 21 23  1  0  0  0
 22 28  1  0  0  0
 22 32  2  0  0  0
 26 27  1  0  0  0
 28103  1  0  0  0
 28104  1  0  0  0
 29105  1  0  0  0
 29106  1  0  0  0
 33 34  1  0  0  0
 33 66  1  0  0  0
 33 70  2  0  0  0
 34 36  1  0  0  0
 34 59  1  0  0  0
 34107  1  0  0  0
 35 44  2  0  0  0
 35 45  1  0  0  0
 35 68  1  0  0  0
 36 56  1  0  0  0
 36108  1  0  0  0
 37 39  1  0  0  0
 37 47  1  0  0  0
 37 66  1  0  0  0
 37109  1  0  0  0
 38 43  2  0  0  0
 38 46  1  0  0  0
 38 47  1  0  0  0
 39 64  1  0  0  0
 39 67  2  0  0  0
 40 52  1  0  0  0
 40 53  2  0  0  0
 40 58  1  0  0  0
 41110  1  0  0  0
 41111  1  0  0  0
 41112  1  0  0  0
 41 48  1  0  0  0
 42 43  1  0  0  0
 42 66  1  0  0  0
 42113  1  0  0  0
 42114  1  0  0  0
 43 44  1  0  0  0
 44115  1  0  0  0
 45 46  2  0  0  0
 45116  1  0  0  0
 46117  1  0  0  0
 47118  1  0  0  0
 47119  1  0  0  0
 48 56  1  0  0  0
 48 65  1  0  0  0
 48120  1  0  0  0
 49 50  1  0  0  0
 49 53  1  0  0  0
 49 64  1  0  0  0
 49121  1  0  0  0
 50 51  1  0  0  0
 50122  1  0  0  0
 50123  1  0  0  0
 51 52  1  0  0  0
 51124  1  0  0  0
 51125  1  0  0  0
 52126  1  0  0  0
 52127  1  0  0  0
 53 54  1  0  0  0
 54 55  2  0  0  0
 54128  1  0  0  0
 55 57  1  0  0  0
 55129  1  0  0  0
 56 69  2  0  0  0
 57 58  2  0  0  0
 57130  1  0  0  0
 58131  1  0  0  0
 59 60  1  0  0  0
 59 61  1  0  0  0
 59 62  1  0  0  0
 60132  1  0  0  0
 60133  1  0  0  0
 60134  1  0  0  0
 61135  1  0  0  0
 61136  1  0  0  0
 61137  1  0  0  0
 62138  1  0  0  0
 62139  1  0  0  0
 62140  1  0  0  0
 63 65  1  0  0  0
 63141  1  0  0  0
 63142  1  0  0  0
 63143  1  0  0  0
 64144  1  0  0  0
 65145  1  0  0  0
 68 82  1  0  0  0
 71 72  2  0  0  0
 71 74  1  0  0  0
 71146  1  0  0  0
 72 75  1  0  0  0
 72147  1  0  0  0
 73 75  2  0  0  0
 73 76  1  0  0  0
 73148  1  0  0  0
 74 76  2  0  0  0
 74 77  1  0  0  0
 75 80  1  0  0  0
 76 81  1  0  0  0
 77 83  2  0  0  0
 77149  1  0  0  0
 78 82  1  0  0  0
 78 85  1  0  0  0
 78 86  2  0  0  0
 79 85  1  0  0  0
 79150  1  0  0  0
 79151  1  0  0  0
 79152  1  0  0  0
 80 84  1  0  0  0
 80153  1  0  0  0
 80154  1  0  0  0
 81 85  1  0  0  0
 81155  1  0  0  0
 81156  1  0  0  0
 82157  1  0  0  0
 82158  1  0  0  0
 83159  1  0  0  0
 84160  1  0  0  0
M  ISO  4   1 100  68 101  82 101  84 100
M  END
> <chiral flag>
0

> <version>
0

> <s_m_source_file>
/data/baiqing/PycharmProjects/Reinvent-master-3.2/result/LINK_invent/BTK/process_docking_weight1_custom_product_contain_oxygen_bond_distance_aromatic_linkinvent_7_9_3/rearranged_h_0045.sdf

> <i_m_source_file_index>
37

> <r_mmod_Potential_Energy-OPLS-2005>
-49.3571548461914

> <r_mmod_Stretch_Energy-OPLS-2005>
59.2102470397949

> <r_mmod_Bend_Energy-OPLS-2005>
111.611267089844

> <r_mmod_Torsional_Energy-OPLS-2005>
210.390579223633

> <r_mmod_Improper_Torsional_Energy-OPLS-2005>
3.51659226417542

> <r_mmod_Van_der_Waal_Energy-OPLS-2005>
164.727676391602

> <r_mmod_Electrostatic_Energy-OPLS-2005>
-366.903564453125

> <r_mmod_Solvation_Energy-OPLS-2005>
-255.7705078125

> <b_mmod_Minimization_Converged-OPLS-2005>
0

> <r_mmod_RMS_Derivative-OPLS-2005>
4.15529298782349

$$$$
37
                    3D
 Structure written by MMmdl.
157165  0  0  1  0            999 V2000
  -30.6197  -14.6499   20.5085 C   0  0  0  0  0  0
  -30.4419  -12.4024   19.4531 C   0  0  0  0  0  0
  -29.5107  -12.5145   18.2254 C   0  0  0  0  0  0
  -28.0335  -12.3454   18.6360 C   0  0  0  0  0  0
  -27.6542  -13.2145   19.8639 C   0  0  2  0  0  0
  -28.6988  -13.0724   20.9935 C   0  0  0  0  0  0
  -25.2573  -13.8165   20.5683 C   0  0  0  0  0  0
  -24.1835  -13.0437   20.9192 C   0  0  0  0  0  0
  -24.6394  -11.6904   20.8732 C   0  0  0  0  0  0
  -23.9058  -10.4294   21.0403 C   0  0  0  0  0  0
  -24.3610   -9.4210   21.9180 C   0  0  0  0  0  0
  -23.6290   -8.2243   22.0750 C   0  0  0  0  0  0
  -22.4271   -8.0281   21.3545 C   0  0  0  0  0  0
  -21.9905   -9.0255   20.4647 C   0  0  0  0  0  0
  -22.7228  -10.2135   20.3055 C   0  0  0  0  0  0
  -21.6854   -6.0734   22.5279 C   0  0  0  0  0  0
  -21.4016   -6.5637   23.8211 C   0  0  0  0  0  0
  -21.3657   -5.6788   24.9173 C   0  0  0  0  0  0
  -21.6044   -4.3053   24.7220 C   0  0  0  0  0  0
  -21.8820   -3.8146   23.4341 C   0  0  0  0  0  0
  -21.9194   -4.6963   22.3398 C   0  0  0  0  0  0
  -22.7857  -13.5235   21.1852 C   0  0  0  0  0  0
  -22.1661   -4.2149   21.0976 F   0  0  0  0  0  0
  -21.5626   -3.4534   25.7732 F   0  0  0  0  0  0
  -30.0142  -13.4216   20.4327 N   0  0  0  0  0  0
  -26.2995  -12.9338   20.3311 N   0  0  0  0  0  0
  -25.9322  -11.6497   20.5741 N   0  0  0  0  0  0
  -22.0491  -12.8234   22.0407 N   0  0  0  0  0  0
  -25.4292  -15.1882   20.4083 N   0  0  0  0  0  0
  -31.7764  -14.8214   20.1126 O   0  0  0  0  0  0
  -21.6637   -6.8877   21.4240 O   0  0  0  0  0  0
  -22.3542  -14.5535   20.6691 O   0  0  0  0  0  0
  -24.6265  -31.8595   23.2031 C   0  0  0  0  0  0
  -25.9116  -32.4773   23.8355 C   0  0  1  0  0  0
  -27.2231  -27.3139   20.1216 C   0  0  0  0  0  0
  -25.5935  -33.8572   24.2280 N   0  0  0  0  0  0
  -23.4205  -30.4840   21.5458 C   0  0  2  0  0  0
  -24.8677  -28.9391   20.1129 C   0  0  0  0  0  0
  -22.7478  -29.4622   22.4937 C   0  0  0  0  0  0
  -18.0287  -28.1385   22.8483 C   0  0  0  0  0  0
  -24.1491  -36.7288   23.2637 C   0  0  0  0  0  0
  -25.9624  -30.7885   21.3767 C   0  0  0  0  0  0
  -26.0370  -29.4154   20.7198 C   0  0  0  0  0  0
  -27.2188  -28.6147   20.7144 C   0  0  0  0  0  0
  -26.0354  -26.9000   19.4769 C   0  0  0  0  0  0
  -24.8694  -27.6870   19.4816 C   0  0  0  0  0  0
  -23.6361  -29.8197   20.1612 C   0  0  0  0  0  0
  -25.4112  -36.3076   24.0331 C   0  0  1  0  0  0
  -20.5888  -28.3689   23.1284 C   0  0  2  0  0  0
  -20.6776  -26.9410   22.5417 C   0  0  0  0  0  0
  -19.5755  -26.6385   21.5212 C   0  0  0  0  0  0
  -18.1932  -26.7931   22.1619 C   0  0  0  0  0  0
  -19.1540  -28.8854   23.2879 C   0  0  0  0  0  0
  -18.9461  -30.1457   23.8893 C   0  0  0  0  0  0
  -17.6459  -30.6586   24.0563 C   0  0  0  0  0  0
  -25.9051  -34.9447   23.5104 C   0  0  0  0  0  0
  -16.5350  -29.9082   23.6332 C   0  0  0  0  0  0
  -16.7275  -28.6503   23.0347 C   0  0  0  0  0  0
  -26.4500  -31.6579   25.0725 C   0  0  0  0  0  0
  -25.3733  -31.3726   26.1454 C   0  0  0  0  0  0
  -27.0333  -30.2996   24.6186 C   0  0  0  0  0  0
  -27.6063  -32.4312   25.7491 C   0  0  0  0  0  0
  -27.5587  -37.1785   24.8453 C   0  0  0  0  0  0
  -21.4191  -29.3040   22.3674 N   0  0  0  0  0  0
  -26.4284  -37.3778   23.9423 N   0  0  0  0  0  0
  -24.6885  -31.0606   22.0987 N   0  0  0  0  0  0
  -23.4200  -28.8161   23.3018 O   0  0  0  0  0  0
  -28.3340  -26.4549   20.1504 O   0  0  0  0  0  0
  -26.5617  -34.8918   22.4669 O   0  0  0  0  0  0
  -23.5430  -32.1395   23.7361 O   0  0  0  0  0  0
  -30.5287  -17.9944   21.6274 C   0  0  0  0  0  0
  -30.5194  -19.4159   21.4791 C   0  0  0  0  0  0
  -29.9016  -20.0572   20.3606 C   0  0  0  0  0  0
  -29.2493  -19.1857   19.4312 C   0  0  0  0  0  0
  -29.9314  -17.1268   20.6807 C   0  0  0  0  0  0
  -29.2701  -17.7567   19.5904 C   0  0  0  0  0  0
  -29.2355  -24.0028   20.1495 C   0  0  0  0  0  0
  -31.2149  -20.2406   22.5495 C   0  0  0  0  0  0
  -28.5368  -19.7720   18.2171 C   0  0  0  0  0  0
  -30.1147  -21.6032   20.0706 C   0  0  0  0  0  0
  -28.0801  -25.0253   20.4886 C   0  0  0  0  0  0
  -29.8259  -15.6864   20.9188 N   0  0  0  0  0  0
  -29.0882  -22.6551   20.3897 N   0  0  0  0  0  0
  -30.2780  -24.4367   19.6522 O   0  0  0  0  0  0
  -28.4741  -16.7480   18.4270 Cl  0  0  0  0  0  0
  -31.4822  -12.5333   19.1503 H   0  0  0  0  0  0
  -30.3816  -11.4061   19.8939 H   0  0  0  0  0  0
  -29.7787  -11.7668   17.4777 H   0  0  0  0  0  0
  -29.6489  -13.4862   17.7486 H   0  0  0  0  0  0
  -27.8726  -11.2915   18.8659 H   0  0  0  0  0  0
  -27.3794  -12.5749   17.7941 H   0  0  0  0  0  0
  -27.6700  -14.2483   19.5226 H   0  0  0  0  0  0
  -28.7147  -12.0499   21.3740 H   0  0  0  0  0  0
  -28.4385  -13.6997   21.8473 H   0  0  0  0  0  0
  -25.2759   -9.5686   22.4745 H   0  0  0  0  0  0
  -24.0003   -7.4634   22.7463 H   0  0  0  0  0  0
  -21.0838   -8.8774   19.8955 H   0  0  0  0  0  0
  -22.3689  -10.9671   19.6157 H   0  0  0  0  0  0
  -21.2013   -7.6145   23.9714 H   0  0  0  0  0  0
  -21.1474   -6.0517   25.9075 H   0  0  0  0  0  0
  -22.0601   -2.7610   23.2838 H   0  0  0  0  0  0
  -22.4107  -11.9903   22.4816 H   0  0  0  0  0  0
  -21.1108  -13.1268   22.2599 H   0  0  0  0  0  0
  -24.6595  -15.8400   20.5120 H   0  0  0  0  0  0
  -26.2665  -15.6215   20.0397 H   0  0  0  0  0  0
  -26.7183  -32.5443   23.1099 H   0  0  0  0  0  0
  -25.0092  -33.9717   25.0433 H   0  0  0  0  0  0
  -22.7146  -31.3048   21.4036 H   0  0  0  0  0  0
  -23.3760  -35.9611   23.3272 H   0  0  0  0  0  0
  -24.3591  -36.8936   22.2058 H   0  0  0  0  0  0
  -23.7232  -37.6479   23.6673 H   0  0  0  0  0  0
  -26.0960  -31.5521   20.6092 H   0  0  0  0  0  0
  -26.8417  -30.8360   22.0071 H   0  0  0  0  0  0
  -28.1150  -28.9755   21.1994 H   0  0  0  0  0  0
  -25.9865  -25.9582   18.9522 H   0  0  0  0  0  0
  -23.9774  -27.3219   18.9912 H   0  0  0  0  0  0
  -23.7565  -30.5962   19.4050 H   0  0  0  0  0  0
  -22.7559  -29.2499   19.8581 H   0  0  0  0  0  0
  -25.1285  -36.1918   25.0821 H   0  0  0  0  0  0
  -20.9980  -28.3267   24.1405 H   0  0  0  0  0  0
  -20.5677  -26.2296   23.3619 H   0  0  0  0  0  0
  -21.6645  -26.7440   22.1214 H   0  0  0  0  0  0
  -19.6916  -25.6294   21.1246 H   0  0  0  0  0  0
  -19.6699  -27.3195   20.6742 H   0  0  0  0  0  0
  -17.4209  -26.6690   21.4013 H   0  0  0  0  0  0
  -18.0319  -26.0071   22.9011 H   0  0  0  0  0  0
  -19.7937  -30.7276   24.2261 H   0  0  0  0  0  0
  -17.5014  -31.6263   24.5169 H   0  0  0  0  0  0
  -15.5351  -30.2978   23.7661 H   0  0  0  0  0  0
  -15.8677  -28.0823   22.7053 H   0  0  0  0  0  0
  -24.5916  -30.7059   25.7795 H   0  0  0  0  0  0
  -24.8910  -32.2894   26.4855 H   0  0  0  0  0  0
  -25.8065  -30.8934   27.0243 H   0  0  0  0  0  0
  -26.2902  -29.6751   24.1216 H   0  0  0  0  0  0
  -27.4024  -29.7253   25.4694 H   0  0  0  0  0  0
  -27.8778  -30.4267   23.9409 H   0  0  0  0  0  0
  -27.2673  -33.3612   26.2067 H   0  0  0  0  0  0
  -28.3867  -32.6874   25.0312 H   0  0  0  0  0  0
  -28.0735  -31.8436   26.5404 H   0  0  0  0  0  0
  -28.2566  -38.0121   24.7552 H   0  0  0  0  0  0
  -28.1119  -36.2653   24.6197 H   0  0  0  0  0  0
  -27.2321  -37.1341   25.8858 H   0  0  0  0  0  0
  -20.9369  -29.8756   21.6879 H   0  0  0  0  0  0
  -26.0159  -38.2844   24.1457 H   0  0  0  0  0  0
  -31.0001  -17.5590   22.4981 H   0  0  0  0  0  0
  -31.3624  -19.6640   23.4633 H   0  0  0  0  0  0
  -30.6235  -21.1179   22.8131 H   0  0  0  0  0  0
  -32.1938  -20.5727   22.2028 H   0  0  0  0  0  0
  -28.3076  -20.8299   18.3310 H   0  0  0  0  0  0
  -27.5816  -19.2762   18.0451 H   0  0  0  0  0  0
  -29.1503  -19.6498   17.3241 H   0  0  0  0  0  0
  -30.3427  -21.6949   19.0075 H   0  0  0  0  0  0
  -31.0456  -21.9145   20.5445 H   0  0  0  0  0  0
  -27.8877  -24.9667   21.5604 H   0  0  0  0  0  0
  -27.1915  -24.6298   20.0037 H   0  0  0  0  0  0
  -28.9070  -15.3812   21.1992 H   0  0  0  0  0  0
  -28.2231  -22.3424   20.8100 H   0  0  0  0  0  0
  1 25  1  0  0  0
  1 30  2  0  0  0
  1 82  1  0  0  0
  2  3  1  0  0  0
  2 25  1  0  0  0
  2 86  1  0  0  0
  2 87  1  0  0  0
  3  4  1  0  0  0
  3 88  1  0  0  0
  3 89  1  0  0  0
  4  5  1  0  0  0
  4 90  1  0  0  0
  4 91  1  0  0  0
  5  6  1  0  0  0
  5 26  1  0  0  0
  5 92  1  0  0  0
  6 25  1  0  0  0
  6 93  1  0  0  0
  6 94  1  0  0  0
  7  8  2  0  0  0
  7 26  1  0  0  0
  7 29  1  0  0  0
  8  9  1  0  0  0
  8 22  1  0  0  0
  9 10  1  0  0  0
  9 27  2  0  0  0
 10 11  2  0  0  0
 10 15  1  0  0  0
 11 12  1  0  0  0
 11 95  1  0  0  0
 12 13  2  0  0  0
 12 96  1  0  0  0
 13 14  1  0  0  0
 13 31  1  0  0  0
 14 15  2  0  0  0
 14 97  1  0  0  0
 15 98  1  0  0  0
 16 17  2  0  0  0
 16 21  1  0  0  0
 16 31  1  0  0  0
 17 18  1  0  0  0
 17 99  1  0  0  0
 18 19  2  0  0  0
 18100  1  0  0  0
 19 20  1  0  0  0
 19 24  1  0  0  0
 20 21  2  0  0  0
 20101  1  0  0  0
 21 23  1  0  0  0
 22 28  1  0  0  0
 22 32  2  0  0  0
 26 27  1  0  0  0
 28102  1  0  0  0
 28103  1  0  0  0
 29104  1  0  0  0
 29105  1  0  0  0
 33 34  1  0  0  0
 33 66  1  0  0  0
 33 70  2  0  0  0
 34 36  1  0  0  0
 34 59  1  0  0  0
 34106  1  0  0  0
 35 44  2  0  0  0
 35 45  1  0  0  0
 35 68  1  0  0  0
 36 56  1  0  0  0
 36107  1  0  0  0
 37 39  1  0  0  0
 37 47  1  0  0  0
 37 66  1  0  0  0
 37108  1  0  0  0
 38 43  2  0  0  0
 38 46  1  0  0  0
 38 47  1  0  0  0
 39 64  1  0  0  0
 39 67  2  0  0  0
 40 52  1  0  0  0
 40 53  2  0  0  0
 40 58  1  0  0  0
 41109  1  0  0  0
 41110  1  0  0  0
 41111  1  0  0  0
 41 48  1  0  0  0
 42 43  1  0  0  0
 42 66  1  0  0  0
 42112  1  0  0  0
 42113  1  0  0  0
 43 44  1  0  0  0
 44114  1  0  0  0
 45 46  2  0  0  0
 45115  1  0  0  0
 46116  1  0  0  0
 47117  1  0  0  0
 47118  1  0  0  0
 48 56  1  0  0  0
 48 65  1  0  0  0
 48119  1  0  0  0
 49 50  1  0  0  0
 49 53  1  0  0  0
 49 64  1  0  0  0
 49120  1  0  0  0
 50 51  1  0  0  0
 50121  1  0  0  0
 50122  1  0  0  0
 51 52  1  0  0  0
 51123  1  0  0  0
 51124  1  0  0  0
 52125  1  0  0  0
 52126  1  0  0  0
 53 54  1  0  0  0
 54 55  2  0  0  0
 54127  1  0  0  0
 55 57  1  0  0  0
 55128  1  0  0  0
 56 69  2  0  0  0
 57 58  2  0  0  0
 57129  1  0  0  0
 58130  1  0  0  0
 59 60  1  0  0  0
 59 61  1  0  0  0
 59 62  1  0  0  0
 60131  1  0  0  0
 60132  1  0  0  0
 60133  1  0  0  0
 61134  1  0  0  0
 61135  1  0  0  0
 61136  1  0  0  0
 62137  1  0  0  0
 62138  1  0  0  0
 62139  1  0  0  0
 63 65  1  0  0  0
 63140  1  0  0  0
 63141  1  0  0  0
 63142  1  0  0  0
 64143  1  0  0  0
 65144  1  0  0  0
 68 81  1  0  0  0
 71 72  2  0  0  0
 71 75  1  0  0  0
 71145  1  0  0  0
 72 73  1  0  0  0
 72 78  1  0  0  0
 73 74  2  0  0  0
 73 80  1  0  0  0
 74 76  1  0  0  0
 74 79  1  0  0  0
 75 76  2  0  0  0
 75 82  1  0  0  0
 76 85  1  0  0  0
 77 81  1  0  0  0
 77 83  1  0  0  0
 77 84  2  0  0  0
 78146  1  0  0  0
 78147  1  0  0  0
 78148  1  0  0  0
 79149  1  0  0  0
 79150  1  0  0  0
 79151  1  0  0  0
 80 83  1  0  0  0
 80152  1  0  0  0
 80153  1  0  0  0
 81154  1  0  0  0
 81155  1  0  0  0
 82156  1  0  0  0
 83157  1  0  0  0
M  ISO  4   1 100  68 101  81 101  82 100
M  END
> <chiral flag>
0

> <version>
0

> <s_m_source_file>
/data/baiqing/PycharmProjects/Reinvent-master-3.2/result/LINK_invent/BTK/process_docking_weight1_custom_product_contain_oxygen_bond_distance_aromatic_linkinvent_7_9_3/rearranged_h_0045.sdf

> <i_m_source_file_index>
38

> <r_mmod_Potential_Energy-OPLS-2005>
-0.824877619743347

> <r_mmod_Stretch_Energy-OPLS-2005>
84.4753646850586

> <r_mmod_Bend_Energy-OPLS-2005>
129.319366455078

> <r_mmod_Torsional_Energy-OPLS-2005>
257.597259521484

> <r_mmod_Improper_Torsional_Energy-OPLS-2005>
5.89954090118408

> <r_mmod_Van_der_Waal_Energy-OPLS-2005>
143.400985717773

> <r_mmod_Electrostatic_Energy-OPLS-2005>
-433.619659423828

> <r_mmod_Solvation_Energy-OPLS-2005>
-239.037322998047

> <b_mmod_Minimization_Converged-OPLS-2005>
0

> <r_mmod_RMS_Derivative-OPLS-2005>
0.758482098579407

$$$$
38
                    3D
 Structure written by MMmdl.
167176  0  0  1  0            999 V2000
  -30.7253  -14.5060   20.5683 C   0  0  0  0  0  0
  -30.4162  -12.3296   19.4354 C   0  0  0  0  0  0
  -29.4933  -12.5029   18.2131 C   0  0  0  0  0  0
  -28.0170  -12.3590   18.6277 C   0  0  0  0  0  0
  -27.6569  -13.2174   19.8700 C   0  0  2  0  0  0
  -28.7012  -13.0452   20.9972 C   0  0  0  0  0  0
  -25.2563  -13.8183   20.5697 C   0  0  0  0  0  0
  -24.1831  -13.0447   20.9196 C   0  0  0  0  0  0
  -24.6397  -11.6917   20.8747 C   0  0  0  0  0  0
  -23.9067  -10.4298   21.0407 C   0  0  0  0  0  0
  -24.3614   -9.4212   21.9186 C   0  0  0  0  0  0
  -23.6290   -8.2247   22.0755 C   0  0  0  0  0  0
  -22.4273   -8.0283   21.3544 C   0  0  0  0  0  0
  -21.9911   -9.0258   20.4646 C   0  0  0  0  0  0
  -22.7238  -10.2139   20.3057 C   0  0  0  0  0  0
  -21.6853   -6.0738   22.5278 C   0  0  0  0  0  0
  -21.4015   -6.5642   23.8212 C   0  0  0  0  0  0
  -21.3659   -5.6793   24.9174 C   0  0  0  0  0  0
  -21.6044   -4.3056   24.7223 C   0  0  0  0  0  0
  -21.8818   -3.8148   23.4344 C   0  0  0  0  0  0
  -21.9192   -4.6966   22.3401 C   0  0  0  0  0  0
  -22.7852  -13.5238   21.1851 C   0  0  0  0  0  0
  -22.1660   -4.2150   21.0978 F   0  0  0  0  0  0
  -21.5630   -3.4538   25.7737 F   0  0  0  0  0  0
  -30.0272  -13.3418   20.4336 N   0  0  0  0  0  0
  -26.3007  -12.9375   20.3362 N   0  0  0  0  0  0
  -25.9329  -11.6525   20.5779 N   0  0  0  0  0  0
  -22.0491  -12.8228   22.0401 N   0  0  0  0  0  0
  -25.4272  -15.1902   20.4092 N   0  0  0  0  0  0
  -31.8587  -14.6384   20.0996 O   0  0  0  0  0  0
  -21.6638   -6.8880   21.4240 O   0  0  0  0  0  0
  -22.3539  -14.5549   20.6703 O   0  0  0  0  0  0
  -24.6205  -31.8665   23.2116 C   0  0  0  0  0  0
  -25.9084  -32.4815   23.8411 C   0  0  1  0  0  0
  -27.2169  -27.3826   20.0962 C   0  0  0  0  0  0
  -25.5923  -33.8615   24.2330 N   0  0  0  0  0  0
  -23.4091  -30.4955   21.5537 C   0  0  2  0  0  0
  -24.8513  -28.9684   20.1094 C   0  0  0  0  0  0
  -22.7437  -29.4663   22.4972 C   0  0  0  0  0  0
  -18.0278  -28.1384   22.8493 C   0  0  0  0  0  0
  -24.1486  -36.7307   23.2640 C   0  0  0  0  0  0
  -25.9466  -30.8154   21.3755 C   0  0  0  0  0  0
  -26.0187  -29.4504   20.7146 C   0  0  0  0  0  0
  -27.2034  -28.6657   20.7076 C   0  0  0  0  0  0
  -26.0278  -26.9529   19.4534 C   0  0  0  0  0  0
  -24.8540  -27.7205   19.4739 C   0  0  0  0  0  0
  -23.6177  -29.8403   20.1651 C   0  0  0  0  0  0
  -25.4110  -36.3107   24.0337 C   0  0  1  0  0  0
  -20.5873  -28.3682   23.1297 C   0  0  2  0  0  0
  -20.6768  -26.9412   22.5412 C   0  0  0  0  0  0
  -19.5744  -26.6391   21.5211 C   0  0  0  0  0  0
  -18.1923  -26.7931   22.1626 C   0  0  0  0  0  0
  -19.1529  -28.8848   23.2892 C   0  0  0  0  0  0
  -18.9458  -30.1450   23.8910 C   0  0  0  0  0  0
  -17.6459  -30.6589   24.0567 C   0  0  0  0  0  0
  -25.9042  -34.9471   23.5127 C   0  0  0  0  0  0
  -16.5347  -29.9090   23.6332 C   0  0  0  0  0  0
  -16.7265  -28.6503   23.0359 C   0  0  0  0  0  0
  -26.4494  -31.6605   25.0753 C   0  0  0  0  0  0
  -25.3748  -31.3702   26.1486 C   0  0  0  0  0  0
  -27.0344  -30.3047   24.6166 C   0  0  0  0  0  0
  -27.6063  -32.4334   25.7510 C   0  0  0  0  0  0
  -27.5582  -37.1803   24.8463 C   0  0  0  0  0  0
  -21.4160  -29.3048   22.3700 N   0  0  0  0  0  0
  -26.4290  -37.3797   23.9414 N   0  0  0  0  0  0
  -24.6774  -31.0730   22.1044 N   0  0  0  0  0  0
  -23.4189  -28.8188   23.3017 O   0  0  0  0  0  0
  -28.3452  -26.5623   20.1569 O   0  0  0  0  0  0
  -26.5601  -34.8922   22.4687 O   0  0  0  0  0  0
  -23.5384  -32.1439   23.7479 O   0  0  0  0  0  0
  -31.6641  -19.4283   22.0278 C   0  0  0  0  0  0
  -31.8864  -17.0096   21.9118 C   0  0  0  0  0  0
  -30.3676  -19.3698   21.4708 C   0  0  0  0  0  0
  -29.8269  -18.0812   21.1308 C   0  0  0  0  0  0
  -30.5926  -16.8871   21.3525 C   0  0  0  0  0  0
  -32.4205  -18.2655   22.2389 C   0  0  0  0  0  0
  -28.6982  -22.6171   19.9416 C   0  0  0  0  0  0
  -27.5327  -22.2645   19.3648 C   0  0  0  0  0  0
  -31.5288  -23.2729   20.4315 C   0  0  0  0  0  0
  -30.5718  -24.3808   19.9765 C   0  0  0  0  0  0
  -31.1299  -21.9363   19.7896 C   0  0  0  0  0  0
  -29.1223  -24.0590   20.3731 C   0  0  1  0  0  0
  -28.4226  -17.9660   20.5502 C   0  0  0  0  0  0
  -29.5855  -20.7110   21.3821 C   0  0  0  0  0  0
  -28.1266  -25.1529   19.8566 C   0  0  0  0  0  0
  -30.0610  -15.5683   21.0902 N   0  0  0  0  0  0
  -29.7423  -21.5289   20.1336 N   0  3  1  0  0  0
  -33.9996  -18.3798   22.9260 Cl  0  0  0  0  0  0
  -31.4612  -12.4132   19.1324 H   0  0  0  0  0  0
  -30.3111  -11.3286   19.8569 H   0  0  0  0  0  0
  -29.7387  -11.7659   17.4471 H   0  0  0  0  0  0
  -29.6570  -13.4825   17.7609 H   0  0  0  0  0  0
  -27.8362  -11.3051   18.8419 H   0  0  0  0  0  0
  -27.3637  -12.6140   17.7925 H   0  0  0  0  0  0
  -27.6877  -14.2585   19.5480 H   0  0  0  0  0  0
  -28.6845  -12.0242   21.3814 H   0  0  0  0  0  0
  -28.4626  -13.6845   21.8485 H   0  0  0  0  0  0
  -25.2758   -9.5689   22.4767 H   0  0  0  0  0  0
  -23.9998   -7.4638   22.7476 H   0  0  0  0  0  0
  -21.0843   -8.8776   19.8951 H   0  0  0  0  0  0
  -22.3694  -10.9679   19.6167 H   0  0  0  0  0  0
  -21.2009   -7.6148   23.9715 H   0  0  0  0  0  0
  -21.1483   -6.0523   25.9077 H   0  0  0  0  0  0
  -22.0600   -2.7609   23.2844 H   0  0  0  0  0  0
  -22.4100  -11.9879   22.4780 H   0  0  0  0  0  0
  -21.1111  -13.1256   22.2609 H   0  0  0  0  0  0
  -24.6573  -15.8425   20.5109 H   0  0  0  0  0  0
  -26.2711  -15.6250   20.0609 H   0  0  0  0  0  0
  -26.7149  -32.5506   23.1163 H   0  0  0  0  0  0
  -25.0076  -33.9776   25.0477 H   0  0  0  0  0  0
  -22.7005  -31.3156   21.4200 H   0  0  0  0  0  0
  -23.3757  -35.9632   23.3293 H   0  0  0  0  0  0
  -24.3580  -36.8937   22.2057 H   0  0  0  0  0  0
  -23.7225  -37.6502   23.6662 H   0  0  0  0  0  0
  -26.0719  -31.5837   20.6115 H   0  0  0  0  0  0
  -26.8297  -30.8597   22.0009 H   0  0  0  0  0  0
  -28.0969  -29.0273   21.1971 H   0  0  0  0  0  0
  -25.9630  -26.0117   18.9285 H   0  0  0  0  0  0
  -23.9604  -27.3485   18.9913 H   0  0  0  0  0  0
  -23.7303  -30.6217   19.4127 H   0  0  0  0  0  0
  -22.7384  -29.2683   19.8644 H   0  0  0  0  0  0
  -25.1284  -36.1969   25.0829 H   0  0  0  0  0  0
  -20.9966  -28.3254   24.1418 H   0  0  0  0  0  0
  -20.5680  -26.2290   23.3608 H   0  0  0  0  0  0
  -21.6638  -26.7458   22.1200 H   0  0  0  0  0  0
  -19.6906  -25.6304   21.1236 H   0  0  0  0  0  0
  -19.6675  -27.3205   20.6741 H   0  0  0  0  0  0
  -17.4195  -26.6686   21.4024 H   0  0  0  0  0  0
  -18.0313  -26.0066   22.9015 H   0  0  0  0  0  0
  -19.7933  -30.7261   24.2290 H   0  0  0  0  0  0
  -17.5017  -31.6272   24.5168 H   0  0  0  0  0  0
  -15.5348  -30.3002   23.7648 H   0  0  0  0  0  0
  -15.8663  -28.0822   22.7081 H   0  0  0  0  0  0
  -24.5938  -30.7034   25.7810 H   0  0  0  0  0  0
  -24.8919  -32.2848   26.4934 H   0  0  0  0  0  0
  -25.8098  -30.8873   27.0245 H   0  0  0  0  0  0
  -26.2907  -29.6784   24.1225 H   0  0  0  0  0  0
  -27.4106  -29.7309   25.4646 H   0  0  0  0  0  0
  -27.8746  -30.4361   23.9343 H   0  0  0  0  0  0
  -27.2688  -33.3640   26.2083 H   0  0  0  0  0  0
  -28.3867  -32.6882   25.0327 H   0  0  0  0  0  0
  -28.0737  -31.8465   26.5426 H   0  0  0  0  0  0
  -28.2587  -38.0116   24.7552 H   0  0  0  0  0  0
  -28.1092  -36.2652   24.6242 H   0  0  0  0  0  0
  -27.2305  -37.1400   25.8865 H   0  0  0  0  0  0
  -20.9320  -29.8781   21.6931 H   0  0  0  0  0  0
  -26.0178  -38.2867   24.1444 H   0  0  0  0  0  0
  -32.0895  -20.3781   22.3212 H   0  0  0  0  0  0
  -32.4864  -16.1346   22.1148 H   0  0  0  0  0  0
  -26.7459  -22.9763   19.1662 H   0  0  0  0  0  0
  -27.3306  -21.2435   19.0732 H   0  0  0  0  0  0
  -31.5330  -23.1913   21.5194 H   0  0  0  0  0  0
  -32.5485  -23.5275   20.1403 H   0  0  0  0  0  0
  -30.6412  -24.5102   18.8949 H   0  0  0  0  0  0
  -30.8723  -25.3324   20.4170 H   0  0  0  0  0  0
  -31.8545  -21.1593   20.0239 H   0  0  0  0  0  0
  -31.1752  -22.0453   18.7051 H   0  0  0  0  0  0
  -29.0731  -24.0723   21.4632 H   0  0  0  0  0  0
  -28.1656  -18.8243   19.9316 H   0  0  0  0  0  0
  -27.6866  -17.8877   21.3508 H   0  0  0  0  0  0
  -28.3208  -17.0903   19.9094 H   0  0  0  0  0  0
  -29.8651  -21.3373   22.2303 H   0  0  0  0  0  0
  -28.5265  -20.5029   21.5343 H   0  0  0  0  0  0
  -27.1738  -24.8628   20.3024 H   0  0  0  0  0  0
  -28.0312  -25.0570   18.7738 H   0  0  0  0  0  0
  -29.0830  -15.4217   21.2872 H   0  0  0  0  0  0
  -29.5520  -20.8428   19.4198 H   0  0  0  0  0  0
  1 25  1  0  0  0
  1 30  2  0  0  0
  1 86  1  0  0  0
  2  3  1  0  0  0
  2 25  1  0  0  0
  2 89  1  0  0  0
  2 90  1  0  0  0
  3  4  1  0  0  0
  3 91  1  0  0  0
  3 92  1  0  0  0
  4  5  1  0  0  0
  4 93  1  0  0  0
  4 94  1  0  0  0
  5  6  1  0  0  0
  5 26  1  0  0  0
  5 95  1  0  0  0
  6 25  1  0  0  0
  6 96  1  0  0  0
  6 97  1  0  0  0
  7  8  2  0  0  0
  7 26  1  0  0  0
  7 29  1  0  0  0
  8  9  1  0  0  0
  8 22  1  0  0  0
  9 10  1  0  0  0
  9 27  2  0  0  0
 10 11  2  0  0  0
 10 15  1  0  0  0
 11 12  1  0  0  0
 11 98  1  0  0  0
 12 13  2  0  0  0
 12 99  1  0  0  0
 13 14  1  0  0  0
 13 31  1  0  0  0
 14 15  2  0  0  0
 14100  1  0  0  0
 15101  1  0  0  0
 16 17  2  0  0  0
 16 21  1  0  0  0
 16 31  1  0  0  0
 17 18  1  0  0  0
 17102  1  0  0  0
 18 19  2  0  0  0
 18103  1  0  0  0
 19 20  1  0  0  0
 19 24  1  0  0  0
 20 21  2  0  0  0
 20104  1  0  0  0
 21 23  1  0  0  0
 22 28  1  0  0  0
 22 32  2  0  0  0
 26 27  1  0  0  0
 28105  1  0  0  0
 28106  1  0  0  0
 29107  1  0  0  0
 29108  1  0  0  0
 33 34  1  0  0  0
 33 66  1  0  0  0
 33 70  2  0  0  0
 34 36  1  0  0  0
 34 59  1  0  0  0
 34109  1  0  0  0
 35 44  2  0  0  0
 35 45  1  0  0  0
 35 68  1  0  0  0
 36 56  1  0  0  0
 36110  1  0  0  0
 37 39  1  0  0  0
 37 47  1  0  0  0
 37 66  1  0  0  0
 37111  1  0  0  0
 38 43  2  0  0  0
 38 46  1  0  0  0
 38 47  1  0  0  0
 39 64  1  0  0  0
 39 67  2  0  0  0
 40 52  1  0  0  0
 40 53  2  0  0  0
 40 58  1  0  0  0
 41112  1  0  0  0
 41113  1  0  0  0
 41114  1  0  0  0
 41 48  1  0  0  0
 42 43  1  0  0  0
 42 66  1  0  0  0
 42115  1  0  0  0
 42116  1  0  0  0
 43 44  1  0  0  0
 44117  1  0  0  0
 45 46  2  0  0  0
 45118  1  0  0  0
 46119  1  0  0  0
 47120  1  0  0  0
 47121  1  0  0  0
 48 56  1  0  0  0
 48 65  1  0  0  0
 48122  1  0  0  0
 49 50  1  0  0  0
 49 53  1  0  0  0
 49 64  1  0  0  0
 49123  1  0  0  0
 50 51  1  0  0  0
 50124  1  0  0  0
 50125  1  0  0  0
 51 52  1  0  0  0
 51126  1  0  0  0
 51127  1  0  0  0
 52128  1  0  0  0
 52129  1  0  0  0
 53 54  1  0  0  0
 54 55  2  0  0  0
 54130  1  0  0  0
 55 57  1  0  0  0
 55131  1  0  0  0
 56 69  2  0  0  0
 57 58  2  0  0  0
 57132  1  0  0  0
 58133  1  0  0  0
 59 60  1  0  0  0
 59 61  1  0  0  0
 59 62  1  0  0  0
 60134  1  0  0  0
 60135  1  0  0  0
 60136  1  0  0  0
 61137  1  0  0  0
 61138  1  0  0  0
 61139  1  0  0  0
 62140  1  0  0  0
 62141  1  0  0  0
 62142  1  0  0  0
 63 65  1  0  0  0
 63143  1  0  0  0
 63144  1  0  0  0
 63145  1  0  0  0
 64146  1  0  0  0
 65147  1  0  0  0
 68 85  1  0  0  0
 71 73  2  0  0  0
 71 76  1  0  0  0
 71148  1  0  0  0
 72 75  1  0  0  0
 72 76  2  0  0  0
 72149  1  0  0  0
 73 74  1  0  0  0
 73 84  1  0  0  0
 74 75  2  0  0  0
 74 83  1  0  0  0
 75 86  1  0  0  0
 76 88  1  0  0  0
 77 78  2  0  0  0
 77 82  1  0  0  0
 77 87  1  0  0  0
 78150  1  0  0  0
 78151  1  0  0  0
 79 80  1  0  0  0
 79 81  1  0  0  0
 79152  1  0  0  0
 79153  1  0  0  0
 80 82  1  0  0  0
 80154  1  0  0  0
 80155  1  0  0  0
 81 87  1  0  0  0
 81156  1  0  0  0
 81157  1  0  0  0
 82 85  1  0  0  0
 82158  1  0  0  0
 83159  1  0  0  0
 83160  1  0  0  0
 83161  1  0  0  0
 84162  1  0  0  0
 84163  1  0  0  0
 84 87  1  0  0  0
 85164  1  0  0  0
 85165  1  0  0  0
 86166  1  0  0  0
 87167  1  0  0  0
M  CHG  1  87   1
M  ISO  4   1 100  68 101  85 101  86 100
M  END
> <chiral flag>
0

> <version>
0

> <s_m_source_file>
/data/baiqing/PycharmProjects/Reinvent-master-3.2/result/LINK_invent/BTK/process_docking_weight1_custom_product_contain_oxygen_bond_distance_aromatic_linkinvent_7_9_3/rearranged_h_0045.sdf

> <i_m_source_file_index>
39

> <r_mmod_Potential_Energy-OPLS-2005>
-104.948394775391

> <r_mmod_Stretch_Energy-OPLS-2005>
58.7247657775879

> <r_mmod_Bend_Energy-OPLS-2005>
127.704666137695

> <r_mmod_Torsional_Energy-OPLS-2005>
222.766906738281

> <r_mmod_Improper_Torsional_Energy-OPLS-2005>
3.96417570114136

> <r_mmod_Van_der_Waal_Energy-OPLS-2005>
163.361999511719

> <r_mmod_Electrostatic_Energy-OPLS-2005>
-248.164855957031

> <r_mmod_Solvation_Energy-OPLS-2005>
-457.333526611328

> <b_mmod_Minimization_Converged-OPLS-2005>
0

> <r_mmod_RMS_Derivative-OPLS-2005>
0.670496106147766

$$$$
39
                    3D
 Structure written by MMmdl.
161170  0  0  1  0            999 V2000
  -30.6010  -14.7832   20.3879 C   0  0  0  0  0  0
  -30.4270  -12.4608   19.4905 C   0  0  0  0  0  0
  -29.5215  -12.5101   18.2424 C   0  0  0  0  0  0
  -28.0470  -12.3343   18.6555 C   0  0  0  0  0  0
  -27.6395  -13.2435   19.8467 C   0  0  2  0  0  0
  -28.6814  -13.2098   20.9845 C   0  0  0  0  0  0
  -25.2451  -13.8232   20.5663 C   0  0  0  0  0  0
  -24.1761  -13.0450   20.9188 C   0  0  0  0  0  0
  -24.6361  -11.6939   20.8726 C   0  0  0  0  0  0
  -23.9038  -10.4310   21.0395 C   0  0  0  0  0  0
  -24.3594   -9.4234   21.9174 C   0  0  0  0  0  0
  -23.6287   -8.2257   22.0746 C   0  0  0  0  0  0
  -22.4286   -8.0260   21.3528 C   0  0  0  0  0  0
  -21.9906   -9.0231   20.4627 C   0  0  0  0  0  0
  -22.7213  -10.2123   20.3042 C   0  0  0  0  0  0
  -21.6869   -6.0724   22.5264 C   0  0  0  0  0  0
  -21.4052   -6.5636   23.8197 C   0  0  0  0  0  0
  -21.3671   -5.6780   24.9150 C   0  0  0  0  0  0
  -21.6059   -4.3042   24.7194 C   0  0  0  0  0  0
  -21.8810   -3.8131   23.4307 C   0  0  0  0  0  0
  -21.9188   -4.6952   22.3379 C   0  0  0  0  0  0
  -22.7776  -13.5220   21.1837 C   0  0  0  0  0  0
  -22.1645   -4.2134   21.0955 F   0  0  0  0  0  0
  -21.5613   -3.4532   25.7705 F   0  0  0  0  0  0
  -29.9849  -13.5481   20.3968 N   0  0  0  0  0  0
  -26.2909  -12.9461   20.3261 N   0  0  0  0  0  0
  -25.9314  -11.6598   20.5742 N   0  0  0  0  0  0
  -22.0395  -12.8259   22.0379 N   0  0  0  0  0  0
  -25.4121  -15.1950   20.4062 N   0  0  0  0  0  0
  -31.8013  -14.8399   20.0990 O   0  0  0  0  0  0
  -21.6654   -6.8858   21.4220 O   0  0  0  0  0  0
  -22.3471  -14.5516   20.6611 O   0  0  0  0  0  0
  -24.6333  -31.8540   23.1909 C   0  0  0  0  0  0
  -25.9113  -32.4754   23.8285 C   0  0  1  0  0  0
  -27.2182  -27.2551   20.1251 C   0  0  0  0  0  0
  -25.5888  -33.8545   24.2252 N   0  0  0  0  0  0
  -23.4292  -30.4708   21.5421 C   0  0  2  0  0  0
  -24.8702  -28.9041   20.1208 C   0  0  0  0  0  0
  -22.7503  -29.4574   22.4966 C   0  0  0  0  0  0
  -18.0279  -28.1396   22.8485 C   0  0  0  0  0  0
  -24.1491  -36.7333   23.2640 C   0  0  0  0  0  0
  -25.9702  -30.7676   21.3578 C   0  0  0  0  0  0
  -26.0455  -29.3790   20.7206 C   0  0  0  0  0  0
  -27.2253  -28.5694   20.7070 C   0  0  0  0  0  0
  -26.0235  -26.8377   19.5096 C   0  0  0  0  0  0
  -24.8637  -27.6404   19.5047 C   0  0  0  0  0  0
  -23.6427  -29.7964   20.1622 C   0  0  0  0  0  0
  -25.4099  -36.3100   24.0352 C   0  0  1  0  0  0
  -20.5891  -28.3685   23.1290 C   0  0  2  0  0  0
  -20.6775  -26.9408   22.5417 C   0  0  0  0  0  0
  -19.5747  -26.6395   21.5227 C   0  0  0  0  0  0
  -18.1926  -26.7929   22.1630 C   0  0  0  0  0  0
  -19.1540  -28.8865   23.2865 C   0  0  0  0  0  0
  -18.9457  -30.1483   23.8853 C   0  0  0  0  0  0
  -17.6457  -30.6584   24.0589 C   0  0  0  0  0  0
  -25.9044  -34.9460   23.5133 C   0  0  0  0  0  0
  -16.5346  -29.9088   23.6352 C   0  0  0  0  0  0
  -16.7269  -28.6529   23.0321 C   0  0  0  0  0  0
  -26.4458  -31.6519   25.0645 C   0  0  0  0  0  0
  -25.3677  -31.3631   26.1366 C   0  0  0  0  0  0
  -27.0290  -30.2958   24.6020 C   0  0  0  0  0  0
  -27.6048  -32.4205   25.7415 C   0  0  0  0  0  0
  -27.5584  -37.1813   24.8464 C   0  0  0  0  0  0
  -21.4219  -29.3019   22.3677 N   0  0  0  0  0  0
  -26.4291  -37.3783   23.9416 N   0  0  0  0  0  0
  -24.6992  -31.0481   22.0890 N   0  0  0  0  0  0
  -23.4189  -28.8145   23.3095 O   0  0  0  0  0  0
  -28.3282  -26.3894   20.0449 O   0  0  0  0  0  0
  -26.5646  -34.8943   22.4724 O   0  0  0  0  0  0
  -23.5482  -32.1348   23.7206 O   0  0  0  0  0  0
  -31.1568  -18.8999   18.4906 C   0  0  0  0  0  0
  -30.9792  -17.6103   19.0345 C   0  0  0  0  0  0
  -29.2227  -18.5006   20.4378 C   0  0  0  0  0  0
  -30.3645  -20.0021   18.8818 C   0  0  0  0  0  0
  -29.3589  -19.8407   19.8671 C   0  0  0  0  0  0
  -30.0185  -17.3407   20.0387 C   0  0  0  0  0  0
  -28.2745  -23.6830   19.9191 C   0  0  0  0  0  0
  -29.6806  -23.7652   22.4564 C   0  0  0  0  0  0
  -29.5696  -25.0613   21.6497 C   0  0  0  0  0  0
  -29.7565  -22.5203   21.5569 C   0  0  0  0  0  0
  -28.3254  -25.0624   20.7517 C   0  0  1  0  0  0
  -30.5785  -21.3357   18.1791 C   0  0  0  0  0  0
  -28.3464  -21.0516   20.1376 C   0  0  0  0  0  0
  -28.7722  -22.4902   20.4660 N   0  0  0  0  0  0
  -29.8251  -15.9369   20.5312 N   0  0  0  0  0  0
  -27.6925  -23.6852   18.8304 O   0  0  0  0  0  0
  -31.4772  -12.5479   19.2029 H   0  0  0  0  0  0
  -30.3366  -11.4936   19.9884 H   0  0  0  0  0  0
  -29.8160  -11.7382   17.5299 H   0  0  0  0  0  0
  -29.6446  -13.4666   17.7321 H   0  0  0  0  0  0
  -27.9110  -11.2883   18.9319 H   0  0  0  0  0  0
  -27.3917  -12.5142   17.8028 H   0  0  0  0  0  0
  -27.6251  -14.2616   19.4569 H   0  0  0  0  0  0
  -28.7105  -12.2294   21.4591 H   0  0  0  0  0  0
  -28.4136  -13.9200   21.7680 H   0  0  0  0  0  0
  -25.2731   -9.5754   22.4740 H   0  0  0  0  0  0
  -24.0005   -7.4687   22.7497 H   0  0  0  0  0  0
  -21.0828   -8.8728   19.8948 H   0  0  0  0  0  0
  -22.3649  -10.9635   19.6132 H   0  0  0  0  0  0
  -21.2094   -7.6152   23.9697 H   0  0  0  0  0  0
  -21.1504   -6.0512   25.9056 H   0  0  0  0  0  0
  -22.0585   -2.7590   23.2804 H   0  0  0  0  0  0
  -22.4037  -12.0028   22.4975 H   0  0  0  0  0  0
  -21.0951  -13.1255   22.2433 H   0  0  0  0  0  0
  -24.6317  -15.8403   20.4707 H   0  0  0  0  0  0
  -26.2607  -15.6312   20.0670 H   0  0  0  0  0  0
  -26.7181  -32.5421   23.1029 H   0  0  0  0  0  0
  -24.9957  -33.9653   25.0347 H   0  0  0  0  0  0
  -22.7253  -31.2917   21.3940 H   0  0  0  0  0  0
  -23.3748  -35.9673   23.3283 H   0  0  0  0  0  0
  -24.3601  -36.8965   22.2060 H   0  0  0  0  0  0
  -23.7235  -37.6534   23.6663 H   0  0  0  0  0  0
  -26.0736  -31.5099   20.5652 H   0  0  0  0  0  0
  -26.8638  -30.8491   21.9642 H   0  0  0  0  0  0
  -28.1348  -28.9388   21.1589 H   0  0  0  0  0  0
  -25.9905  -25.8782   19.0120 H   0  0  0  0  0  0
  -23.9667  -27.2706   19.0252 H   0  0  0  0  0  0
  -23.7641  -30.5675   19.4004 H   0  0  0  0  0  0
  -22.7597  -29.2278   19.8677 H   0  0  0  0  0  0
  -25.1267  -36.1982   25.0846 H   0  0  0  0  0  0
  -20.9952  -28.3270   24.1427 H   0  0  0  0  0  0
  -20.5703  -26.2302   23.3622 H   0  0  0  0  0  0
  -21.6644  -26.7464   22.1199 H   0  0  0  0  0  0
  -19.6906  -25.6315   21.1248 H   0  0  0  0  0  0
  -19.6678  -27.3230   20.6776 H   0  0  0  0  0  0
  -17.4204  -26.6689   21.4024 H   0  0  0  0  0  0
  -18.0296  -26.0072   22.9028 H   0  0  0  0  0  0
  -19.7944  -30.7331   24.2151 H   0  0  0  0  0  0
  -17.5013  -31.6246   24.5239 H   0  0  0  0  0  0
  -15.5341  -30.2972   23.7706 H   0  0  0  0  0  0
  -15.8675  -28.0877   22.6966 H   0  0  0  0  0  0
  -24.5890  -30.6931   25.7680 H   0  0  0  0  0  0
  -24.8803  -32.2781   26.4745 H   0  0  0  0  0  0
  -25.8000  -30.8838   27.0155 H   0  0  0  0  0  0
  -26.2825  -29.6674   24.1140 H   0  0  0  0  0  0
  -27.4146  -29.7201   25.4434 H   0  0  0  0  0  0
  -27.8617  -30.4277   23.9110 H   0  0  0  0  0  0
  -27.2705  -33.3522   26.1970 H   0  0  0  0  0  0
  -28.3859  -32.6681   25.0226 H   0  0  0  0  0  0
  -28.0683  -31.8292   26.5309 H   0  0  0  0  0  0
  -28.2610  -38.0103   24.7528 H   0  0  0  0  0  0
  -28.1082  -36.2647   24.6281 H   0  0  0  0  0  0
  -27.2334  -37.1465   25.8874 H   0  0  0  0  0  0
  -20.9407  -29.8694   21.6844 H   0  0  0  0  0  0
  -26.0205  -38.2891   24.1346 H   0  0  0  0  0  0
  -31.9040  -19.0305   17.7190 H   0  0  0  0  0  0
  -31.5880  -16.8184   18.6250 H   0  0  0  0  0  0
  -28.4531  -18.3603   21.1840 H   0  0  0  0  0  0
  -28.8217  -23.6741   23.1214 H   0  0  0  0  0  0
  -30.5606  -23.8003   23.1000 H   0  0  0  0  0  0
  -30.4615  -25.2066   21.0358 H   0  0  0  0  0  0
  -29.5258  -25.9041   22.3359 H   0  0  0  0  0  0
  -29.6385  -21.6369   22.1856 H   0  0  0  0  0  0
  -30.7525  -22.4418   21.1200 H   0  0  0  0  0  0
  -27.4486  -25.0285   21.3996 H   0  0  0  0  0  0
  -31.2389  -21.2474   17.3150 H   0  0  0  0  0  0
  -31.0302  -22.0641   18.8525 H   0  0  0  0  0  0
  -29.6364  -21.7473   17.8192 H   0  0  0  0  0  0
  -27.6754  -20.7374   20.9390 H   0  0  0  0  0  0
  -27.7031  -21.0781   19.2552 H   0  0  0  0  0  0
  -28.9129  -15.7588   20.9241 H   0  0  0  0  0  0
  1 25  1  0  0  0
  1 30  2  0  0  0
  1 85  1  0  0  0
  2  3  1  0  0  0
  2 25  1  0  0  0
  2 87  1  0  0  0
  2 88  1  0  0  0
  3  4  1  0  0  0
  3 89  1  0  0  0
  3 90  1  0  0  0
  4  5  1  0  0  0
  4 91  1  0  0  0
  4 92  1  0  0  0
  5  6  1  0  0  0
  5 26  1  0  0  0
  5 93  1  0  0  0
  6 25  1  0  0  0
  6 94  1  0  0  0
  6 95  1  0  0  0
  7  8  2  0  0  0
  7 26  1  0  0  0
  7 29  1  0  0  0
  8  9  1  0  0  0
  8 22  1  0  0  0
  9 10  1  0  0  0
  9 27  2  0  0  0
 10 11  2  0  0  0
 10 15  1  0  0  0
 11 12  1  0  0  0
 11 96  1  0  0  0
 12 13  2  0  0  0
 12 97  1  0  0  0
 13 14  1  0  0  0
 13 31  1  0  0  0
 14 15  2  0  0  0
 14 98  1  0  0  0
 15 99  1  0  0  0
 16 17  2  0  0  0
 16 21  1  0  0  0
 16 31  1  0  0  0
 17 18  1  0  0  0
 17100  1  0  0  0
 18 19  2  0  0  0
 18101  1  0  0  0
 19 20  1  0  0  0
 19 24  1  0  0  0
 20 21  2  0  0  0
 20102  1  0  0  0
 21 23  1  0  0  0
 22 28  1  0  0  0
 22 32  2  0  0  0
 26 27  1  0  0  0
 28103  1  0  0  0
 28104  1  0  0  0
 29105  1  0  0  0
 29106  1  0  0  0
 33 34  1  0  0  0
 33 66  1  0  0  0
 33 70  2  0  0  0
 34 36  1  0  0  0
 34 59  1  0  0  0
 34107  1  0  0  0
 35 44  2  0  0  0
 35 45  1  0  0  0
 35 68  1  0  0  0
 36 56  1  0  0  0
 36108  1  0  0  0
 37 39  1  0  0  0
 37 47  1  0  0  0
 37 66  1  0  0  0
 37109  1  0  0  0
 38 43  2  0  0  0
 38 46  1  0  0  0
 38 47  1  0  0  0
 39 64  1  0  0  0
 39 67  2  0  0  0
 40 52  1  0  0  0
 40 53  2  0  0  0
 40 58  1  0  0  0
 41110  1  0  0  0
 41111  1  0  0  0
 41112  1  0  0  0
 41 48  1  0  0  0
 42 43  1  0  0  0
 42 66  1  0  0  0
 42113  1  0  0  0
 42114  1  0  0  0
 43 44  1  0  0  0
 44115  1  0  0  0
 45 46  2  0  0  0
 45116  1  0  0  0
 46117  1  0  0  0
 47118  1  0  0  0
 47119  1  0  0  0
 48 56  1  0  0  0
 48 65  1  0  0  0
 48120  1  0  0  0
 49 50  1  0  0  0
 49 53  1  0  0  0
 49 64  1  0  0  0
 49121  1  0  0  0
 50 51  1  0  0  0
 50122  1  0  0  0
 50123  1  0  0  0
 51 52  1  0  0  0
 51124  1  0  0  0
 51125  1  0  0  0
 52126  1  0  0  0
 52127  1  0  0  0
 53 54  1  0  0  0
 54 55  2  0  0  0
 54128  1  0  0  0
 55 57  1  0  0  0
 55129  1  0  0  0
 56 69  2  0  0  0
 57 58  2  0  0  0
 57130  1  0  0  0
 58131  1  0  0  0
 59 60  1  0  0  0
 59 61  1  0  0  0
 59 62  1  0  0  0
 60132  1  0  0  0
 60133  1  0  0  0
 60134  1  0  0  0
 61135  1  0  0  0
 61136  1  0  0  0
 61137  1  0  0  0
 62138  1  0  0  0
 62139  1  0  0  0
 62140  1  0  0  0
 63 65  1  0  0  0
 63141  1  0  0  0
 63142  1  0  0  0
 63143  1  0  0  0
 64144  1  0  0  0
 65145  1  0  0  0
 68 81  1  0  0  0
 71 72  2  0  0  0
 71 74  1  0  0  0
 71146  1  0  0  0
 72 76  1  0  0  0
 72147  1  0  0  0
 73 75  1  0  0  0
 73 76  2  0  0  0
 73148  1  0  0  0
 74 75  2  0  0  0
 74 82  1  0  0  0
 75 83  1  0  0  0
 76 85  1  0  0  0
 77 81  1  0  0  0
 77 84  1  0  0  0
 77 86  2  0  0  0
 78 79  1  0  0  0
 78 80  1  0  0  0
 78149  1  0  0  0
 78150  1  0  0  0
 79 81  1  0  0  0
 79151  1  0  0  0
 79152  1  0  0  0
 80 84  1  0  0  0
 80153  1  0  0  0
 80154  1  0  0  0
 81155  1  0  0  0
 82156  1  0  0  0
 82157  1  0  0  0
 82158  1  0  0  0
 83 84  1  0  0  0
 83159  1  0  0  0
 83160  1  0  0  0
 85161  1  0  0  0
M  ISO  4   1 100  68 101  81 101  85 100
M  END
> <chiral flag>
0

> <version>
0

> <s_m_source_file>
/data/baiqing/PycharmProjects/Reinvent-master-3.2/result/LINK_invent/BTK/process_docking_weight1_custom_product_contain_oxygen_bond_distance_aromatic_linkinvent_7_9_3/rearranged_h_0045.sdf

> <i_m_source_file_index>
40

> <r_mmod_Potential_Energy-OPLS-2005>
256.546722412109

> <r_mmod_Stretch_Energy-OPLS-2005>
136.707366943359

> <r_mmod_Bend_Energy-OPLS-2005>
175.014175415039

> <r_mmod_Torsional_Energy-OPLS-2005>
275.775604248047

> <r_mmod_Improper_Torsional_Energy-OPLS-2005>
6.3417329788208

> <r_mmod_Van_der_Waal_Energy-OPLS-2005>
138.163177490234

> <r_mmod_Electrostatic_Energy-OPLS-2005>
-344.518768310547

> <r_mmod_Solvation_Energy-OPLS-2005>
-224.630920410156

> <b_mmod_Minimization_Converged-OPLS-2005>
0

> <r_mmod_RMS_Derivative-OPLS-2005>
4.21870803833008

$$$$
40
                    3D
 Structure written by MMmdl.
171179  0  0  1  0            999 V2000
  -30.6795  -14.4318   20.6593 C   0  0  0  0  0  0
  -30.4213  -12.2938   19.4300 C   0  0  0  0  0  0
  -29.5033  -12.5059   18.2088 C   0  0  0  0  0  0
  -28.0178  -12.3641   18.6079 C   0  0  0  0  0  0
  -27.6579  -13.1958   19.8684 C   0  0  2  0  0  0
  -28.6856  -12.9337   20.9909 C   0  0  0  0  0  0
  -25.2547  -13.8141   20.5644 C   0  0  0  0  0  0
  -24.1783  -13.0432   20.9186 C   0  0  0  0  0  0
  -24.6309  -11.6891   20.8688 C   0  0  0  0  0  0
  -23.8972  -10.4304   21.0380 C   0  0  0  0  0  0
  -24.3553   -9.4219   21.9166 C   0  0  0  0  0  0
  -23.6244   -8.2250   22.0728 C   0  0  0  0  0  0
  -22.4224   -8.0256   21.3538 C   0  0  0  0  0  0
  -21.9846   -9.0234   20.4635 C   0  0  0  0  0  0
  -22.7147  -10.2119   20.3031 C   0  0  0  0  0  0
  -21.6824   -6.0703   22.5283 C   0  0  0  0  0  0
  -21.4034   -6.5623   23.8199 C   0  0  0  0  0  0
  -21.3676   -5.6766   24.9161 C   0  0  0  0  0  0
  -21.6029   -4.3034   24.7212 C   0  0  0  0  0  0
  -21.8811   -3.8125   23.4341 C   0  0  0  0  0  0
  -21.9202   -4.6954   22.3388 C   0  0  0  0  0  0
  -22.7823  -13.5250   21.1844 C   0  0  0  0  0  0
  -22.1645   -4.2129   21.0965 F   0  0  0  0  0  0
  -21.5628   -3.4519   25.7736 F   0  0  0  0  0  0
  -30.0171  -13.2603   20.4604 N   0  0  0  0  0  0
  -26.2947  -12.9280   20.3251 N   0  0  0  0  0  0
  -25.9219  -11.6461   20.5648 N   0  0  0  0  0  0
  -22.0419  -12.8307   22.0398 N   0  0  0  0  0  0
  -25.4264  -15.1850   20.4092 N   0  0  0  0  0  0
  -31.7586  -14.6941   20.1187 O   0  0  0  0  0  0
  -21.6593   -6.8852   21.4223 O   0  0  0  0  0  0
  -22.3562  -14.5591   20.6662 O   0  0  0  0  0  0
  -24.6185  -31.8707   23.1971 C   0  0  0  0  0  0
  -25.9105  -32.4830   23.8272 C   0  0  1  0  0  0
  -27.2392  -27.4342   20.0698 C   0  0  0  0  0  0
  -25.5964  -33.8608   24.2255 N   0  0  0  0  0  0
  -23.4006  -30.4915   21.5390 C   0  0  2  0  0  0
  -24.8444  -28.9465   20.1066 C   0  0  0  0  0  0
  -22.7375  -29.4727   22.4911 C   0  0  0  0  0  0
  -18.0275  -28.1413   22.8491 C   0  0  0  0  0  0
  -24.1481  -36.7290   23.2632 C   0  0  0  0  0  0
  -25.9264  -30.8309   21.3465 C   0  0  0  0  0  0
  -25.9991  -29.4581   20.7060 C   0  0  0  0  0  0
  -27.1939  -28.7066   20.6868 C   0  0  0  0  0  0
  -26.0566  -26.9313   19.4749 C   0  0  0  0  0  0
  -24.8677  -27.6840   19.4904 C   0  0  0  0  0  0
  -23.6066  -29.8121   20.1570 C   0  0  0  0  0  0
  -25.4103  -36.3090   24.0328 C   0  0  1  0  0  0
  -20.5855  -28.3759   23.1255 C   0  0  2  0  0  0
  -20.6759  -26.9481   22.5387 C   0  0  0  0  0  0
  -19.5765  -26.6430   21.5171 C   0  0  0  0  0  0
  -18.1946  -26.7970   22.1596 C   0  0  0  0  0  0
  -19.1528  -28.8885   23.2879 C   0  0  0  0  0  0
  -18.9478  -30.1464   23.8923 C   0  0  0  0  0  0
  -17.6499  -30.6608   24.0582 C   0  0  0  0  0  0
  -25.9046  -34.9490   23.5057 C   0  0  0  0  0  0
  -16.5370  -29.9145   23.6331 C   0  0  0  0  0  0
  -16.7269  -28.6547   23.0369 C   0  0  0  0  0  0
  -26.4509  -31.6594   25.0583 C   0  0  0  0  0  0
  -25.3726  -31.3782   26.1299 C   0  0  0  0  0  0
  -27.0342  -30.3034   24.5946 C   0  0  0  0  0  0
  -27.6069  -32.4306   25.7384 C   0  0  0  0  0  0
  -27.5559  -37.1787   24.8457 C   0  0  0  0  0  0
  -21.4114  -29.3098   22.3619 N   0  0  0  0  0  0
  -26.4266  -37.3785   23.9419 N   0  0  0  0  0  0
  -24.6674  -31.0790   22.0883 N   0  0  0  0  0  0
  -23.4162  -28.8261   23.2932 O   0  0  0  0  0  0
  -28.4455  -26.7560   20.0741 O   0  0  0  0  0  0
  -26.5607  -34.8990   22.4618 O   0  0  0  0  0  0
  -23.5375  -32.1525   23.7362 O   0  0  0  0  0  0
  -32.1583  -17.2413   23.8433 C   0  0  0  0  0  0
  -30.9346  -18.8205   22.4687 C   0  0  0  0  0  0
  -31.5107  -16.1698   23.1953 C   0  0  0  0  0  0
  -30.2491  -17.7673   21.8148 C   0  0  0  0  0  0
  -30.6095  -16.4224   22.1247 C   0  0  0  0  0  0
  -31.8858  -18.5639   23.4675 C   0  0  0  0  0  0
  -31.7642  -14.7605   23.7008 C   0  0  0  0  0  0
  -28.9671  -22.2404   22.3860 C   0  0  0  0  0  0
  -26.7010  -21.7724   21.3943 C   0  0  0  0  0  0
  -29.1263  -18.0993   20.8176 C   0  0  0  0  0  0
  -28.7662  -20.5583   20.4750 C   0  0  0  0  0  0
  -28.5082  -23.0105   20.0286 C   0  0  0  0  0  0
  -28.5676  -25.5131   19.4247 C   0  0  0  0  0  0
  -28.2158  -21.8918   21.0806 C   0  0  0  0  0  0
  -30.0216  -15.3239   21.4332 N   0  0  0  0  0  0
  -28.3487  -19.3135   21.1718 N   0  3  0  0  0  0
  -28.1808  -24.3827   20.4818 N   0  3  0  0  0  0
  -32.6761  -19.8793   24.2561 Cl  0  0  0  0  0  0
  -31.4747  -12.3800   19.1643 H   0  0  0  0  0  0
  -30.3031  -11.2801   19.8154 H   0  0  0  0  0  0
  -29.7456  -11.7811   17.4305 H   0  0  0  0  0  0
  -29.6849  -13.4957   17.7843 H   0  0  0  0  0  0
  -27.8264  -11.3100   18.8050 H   0  0  0  0  0  0
  -27.3775  -12.6364   17.7698 H   0  0  0  0  0  0
  -27.7140  -14.2481   19.5831 H   0  0  0  0  0  0
  -28.6636  -11.8801   21.2706 H   0  0  0  0  0  0
  -28.4306  -13.4686   21.9069 H   0  0  0  0  0  0
  -25.2696   -9.5696   22.4735 H   0  0  0  0  0  0
  -23.9954   -7.4633   22.7450 H   0  0  0  0  0  0
  -21.0772   -8.8734   19.8946 H   0  0  0  0  0  0
  -22.3590  -10.9651   19.6144 H   0  0  0  0  0  0
  -21.1997   -7.6123   23.9710 H   0  0  0  0  0  0
  -21.1517   -6.0485   25.9060 H   0  0  0  0  0  0
  -22.0574   -2.7590   23.2820 H   0  0  0  0  0  0
  -22.3993  -11.9996   22.4875 H   0  0  0  0  0  0
  -21.1027  -13.1370   22.2520 H   0  0  0  0  0  0
  -24.6443  -15.8222   20.4903 H   0  0  0  0  0  0
  -26.2424  -15.6078   19.9890 H   0  0  0  0  0  0
  -26.7177  -32.5547   23.1039 H   0  0  0  0  0  0
  -25.0085  -33.9719   25.0389 H   0  0  0  0  0  0
  -22.6882  -31.3049   21.3897 H   0  0  0  0  0  0
  -23.3731  -35.9613   23.3296 H   0  0  0  0  0  0
  -24.3549  -36.8902   22.2026 H   0  0  0  0  0  0
  -23.7274  -37.6520   23.6640 H   0  0  0  0  0  0
  -26.0248  -31.5804   20.5601 H   0  0  0  0  0  0
  -26.8203  -30.9023   21.9512 H   0  0  0  0  0  0
  -28.0894  -29.1057   21.1408 H   0  0  0  0  0  0
  -26.0196  -25.9708   18.9838 H   0  0  0  0  0  0
  -23.9813  -27.2834   19.0183 H   0  0  0  0  0  0
  -23.7111  -30.5763   19.3857 H   0  0  0  0  0  0
  -22.7337  -29.2229   19.8660 H   0  0  0  0  0  0
  -25.1295  -36.1890   25.0814 H   0  0  0  0  0  0
  -21.0008  -28.3385   24.1356 H   0  0  0  0  0  0
  -20.5640  -26.2398   23.3605 H   0  0  0  0  0  0
  -21.6649  -26.7517   22.1209 H   0  0  0  0  0  0
  -19.6956  -25.6348   21.1228 H   0  0  0  0  0  0
  -19.6693  -27.3184   20.6656 H   0  0  0  0  0  0
  -17.4209  -26.6709   21.3989 H   0  0  0  0  0  0
  -18.0376  -26.0064   22.8951 H   0  0  0  0  0  0
  -19.7940  -30.7231   24.2344 H   0  0  0  0  0  0
  -17.5066  -31.6298   24.5186 H   0  0  0  0  0  0
  -15.5391  -30.3099   23.7612 H   0  0  0  0  0  0
  -15.8647  -28.0860   22.7159 H   0  0  0  0  0  0
  -24.5870  -30.7193   25.7607 H   0  0  0  0  0  0
  -24.8951  -32.2978   26.4674 H   0  0  0  0  0  0
  -25.8010  -30.8975   27.0092 H   0  0  0  0  0  0
  -26.2876  -29.6755   24.1074 H   0  0  0  0  0  0
  -27.4234  -29.7317   25.4380 H   0  0  0  0  0  0
  -27.8634  -30.4350   23.8990 H   0  0  0  0  0  0
  -27.2691  -33.3593   26.1995 H   0  0  0  0  0  0
  -28.3885  -32.6918   25.0233 H   0  0  0  0  0  0
  -28.0733  -31.8408   26.5287 H   0  0  0  0  0  0
  -28.2608  -38.0058   24.7492 H   0  0  0  0  0  0
  -28.1051  -36.2604   24.6303 H   0  0  0  0  0  0
  -27.2265  -37.1432   25.8859 H   0  0  0  0  0  0
  -20.9314  -29.8811   21.6787 H   0  0  0  0  0  0
  -26.0153  -38.2851   24.1449 H   0  0  0  0  0  0
  -32.8671  -17.0620   24.6405 H   0  0  0  0  0  0
  -30.7388  -19.8544   22.2446 H   0  0  0  0  0  0
  -30.8400  -14.1798   23.7068 H   0  0  0  0  0  0
  -32.1400  -14.7756   24.7244 H   0  0  0  0  0  0
  -32.4992  -14.2513   23.0781 H   0  0  0  0  0  0
  -28.9747  -21.4081   23.0846 H   0  0  0  0  0  0
  -28.5019  -23.0761   22.9128 H   0  0  0  0  0  0
  -30.0048  -22.5184   22.1936 H   0  0  0  0  0  0
  -26.5118  -21.0233   22.1677 H   0  0  0  0  0  0
  -26.1140  -21.4881   20.5181 H   0  0  0  0  0  0
  -26.2792  -22.7041   21.7744 H   0  0  0  0  0  0
  -28.4004  -17.2859   20.8478 H   0  0  0  0  0  0
  -29.4981  -18.1298   19.7909 H   0  0  0  0  0  0
  -29.8534  -20.6080   20.4254 H   0  0  0  0  0  0
  -28.4432  -20.4687   19.4376 H   0  0  0  0  0  0
  -27.9822  -22.8029   19.0952 H   0  0  0  0  0  0
  -29.5725  -22.9975   19.7819 H   0  0  0  0  0  0
  -27.9981  -25.4123   18.5009 H   0  0  0  0  0  0
  -29.6198  -25.3939   19.1592 H   0  0  0  0  0  0
  -29.0904  -15.0561   21.7185 H   0  0  0  0  0  0
  -28.3566  -19.4167   22.1746 H   0  0  0  0  0  0
  -27.3947  -19.1320   20.9010 H   0  0  0  0  0  0
  -28.6924  -24.5407   21.3350 H   0  0  0  0  0  0
  -27.1971  -24.4264   20.6962 H   0  0  0  0  0  0
  1 25  1  0  0  0
  1 30  2  0  0  0
  1 85  1  0  0  0
  2  3  1  0  0  0
  2 25  1  0  0  0
  2 89  1  0  0  0
  2 90  1  0  0  0
  3  4  1  0  0  0
  3 91  1  0  0  0
  3 92  1  0  0  0
  4  5  1  0  0  0
  4 93  1  0  0  0
  4 94  1  0  0  0
  5  6  1  0  0  0
  5 26  1  0  0  0
  5 95  1  0  0  0
  6 25  1  0  0  0
  6 96  1  0  0  0
  6 97  1  0  0  0
  7  8  2  0  0  0
  7 26  1  0  0  0
  7 29  1  0  0  0
  8  9  1  0  0  0
  8 22  1  0  0  0
  9 10  1  0  0  0
  9 27  2  0  0  0
 10 11  2  0  0  0
 10 15  1  0  0  0
 11 12  1  0  0  0
 11 98  1  0  0  0
 12 13  2  0  0  0
 12 99  1  0  0  0
 13 14  1  0  0  0
 13 31  1  0  0  0
 14 15  2  0  0  0
 14100  1  0  0  0
 15101  1  0  0  0
 16 17  2  0  0  0
 16 21  1  0  0  0
 16 31  1  0  0  0
 17 18  1  0  0  0
 17102  1  0  0  0
 18 19  2  0  0  0
 18103  1  0  0  0
 19 20  1  0  0  0
 19 24  1  0  0  0
 20 21  2  0  0  0
 20104  1  0  0  0
 21 23  1  0  0  0
 22 28  1  0  0  0
 22 32  2  0  0  0
 26 27  1  0  0  0
 28105  1  0  0  0
 28106  1  0  0  0
 29107  1  0  0  0
 29108  1  0  0  0
 33 34  1  0  0  0
 33 66  1  0  0  0
 33 70  2  0  0  0
 34 36  1  0  0  0
 34 59  1  0  0  0
 34109  1  0  0  0
 35 44  2  0  0  0
 35 45  1  0  0  0
 35 68  1  0  0  0
 36 56  1  0  0  0
 36110  1  0  0  0
 37 39  1  0  0  0
 37 47  1  0  0  0
 37 66  1  0  0  0
 37111  1  0  0  0
 38 43  2  0  0  0
 38 46  1  0  0  0
 38 47  1  0  0  0
 39 64  1  0  0  0
 39 67  2  0  0  0
 40 52  1  0  0  0
 40 53  2  0  0  0
 40 58  1  0  0  0
 41112  1  0  0  0
 41113  1  0  0  0
 41114  1  0  0  0
 41 48  1  0  0  0
 42 43  1  0  0  0
 42 66  1  0  0  0
 42115  1  0  0  0
 42116  1  0  0  0
 43 44  1  0  0  0
 44117  1  0  0  0
 45 46  2  0  0  0
 45118  1  0  0  0
 46119  1  0  0  0
 47120  1  0  0  0
 47121  1  0  0  0
 48 56  1  0  0  0
 48 65  1  0  0  0
 48122  1  0  0  0
 49 50  1  0  0  0
 49 53  1  0  0  0
 49 64  1  0  0  0
 49123  1  0  0  0
 50 51  1  0  0  0
 50124  1  0  0  0
 50125  1  0  0  0
 51 52  1  0  0  0
 51126  1  0  0  0
 51127  1  0  0  0
 52128  1  0  0  0
 52129  1  0  0  0
 53 54  1  0  0  0
 54 55  2  0  0  0
 54130  1  0  0  0
 55 57  1  0  0  0
 55131  1  0  0  0
 56 69  2  0  0  0
 57 58  2  0  0  0
 57132  1  0  0  0
 58133  1  0  0  0
 59 60  1  0  0  0
 59 61  1  0  0  0
 59 62  1  0  0  0
 60134  1  0  0  0
 60135  1  0  0  0
 60136  1  0  0  0
 61137  1  0  0  0
 61138  1  0  0  0
 61139  1  0  0  0
 62140  1  0  0  0
 62141  1  0  0  0
 62142  1  0  0  0
 63 65  1  0  0  0
 63143  1  0  0  0
 63144  1  0  0  0
 63145  1  0  0  0
 64146  1  0  0  0
 65147  1  0  0  0
 68 83  1  0  0  0
 71 73  2  0  0  0
 71 76  1  0  0  0
 71148  1  0  0  0
 72 74  1  0  0  0
 72 76  2  0  0  0
 72149  1  0  0  0
 73 75  1  0  0  0
 73 77  1  0  0  0
 74 75  2  0  0  0
 74 80  1  0  0  0
 75 85  1  0  0  0
 76 88  1  0  0  0
 77150  1  0  0  0
 77151  1  0  0  0
 77152  1  0  0  0
 78153  1  0  0  0
 78154  1  0  0  0
 78155  1  0  0  0
 78 84  1  0  0  0
 79 84  1  0  0  0
 79156  1  0  0  0
 79157  1  0  0  0
 79158  1  0  0  0
 80 86  1  0  0  0
 80159  1  0  0  0
 80160  1  0  0  0
 81 84  1  0  0  0
 81 86  1  0  0  0
 81161  1  0  0  0
 81162  1  0  0  0
 82 84  1  0  0  0
 82 87  1  0  0  0
 82163  1  0  0  0
 82164  1  0  0  0
 83 87  1  0  0  0
 83165  1  0  0  0
 83166  1  0  0  0
 85167  1  0  0  0
 86168  1  0  0  0
 86169  1  0  0  0
 87170  1  0  0  0
 87171  1  0  0  0
M  CHG  2  86   1  87   1
M  ISO  4   1 100  68 101  83 101  85 100
M  END
> <chiral flag>
0

> <version>
0

> <s_m_source_file>
/data/baiqing/PycharmProjects/Reinvent-master-3.2/result/LINK_invent/BTK/process_docking_weight1_custom_product_contain_oxygen_bond_distance_aromatic_linkinvent_7_9_3/rearranged_h_0045.sdf

> <i_m_source_file_index>
41

> <r_mmod_Potential_Energy-OPLS-2005>
-427.458618164062

> <r_mmod_Stretch_Energy-OPLS-2005>
41.0300750732422

> <r_mmod_Bend_Energy-OPLS-2005>
110.518478393555

> <r_mmod_Torsional_Energy-OPLS-2005>
262.009643554688

> <r_mmod_Improper_Torsional_Energy-OPLS-2005>
3.65615105628967

> <r_mmod_Van_der_Waal_Energy-OPLS-2005>
156.891616821289

> <r_mmod_Electrostatic_Energy-OPLS-2005>
-13.4671669006348

> <r_mmod_Solvation_Energy-OPLS-2005>
-999.926940917969

> <b_mmod_Minimization_Converged-OPLS-2005>
0

> <r_mmod_RMS_Derivative-OPLS-2005>
6.44746589660645

$$$$
41
                    3D
 Structure written by MMmdl.
158167  0  0  1  0            999 V2000
  -30.6233  -14.7452   20.4676 C   0  0  0  0  0  0
  -30.4301  -12.4552   19.4809 C   0  0  0  0  0  0
  -29.5112  -12.5030   18.2416 C   0  0  0  0  0  0
  -28.0407  -12.3142   18.6614 C   0  0  0  0  0  0
  -27.6394  -13.2287   19.8501 C   0  0  2  0  0  0
  -28.6837  -13.1796   20.9876 C   0  0  0  0  0  0
  -25.2483  -13.8194   20.5667 C   0  0  0  0  0  0
  -24.1773  -13.0442   20.9190 C   0  0  0  0  0  0
  -24.6364  -11.6921   20.8740 C   0  0  0  0  0  0
  -23.9041  -10.4304   21.0417 C   0  0  0  0  0  0
  -24.3602   -9.4215   21.9185 C   0  0  0  0  0  0
  -23.6292   -8.2238   22.0740 C   0  0  0  0  0  0
  -22.4267   -8.0271   21.3537 C   0  0  0  0  0  0
  -21.9897   -9.0242   20.4633 C   0  0  0  0  0  0
  -22.7216  -10.2133   20.3059 C   0  0  0  0  0  0
  -21.6852   -6.0720   22.5268 C   0  0  0  0  0  0
  -21.4016   -6.5625   23.8202 C   0  0  0  0  0  0
  -21.3676   -5.6779   24.9164 C   0  0  0  0  0  0
  -21.6058   -4.3045   24.7217 C   0  0  0  0  0  0
  -21.8817   -3.8130   23.4342 C   0  0  0  0  0  0
  -21.9192   -4.6945   22.3399 C   0  0  0  0  0  0
  -22.7805  -13.5225   21.1875 C   0  0  0  0  0  0
  -22.1654   -4.2123   21.0979 F   0  0  0  0  0  0
  -21.5644   -3.4535   25.7743 F   0  0  0  0  0  0
  -29.9855  -13.5254   20.4023 N   0  0  0  0  0  0
  -26.2911  -12.9398   20.3280 N   0  0  0  0  0  0
  -25.9290  -11.6549   20.5758 N   0  0  0  0  0  0
  -22.0459  -12.8210   22.0438 N   0  0  0  0  0  0
  -25.4197  -15.1910   20.4040 N   0  0  0  0  0  0
  -31.8169  -14.8192   20.1613 O   0  0  0  0  0  0
  -21.6644   -6.8860   21.4228 O   0  0  0  0  0  0
  -22.3508  -14.5540   20.6731 O   0  0  0  0  0  0
  -24.6303  -31.8552   23.1995 C   0  0  0  0  0  0
  -25.9135  -32.4753   23.8338 C   0  0  1  0  0  0
  -27.2106  -27.2639   20.1354 C   0  0  0  0  0  0
  -25.5925  -33.8554   24.2259 N   0  0  0  0  0  0
  -23.4277  -30.4796   21.5414 C   0  0  2  0  0  0
  -24.8750  -28.9282   20.1093 C   0  0  0  0  0  0
  -22.7502  -29.4602   22.4890 C   0  0  0  0  0  0
  -18.0291  -28.1390   22.8474 C   0  0  0  0  0  0
  -24.1493  -36.7291   23.2637 C   0  0  0  0  0  0
  -25.9747  -30.7698   21.3803 C   0  0  0  0  0  0
  -26.0468  -29.3924   20.7224 C   0  0  0  0  0  0
  -27.2222  -28.5733   20.7224 C   0  0  0  0  0  0
  -26.0257  -26.8751   19.4775 C   0  0  0  0  0  0
  -24.8693  -27.6768   19.4753 C   0  0  0  0  0  0
  -23.6469  -29.8154   20.1564 C   0  0  0  0  0  0
  -25.4113  -36.3065   24.0324 C   0  0  1  0  0  0
  -20.5897  -28.3704   23.1254 C   0  0  2  0  0  0
  -20.6783  -26.9422   22.5400 C   0  0  0  0  0  0
  -19.5761  -26.6389   21.5204 C   0  0  0  0  0  0
  -18.1940  -26.7930   22.1615 C   0  0  0  0  0  0
  -19.1548  -28.8860   23.2858 C   0  0  0  0  0  0
  -18.9470  -30.1460   23.8886 C   0  0  0  0  0  0
  -17.6471  -30.6588   24.0564 C   0  0  0  0  0  0
  -25.9050  -34.9435   23.5093 C   0  0  0  0  0  0
  -16.5358  -29.9095   23.6327 C   0  0  0  0  0  0
  -16.7281  -28.6510   23.0350 C   0  0  0  0  0  0
  -26.4512  -31.6574   25.0727 C   0  0  0  0  0  0
  -25.3745  -31.3723   26.1454 C   0  0  0  0  0  0
  -27.0356  -30.2982   24.6224 C   0  0  0  0  0  0
  -27.6047  -32.4335   25.7508 C   0  0  0  0  0  0
  -27.5587  -37.1782   24.8452 C   0  0  0  0  0  0
  -21.4208  -29.3055   22.3642 N   0  0  0  0  0  0
  -26.4285  -37.3771   23.9414 N   0  0  0  0  0  0
  -24.6963  -31.0532   22.0957 N   0  0  0  0  0  0
  -23.4201  -28.8147   23.2990 O   0  0  0  0  0  0
  -28.2820  -26.3441   20.1714 O   0  0  0  0  0  0
  -26.5637  -34.8911   22.4670 O   0  0  0  0  0  0
  -23.5453  -32.1373   23.7284 O   0  0  0  0  0  0
  -31.5064  -17.7099   21.1250 C   0  0  0  0  0  0
  -31.8927  -19.0647   21.2011 C   0  0  0  0  0  0
  -29.3235  -18.4359   20.3523 C   0  0  0  0  0  0
  -29.6987  -19.8454   20.4232 C   0  0  0  0  0  0
  -30.2177  -17.3319   20.6820 C   0  0  0  0  0  0
  -31.0200  -20.1131   20.8440 C   0  0  0  0  0  0
  -28.5662  -23.6712   19.9370 C   0  0  0  0  0  0
  -27.9991  -23.5210   22.7748 C   0  0  0  0  0  0
  -28.3418  -24.9025   22.1969 C   0  0  0  0  0  0
  -28.7894  -22.4006   22.0719 C   0  0  0  0  0  0
  -27.9911  -24.9620   20.7045 C   0  0  1  0  0  0
  -28.7721  -21.0591   19.9446 C   0  0  0  0  0  0
  -28.7439  -22.4495   20.5990 N   0  0  0  0  0  0
  -29.8496  -15.8900   20.6311 N   0  0  0  0  0  0
  -28.7292  -23.7593   18.7156 O   0  0  0  0  0  0
  -31.4789  -21.3857   20.8831 F   0  0  0  0  0  0
  -31.4730  -12.5702   19.1800 H   0  0  0  0  0  0
  -30.3673  -11.4837   19.9743 H   0  0  0  0  0  0
  -29.8041  -11.7298   17.5304 H   0  0  0  0  0  0
  -29.6290  -13.4587   17.7272 H   0  0  0  0  0  0
  -27.9158  -11.2696   18.9509 H   0  0  0  0  0  0
  -27.3764  -12.4760   17.8130 H   0  0  0  0  0  0
  -27.6296  -14.2465   19.4597 H   0  0  0  0  0  0
  -28.7209  -12.1884   21.4448 H   0  0  0  0  0  0
  -28.4169  -13.8739   21.7862 H   0  0  0  0  0  0
  -25.2753   -9.5686   22.4749 H   0  0  0  0  0  0
  -24.0004   -7.4633   22.7455 H   0  0  0  0  0  0
  -21.0820   -8.8757   19.8949 H   0  0  0  0  0  0
  -22.3669  -10.9667   19.6164 H   0  0  0  0  0  0
  -21.2004   -7.6133   23.9692 H   0  0  0  0  0  0
  -21.1513   -6.0514   25.9069 H   0  0  0  0  0  0
  -22.0589   -2.7583   23.2846 H   0  0  0  0  0  0
  -22.4091  -11.9891   22.4851 H   0  0  0  0  0  0
  -21.1091  -13.1248   22.2675 H   0  0  0  0  0  0
  -24.6477  -15.8432   20.4935 H   0  0  0  0  0  0
  -26.2584  -15.6215   20.0388 H   0  0  0  0  0  0
  -26.7197  -32.5411   23.1071 H   0  0  0  0  0  0
  -25.0035  -33.9696   25.0378 H   0  0  0  0  0  0
  -22.7239  -31.3007   21.3943 H   0  0  0  0  0  0
  -23.3732  -35.9651   23.3326 H   0  0  0  0  0  0
  -24.3578  -36.8885   22.2046 H   0  0  0  0  0  0
  -23.7279  -37.6516   23.6641 H   0  0  0  0  0  0
  -26.1163  -31.5320   20.6125 H   0  0  0  0  0  0
  -26.8501  -30.8151   22.0154 H   0  0  0  0  0  0
  -28.1194  -28.9210   21.2154 H   0  0  0  0  0  0
  -25.9831  -25.9201   18.9716 H   0  0  0  0  0  0
  -23.9764  -27.3190   18.9799 H   0  0  0  0  0  0
  -23.7721  -30.5924   19.4015 H   0  0  0  0  0  0
  -22.7659  -29.2483   19.8495 H   0  0  0  0  0  0
  -25.1288  -36.1904   25.0816 H   0  0  0  0  0  0
  -20.9989  -28.3292   24.1374 H   0  0  0  0  0  0
  -20.5668  -26.2326   23.3608 H   0  0  0  0  0  0
  -21.6650  -26.7442   22.1200 H   0  0  0  0  0  0
  -19.6923  -25.6298   21.1240 H   0  0  0  0  0  0
  -19.6694  -27.3192   20.6724 H   0  0  0  0  0  0
  -17.4204  -26.6661   21.4028 H   0  0  0  0  0  0
  -18.0350  -26.0083   22.9021 H   0  0  0  0  0  0
  -19.7953  -30.7269   24.2259 H   0  0  0  0  0  0
  -17.5035  -31.6270   24.5169 H   0  0  0  0  0  0
  -15.5362  -30.2996   23.7665 H   0  0  0  0  0  0
  -15.8678  -28.0831   22.7073 H   0  0  0  0  0  0
  -24.5923  -30.7062   25.7800 H   0  0  0  0  0  0
  -24.8940  -32.2891   26.4873 H   0  0  0  0  0  0
  -25.8081  -30.8919   27.0231 H   0  0  0  0  0  0
  -26.2945  -29.6729   24.1235 H   0  0  0  0  0  0
  -27.4003  -29.7244   25.4752 H   0  0  0  0  0  0
  -27.8840  -30.4237   23.9493 H   0  0  0  0  0  0
  -27.2602  -33.3580   26.2148 H   0  0  0  0  0  0
  -28.3822  -32.6992   25.0338 H   0  0  0  0  0  0
  -28.0766  -31.8446   26.5380 H   0  0  0  0  0  0
  -28.2562  -38.0121   24.7539 H   0  0  0  0  0  0
  -28.1119  -36.2647   24.6206 H   0  0  0  0  0  0
  -27.2316  -37.1350   25.8858 H   0  0  0  0  0  0
  -20.9388  -29.8782   21.6846 H   0  0  0  0  0  0
  -26.0155  -38.2833   24.1452 H   0  0  0  0  0  0
  -32.2299  -16.9630   21.4206 H   0  0  0  0  0  0
  -32.8934  -19.3089   21.5278 H   0  0  0  0  0  0
  -28.3242  -18.2010   20.0127 H   0  0  0  0  0  0
  -26.9286  -23.3355   22.6712 H   0  0  0  0  0  0
  -28.2064  -23.4989   23.8463 H   0  0  0  0  0  0
  -29.4004  -25.1218   22.3445 H   0  0  0  0  0  0
  -27.7827  -25.6695   22.7332 H   0  0  0  0  0  0
  -28.4239  -21.4353   22.4274 H   0  0  0  0  0  0
  -29.8341  -22.4609   22.3775 H   0  0  0  0  0  0
  -26.9153  -24.7956   20.6589 H   0  0  0  0  0  0
  -27.7417  -20.7011   19.9709 H   0  0  0  0  0  0
  -28.9911  -21.1927   18.8834 H   0  0  0  0  0  0
  -28.8610  -15.7002   20.6928 H   0  0  0  0  0  0
  1 25  1  0  0  0
  1 30  2  0  0  0
  1 84  1  0  0  0
  2  3  1  0  0  0
  2 25  1  0  0  0
  2 87  1  0  0  0
  2 88  1  0  0  0
  3  4  1  0  0  0
  3 89  1  0  0  0
  3 90  1  0  0  0
  4  5  1  0  0  0
  4 91  1  0  0  0
  4 92  1  0  0  0
  5  6  1  0  0  0
  5 26  1  0  0  0
  5 93  1  0  0  0
  6 25  1  0  0  0
  6 94  1  0  0  0
  6 95  1  0  0  0
  7  8  2  0  0  0
  7 26  1  0  0  0
  7 29  1  0  0  0
  8  9  1  0  0  0
  8 22  1  0  0  0
  9 10  1  0  0  0
  9 27  2  0  0  0
 10 11  2  0  0  0
 10 15  1  0  0  0
 11 12  1  0  0  0
 11 96  1  0  0  0
 12 13  2  0  0  0
 12 97  1  0  0  0
 13 14  1  0  0  0
 13 31  1  0  0  0
 14 15  2  0  0  0
 14 98  1  0  0  0
 15 99  1  0  0  0
 16 17  2  0  0  0
 16 21  1  0  0  0
 16 31  1  0  0  0
 17 18  1  0  0  0
 17100  1  0  0  0
 18 19  2  0  0  0
 18101  1  0  0  0
 19 20  1  0  0  0
 19 24  1  0  0  0
 20 21  2  0  0  0
 20102  1  0  0  0
 21 23  1  0  0  0
 22 28  1  0  0  0
 22 32  2  0  0  0
 26 27  1  0  0  0
 28103  1  0  0  0
 28104  1  0  0  0
 29105  1  0  0  0
 29106  1  0  0  0
 33 34  1  0  0  0
 33 66  1  0  0  0
 33 70  2  0  0  0
 34 36  1  0  0  0
 34 59  1  0  0  0
 34107  1  0  0  0
 35 44  2  0  0  0
 35 45  1  0  0  0
 35 68  1  0  0  0
 36 56  1  0  0  0
 36108  1  0  0  0
 37 39  1  0  0  0
 37 47  1  0  0  0
 37 66  1  0  0  0
 37109  1  0  0  0
 38 43  2  0  0  0
 38 46  1  0  0  0
 38 47  1  0  0  0
 39 64  1  0  0  0
 39 67  2  0  0  0
 40 52  1  0  0  0
 40 53  2  0  0  0
 40 58  1  0  0  0
 41110  1  0  0  0
 41111  1  0  0  0
 41112  1  0  0  0
 41 48  1  0  0  0
 42 43  1  0  0  0
 42 66  1  0  0  0
 42113  1  0  0  0
 42114  1  0  0  0
 43 44  1  0  0  0
 44115  1  0  0  0
 45 46  2  0  0  0
 45116  1  0  0  0
 46117  1  0  0  0
 47118  1  0  0  0
 47119  1  0  0  0
 48 56  1  0  0  0
 48 65  1  0  0  0
 48120  1  0  0  0
 49 50  1  0  0  0
 49 53  1  0  0  0
 49 64  1  0  0  0
 49121  1  0  0  0
 50 51  1  0  0  0
 50122  1  0  0  0
 50123  1  0  0  0
 51 52  1  0  0  0
 51124  1  0  0  0
 51125  1  0  0  0
 52126  1  0  0  0
 52127  1  0  0  0
 53 54  1  0  0  0
 54 55  2  0  0  0
 54128  1  0  0  0
 55 57  1  0  0  0
 55129  1  0  0  0
 56 69  2  0  0  0
 57 58  2  0  0  0
 57130  1  0  0  0
 58131  1  0  0  0
 59 60  1  0  0  0
 59 61  1  0  0  0
 59 62  1  0  0  0
 60132  1  0  0  0
 60133  1  0  0  0
 60134  1  0  0  0
 61135  1  0  0  0
 61136  1  0  0  0
 61137  1  0  0  0
 62138  1  0  0  0
 62139  1  0  0  0
 62140  1  0  0  0
 63 65  1  0  0  0
 63141  1  0  0  0
 63142  1  0  0  0
 63143  1  0  0  0
 64144  1  0  0  0
 65145  1  0  0  0
 68 81  1  0  0  0
 71 72  2  0  0  0
 71 75  1  0  0  0
 71146  1  0  0  0
 72 76  1  0  0  0
 72147  1  0  0  0
 73 74  1  0  0  0
 73 75  2  0  0  0
 73148  1  0  0  0
 74 76  2  0  0  0
 74 82  1  0  0  0
 75 84  1  0  0  0
 76 86  1  0  0  0
 77 81  1  0  0  0
 77 83  1  0  0  0
 77 85  2  0  0  0
 78 79  1  0  0  0
 78 80  1  0  0  0
 78149  1  0  0  0
 78150  1  0  0  0
 79 81  1  0  0  0
 79151  1  0  0  0
 79152  1  0  0  0
 80 83  1  0  0  0
 80153  1  0  0  0
 80154  1  0  0  0
 81155  1  0  0  0
 82 83  1  0  0  0
 82156  1  0  0  0
 82157  1  0  0  0
 84158  1  0  0  0
M  ISO  4   1 100  68 101  81 101  84 100
M  END
> <chiral flag>
0

> <version>
0

> <s_m_source_file>
/data/baiqing/PycharmProjects/Reinvent-master-3.2/result/LINK_invent/BTK/process_docking_weight1_custom_product_contain_oxygen_bond_distance_aromatic_linkinvent_7_9_3/rearranged_h_0045.sdf

> <i_m_source_file_index>
42

> <r_mmod_Potential_Energy-OPLS-2005>
215.68180847168

> <r_mmod_Stretch_Energy-OPLS-2005>
129.411071777344

> <r_mmod_Bend_Energy-OPLS-2005>
157.580307006836

> <r_mmod_Torsional_Energy-OPLS-2005>
256.461456298828

> <r_mmod_Improper_Torsional_Energy-OPLS-2005>
7.44673013687134

> <r_mmod_Van_der_Waal_Energy-OPLS-2005>
145.708389282227

> <r_mmod_Electrostatic_Energy-OPLS-2005>
-340.460327148438

> <r_mmod_Solvation_Energy-OPLS-2005>
-228.443511962891

> <b_mmod_Minimization_Converged-OPLS-2005>
0

> <r_mmod_RMS_Derivative-OPLS-2005>
2.43239045143127

$$$$
42
                    3D
 Structure written by MMmdl.
171179  0  0  1  0            999 V2000
  -30.7309  -14.3705   20.6326 C   0  0  0  0  0  0
  -30.4134  -12.2623   19.4047 C   0  0  0  0  0  0
  -29.4987  -12.5450   18.1980 C   0  0  0  0  0  0
  -28.0137  -12.4261   18.5984 C   0  0  0  0  0  0
  -27.6784  -13.2058   19.9009 C   0  0  2  0  0  0
  -28.7141  -12.9135   21.0113 C   0  0  0  0  0  0
  -25.2690  -13.8183   20.5727 C   0  0  0  0  0  0
  -24.1952  -13.0443   20.9178 C   0  0  0  0  0  0
  -24.6493  -11.6890   20.8733 C   0  0  0  0  0  0
  -23.9132  -10.4284   21.0345 C   0  0  0  0  0  0
  -24.3668   -9.4204   21.9128 C   0  0  0  0  0  0
  -23.6335   -8.2241   22.0717 C   0  0  0  0  0  0
  -22.4299   -8.0291   21.3535 C   0  0  0  0  0  0
  -21.9950   -9.0258   20.4622 C   0  0  0  0  0  0
  -22.7273  -10.2131   20.3018 C   0  0  0  0  0  0
  -21.6856   -6.0746   22.5267 C   0  0  0  0  0  0
  -21.4033   -6.5641   23.8210 C   0  0  0  0  0  0
  -21.3677   -5.6783   24.9163 C   0  0  0  0  0  0
  -21.6042   -4.3054   24.7206 C   0  0  0  0  0  0
  -21.8828   -3.8158   23.4332 C   0  0  0  0  0  0
  -21.9211   -4.6979   22.3390 C   0  0  0  0  0  0
  -22.7968  -13.5212   21.1842 C   0  0  0  0  0  0
  -22.1672   -4.2157   21.0974 F   0  0  0  0  0  0
  -21.5626   -3.4536   25.7729 F   0  0  0  0  0  0
  -30.0575  -13.2038   20.4729 N   0  0  0  0  0  0
  -26.3145  -12.9338   20.3466 N   0  0  0  0  0  0
  -25.9415  -11.6480   20.5743 N   0  0  0  0  0  0
  -22.0627  -12.8168   22.0378 N   0  0  0  0  0  0
  -25.4396  -15.1934   20.4056 N   0  0  0  0  0  0
  -31.8022  -14.6342   20.0745 O   0  0  0  0  0  0
  -21.6674   -6.8869   21.4205 O   0  0  0  0  0  0
  -22.3652  -14.5533   20.6704 O   0  0  0  0  0  0
  -24.6184  -31.8699   23.2103 C   0  0  0  0  0  0
  -25.9087  -32.4838   23.8363 C   0  0  1  0  0  0
  -27.2147  -27.4290   20.0891 C   0  0  0  0  0  0
  -25.5960  -33.8629   24.2335 N   0  0  0  0  0  0
  -23.4028  -30.4960   21.5490 C   0  0  2  0  0  0
  -24.8461  -28.9701   20.1073 C   0  0  0  0  0  0
  -22.7423  -29.4654   22.4928 C   0  0  0  0  0  0
  -18.0213  -28.1467   22.8565 C   0  0  0  0  0  0
  -24.1488  -36.7338   23.2635 C   0  0  0  0  0  0
  -25.9351  -30.8310   21.3643 C   0  0  0  0  0  0
  -26.0084  -29.4690   20.7057 C   0  0  0  0  0  0
  -27.1999  -28.7085   20.6858 C   0  0  0  0  0  0
  -26.0344  -26.9533   19.4684 C   0  0  0  0  0  0
  -24.8558  -27.7151   19.4824 C   0  0  0  0  0  0
  -23.6157  -29.8426   20.1578 C   0  0  0  0  0  0
  -25.4111  -36.3106   24.0327 C   0  0  1  0  0  0
  -20.5851  -28.3711   23.1332 C   0  0  2  0  0  0
  -20.6801  -26.9443   22.5443 C   0  0  0  0  0  0
  -19.5668  -26.6393   21.5282 C   0  0  0  0  0  0
  -18.1858  -26.7989   22.1784 C   0  0  0  0  0  0
  -19.1524  -28.8876   23.2896 C   0  0  0  0  0  0
  -18.9498  -30.1511   23.8878 C   0  0  0  0  0  0
  -17.6515  -30.6667   24.0614 C   0  0  0  0  0  0
  -25.9058  -34.9478   23.5142 C   0  0  0  0  0  0
  -16.5363  -29.9245   23.6413 C   0  0  0  0  0  0
  -16.7206  -28.6630   23.0433 C   0  0  0  0  0  0
  -26.4495  -31.6586   25.0693 C   0  0  0  0  0  0
  -25.3740  -31.3722   26.1435 C   0  0  0  0  0  0
  -27.0331  -30.3029   24.6064 C   0  0  0  0  0  0
  -27.6073  -32.4293   25.7470 C   0  0  0  0  0  0
  -27.5588  -37.1822   24.8466 C   0  0  0  0  0  0
  -21.4107  -29.3160   22.3811 N   0  0  0  0  0  0
  -26.4304  -37.3805   23.9398 N   0  0  0  0  0  0
  -24.6688  -31.0780   22.0997 N   0  0  0  0  0  0
  -23.4235  -28.8103   23.2863 O   0  0  0  0  0  0
  -28.3619  -26.6688   20.1540 O   0  0  0  0  0  0
  -26.5577  -34.8937   22.4669 O   0  0  0  0  0  0
  -23.5386  -32.1427   23.7496 O   0  0  0  0  0  0
  -30.1247  -17.1952   19.8320 C   0  0  0  0  0  0
  -29.4887  -18.3546   19.3635 C   0  0  0  0  0  0
  -27.7741  -18.1374   21.1060 C   0  0  0  0  0  0
  -29.5711  -16.4786   20.9196 C   0  0  0  0  0  0
  -28.3280  -18.8280   19.9998 C   0  0  0  0  0  0
  -28.3988  -16.9435   21.5485 C   0  0  0  0  0  0
  -26.5625  -18.6693   21.7452 C   0  0  0  0  0  0
  -25.2420  -21.3511   24.4031 C   0  0  0  0  0  0
  -23.9490  -22.7881   22.8544 C   0  0  0  0  0  0
  -25.2185  -20.8200   21.9471 C   0  0  0  0  0  0
  -27.4848  -24.8510   21.6283 C   0  0  0  0  0  0
  -26.4668  -22.9478   22.8905 C   0  0  0  0  0  0
  -28.1895  -25.2434   20.2934 C   0  0  0  0  0  0
  -25.2475  -21.9706   22.9932 C   0  0  0  0  0  0
  -25.5682  -17.8725   22.1340 N   0  0  0  0  0  0
  -30.1063  -15.2630   21.4021 N   0  0  0  0  0  0
  -26.4436  -20.0032   21.8814 N   0  3  0  0  0  0
  -26.6962  -23.5856   21.5651 N   0  3  0  0  0  0
  -27.7707  -19.9791   19.5475 F   0  0  0  0  0  0
  -27.8762  -16.2141   22.5672 F   0  0  0  0  0  0
  -31.4629  -12.3417   19.1183 H   0  0  0  0  0  0
  -30.2662  -11.2359   19.7449 H   0  0  0  0  0  0
  -29.7156  -11.8419   17.3948 H   0  0  0  0  0  0
  -29.6999  -13.5402   17.7920 H   0  0  0  0  0  0
  -27.7829  -11.3667   18.7240 H   0  0  0  0  0  0
  -27.3809  -12.7751   17.7838 H   0  0  0  0  0  0
  -27.7436  -14.2678   19.6611 H   0  0  0  0  0  0
  -28.6684  -11.8670   21.3217 H   0  0  0  0  0  0
  -28.4745  -13.4724   21.9147 H   0  0  0  0  0  0
  -25.2799   -9.5689   22.4715 H   0  0  0  0  0  0
  -24.0038   -7.4637   22.7463 H   0  0  0  0  0  0
  -21.0852   -8.8786   19.8959 H   0  0  0  0  0  0
  -22.3691  -10.9695   19.6194 H   0  0  0  0  0  0
  -21.2024   -7.6147   23.9710 H   0  0  0  0  0  0
  -21.1486   -6.0518   25.9067 H   0  0  0  0  0  0
  -22.0597   -2.7611   23.2831 H   0  0  0  0  0  0
  -22.4274  -11.9834   22.4775 H   0  0  0  0  0  0
  -21.1256  -13.1207   22.2594 H   0  0  0  0  0  0
  -24.5791  -15.7032   20.2460 H   0  0  0  0  0  0
  -26.1665  -15.4804   19.7657 H   0  0  0  0  0  0
  -26.7180  -32.5537   23.1131 H   0  0  0  0  0  0
  -25.0110  -33.9770   25.0488 H   0  0  0  0  0  0
  -22.6978  -31.3174   21.4130 H   0  0  0  0  0  0
  -23.3747  -35.9687   23.3299 H   0  0  0  0  0  0
  -24.3603  -36.8945   22.2058 H   0  0  0  0  0  0
  -23.7255  -37.6562   23.6640 H   0  0  0  0  0  0
  -26.0516  -31.5979   20.5966 H   0  0  0  0  0  0
  -26.8292  -30.8841   21.9754 H   0  0  0  0  0  0
  -28.0999  -29.0868   21.1462 H   0  0  0  0  0  0
  -25.9881  -26.0046   18.9581 H   0  0  0  0  0  0
  -23.9631  -27.3340   19.0085 H   0  0  0  0  0  0
  -23.7494  -30.6272   19.4136 H   0  0  0  0  0  0
  -22.7352  -29.2781   19.8477 H   0  0  0  0  0  0
  -25.1278  -36.1982   25.0828 H   0  0  0  0  0  0
  -20.9943  -28.3478   24.1440 H   0  0  0  0  0  0
  -20.5750  -26.2317   23.3654 H   0  0  0  0  0  0
  -21.6720  -26.7522   22.1270 H   0  0  0  0  0  0
  -19.6657  -25.6310   21.1295 H   0  0  0  0  0  0
  -19.6502  -27.3202   20.6794 H   0  0  0  0  0  0
  -17.4008  -26.6728   21.4311 H   0  0  0  0  0  0
  -18.0280  -26.0202   22.9258 H   0  0  0  0  0  0
  -19.7965  -30.7293   24.2243 H   0  0  0  0  0  0
  -17.5195  -31.6337   24.5357 H   0  0  0  0  0  0
  -15.5424  -30.3235   23.7881 H   0  0  0  0  0  0
  -15.8531  -28.1080   22.7101 H   0  0  0  0  0  0
  -24.5898  -30.7107   25.7755 H   0  0  0  0  0  0
  -24.8947  -32.2899   26.4853 H   0  0  0  0  0  0
  -25.8064  -30.8885   27.0192 H   0  0  0  0  0  0
  -26.2876  -29.6783   24.1139 H   0  0  0  0  0  0
  -27.4158  -29.7297   25.4504 H   0  0  0  0  0  0
  -27.8678  -30.4380   23.9188 H   0  0  0  0  0  0
  -27.2706  -33.3572   26.2102 H   0  0  0  0  0  0
  -28.3866  -32.6875   25.0292 H   0  0  0  0  0  0
  -28.0762  -31.8363   26.5326 H   0  0  0  0  0  0
  -28.2599  -38.0118   24.7498 H   0  0  0  0  0  0
  -28.1074  -36.2648   24.6289 H   0  0  0  0  0  0
  -27.2308  -37.1488   25.8871 H   0  0  0  0  0  0
  -20.9217  -29.9239   21.7418 H   0  0  0  0  0  0
  -26.0187  -38.2892   24.1399 H   0  0  0  0  0  0
  -31.0279  -16.8702   19.3346 H   0  0  0  0  0  0
  -29.9018  -18.9045   18.5304 H   0  0  0  0  0  0
  -24.3678  -20.7135   24.5610 H   0  0  0  0  0  0
  -25.2133  -22.1209   25.1748 H   0  0  0  0  0  0
  -26.1286  -20.7388   24.5840 H   0  0  0  0  0  0
  -23.0587  -22.1813   23.0381 H   0  0  0  0  0  0
  -23.8440  -23.2126   21.8552 H   0  0  0  0  0  0
  -23.9209  -23.6139   23.5682 H   0  0  0  0  0  0
  -25.0757  -21.2379   20.9487 H   0  0  0  0  0  0
  -24.3465  -20.1888   22.1186 H   0  0  0  0  0  0
  -26.7750  -25.6210   21.9235 H   0  0  0  0  0  0
  -28.2306  -24.8178   22.4239 H   0  0  0  0  0  0
  -27.3868  -22.4422   23.1844 H   0  0  0  0  0  0
  -26.3191  -23.7391   23.6287 H   0  0  0  0  0  0
  -27.6634  -24.8353   19.4300 H   0  0  0  0  0  0
  -29.1774  -24.7778   20.2548 H   0  0  0  0  0  0
  -25.6391  -16.8735   21.9678 H   0  0  0  0  0  0
  -24.7881  -18.2159   22.6696 H   0  0  0  0  0  0
  -29.4964  -14.8327   22.0834 H   0  0  0  0  0  0
  -27.2419  -20.4526   21.4567 H   0  0  0  0  0  0
  -27.1629  -22.9278   20.9631 H   0  0  0  0  0  0
  -25.8046  -23.8073   21.1463 H   0  0  0  0  0  0
  1 25  1  0  0  0
  1 30  2  0  0  0
  1 86  1  0  0  0
  2  3  1  0  0  0
  2 25  1  0  0  0
  2 91  1  0  0  0
  2 92  1  0  0  0
  3  4  1  0  0  0
  3 93  1  0  0  0
  3 94  1  0  0  0
  4  5  1  0  0  0
  4 95  1  0  0  0
  4 96  1  0  0  0
  5  6  1  0  0  0
  5 26  1  0  0  0
  5 97  1  0  0  0
  6 25  1  0  0  0
  6 98  1  0  0  0
  6 99  1  0  0  0
  7  8  2  0  0  0
  7 26  1  0  0  0
  7 29  1  0  0  0
  8  9  1  0  0  0
  8 22  1  0  0  0
  9 10  1  0  0  0
  9 27  2  0  0  0
 10 11  2  0  0  0
 10 15  1  0  0  0
 11 12  1  0  0  0
 11100  1  0  0  0
 12 13  2  0  0  0
 12101  1  0  0  0
 13 14  1  0  0  0
 13 31  1  0  0  0
 14 15  2  0  0  0
 14102  1  0  0  0
 15103  1  0  0  0
 16 17  2  0  0  0
 16 21  1  0  0  0
 16 31  1  0  0  0
 17 18  1  0  0  0
 17104  1  0  0  0
 18 19  2  0  0  0
 18105  1  0  0  0
 19 20  1  0  0  0
 19 24  1  0  0  0
 20 21  2  0  0  0
 20106  1  0  0  0
 21 23  1  0  0  0
 22 28  1  0  0  0
 22 32  2  0  0  0
 26 27  1  0  0  0
 28107  1  0  0  0
 28108  1  0  0  0
 29109  1  0  0  0
 29110  1  0  0  0
 33 34  1  0  0  0
 33 66  1  0  0  0
 33 70  2  0  0  0
 34 36  1  0  0  0
 34 59  1  0  0  0
 34111  1  0  0  0
 35 44  2  0  0  0
 35 45  1  0  0  0
 35 68  1  0  0  0
 36 56  1  0  0  0
 36112  1  0  0  0
 37 39  1  0  0  0
 37 47  1  0  0  0
 37 66  1  0  0  0
 37113  1  0  0  0
 38 43  2  0  0  0
 38 46  1  0  0  0
 38 47  1  0  0  0
 39 64  1  0  0  0
 39 67  2  0  0  0
 40 52  1  0  0  0
 40 53  2  0  0  0
 40 58  1  0  0  0
 41114  1  0  0  0
 41115  1  0  0  0
 41116  1  0  0  0
 41 48  1  0  0  0
 42 43  1  0  0  0
 42 66  1  0  0  0
 42117  1  0  0  0
 42118  1  0  0  0
 43 44  1  0  0  0
 44119  1  0  0  0
 45 46  2  0  0  0
 45120  1  0  0  0
 46121  1  0  0  0
 47122  1  0  0  0
 47123  1  0  0  0
 48 56  1  0  0  0
 48 65  1  0  0  0
 48124  1  0  0  0
 49 50  1  0  0  0
 49 53  1  0  0  0
 49 64  1  0  0  0
 49125  1  0  0  0
 50 51  1  0  0  0
 50126  1  0  0  0
 50127  1  0  0  0
 51 52  1  0  0  0
 51128  1  0  0  0
 51129  1  0  0  0
 52130  1  0  0  0
 52131  1  0  0  0
 53 54  1  0  0  0
 54 55  2  0  0  0
 54132  1  0  0  0
 55 57  1  0  0  0
 55133  1  0  0  0
 56 69  2  0  0  0
 57 58  2  0  0  0
 57134  1  0  0  0
 58135  1  0  0  0
 59 60  1  0  0  0
 59 61  1  0  0  0
 59 62  1  0  0  0
 60136  1  0  0  0
 60137  1  0  0  0
 60138  1  0  0  0
 61139  1  0  0  0
 61140  1  0  0  0
 61141  1  0  0  0
 62142  1  0  0  0
 62143  1  0  0  0
 62144  1  0  0  0
 63 65  1  0  0  0
 63145  1  0  0  0
 63146  1  0  0  0
 63147  1  0  0  0
 64148  1  0  0  0
 65149  1  0  0  0
 68 83  1  0  0  0
 71 72  2  0  0  0
 71 74  1  0  0  0
 71150  1  0  0  0
 72 75  1  0  0  0
 72151  1  0  0  0
 73 75  2  0  0  0
 73 76  1  0  0  0
 73 77  1  0  0  0
 74 76  2  0  0  0
 74 86  1  0  0  0
 75 89  1  0  0  0
 76 90  1  0  0  0
 77 85  1  0  0  0
 77 87  2  0  0  0
 78152  1  0  0  0
 78153  1  0  0  0
 78154  1  0  0  0
 78 84  1  0  0  0
 79 84  1  0  0  0
 79155  1  0  0  0
 79156  1  0  0  0
 79157  1  0  0  0
 80 84  1  0  0  0
 80 87  1  0  0  0
 80158  1  0  0  0
 80159  1  0  0  0
 81 83  1  0  0  0
 81 88  1  0  0  0
 81160  1  0  0  0
 81161  1  0  0  0
 82 84  1  0  0  0
 82 88  1  0  0  0
 82162  1  0  0  0
 82163  1  0  0  0
 83164  1  0  0  0
 83165  1  0  0  0
 85166  1  0  0  0
 85167  1  0  0  0
 86168  1  0  0  0
 87169  1  0  0  0
 88170  1  0  0  0
 88171  1  0  0  0
M  CHG  2  87   1  88   1
M  ISO  4   1 100  68 101  83 101  86 100
M  END
> <chiral flag>
0

> <version>
0

> <s_m_source_file>
/data/baiqing/PycharmProjects/Reinvent-master-3.2/result/LINK_invent/BTK/process_docking_weight1_custom_product_contain_oxygen_bond_distance_aromatic_linkinvent_7_9_3/rearranged_h_0045.sdf

> <i_m_source_file_index>
43

> <r_mmod_Potential_Energy-OPLS-2005>
-337.849060058594

> <r_mmod_Stretch_Energy-OPLS-2005>
39.2472229003906

> <r_mmod_Bend_Energy-OPLS-2005>
111.93546295166

> <r_mmod_Torsional_Energy-OPLS-2005>
287.712646484375

> <r_mmod_Improper_Torsional_Energy-OPLS-2005>
12.4242830276489

> <r_mmod_Van_der_Waal_Energy-OPLS-2005>
159.646682739258

> <r_mmod_Electrostatic_Energy-OPLS-2005>
-85.3800048828125

> <r_mmod_Solvation_Energy-OPLS-2005>
-875.281677246094

> <b_mmod_Minimization_Converged-OPLS-2005>
0

> <r_mmod_RMS_Derivative-OPLS-2005>
7.43029642105103

$$$$
43
                    3D
 Structure written by MMmdl.
154162  0  0  1  0            999 V2000
  -30.5649  -14.7631   20.4374 C   0  0  0  0  0  0
  -30.4480  -12.4643   19.4531 C   0  0  0  0  0  0
  -29.5101  -12.4888   18.2258 C   0  0  0  0  0  0
  -28.0396  -12.2988   18.6550 C   0  0  0  0  0  0
  -27.6380  -13.2165   19.8403 C   0  0  2  0  0  0
  -28.6882  -13.1646   20.9680 C   0  0  0  0  0  0
  -25.2517  -13.8165   20.5685 C   0  0  0  0  0  0
  -24.1798  -13.0423   20.9203 C   0  0  0  0  0  0
  -24.6383  -11.6901   20.8750 C   0  0  0  0  0  0
  -23.9060  -10.4287   21.0405 C   0  0  0  0  0  0
  -24.3620   -9.4208   21.9176 C   0  0  0  0  0  0
  -23.6298   -8.2244   22.0749 C   0  0  0  0  0  0
  -22.4277   -8.0281   21.3542 C   0  0  0  0  0  0
  -21.9909   -9.0252   20.4641 C   0  0  0  0  0  0
  -22.7239  -10.2130   20.3049 C   0  0  0  0  0  0
  -21.6854   -6.0736   22.5278 C   0  0  0  0  0  0
  -21.4010   -6.5633   23.8212 C   0  0  0  0  0  0
  -21.3654   -5.6785   24.9171 C   0  0  0  0  0  0
  -21.6048   -4.3050   24.7222 C   0  0  0  0  0  0
  -21.8827   -3.8143   23.4341 C   0  0  0  0  0  0
  -21.9194   -4.6964   22.3395 C   0  0  0  0  0  0
  -22.7828  -13.5213   21.1877 C   0  0  0  0  0  0
  -22.1666   -4.2151   21.0975 F   0  0  0  0  0  0
  -21.5632   -3.4523   25.7731 F   0  0  0  0  0  0
  -29.9800  -13.5220   20.3695 N   0  0  0  0  0  0
  -26.2927  -12.9336   20.3256 N   0  0  0  0  0  0
  -25.9305  -11.6499   20.5748 N   0  0  0  0  0  0
  -22.0482  -12.8182   22.0434 N   0  0  0  0  0  0
  -25.4205  -15.1892   20.4120 N   0  0  0  0  0  0
  -31.7820  -14.8935   20.2772 O   0  0  0  0  0  0
  -21.6647   -6.8872   21.4240 O   0  0  0  0  0  0
  -22.3506  -14.5520   20.6735 O   0  0  0  0  0  0
  -24.6328  -31.8573   23.1961 C   0  0  0  0  0  0
  -25.9153  -32.4762   23.8321 C   0  0  1  0  0  0
  -27.2116  -27.2499   20.1188 C   0  0  0  0  0  0
  -25.5948  -33.8568   24.2248 N   0  0  0  0  0  0
  -23.4284  -30.4790   21.5432 C   0  0  2  0  0  0
  -24.8729  -28.9298   20.1100 C   0  0  0  0  0  0
  -22.7499  -29.4614   22.4924 C   0  0  0  0  0  0
  -18.0292  -28.1390   22.8482 C   0  0  0  0  0  0
  -24.1507  -36.7304   23.2636 C   0  0  0  0  0  0
  -25.9778  -30.7641   21.3788 C   0  0  0  0  0  0
  -26.0486  -29.3872   20.7181 C   0  0  0  0  0  0
  -27.2210  -28.5600   20.7120 C   0  0  0  0  0  0
  -26.0099  -26.8713   19.4760 C   0  0  0  0  0  0
  -24.8606  -27.6802   19.4785 C   0  0  0  0  0  0
  -23.6438  -29.8159   20.1596 C   0  0  0  0  0  0
  -25.4134  -36.3081   24.0319 C   0  0  1  0  0  0
  -20.5895  -28.3708   23.1275 C   0  0  2  0  0  0
  -20.6802  -26.9431   22.5404 C   0  0  0  0  0  0
  -19.5771  -26.6386   21.5216 C   0  0  0  0  0  0
  -18.1944  -26.7933   22.1623 C   0  0  0  0  0  0
  -19.1542  -28.8861   23.2880 C   0  0  0  0  0  0
  -18.9468  -30.1462   23.8894 C   0  0  0  0  0  0
  -17.6469  -30.6592   24.0553 C   0  0  0  0  0  0
  -25.9070  -34.9449   23.5080 C   0  0  0  0  0  0
  -16.5359  -29.9085   23.6338 C   0  0  0  0  0  0
  -16.7278  -28.6505   23.0354 C   0  0  0  0  0  0
  -26.4496  -31.6580   25.0712 C   0  0  0  0  0  0
  -25.3703  -31.3748   26.1414 C   0  0  0  0  0  0
  -27.0316  -30.2981   24.6206 C   0  0  0  0  0  0
  -27.6043  -32.4314   25.7501 C   0  0  0  0  0  0
  -27.5591  -37.1814   24.8461 C   0  0  0  0  0  0
  -21.4205  -29.3053   22.3665 N   0  0  0  0  0  0
  -26.4304  -37.3781   23.9395 N   0  0  0  0  0  0
  -24.6992  -31.0510   22.0956 N   0  0  0  0  0  0
  -23.4203  -28.8169   23.3027 O   0  0  0  0  0  0
  -28.2909  -26.3283   20.1768 O   0  0  0  0  0  0
  -26.5638  -34.8916   22.4643 O   0  0  0  0  0  0
  -23.5475  -32.1414   23.7251 O   0  0  0  0  0  0
  -28.4251  -18.3991   22.6548 C   0  0  0  0  0  0
  -28.8685  -17.1920   22.0829 C   0  0  0  0  0  0
  -29.7602  -18.4654   20.2234 C   0  0  0  0  0  0
  -28.6288  -19.6577   22.0381 C   0  0  0  0  0  0
  -29.3231  -19.7385   20.7973 C   0  0  0  0  0  0
  -29.5500  -17.1680   20.8534 C   0  0  0  0  0  0
  -29.0724  -23.7401   20.2791 C   0  0  0  0  0  0
  -29.6780  -21.1601   20.1472 C   0  0  0  0  0  0
  -27.9677  -24.8632   19.9899 C   0  0  0  0  0  0
  -28.0989  -20.9043   22.7494 C   0  0  0  0  0  0
  -29.7045  -15.8319   20.2385 N   0  0  0  0  0  0
  -28.7614  -22.3875   20.1741 N   0  0  0  0  0  0
  -30.2169  -24.1015   20.5609 O   0  0  0  0  0  0
  -29.1061  -21.6920   23.1229 F   0  0  0  0  0  0
  -27.3708  -20.6077   23.8271 F   0  0  0  0  0  0
  -31.4812  -12.6292   19.1430 H   0  0  0  0  0  0
  -30.4244  -11.4903   19.9457 H   0  0  0  0  0  0
  -29.7965  -11.7097   17.5179 H   0  0  0  0  0  0
  -29.6200  -13.4385   17.6996 H   0  0  0  0  0  0
  -27.9188  -11.2543   18.9474 H   0  0  0  0  0  0
  -27.3715  -12.4538   17.8072 H   0  0  0  0  0  0
  -27.6198  -14.2275   19.4356 H   0  0  0  0  0  0
  -28.7322  -12.1736   21.4222 H   0  0  0  0  0  0
  -28.4259  -13.8584   21.7685 H   0  0  0  0  0  0
  -25.2766   -9.5673   22.4751 H   0  0  0  0  0  0
  -24.0007   -7.4618   22.7451 H   0  0  0  0  0  0
  -21.0846   -8.8770   19.8934 H   0  0  0  0  0  0
  -22.3702  -10.9672   19.6155 H   0  0  0  0  0  0
  -21.2007   -7.6138   23.9714 H   0  0  0  0  0  0
  -21.1465   -6.0509   25.9071 H   0  0  0  0  0  0
  -22.0612   -2.7606   23.2840 H   0  0  0  0  0  0
  -22.4103  -11.9833   22.4798 H   0  0  0  0  0  0
  -21.1103  -13.1194   22.2652 H   0  0  0  0  0  0
  -24.6524  -15.8394   20.5371 H   0  0  0  0  0  0
  -26.2719  -15.6445   20.1115 H   0  0  0  0  0  0
  -26.7215  -32.5422   23.1066 H   0  0  0  0  0  0
  -25.0068  -33.9709   25.0369 H   0  0  0  0  0  0
  -22.7242  -31.3012   21.3999 H   0  0  0  0  0  0
  -23.3761  -35.9643   23.3292 H   0  0  0  0  0  0
  -24.3605  -36.8931   22.2052 H   0  0  0  0  0  0
  -23.7265  -37.6504   23.6666 H   0  0  0  0  0  0
  -26.1158  -31.5242   20.6085 H   0  0  0  0  0  0
  -26.8570  -30.8139   22.0105 H   0  0  0  0  0  0
  -28.1187  -28.9011   21.2093 H   0  0  0  0  0  0
  -25.9133  -25.9210   18.9744 H   0  0  0  0  0  0
  -23.9618  -27.3234   18.9931 H   0  0  0  0  0  0
  -23.7594  -30.5942   19.4037 H   0  0  0  0  0  0
  -22.7635  -29.2444   19.8589 H   0  0  0  0  0  0
  -25.1321  -36.1924   25.0812 H   0  0  0  0  0  0
  -20.9990  -28.3282   24.1399 H   0  0  0  0  0  0
  -20.5731  -26.2309   23.3607 H   0  0  0  0  0  0
  -21.6670  -26.7483   22.1180 H   0  0  0  0  0  0
  -19.6947  -25.6297   21.1256 H   0  0  0  0  0  0
  -19.6708  -27.3190   20.6745 H   0  0  0  0  0  0
  -17.4225  -26.6664   21.4020 H   0  0  0  0  0  0
  -18.0346  -26.0084   22.9028 H   0  0  0  0  0  0
  -19.7942  -30.7272   24.2266 H   0  0  0  0  0  0
  -17.5024  -31.6274   24.5148 H   0  0  0  0  0  0
  -15.5360  -30.2979   23.7673 H   0  0  0  0  0  0
  -15.8682  -28.0818   22.7079 H   0  0  0  0  0  0
  -24.5892  -30.7079   25.7748 H   0  0  0  0  0  0
  -24.8866  -32.2914   26.4797 H   0  0  0  0  0  0
  -25.7994  -30.8961   27.0219 H   0  0  0  0  0  0
  -26.2892  -29.6747   24.1211 H   0  0  0  0  0  0
  -27.3944  -29.7223   25.4728 H   0  0  0  0  0  0
  -27.8799  -30.4217   23.9474 H   0  0  0  0  0  0
  -27.2651  -33.3619   26.2059 H   0  0  0  0  0  0
  -28.3876  -32.6864   25.0355 H   0  0  0  0  0  0
  -28.0683  -31.8452   26.5435 H   0  0  0  0  0  0
  -28.2606  -38.0116   24.7511 H   0  0  0  0  0  0
  -28.1083  -36.2642   24.6284 H   0  0  0  0  0  0
  -27.2306  -37.1472   25.8862 H   0  0  0  0  0  0
  -20.9388  -29.8751   21.6852 H   0  0  0  0  0  0
  -26.0182  -38.2856   24.1363 H   0  0  0  0  0  0
  -27.8912  -18.3370   23.5925 H   0  0  0  0  0  0
  -28.6231  -16.2633   22.5811 H   0  0  0  0  0  0
  -30.2512  -18.4864   19.2603 H   0  0  0  0  0  0
  -29.9066  -20.9740   19.0979 H   0  0  0  0  0  0
  -30.6310  -21.4519   20.5887 H   0  0  0  0  0  0
  -27.1036  -24.6120   20.6067 H   0  0  0  0  0  0
  -27.6770  -24.7048   18.9509 H   0  0  0  0  0  0
  -27.4286  -21.4771   22.1105 H   0  0  0  0  0  0
  -28.8120  -15.4649   19.9483 H   0  0  0  0  0  0
  -27.8009  -22.1936   19.9222 H   0  0  0  0  0  0
  1 25  1  0  0  0
  1 30  2  0  0  0
  1 81  1  0  0  0
  2  3  1  0  0  0
  2 25  1  0  0  0
  2 86  1  0  0  0
  2 87  1  0  0  0
  3  4  1  0  0  0
  3 88  1  0  0  0
  3 89  1  0  0  0
  4  5  1  0  0  0
  4 90  1  0  0  0
  4 91  1  0  0  0
  5  6  1  0  0  0
  5 26  1  0  0  0
  5 92  1  0  0  0
  6 25  1  0  0  0
  6 93  1  0  0  0
  6 94  1  0  0  0
  7  8  2  0  0  0
  7 26  1  0  0  0
  7 29  1  0  0  0
  8  9  1  0  0  0
  8 22  1  0  0  0
  9 10  1  0  0  0
  9 27  2  0  0  0
 10 11  2  0  0  0
 10 15  1  0  0  0
 11 12  1  0  0  0
 11 95  1  0  0  0
 12 13  2  0  0  0
 12 96  1  0  0  0
 13 14  1  0  0  0
 13 31  1  0  0  0
 14 15  2  0  0  0
 14 97  1  0  0  0
 15 98  1  0  0  0
 16 17  2  0  0  0
 16 21  1  0  0  0
 16 31  1  0  0  0
 17 18  1  0  0  0
 17 99  1  0  0  0
 18 19  2  0  0  0
 18100  1  0  0  0
 19 20  1  0  0  0
 19 24  1  0  0  0
 20 21  2  0  0  0
 20101  1  0  0  0
 21 23  1  0  0  0
 22 28  1  0  0  0
 22 32  2  0  0  0
 26 27  1  0  0  0
 28102  1  0  0  0
 28103  1  0  0  0
 29104  1  0  0  0
 29105  1  0  0  0
 33 34  1  0  0  0
 33 66  1  0  0  0
 33 70  2  0  0  0
 34 36  1  0  0  0
 34 59  1  0  0  0
 34106  1  0  0  0
 35 44  2  0  0  0
 35 45  1  0  0  0
 35 68  1  0  0  0
 36 56  1  0  0  0
 36107  1  0  0  0
 37 39  1  0  0  0
 37 47  1  0  0  0
 37 66  1  0  0  0
 37108  1  0  0  0
 38 43  2  0  0  0
 38 46  1  0  0  0
 38 47  1  0  0  0
 39 64  1  0  0  0
 39 67  2  0  0  0
 40 52  1  0  0  0
 40 53  2  0  0  0
 40 58  1  0  0  0
 41109  1  0  0  0
 41110  1  0  0  0
 41111  1  0  0  0
 41 48  1  0  0  0
 42 43  1  0  0  0
 42 66  1  0  0  0
 42112  1  0  0  0
 42113  1  0  0  0
 43 44  1  0  0  0
 44114  1  0  0  0
 45 46  2  0  0  0
 45115  1  0  0  0
 46116  1  0  0  0
 47117  1  0  0  0
 47118  1  0  0  0
 48 56  1  0  0  0
 48 65  1  0  0  0
 48119  1  0  0  0
 49 50  1  0  0  0
 49 53  1  0  0  0
 49 64  1  0  0  0
 49120  1  0  0  0
 50 51  1  0  0  0
 50121  1  0  0  0
 50122  1  0  0  0
 51 52  1  0  0  0
 51123  1  0  0  0
 51124  1  0  0  0
 52125  1  0  0  0
 52126  1  0  0  0
 53 54  1  0  0  0
 54 55  2  0  0  0
 54127  1  0  0  0
 55 57  1  0  0  0
 55128  1  0  0  0
 56 69  2  0  0  0
 57 58  2  0  0  0
 57129  1  0  0  0
 58130  1  0  0  0
 59 60  1  0  0  0
 59 61  1  0  0  0
 59 62  1  0  0  0
 60131  1  0  0  0
 60132  1  0  0  0
 60133  1  0  0  0
 61134  1  0  0  0
 61135  1  0  0  0
 61136  1  0  0  0
 62137  1  0  0  0
 62138  1  0  0  0
 62139  1  0  0  0
 63 65  1  0  0  0
 63140  1  0  0  0
 63141  1  0  0  0
 63142  1  0  0  0
 64143  1  0  0  0
 65144  1  0  0  0
 68 79  1  0  0  0
 71 72  2  0  0  0
 71 74  1  0  0  0
 71145  1  0  0  0
 72 76  1  0  0  0
 72146  1  0  0  0
 73 75  1  0  0  0
 73 76  2  0  0  0
 73147  1  0  0  0
 74 75  2  0  0  0
 74 80  1  0  0  0
 75 78  1  0  0  0
 76 81  1  0  0  0
 77 79  1  0  0  0
 77 82  1  0  0  0
 77 83  2  0  0  0
 78 82  1  0  0  0
 78148  1  0  0  0
 78149  1  0  0  0
 79150  1  0  0  0
 79151  1  0  0  0
 80 84  1  0  0  0
 80 85  1  0  0  0
 80152  1  0  0  0
 81153  1  0  0  0
 82154  1  0  0  0
M  ISO  4   1 100  68 101  79 101  81 100
M  END
> <chiral flag>
0

> <version>
0

> <s_m_source_file>
/data/baiqing/PycharmProjects/Reinvent-master-3.2/result/LINK_invent/BTK/process_docking_weight1_custom_product_contain_oxygen_bond_distance_aromatic_linkinvent_7_9_3/rearranged_h_0045.sdf

> <i_m_source_file_index>
44

> <r_mmod_Potential_Energy-OPLS-2005>
166.674911499023

> <r_mmod_Stretch_Energy-OPLS-2005>
124.114158630371

> <r_mmod_Bend_Energy-OPLS-2005>
170.948852539062

> <r_mmod_Torsional_Energy-OPLS-2005>
259.942474365234

> <r_mmod_Improper_Torsional_Energy-OPLS-2005>
17.8249130249023

> <r_mmod_Van_der_Waal_Energy-OPLS-2005>
139.413223266602

> <r_mmod_Electrostatic_Energy-OPLS-2005>
-391.6591796875

> <r_mmod_Solvation_Energy-OPLS-2005>
-256.098937988281

> <b_mmod_Minimization_Converged-OPLS-2005>
0

> <r_mmod_RMS_Derivative-OPLS-2005>
2.63657546043396

$$$$
44
                    3D
 Structure written by MMmdl.
154162  0  0  1  0            999 V2000
  -30.6229  -14.7465   20.4275 C   0  0  0  0  0  0
  -30.4259  -12.4483   19.4741 C   0  0  0  0  0  0
  -29.5040  -12.4967   18.2366 C   0  0  0  0  0  0
  -28.0320  -12.3241   18.6544 C   0  0  0  0  0  0
  -27.6389  -13.2331   19.8485 C   0  0  2  0  0  0
  -28.6859  -13.1846   20.9826 C   0  0  0  0  0  0
  -25.2498  -13.8204   20.5701 C   0  0  0  0  0  0
  -24.1797  -13.0448   20.9228 C   0  0  0  0  0  0
  -24.6386  -11.6927   20.8764 C   0  0  0  0  0  0
  -23.9067  -10.4297   21.0412 C   0  0  0  0  0  0
  -24.3620   -9.4208   21.9187 C   0  0  0  0  0  0
  -23.6295   -8.2241   22.0752 C   0  0  0  0  0  0
  -22.4278   -8.0277   21.3541 C   0  0  0  0  0  0
  -21.9916   -9.0254   20.4646 C   0  0  0  0  0  0
  -22.7243  -10.2133   20.3058 C   0  0  0  0  0  0
  -21.6855   -6.0730   22.5273 C   0  0  0  0  0  0
  -21.4014   -6.5636   23.8204 C   0  0  0  0  0  0
  -21.3659   -5.6791   24.9171 C   0  0  0  0  0  0
  -21.6045   -4.3054   24.7223 C   0  0  0  0  0  0
  -21.8821   -3.8142   23.4345 C   0  0  0  0  0  0
  -21.9193   -4.6957   22.3400 C   0  0  0  0  0  0
  -22.7817  -13.5226   21.1879 C   0  0  0  0  0  0
  -22.1663   -4.2144   21.0979 F   0  0  0  0  0  0
  -21.5629   -3.4538   25.7735 F   0  0  0  0  0  0
  -29.9868  -13.5246   20.3934 N   0  0  0  0  0  0
  -26.2926  -12.9414   20.3296 N   0  0  0  0  0  0
  -25.9319  -11.6556   20.5785 N   0  0  0  0  0  0
  -22.0467  -12.8199   22.0423 N   0  0  0  0  0  0
  -25.4182  -15.1924   20.4061 N   0  0  0  0  0  0
  -31.8223  -14.7937   20.1470 O   0  0  0  0  0  0
  -21.6640   -6.8875   21.4236 O   0  0  0  0  0  0
  -22.3499  -14.5536   20.6731 O   0  0  0  0  0  0
  -24.6317  -31.8530   23.1970 C   0  0  0  0  0  0
  -25.9139  -32.4730   23.8325 C   0  0  1  0  0  0
  -27.2204  -27.2574   20.1197 C   0  0  0  0  0  0
  -25.5934  -33.8536   24.2249 N   0  0  0  0  0  0
  -23.4284  -30.4783   21.5374 C   0  0  2  0  0  0
  -24.8736  -28.9199   20.1057 C   0  0  0  0  0  0
  -22.7501  -29.4619   22.4877 C   0  0  0  0  0  0
  -18.0300  -28.1392   22.8464 C   0  0  0  0  0  0
  -24.1493  -36.7271   23.2646 C   0  0  0  0  0  0
  -25.9754  -30.7612   21.3800 C   0  0  0  0  0  0
  -26.0433  -29.3855   20.7169 C   0  0  0  0  0  0
  -27.2156  -28.5655   20.7132 C   0  0  0  0  0  0
  -26.0215  -26.8493   19.4942 C   0  0  0  0  0  0
  -24.8681  -27.6601   19.4852 C   0  0  0  0  0  0
  -23.6463  -29.8098   20.1538 C   0  0  0  0  0  0
  -25.4118  -36.3058   24.0340 C   0  0  1  0  0  0
  -20.5907  -28.3715   23.1229 C   0  0  2  0  0  0
  -20.6788  -26.9429   22.5382 C   0  0  0  0  0  0
  -19.5761  -26.6384   21.5188 C   0  0  0  0  0  0
  -18.1941  -26.7929   22.1603 C   0  0  0  0  0  0
  -19.1558  -28.8866   23.2840 C   0  0  0  0  0  0
  -18.9488  -30.1459   23.8875 C   0  0  0  0  0  0
  -17.6495  -30.6588   24.0566 C   0  0  0  0  0  0
  -25.9062  -34.9426   23.5097 C   0  0  0  0  0  0
  -16.5382  -29.9091   23.6339 C   0  0  0  0  0  0
  -16.7293  -28.6509   23.0350 C   0  0  0  0  0  0
  -26.4500  -31.6568   25.0728 C   0  0  0  0  0  0
  -25.3731  -31.3718   26.1460 C   0  0  0  0  0  0
  -27.0371  -30.2990   24.6235 C   0  0  0  0  0  0
  -27.6043  -32.4338   25.7495 C   0  0  0  0  0  0
  -27.5580  -37.1789   24.8471 C   0  0  0  0  0  0
  -21.4215  -29.3053   22.3605 N   0  0  0  0  0  0
  -26.4288  -37.3761   23.9420 N   0  0  0  0  0  0
  -24.6971  -31.0508   22.0931 N   0  0  0  0  0  0
  -23.4193  -28.8165   23.2993 O   0  0  0  0  0  0
  -28.3407  -26.3994   20.2045 O   0  0  0  0  0  0
  -26.5633  -34.8904   22.4668 O   0  0  0  0  0  0
  -23.5468  -32.1353   23.7272 O   0  0  0  0  0  0
  -31.7197  -19.1131   19.6022 C   0  0  0  0  0  0
  -30.7936  -20.1422   19.8506 C   0  0  0  0  0  0
  -31.4028  -17.7590   19.8357 C   0  0  0  0  0  0
  -29.5093  -19.8583   20.3478 C   0  0  0  0  0  0
  -29.2040  -18.4468   20.6087 C   0  0  0  0  0  0
  -30.1460  -17.3544   20.3520 C   0  0  0  0  0  0
  -28.3165  -23.7247   20.4668 C   0  0  0  0  0  0
  -27.8385  -18.1072   21.1872 C   0  0  0  0  0  0
  -28.5400  -21.0987   20.6290 C   0  0  0  0  0  0
  -28.4387  -25.0429   19.5599 C   0  0  0  0  0  0
  -29.8528  -15.9008   20.5788 N   0  0  0  0  0  0
  -28.7820  -22.4887   20.0328 N   0  0  0  0  0  0
  -27.7550  -23.8181   21.5600 O   0  0  0  0  0  0
  -31.4673  -12.5589   19.1679 H   0  0  0  0  0  0
  -30.3621  -11.4775   19.9681 H   0  0  0  0  0  0
  -29.7840  -11.7177   17.5263 H   0  0  0  0  0  0
  -29.6304  -13.4477   17.7170 H   0  0  0  0  0  0
  -27.8924  -11.2775   18.9273 H   0  0  0  0  0  0
  -27.3725  -12.5069   17.8056 H   0  0  0  0  0  0
  -27.6295  -14.2509   19.4586 H   0  0  0  0  0  0
  -28.7200  -12.1958   21.4425 H   0  0  0  0  0  0
  -28.4257  -13.8835   21.7789 H   0  0  0  0  0  0
  -25.2761   -9.5683   22.4768 H   0  0  0  0  0  0
  -24.0003   -7.4630   22.7467 H   0  0  0  0  0  0
  -21.0849   -8.8776   19.8944 H   0  0  0  0  0  0
  -22.3704  -10.9676   19.6170 H   0  0  0  0  0  0
  -21.2006   -7.6144   23.9710 H   0  0  0  0  0  0
  -21.1480   -6.0520   25.9075 H   0  0  0  0  0  0
  -22.0599   -2.7603   23.2847 H   0  0  0  0  0  0
  -22.4094  -11.9851   22.4784 H   0  0  0  0  0  0
  -21.1085  -13.1204   22.2647 H   0  0  0  0  0  0
  -24.6432  -15.8403   20.4975 H   0  0  0  0  0  0
  -26.2468  -15.6201   20.0152 H   0  0  0  0  0  0
  -26.7205  -32.5366   23.1062 H   0  0  0  0  0  0
  -25.0091  -33.9652   25.0405 H   0  0  0  0  0  0
  -22.7267  -31.3020   21.3889 H   0  0  0  0  0  0
  -23.3760  -35.9594   23.3292 H   0  0  0  0  0  0
  -24.3592  -36.8907   22.2063 H   0  0  0  0  0  0
  -23.7228  -37.6464   23.6676 H   0  0  0  0  0  0
  -26.1302  -31.5237   20.6160 H   0  0  0  0  0  0
  -26.8468  -30.7989   22.0222 H   0  0  0  0  0  0
  -28.1114  -28.9157   21.2064 H   0  0  0  0  0  0
  -25.9290  -25.8765   19.0370 H   0  0  0  0  0  0
  -23.9699  -27.2920   19.0090 H   0  0  0  0  0  0
  -23.7737  -30.5840   19.3967 H   0  0  0  0  0  0
  -22.7634  -29.2471   19.8467 H   0  0  0  0  0  0
  -25.1290  -36.1913   25.0833 H   0  0  0  0  0  0
  -21.0011  -28.3315   24.1347 H   0  0  0  0  0  0
  -20.5686  -26.2337   23.3597 H   0  0  0  0  0  0
  -21.6655  -26.7445   22.1177 H   0  0  0  0  0  0
  -19.6936  -25.6289   21.1224 H   0  0  0  0  0  0
  -19.6700  -27.3181   20.6707 H   0  0  0  0  0  0
  -17.4209  -26.6671   21.4007 H   0  0  0  0  0  0
  -18.0360  -26.0066   22.8999 H   0  0  0  0  0  0
  -19.7977  -30.7262   24.2235 H   0  0  0  0  0  0
  -17.5066  -31.6265   24.5174 H   0  0  0  0  0  0
  -15.5386  -30.2998   23.7677 H   0  0  0  0  0  0
  -15.8686  -28.0830   22.7085 H   0  0  0  0  0  0
  -24.5912  -30.7052   25.7805 H   0  0  0  0  0  0
  -24.8911  -32.2879   26.4882 H   0  0  0  0  0  0
  -25.8055  -30.8911   27.0246 H   0  0  0  0  0  0
  -26.2963  -29.6713   24.1271 H   0  0  0  0  0  0
  -27.4071  -29.7279   25.4760 H   0  0  0  0  0  0
  -27.8828  -30.4269   23.9478 H   0  0  0  0  0  0
  -27.2638  -33.3658   26.2020 H   0  0  0  0  0  0
  -28.3862  -32.6874   25.0324 H   0  0  0  0  0  0
  -28.0700  -31.8510   26.5451 H   0  0  0  0  0  0
  -28.2588  -38.0094   24.7521 H   0  0  0  0  0  0
  -28.1084  -36.2623   24.6290 H   0  0  0  0  0  0
  -27.2301  -37.1432   25.8874 H   0  0  0  0  0  0
  -20.9421  -29.8773   21.6790 H   0  0  0  0  0  0
  -26.0171  -38.2840   24.1407 H   0  0  0  0  0  0
  -32.7007  -19.3692   19.2256 H   0  0  0  0  0  0
  -31.0868  -21.1665   19.6671 H   0  0  0  0  0  0
  -32.1755  -17.0453   19.5992 H   0  0  0  0  0  0
  -27.5446  -18.8379   21.9406 H   0  0  0  0  0  0
  -27.8262  -17.1343   21.6774 H   0  0  0  0  0  0
  -27.0812  -18.1021   20.4029 H   0  0  0  0  0  0
  -28.4770  -21.2059   21.7126 H   0  0  0  0  0  0
  -27.5400  -20.8030   20.3104 H   0  0  0  0  0  0
  -27.7768  -24.9486   18.7019 H   0  0  0  0  0  0
  -29.4366  -25.0060   19.1233 H   0  0  0  0  0  0
  -28.8953  -15.6993   20.8179 H   0  0  0  0  0  0
  -29.2324  -22.4945   19.1274 H   0  0  0  0  0  0
  1 25  1  0  0  0
  1 30  2  0  0  0
  1 81  1  0  0  0
  2  3  1  0  0  0
  2 25  1  0  0  0
  2 84  1  0  0  0
  2 85  1  0  0  0
  3  4  1  0  0  0
  3 86  1  0  0  0
  3 87  1  0  0  0
  4  5  1  0  0  0
  4 88  1  0  0  0
  4 89  1  0  0  0
  5  6  1  0  0  0
  5 26  1  0  0  0
  5 90  1  0  0  0
  6 25  1  0  0  0
  6 91  1  0  0  0
  6 92  1  0  0  0
  7  8  2  0  0  0
  7 26  1  0  0  0
  7 29  1  0  0  0
  8  9  1  0  0  0
  8 22  1  0  0  0
  9 10  1  0  0  0
  9 27  2  0  0  0
 10 11  2  0  0  0
 10 15  1  0  0  0
 11 12  1  0  0  0
 11 93  1  0  0  0
 12 13  2  0  0  0
 12 94  1  0  0  0
 13 14  1  0  0  0
 13 31  1  0  0  0
 14 15  2  0  0  0
 14 95  1  0  0  0
 15 96  1  0  0  0
 16 17  2  0  0  0
 16 21  1  0  0  0
 16 31  1  0  0  0
 17 18  1  0  0  0
 17 97  1  0  0  0
 18 19  2  0  0  0
 18 98  1  0  0  0
 19 20  1  0  0  0
 19 24  1  0  0  0
 20 21  2  0  0  0
 20 99  1  0  0  0
 21 23  1  0  0  0
 22 28  1  0  0  0
 22 32  2  0  0  0
 26 27  1  0  0  0
 28100  1  0  0  0
 28101  1  0  0  0
 29102  1  0  0  0
 29103  1  0  0  0
 33 34  1  0  0  0
 33 66  1  0  0  0
 33 70  2  0  0  0
 34 36  1  0  0  0
 34 59  1  0  0  0
 34104  1  0  0  0
 35 44  2  0  0  0
 35 45  1  0  0  0
 35 68  1  0  0  0
 36 56  1  0  0  0
 36105  1  0  0  0
 37 39  1  0  0  0
 37 47  1  0  0  0
 37 66  1  0  0  0
 37106  1  0  0  0
 38 43  2  0  0  0
 38 46  1  0  0  0
 38 47  1  0  0  0
 39 64  1  0  0  0
 39 67  2  0  0  0
 40 52  1  0  0  0
 40 53  2  0  0  0
 40 58  1  0  0  0
 41107  1  0  0  0
 41108  1  0  0  0
 41109  1  0  0  0
 41 48  1  0  0  0
 42 43  1  0  0  0
 42 66  1  0  0  0
 42110  1  0  0  0
 42111  1  0  0  0
 43 44  1  0  0  0
 44112  1  0  0  0
 45 46  2  0  0  0
 45113  1  0  0  0
 46114  1  0  0  0
 47115  1  0  0  0
 47116  1  0  0  0
 48 56  1  0  0  0
 48 65  1  0  0  0
 48117  1  0  0  0
 49 50  1  0  0  0
 49 53  1  0  0  0
 49 64  1  0  0  0
 49118  1  0  0  0
 50 51  1  0  0  0
 50119  1  0  0  0
 50120  1  0  0  0
 51 52  1  0  0  0
 51121  1  0  0  0
 51122  1  0  0  0
 52123  1  0  0  0
 52124  1  0  0  0
 53 54  1  0  0  0
 54 55  2  0  0  0
 54125  1  0  0  0
 55 57  1  0  0  0
 55126  1  0  0  0
 56 69  2  0  0  0
 57 58  2  0  0  0
 57127  1  0  0  0
 58128  1  0  0  0
 59 60  1  0  0  0
 59 61  1  0  0  0
 59 62  1  0  0  0
 60129  1  0  0  0
 60130  1  0  0  0
 60131  1  0  0  0
 61132  1  0  0  0
 61133  1  0  0  0
 61134  1  0  0  0
 62135  1  0  0  0
 62136  1  0  0  0
 62137  1  0  0  0
 63 65  1  0  0  0
 63138  1  0  0  0
 63139  1  0  0  0
 63140  1  0  0  0
 64141  1  0  0  0
 65142  1  0  0  0
 68 80  1  0  0  0
 71 72  2  0  0  0
 71 73  1  0  0  0
 71143  1  0  0  0
 72 74  1  0  0  0
 72144  1  0  0  0
 73 76  2  0  0  0
 73145  1  0  0  0
 74 75  2  0  0  0
 74 79  1  0  0  0
 75 76  1  0  0  0
 75 78  1  0  0  0
 76 81  1  0  0  0
 77 80  1  0  0  0
 77 82  1  0  0  0
 77 83  2  0  0  0
 78146  1  0  0  0
 78147  1  0  0  0
 78148  1  0  0  0
 79 82  1  0  0  0
 79149  1  0  0  0
 79150  1  0  0  0
 80151  1  0  0  0
 80152  1  0  0  0
 81153  1  0  0  0
 82154  1  0  0  0
M  ISO  4   1 100  68 101  80 101  81 100
M  END
> <chiral flag>
0

> <version>
0

> <s_m_source_file>
/data/baiqing/PycharmProjects/Reinvent-master-3.2/result/LINK_invent/BTK/process_docking_weight1_custom_product_contain_oxygen_bond_distance_aromatic_linkinvent_7_9_3/rearranged_h_0045.sdf

> <i_m_source_file_index>
45

> <r_mmod_Potential_Energy-OPLS-2005>
69.156135559082

> <r_mmod_Stretch_Energy-OPLS-2005>
130.121948242188

> <r_mmod_Bend_Energy-OPLS-2005>
169.58366394043

> <r_mmod_Torsional_Energy-OPLS-2005>
204.204071044922

> <r_mmod_Improper_Torsional_Energy-OPLS-2005>
5.20302295684814

> <r_mmod_Van_der_Waal_Energy-OPLS-2005>
140.157577514648

> <r_mmod_Electrostatic_Energy-OPLS-2005>
-420.117126464844

> <r_mmod_Solvation_Energy-OPLS-2005>
-246.169830322266

> <b_mmod_Minimization_Converged-OPLS-2005>
0

> <r_mmod_RMS_Derivative-OPLS-2005>
1.53939998149872

$$$$
45
                    3D
 Structure written by MMmdl.
156164  0  0  1  0            999 V2000
  -30.6001  -14.7497   20.4623 C   0  0  0  0  0  0
  -30.4338  -12.4628   19.4608 C   0  0  0  0  0  0
  -29.5068  -12.5102   18.2268 C   0  0  0  0  0  0
  -28.0324  -12.3332   18.6417 C   0  0  0  0  0  0
  -27.6385  -13.2297   19.8460 C   0  0  2  0  0  0
  -28.6848  -13.1596   20.9776 C   0  0  0  0  0  0
  -25.2499  -13.8185   20.5680 C   0  0  0  0  0  0
  -24.1797  -13.0432   20.9209 C   0  0  0  0  0  0
  -24.6383  -11.6911   20.8742 C   0  0  0  0  0  0
  -23.9060  -10.4292   21.0408 C   0  0  0  0  0  0
  -24.3618   -9.4207   21.9181 C   0  0  0  0  0  0
  -23.6296   -8.2241   22.0749 C   0  0  0  0  0  0
  -22.4278   -8.0278   21.3538 C   0  0  0  0  0  0
  -21.9911   -9.0251   20.4642 C   0  0  0  0  0  0
  -22.7236  -10.2130   20.3053 C   0  0  0  0  0  0
  -21.6857   -6.0735   22.5281 C   0  0  0  0  0  0
  -21.4015   -6.5640   23.8212 C   0  0  0  0  0  0
  -21.3656   -5.6793   24.9176 C   0  0  0  0  0  0
  -21.6044   -4.3055   24.7228 C   0  0  0  0  0  0
  -21.8817   -3.8147   23.4349 C   0  0  0  0  0  0
  -21.9195   -4.6963   22.3407 C   0  0  0  0  0  0
  -22.7818  -13.5217   21.1877 C   0  0  0  0  0  0
  -22.1664   -4.2152   21.0982 F   0  0  0  0  0  0
  -21.5627   -3.4539   25.7738 F   0  0  0  0  0  0
  -29.9804  -13.5222   20.3900 N   0  0  0  0  0  0
  -26.2920  -12.9386   20.3259 N   0  0  0  0  0  0
  -25.9311  -11.6531   20.5737 N   0  0  0  0  0  0
  -22.0470  -12.8204   22.0432 N   0  0  0  0  0  0
  -25.4167  -15.1906   20.4072 N   0  0  0  0  0  0
  -31.7980  -14.8490   20.1822 O   0  0  0  0  0  0
  -21.6638   -6.8878   21.4241 O   0  0  0  0  0  0
  -22.3502  -14.5525   20.6727 O   0  0  0  0  0  0
  -24.6314  -31.8557   23.1967 C   0  0  0  0  0  0
  -25.9144  -32.4754   23.8318 C   0  0  1  0  0  0
  -27.2197  -27.2662   20.1326 C   0  0  0  0  0  0
  -25.5938  -33.8556   24.2243 N   0  0  0  0  0  0
  -23.4285  -30.4767   21.5405 C   0  0  2  0  0  0
  -24.8776  -28.9180   20.1155 C   0  0  0  0  0  0
  -22.7505  -29.4608   22.4911 C   0  0  0  0  0  0
  -18.0301  -28.1390   22.8488 C   0  0  0  0  0  0
  -24.1487  -36.7272   23.2635 C   0  0  0  0  0  0
  -25.9734  -30.7700   21.3760 C   0  0  0  0  0  0
  -26.0494  -29.3906   20.7223 C   0  0  0  0  0  0
  -27.2290  -28.5771   20.7192 C   0  0  0  0  0  0
  -26.0278  -26.8535   19.5084 C   0  0  0  0  0  0
  -24.8705  -27.6578   19.4985 C   0  0  0  0  0  0
  -23.6488  -29.8074   20.1576 C   0  0  0  0  0  0
  -25.4114  -36.3063   24.0318 C   0  0  1  0  0  0
  -20.5905  -28.3704   23.1270 C   0  0  2  0  0  0
  -20.6789  -26.9418   22.5410 C   0  0  0  0  0  0
  -19.5756  -26.6391   21.5218 C   0  0  0  0  0  0
  -18.1941  -26.7934   22.1632 C   0  0  0  0  0  0
  -19.1552  -28.8864   23.2878 C   0  0  0  0  0  0
  -18.9469  -30.1469   23.8888 C   0  0  0  0  0  0
  -17.6465  -30.6591   24.0566 C   0  0  0  0  0  0
  -25.9050  -34.9439   23.5081 C   0  0  0  0  0  0
  -16.5359  -29.9082   23.6333 C   0  0  0  0  0  0
  -16.7291  -28.6504   23.0353 C   0  0  0  0  0  0
  -26.4506  -31.6574   25.0710 C   0  0  0  0  0  0
  -25.3731  -31.3743   26.1428 C   0  0  0  0  0  0
  -27.0333  -30.2983   24.6199 C   0  0  0  0  0  0
  -27.6051  -32.4310   25.7496 C   0  0  0  0  0  0
  -27.5575  -37.1798   24.8466 C   0  0  0  0  0  0
  -21.4213  -29.3047   22.3657 N   0  0  0  0  0  0
  -26.4286  -37.3765   23.9403 N   0  0  0  0  0  0
  -24.6964  -31.0517   22.0942 N   0  0  0  0  0  0
  -23.4211  -28.8144   23.3007 O   0  0  0  0  0  0
  -28.2845  -26.3357   20.1336 O   0  0  0  0  0  0
  -26.5623  -34.8915   22.4649 O   0  0  0  0  0  0
  -23.5466  -32.1376   23.7264 O   0  0  0  0  0  0
  -29.4941  -19.9235   20.8740 C   0  0  0  0  0  0
  -29.0834  -18.5324   18.9304 C   0  0  0  0  0  0
  -28.5299  -20.9454   18.8964 C   0  0  0  0  0  0
  -29.5640  -18.6072   20.2535 C   0  0  0  0  0  0
  -28.9755  -21.1197   20.2237 C   0  0  0  0  0  0
  -28.5823  -19.6779   18.2666 C   0  0  0  0  0  0
  -28.1658  -25.1237   20.8347 C   0  0  0  0  0  0
  -27.3537  -24.2977   23.1241 C   0  0  0  0  0  0
  -30.2387  -17.3279   20.9309 C   0  0  0  0  0  0
  -28.7955  -22.5242   20.9671 C   0  0  0  0  0  0
  -29.8191  -15.8801   20.6648 N   0  0  0  0  0  0
  -28.6396  -23.9140   20.2994 N   0  0  0  0  0  0
  -27.6227  -25.2766   22.0644 N   0  3  0  0  0  0
  -28.0208  -19.5265   16.6423 Cl  0  0  0  0  0  0
  -31.4719  -12.6006   19.1543 H   0  0  0  0  0  0
  -30.3891  -11.4857   19.9435 H   0  0  0  0  0  0
  -29.7894  -11.7387   17.5096 H   0  0  0  0  0  0
  -29.6293  -13.4649   17.7123 H   0  0  0  0  0  0
  -27.8870  -11.2836   18.8997 H   0  0  0  0  0  0
  -27.3754  -12.5301   17.7939 H   0  0  0  0  0  0
  -27.6327  -14.2520   19.4678 H   0  0  0  0  0  0
  -28.7259  -12.1577   21.4076 H   0  0  0  0  0  0
  -28.4201  -13.8333   21.7942 H   0  0  0  0  0  0
  -25.2763   -9.5688   22.4755 H   0  0  0  0  0  0
  -24.0013   -7.4629   22.7462 H   0  0  0  0  0  0
  -21.0846   -8.8761   19.8947 H   0  0  0  0  0  0
  -22.3689  -10.9666   19.6163 H   0  0  0  0  0  0
  -21.2006   -7.6148   23.9718 H   0  0  0  0  0  0
  -21.1480   -6.0522   25.9078 H   0  0  0  0  0  0
  -22.0599   -2.7611   23.2847 H   0  0  0  0  0  0
  -22.4094  -11.9866   22.4820 H   0  0  0  0  0  0
  -21.1080  -13.1212   22.2639 H   0  0  0  0  0  0
  -24.6418  -15.8376   20.5055 H   0  0  0  0  0  0
  -26.2522  -15.6303   20.0431 H   0  0  0  0  0  0
  -26.7210  -32.5404   23.1061 H   0  0  0  0  0  0
  -25.0118  -33.9695   25.0413 H   0  0  0  0  0  0
  -22.7253  -31.2990   21.3932 H   0  0  0  0  0  0
  -23.3745  -35.9609   23.3309 H   0  0  0  0  0  0
  -24.3579  -36.8880   22.2048 H   0  0  0  0  0  0
  -23.7248  -37.6478   23.6651 H   0  0  0  0  0  0
  -26.1117  -31.5294   20.6055 H   0  0  0  0  0  0
  -26.8499  -30.8214   22.0105 H   0  0  0  0  0  0
  -28.1288  -28.9359   21.1982 H   0  0  0  0  0  0
  -25.9848  -25.8801   19.0405 H   0  0  0  0  0  0
  -23.9718  -27.2898   19.0230 H   0  0  0  0  0  0
  -23.7778  -30.5820   19.4004 H   0  0  0  0  0  0
  -22.7668  -29.2433   19.8506 H   0  0  0  0  0  0
  -25.1310  -36.1898   25.0814 H   0  0  0  0  0  0
  -21.0018  -28.3276   24.1381 H   0  0  0  0  0  0
  -20.5685  -26.2313   23.3615 H   0  0  0  0  0  0
  -21.6659  -26.7440   22.1205 H   0  0  0  0  0  0
  -19.6905  -25.6303   21.1248 H   0  0  0  0  0  0
  -19.6679  -27.3187   20.6737 H   0  0  0  0  0  0
  -17.4211  -26.6687   21.4032 H   0  0  0  0  0  0
  -18.0343  -26.0077   22.9034 H   0  0  0  0  0  0
  -19.7943  -30.7307   24.2233 H   0  0  0  0  0  0
  -17.5012  -31.6268   24.5174 H   0  0  0  0  0  0
  -15.5356  -30.2981   23.7652 H   0  0  0  0  0  0
  -15.8700  -28.0824   22.7057 H   0  0  0  0  0  0
  -24.5921  -30.7070   25.7764 H   0  0  0  0  0  0
  -24.8914  -32.2924   26.4805 H   0  0  0  0  0  0
  -25.8056  -30.8967   27.0230 H   0  0  0  0  0  0
  -26.2912  -29.6753   24.1193 H   0  0  0  0  0  0
  -27.3966  -29.7235   25.4725 H   0  0  0  0  0  0
  -27.8819  -30.4237   23.9466 H   0  0  0  0  0  0
  -27.2653  -33.3622   26.2042 H   0  0  0  0  0  0
  -28.3887  -32.6845   25.0344 H   0  0  0  0  0  0
  -28.0683  -31.8453   26.5447 H   0  0  0  0  0  0
  -28.2593  -38.0096   24.7520 H   0  0  0  0  0  0
  -28.1079  -36.2634   24.6291 H   0  0  0  0  0  0
  -27.2303  -37.1444   25.8872 H   0  0  0  0  0  0
  -20.9390  -29.8768   21.6861 H   0  0  0  0  0  0
  -26.0159  -38.2833   24.1418 H   0  0  0  0  0  0
  -29.8488  -20.0165   21.8908 H   0  0  0  0  0  0
  -29.1212  -17.5905   18.4019 H   0  0  0  0  0  0
  -28.1182  -21.7825   18.3509 H   0  0  0  0  0  0
  -28.2521  -23.7378   23.3827 H   0  0  0  0  0  0
  -26.5662  -23.6068   22.8230 H   0  0  0  0  0  0
  -27.0200  -24.8078   24.0277 H   0  0  0  0  0  0
  -30.1626  -17.4678   22.0096 H   0  0  0  0  0  0
  -31.3048  -17.4068   20.7141 H   0  0  0  0  0  0
  -29.6154  -22.6118   21.6794 H   0  0  0  0  0  0
  -27.9024  -22.3655   21.5661 H   0  0  0  0  0  0
  -28.8368  -15.6931   20.7970 H   0  0  0  0  0  0
  -29.0235  -23.9713   19.3682 H   0  0  0  0  0  0
  -27.3609  -26.2224   22.3037 H   0  0  0  0  0  0
  1 25  1  0  0  0
  1 30  2  0  0  0
  1 81  1  0  0  0
  2  3  1  0  0  0
  2 25  1  0  0  0
  2 85  1  0  0  0
  2 86  1  0  0  0
  3  4  1  0  0  0
  3 87  1  0  0  0
  3 88  1  0  0  0
  4  5  1  0  0  0
  4 89  1  0  0  0
  4 90  1  0  0  0
  5  6  1  0  0  0
  5 26  1  0  0  0
  5 91  1  0  0  0
  6 25  1  0  0  0
  6 92  1  0  0  0
  6 93  1  0  0  0
  7  8  2  0  0  0
  7 26  1  0  0  0
  7 29  1  0  0  0
  8  9  1  0  0  0
  8 22  1  0  0  0
  9 10  1  0  0  0
  9 27  2  0  0  0
 10 11  2  0  0  0
 10 15  1  0  0  0
 11 12  1  0  0  0
 11 94  1  0  0  0
 12 13  2  0  0  0
 12 95  1  0  0  0
 13 14  1  0  0  0
 13 31  1  0  0  0
 14 15  2  0  0  0
 14 96  1  0  0  0
 15 97  1  0  0  0
 16 17  2  0  0  0
 16 21  1  0  0  0
 16 31  1  0  0  0
 17 18  1  0  0  0
 17 98  1  0  0  0
 18 19  2  0  0  0
 18 99  1  0  0  0
 19 20  1  0  0  0
 19 24  1  0  0  0
 20 21  2  0  0  0
 20100  1  0  0  0
 21 23  1  0  0  0
 22 28  1  0  0  0
 22 32  2  0  0  0
 26 27  1  0  0  0
 28101  1  0  0  0
 28102  1  0  0  0
 29103  1  0  0  0
 29104  1  0  0  0
 33 34  1  0  0  0
 33 66  1  0  0  0
 33 70  2  0  0  0
 34 36  1  0  0  0
 34 59  1  0  0  0
 34105  1  0  0  0
 35 44  2  0  0  0
 35 45  1  0  0  0
 35 68  1  0  0  0
 36 56  1  0  0  0
 36106  1  0  0  0
 37 39  1  0  0  0
 37 47  1  0  0  0
 37 66  1  0  0  0
 37107  1  0  0  0
 38 43  2  0  0  0
 38 46  1  0  0  0
 38 47  1  0  0  0
 39 64  1  0  0  0
 39 67  2  0  0  0
 40 52  1  0  0  0
 40 53  2  0  0  0
 40 58  1  0  0  0
 41108  1  0  0  0
 41109  1  0  0  0
 41110  1  0  0  0
 41 48  1  0  0  0
 42 43  1  0  0  0
 42 66  1  0  0  0
 42111  1  0  0  0
 42112  1  0  0  0
 43 44  1  0  0  0
 44113  1  0  0  0
 45 46  2  0  0  0
 45114  1  0  0  0
 46115  1  0  0  0
 47116  1  0  0  0
 47117  1  0  0  0
 48 56  1  0  0  0
 48 65  1  0  0  0
 48118  1  0  0  0
 49 50  1  0  0  0
 49 53  1  0  0  0
 49 64  1  0  0  0
 49119  1  0  0  0
 50 51  1  0  0  0
 50120  1  0  0  0
 50121  1  0  0  0
 51 52  1  0  0  0
 51122  1  0  0  0
 51123  1  0  0  0
 52124  1  0  0  0
 52125  1  0  0  0
 53 54  1  0  0  0
 54 55  2  0  0  0
 54126  1  0  0  0
 55 57  1  0  0  0
 55127  1  0  0  0
 56 69  2  0  0  0
 57 58  2  0  0  0
 57128  1  0  0  0
 58129  1  0  0  0
 59 60  1  0  0  0
 59 61  1  0  0  0
 59 62  1  0  0  0
 60130  1  0  0  0
 60131  1  0  0  0
 60132  1  0  0  0
 61133  1  0  0  0
 61134  1  0  0  0
 61135  1  0  0  0
 62136  1  0  0  0
 62137  1  0  0  0
 62138  1  0  0  0
 63 65  1  0  0  0
 63139  1  0  0  0
 63140  1  0  0  0
 63141  1  0  0  0
 64142  1  0  0  0
 65143  1  0  0  0
 68 77  1  0  0  0
 71 74  2  0  0  0
 71 75  1  0  0  0
 71144  1  0  0  0
 72 74  1  0  0  0
 72 76  2  0  0  0
 72145  1  0  0  0
 73 75  2  0  0  0
 73 76  1  0  0  0
 73146  1  0  0  0
 74 79  1  0  0  0
 75 80  1  0  0  0
 76 84  1  0  0  0
 77 82  1  0  0  0
 77 83  2  0  0  0
 78 83  1  0  0  0
 78147  1  0  0  0
 78148  1  0  0  0
 78149  1  0  0  0
 79 81  1  0  0  0
 79150  1  0  0  0
 79151  1  0  0  0
 80 82  1  0  0  0
 80152  1  0  0  0
 80153  1  0  0  0
 81154  1  0  0  0
 82155  1  0  0  0
 83156  1  0  0  0
M  CHG  1  83   1
M  ISO  4   1 100  68 101  77 101  81 100
M  END
> <chiral flag>
0

> <version>
0

> <s_m_source_file>
/data/baiqing/PycharmProjects/Reinvent-master-3.2/result/LINK_invent/BTK/process_docking_weight1_custom_product_contain_oxygen_bond_distance_aromatic_linkinvent_7_9_3/rearranged_h_0045.sdf

> <i_m_source_file_index>
46

> <r_mmod_Potential_Energy-OPLS-2005>
-17.096887588501

> <r_mmod_Stretch_Energy-OPLS-2005>
119.547065734863

> <r_mmod_Bend_Energy-OPLS-2005>
169.092300415039

> <r_mmod_Torsional_Energy-OPLS-2005>
220.256393432617

> <r_mmod_Improper_Torsional_Energy-OPLS-2005>
5.28722858428955

> <r_mmod_Van_der_Waal_Energy-OPLS-2005>
133.471160888672

> <r_mmod_Electrostatic_Energy-OPLS-2005>
-326.500579833984

> <r_mmod_Solvation_Energy-OPLS-2005>
-426.953216552734

> <b_mmod_Minimization_Converged-OPLS-2005>
0

> <r_mmod_RMS_Derivative-OPLS-2005>
1.57467842102051

$$$$
46
                    3D
 Structure written by MMmdl.
154162  0  0  1  0            999 V2000
  -30.5636  -14.7441   20.4083 C   0  0  0  0  0  0
  -30.4406  -12.3968   19.5601 C   0  0  0  0  0  0
  -29.5489  -12.4163   18.3006 C   0  0  0  0  0  0
  -28.0557  -12.3189   18.6813 C   0  0  0  0  0  0
  -27.6555  -13.2242   19.8771 C   0  0  2  0  0  0
  -28.6841  -13.1485   21.0258 C   0  0  0  0  0  0
  -25.2544  -13.8199   20.5685 C   0  0  0  0  0  0
  -24.1840  -13.0453   20.9240 C   0  0  0  0  0  0
  -24.6421  -11.6938   20.8841 C   0  0  0  0  0  0
  -23.9123  -10.4314   21.0489 C   0  0  0  0  0  0
  -24.3648   -9.4233   21.9271 C   0  0  0  0  0  0
  -23.6313   -8.2253   22.0792 C   0  0  0  0  0  0
  -22.4310   -8.0298   21.3541 C   0  0  0  0  0  0
  -21.9970   -9.0301   20.4662 C   0  0  0  0  0  0
  -22.7317  -10.2174   20.3110 C   0  0  0  0  0  0
  -21.6841   -6.0763   22.5279 C   0  0  0  0  0  0
  -21.4025   -6.5656   23.8238 C   0  0  0  0  0  0
  -21.3671   -5.6797   24.9179 C   0  0  0  0  0  0
  -21.6037   -4.3052   24.7205 C   0  0  0  0  0  0
  -21.8804   -3.8163   23.4322 C   0  0  0  0  0  0
  -21.9189   -4.6997   22.3391 C   0  0  0  0  0  0
  -22.7844  -13.5286   21.1866 C   0  0  0  0  0  0
  -22.1643   -4.2190   21.0954 F   0  0  0  0  0  0
  -21.5647   -3.4519   25.7708 F   0  0  0  0  0  0
  -29.9915  -13.4901   20.4538 N   0  0  0  0  0  0
  -26.3002  -12.9390   20.3382 N   0  0  0  0  0  0
  -25.9359  -11.6545   20.5885 N   0  0  0  0  0  0
  -22.0406  -12.8320   22.0404 N   0  0  0  0  0  0
  -25.4234  -15.1898   20.3987 N   0  0  0  0  0  0
  -31.7221  -14.8755   20.0014 O   0  0  0  0  0  0
  -21.6633   -6.8901   21.4238 O   0  0  0  0  0  0
  -22.3580  -14.5591   20.6709 O   0  0  0  0  0  0
  -24.6328  -31.8578   23.2027 C   0  0  0  0  0  0
  -25.9161  -32.4781   23.8393 C   0  0  1  0  0  0
  -27.2083  -27.2471   20.1255 C   0  0  0  0  0  0
  -25.5970  -33.8580   24.2311 N   0  0  0  0  0  0
  -23.4324  -30.4811   21.5452 C   0  0  2  0  0  0
  -24.8794  -28.9367   20.1068 C   0  0  0  0  0  0
  -22.7547  -29.4596   22.4931 C   0  0  0  0  0  0
  -18.0284  -28.1407   22.8475 C   0  0  0  0  0  0
  -24.1500  -36.7276   23.2630 C   0  0  0  0  0  0
  -25.9827  -30.7651   21.3879 C   0  0  0  0  0  0
  -26.0535  -29.3880   20.7241 C   0  0  0  0  0  0
  -27.2216  -28.5559   20.7241 C   0  0  0  0  0  0
  -26.0105  -26.8779   19.4674 C   0  0  0  0  0  0
  -24.8654  -27.6944   19.4618 C   0  0  0  0  0  0
  -23.6544  -29.8266   20.1571 C   0  0  0  0  0  0
  -25.4133  -36.3087   24.0333 C   0  0  1  0  0  0
  -20.5895  -28.3697   23.1302 C   0  0  2  0  0  0
  -20.6789  -26.9433   22.5410 C   0  0  0  0  0  0
  -19.5750  -26.6410   21.5223 C   0  0  0  0  0  0
  -18.1926  -26.7958   22.1611 C   0  0  0  0  0  0
  -19.1539  -28.8876   23.2874 C   0  0  0  0  0  0
  -18.9438  -30.1482   23.8891 C   0  0  0  0  0  0
  -17.6430  -30.6595   24.0569 C   0  0  0  0  0  0
  -25.9071  -34.9445   23.5107 C   0  0  0  0  0  0
  -16.5328  -29.9086   23.6338 C   0  0  0  0  0  0
  -16.7264  -28.6515   23.0335 C   0  0  0  0  0  0
  -26.4523  -31.6579   25.0762 C   0  0  0  0  0  0
  -25.3740  -31.3679   26.1469 C   0  0  0  0  0  0
  -27.0359  -30.2999   24.6234 C   0  0  0  0  0  0
  -27.6099  -32.4299   25.7515 C   0  0  0  0  0  0
  -27.5603  -37.1792   24.8466 C   0  0  0  0  0  0
  -21.4238  -29.3039   22.3693 N   0  0  0  0  0  0
  -26.4321  -37.3780   23.9409 N   0  0  0  0  0  0
  -24.7018  -31.0532   22.1015 N   0  0  0  0  0  0
  -23.4265  -28.8111   23.3004 O   0  0  0  0  0  0
  -28.2776  -26.3168   20.1976 O   0  0  0  0  0  0
  -26.5609  -34.8899   22.4651 O   0  0  0  0  0  0
  -23.5465  -32.1392   23.7298 O   0  0  0  0  0  0
  -29.6890  -18.4679   20.6928 C   0  0  0  0  0  0
  -29.2142  -18.4415   17.9640 C   0  0  0  0  0  0
  -29.5009  -19.7495   20.0150 C   0  0  0  0  0  0
  -29.3378  -19.6912   18.6057 C   0  0  0  0  0  0
  -29.6607  -17.1685   20.0315 C   0  0  0  0  0  0
  -29.3365  -17.2166   18.6463 C   0  0  0  0  0  0
  -29.0265  -23.7351   20.4328 C   0  0  0  0  0  0
  -29.3259  -20.9428   17.7343 C   0  0  0  0  0  0
  -29.5683  -21.1586   20.7645 C   0  0  0  0  0  0
  -27.9586  -24.8508   19.9984 C   0  0  0  0  0  0
  -29.7793  -15.8502   20.7166 N   0  0  0  0  0  0
  -28.7374  -22.3774   20.3472 N   0  0  0  0  0  0
  -30.1276  -24.1059   20.8435 O   0  0  0  0  0  0
  -29.0060  -15.8046   17.7156 Cl  0  0  0  0  0  0
  -31.4957  -12.4905   19.2921 H   0  0  0  0  0  0
  -30.3524  -11.4346   20.0689 H   0  0  0  0  0  0
  -29.8163  -11.5765   17.6584 H   0  0  0  0  0  0
  -29.7506  -13.3097   17.7185 H   0  0  0  0  0  0
  -27.8775  -11.2779   18.9508 H   0  0  0  0  0  0
  -27.4216  -12.5234   17.8204 H   0  0  0  0  0  0
  -27.6618  -14.2493   19.5132 H   0  0  0  0  0  0
  -28.7050  -12.1529   21.4710 H   0  0  0  0  0  0
  -28.4194  -13.8285   21.8383 H   0  0  0  0  0  0
  -25.2740   -9.5703   22.4956 H   0  0  0  0  0  0
  -23.9993   -7.4639   22.7518 H   0  0  0  0  0  0
  -21.0900   -8.8873   19.8958 H   0  0  0  0  0  0
  -22.3803  -10.9763   19.6272 H   0  0  0  0  0  0
  -21.2018   -7.6162   23.9772 H   0  0  0  0  0  0
  -21.1519   -6.0493   25.9099 H   0  0  0  0  0  0
  -22.0583   -2.7621   23.2786 H   0  0  0  0  0  0
  -22.3781  -11.9880   22.4764 H   0  0  0  0  0  0
  -21.1083  -13.1559   22.2626 H   0  0  0  0  0  0
  -24.6515  -15.8392   20.4968 H   0  0  0  0  0  0
  -26.2661  -15.6200   20.0389 H   0  0  0  0  0  0
  -26.7229  -32.5428   23.1136 H   0  0  0  0  0  0
  -25.0186  -33.9749   25.0504 H   0  0  0  0  0  0
  -22.7274  -31.3017   21.4019 H   0  0  0  0  0  0
  -23.3798  -35.9576   23.3287 H   0  0  0  0  0  0
  -24.3592  -36.8902   22.2048 H   0  0  0  0  0  0
  -23.7209  -37.6457   23.6650 H   0  0  0  0  0  0
  -26.1273  -31.5296   20.6236 H   0  0  0  0  0  0
  -26.8575  -30.8131   22.0243 H   0  0  0  0  0  0
  -28.1169  -28.8904   21.2305 H   0  0  0  0  0  0
  -25.9143  -25.9324   18.9595 H   0  0  0  0  0  0
  -23.9703  -27.3588   18.9577 H   0  0  0  0  0  0
  -23.7867  -30.6080   19.4077 H   0  0  0  0  0  0
  -22.7745  -29.2638   19.8439 H   0  0  0  0  0  0
  -25.1310  -36.1949   25.0831 H   0  0  0  0  0  0
  -20.9956  -28.3230   24.1432 H   0  0  0  0  0  0
  -20.5743  -26.2279   23.3581 H   0  0  0  0  0  0
  -21.6639  -26.7514   22.1132 H   0  0  0  0  0  0
  -19.6911  -25.6321   21.1233 H   0  0  0  0  0  0
  -19.6710  -27.3232   20.6757 H   0  0  0  0  0  0
  -17.4222  -26.6738   21.3990 H   0  0  0  0  0  0
  -18.0297  -26.0106   22.8995 H   0  0  0  0  0  0
  -19.7912  -30.7315   24.2272 H   0  0  0  0  0  0
  -17.4967  -31.6270   24.5164 H   0  0  0  0  0  0
  -15.5313  -30.2962   23.7701 H   0  0  0  0  0  0
  -15.8658  -28.0845   22.7031 H   0  0  0  0  0  0
  -24.5918  -30.7055   25.7747 H   0  0  0  0  0  0
  -24.8926  -32.2816   26.4962 H   0  0  0  0  0  0
  -25.8049  -30.8776   27.0210 H   0  0  0  0  0  0
  -26.2914  -29.6727   24.1323 H   0  0  0  0  0  0
  -27.4112  -29.7290   25.4740 H   0  0  0  0  0  0
  -27.8782  -30.4280   23.9432 H   0  0  0  0  0  0
  -27.2750  -33.3593   26.2136 H   0  0  0  0  0  0
  -28.3879  -32.6871   25.0309 H   0  0  0  0  0  0
  -28.0817  -31.8397   26.5385 H   0  0  0  0  0  0
  -28.2598  -38.0110   24.7570 H   0  0  0  0  0  0
  -28.1127  -36.2652   24.6243 H   0  0  0  0  0  0
  -27.2326  -37.1359   25.8865 H   0  0  0  0  0  0
  -20.9447  -29.8792   21.6914 H   0  0  0  0  0  0
  -26.0213  -38.2864   24.1405 H   0  0  0  0  0  0
  -29.8664  -18.4918   21.7583 H   0  0  0  0  0  0
  -29.0094  -18.4153   16.9039 H   0  0  0  0  0  0
  -29.4978  -20.7096   16.6816 H   0  0  0  0  0  0
  -30.1175  -21.6324   18.0323 H   0  0  0  0  0  0
  -28.3709  -21.4622   17.8068 H   0  0  0  0  0  0
  -30.6167  -21.4579   20.7476 H   0  0  0  0  0  0
  -29.3486  -20.9636   21.8148 H   0  0  0  0  0  0
  -27.0318  -24.6158   20.5263 H   0  0  0  0  0  0
  -27.7643  -24.6816   18.9381 H   0  0  0  0  0  0
  -28.9867  -15.6270   21.3006 H   0  0  0  0  0  0
  -27.8012  -22.1602   20.0348 H   0  0  0  0  0  0
  1 25  1  0  0  0
  1 30  2  0  0  0
  1 81  1  0  0  0
  2  3  1  0  0  0
  2 25  1  0  0  0
  2 85  1  0  0  0
  2 86  1  0  0  0
  3  4  1  0  0  0
  3 87  1  0  0  0
  3 88  1  0  0  0
  4  5  1  0  0  0
  4 89  1  0  0  0
  4 90  1  0  0  0
  5  6  1  0  0  0
  5 26  1  0  0  0
  5 91  1  0  0  0
  6 25  1  0  0  0
  6 92  1  0  0  0
  6 93  1  0  0  0
  7  8  2  0  0  0
  7 26  1  0  0  0
  7 29  1  0  0  0
  8  9  1  0  0  0
  8 22  1  0  0  0
  9 10  1  0  0  0
  9 27  2  0  0  0
 10 11  2  0  0  0
 10 15  1  0  0  0
 11 12  1  0  0  0
 11 94  1  0  0  0
 12 13  2  0  0  0
 12 95  1  0  0  0
 13 14  1  0  0  0
 13 31  1  0  0  0
 14 15  2  0  0  0
 14 96  1  0  0  0
 15 97  1  0  0  0
 16 17  2  0  0  0
 16 21  1  0  0  0
 16 31  1  0  0  0
 17 18  1  0  0  0
 17 98  1  0  0  0
 18 19  2  0  0  0
 18 99  1  0  0  0
 19 20  1  0  0  0
 19 24  1  0  0  0
 20 21  2  0  0  0
 20100  1  0  0  0
 21 23  1  0  0  0
 22 28  1  0  0  0
 22 32  2  0  0  0
 26 27  1  0  0  0
 28101  1  0  0  0
 28102  1  0  0  0
 29103  1  0  0  0
 29104  1  0  0  0
 33 34  1  0  0  0
 33 66  1  0  0  0
 33 70  2  0  0  0
 34 36  1  0  0  0
 34 59  1  0  0  0
 34105  1  0  0  0
 35 44  2  0  0  0
 35 45  1  0  0  0
 35 68  1  0  0  0
 36 56  1  0  0  0
 36106  1  0  0  0
 37 39  1  0  0  0
 37 47  1  0  0  0
 37 66  1  0  0  0
 37107  1  0  0  0
 38 43  2  0  0  0
 38 46  1  0  0  0
 38 47  1  0  0  0
 39 64  1  0  0  0
 39 67  2  0  0  0
 40 52  1  0  0  0
 40 53  2  0  0  0
 40 58  1  0  0  0
 41108  1  0  0  0
 41109  1  0  0  0
 41110  1  0  0  0
 41 48  1  0  0  0
 42 43  1  0  0  0
 42 66  1  0  0  0
 42111  1  0  0  0
 42112  1  0  0  0
 43 44  1  0  0  0
 44113  1  0  0  0
 45 46  2  0  0  0
 45114  1  0  0  0
 46115  1  0  0  0
 47116  1  0  0  0
 47117  1  0  0  0
 48 56  1  0  0  0
 48 65  1  0  0  0
 48118  1  0  0  0
 49 50  1  0  0  0
 49 53  1  0  0  0
 49 64  1  0  0  0
 49119  1  0  0  0
 50 51  1  0  0  0
 50120  1  0  0  0
 50121  1  0  0  0
 51 52  1  0  0  0
 51122  1  0  0  0
 51123  1  0  0  0
 52124  1  0  0  0
 52125  1  0  0  0
 53 54  1  0  0  0
 54 55  2  0  0  0
 54126  1  0  0  0
 55 57  1  0  0  0
 55127  1  0  0  0
 56 69  2  0  0  0
 57 58  2  0  0  0
 57128  1  0  0  0
 58129  1  0  0  0
 59 60  1  0  0  0
 59 61  1  0  0  0
 59 62  1  0  0  0
 60130  1  0  0  0
 60131  1  0  0  0
 60132  1  0  0  0
 61133  1  0  0  0
 61134  1  0  0  0
 61135  1  0  0  0
 62136  1  0  0  0
 62137  1  0  0  0
 62138  1  0  0  0
 63 65  1  0  0  0
 63139  1  0  0  0
 63140  1  0  0  0
 63141  1  0  0  0
 64142  1  0  0  0
 65143  1  0  0  0
 68 80  1  0  0  0
 71 73  2  0  0  0
 71 75  1  0  0  0
 71144  1  0  0  0
 72 74  2  0  0  0
 72 76  1  0  0  0
 72145  1  0  0  0
 73 74  1  0  0  0
 73 79  1  0  0  0
 74 78  1  0  0  0
 75 76  2  0  0  0
 75 81  1  0  0  0
 76 84  1  0  0  0
 77 80  1  0  0  0
 77 82  1  0  0  0
 77 83  2  0  0  0
 78146  1  0  0  0
 78147  1  0  0  0
 78148  1  0  0  0
 79 82  1  0  0  0
 79149  1  0  0  0
 79150  1  0  0  0
 80151  1  0  0  0
 80152  1  0  0  0
 81153  1  0  0  0
 82154  1  0  0  0
M  ISO  4   1 100  68 101  80 101  81 100
M  END
> <chiral flag>
0

> <version>
0

> <s_m_source_file>
/data/baiqing/PycharmProjects/Reinvent-master-3.2/result/LINK_invent/BTK/process_docking_weight1_custom_product_contain_oxygen_bond_distance_aromatic_linkinvent_7_9_3/rearranged_h_0045.sdf

> <i_m_source_file_index>
47

> <r_mmod_Potential_Energy-OPLS-2005>
102.879127502441

> <r_mmod_Stretch_Energy-OPLS-2005>
129.864273071289

> <r_mmod_Bend_Energy-OPLS-2005>
158.017578125

> <r_mmod_Torsional_Energy-OPLS-2005>
245.733169555664

> <r_mmod_Improper_Torsional_Energy-OPLS-2005>
5.18360900878906

> <r_mmod_Van_der_Waal_Energy-OPLS-2005>
141.829391479492

> <r_mmod_Electrostatic_Energy-OPLS-2005>
-426.717437744141

> <r_mmod_Solvation_Energy-OPLS-2005>
-249.880874633789

> <b_mmod_Minimization_Converged-OPLS-2005>
0

> <r_mmod_RMS_Derivative-OPLS-2005>
5.08815097808838

$$$$
47
                    3D
 Structure written by MMmdl.
166175  0  0  1  0            999 V2000
  -30.5376  -14.8073   20.4601 C   0  0  0  0  0  0
  -30.4494  -12.4936   19.4798 C   0  0  0  0  0  0
  -29.5192  -12.5241   18.2435 C   0  0  0  0  0  0
  -28.0455  -12.3330   18.6548 C   0  0  0  0  0  0
  -27.6448  -13.2277   19.8570 C   0  0  2  0  0  0
  -28.6882  -13.1450   20.9933 C   0  0  0  0  0  0
  -25.2501  -13.8165   20.5639 C   0  0  0  0  0  0
  -24.1803  -13.0422   20.9199 C   0  0  0  0  0  0
  -24.6397  -11.6902   20.8755 C   0  0  0  0  0  0
  -23.9072  -10.4283   21.0414 C   0  0  0  0  0  0
  -24.3621   -9.4199   21.9190 C   0  0  0  0  0  0
  -23.6292   -8.2237   22.0757 C   0  0  0  0  0  0
  -22.4276   -8.0278   21.3546 C   0  0  0  0  0  0
  -21.9913   -9.0253   20.4648 C   0  0  0  0  0  0
  -22.7245  -10.2130   20.3060 C   0  0  0  0  0  0
  -21.6850   -6.0735   22.5278 C   0  0  0  0  0  0
  -21.4014   -6.5640   23.8213 C   0  0  0  0  0  0
  -21.3660   -5.6792   24.9174 C   0  0  0  0  0  0
  -21.6041   -4.3055   24.7224 C   0  0  0  0  0  0
  -21.8820   -3.8147   23.4346 C   0  0  0  0  0  0
  -21.9193   -4.6963   22.3402 C   0  0  0  0  0  0
  -22.7826  -13.5213   21.1863 C   0  0  0  0  0  0
  -22.1660   -4.2150   21.0979 F   0  0  0  0  0  0
  -21.5629   -3.4538   25.7737 F   0  0  0  0  0  0
  -29.9863  -13.5394   20.4246 N   0  0  0  0  0  0
  -26.2946  -12.9371   20.3285 N   0  0  0  0  0  0
  -25.9332  -11.6522   20.5769 N   0  0  0  0  0  0
  -22.0473  -12.8207   22.0421 N   0  0  0  0  0  0
  -25.4138  -15.1873   20.3941 N   0  0  0  0  0  0
  -31.7031  -14.9746   20.0833 O   0  0  0  0  0  0
  -21.6638   -6.8878   21.4241 O   0  0  0  0  0  0
  -22.3508  -14.5519   20.6710 O   0  0  0  0  0  0
  -24.6332  -31.8496   23.1899 C   0  0  0  0  0  0
  -25.9144  -32.4720   23.8268 C   0  0  1  0  0  0
  -27.2373  -27.2288   20.1429 C   0  0  0  0  0  0
  -25.5929  -33.8523   24.2203 N   0  0  0  0  0  0
  -23.4319  -30.4649   21.5341 C   0  0  2  0  0  0
  -24.8804  -28.8897   20.1153 C   0  0  0  0  0  0
  -22.7506  -29.4568   22.4906 C   0  0  0  0  0  0
  -18.0292  -28.1386   22.8477 C   0  0  0  0  0  0
  -24.1492  -36.7266   23.2643 C   0  0  0  0  0  0
  -25.9758  -30.7534   21.3688 C   0  0  0  0  0  0
  -26.0494  -29.3685   20.7175 C   0  0  0  0  0  0
  -27.2264  -28.5533   20.7084 C   0  0  0  0  0  0
  -26.0410  -26.8046   19.5304 C   0  0  0  0  0  0
  -24.8826  -27.6180   19.5108 C   0  0  0  0  0  0
  -23.6512  -29.7816   20.1557 C   0  0  0  0  0  0
  -25.4121  -36.3047   24.0322 C   0  0  1  0  0  0
  -20.5895  -28.3694   23.1270 C   0  0  2  0  0  0
  -20.6781  -26.9411   22.5412 C   0  0  0  0  0  0
  -19.5760  -26.6380   21.5211 C   0  0  0  0  0  0
  -18.1937  -26.7925   22.1619 C   0  0  0  0  0  0
  -19.1546  -28.8857   23.2866 C   0  0  0  0  0  0
  -18.9469  -30.1457   23.8884 C   0  0  0  0  0  0
  -17.6469  -30.6585   24.0559 C   0  0  0  0  0  0
  -25.9064  -34.9421   23.5072 C   0  0  0  0  0  0
  -16.5360  -29.9080   23.6334 C   0  0  0  0  0  0
  -16.7278  -28.6501   23.0347 C   0  0  0  0  0  0
  -26.4505  -31.6563   25.0676 C   0  0  0  0  0  0
  -25.3720  -31.3722   26.1391 C   0  0  0  0  0  0
  -27.0362  -30.2980   24.6174 C   0  0  0  0  0  0
  -27.6049  -32.4311   25.7459 C   0  0  0  0  0  0
  -27.5577  -37.1788   24.8466 C   0  0  0  0  0  0
  -21.4210  -29.3034   22.3656 N   0  0  0  0  0  0
  -26.4289  -37.3753   23.9410 N   0  0  0  0  0  0
  -24.6997  -31.0426   22.0877 N   0  0  0  0  0  0
  -23.4191  -28.8139   23.3042 O   0  0  0  0  0  0
  -28.3964  -26.4142   20.1719 O   0  0  0  0  0  0
  -26.5647  -34.8912   22.4648 O   0  0  0  0  0  0
  -23.5478  -32.1332   23.7183 O   0  0  0  0  0  0
  -28.3733  -19.4866   21.2416 C   0  0  0  0  0  0
  -30.3593  -18.1915   19.7915 C   0  0  0  0  0  0
  -28.6128  -18.0749   21.4047 C   0  0  0  0  0  0
  -30.1225  -19.6174   19.6381 C   0  0  0  0  0  0
  -29.0773  -20.3319   20.3327 C   0  0  0  0  0  0
  -29.6017  -17.3494   20.6643 C   0  0  0  0  0  0
  -28.4336  -22.4514   18.9378 C   0  0  0  0  0  0
  -27.9901  -21.8439   17.8121 C   0  0  0  0  0  0
  -28.4876  -24.0364   18.8663 C   0  0  0  0  0  0
  -27.9345  -23.9937   21.2865 C   0  0  0  0  0  0
  -28.6487  -22.5758   21.3987 C   0  0  0  0  0  0
  -28.5364  -24.8942   20.1782 C   0  0  2  0  0  0
  -27.7633  -17.3305   22.4220 C   0  0  0  0  0  0
  -31.0506  -20.3749   18.7027 C   0  0  0  0  0  0
  -27.6627  -20.3831   17.5580 C   0  0  0  0  0  0
  -28.7244  -21.7585   20.1567 N   0  0  0  0  0  0
  -29.6860  -15.8538   20.8183 N   0  0  0  0  0  0
  -31.4852  -12.6519   19.1747 H   0  0  0  0  0  0
  -30.4258  -11.5127   19.9571 H   0  0  0  0  0  0
  -29.8117  -11.7513   17.5314 H   0  0  0  0  0  0
  -29.6320  -13.4768   17.7236 H   0  0  0  0  0  0
  -27.9111  -11.2831   18.9179 H   0  0  0  0  0  0
  -27.3866  -12.5199   17.8058 H   0  0  0  0  0  0
  -27.6417  -14.2518   19.4833 H   0  0  0  0  0  0
  -28.7389  -12.1335   21.3989 H   0  0  0  0  0  0
  -28.4055  -13.7874   21.8287 H   0  0  0  0  0  0
  -25.2765   -9.5673   22.4766 H   0  0  0  0  0  0
  -23.9999   -7.4627   22.7477 H   0  0  0  0  0  0
  -21.0846   -8.8775   19.8952 H   0  0  0  0  0  0
  -22.3708  -10.9671   19.6170 H   0  0  0  0  0  0
  -21.2006   -7.6147   23.9716 H   0  0  0  0  0  0
  -21.1480   -6.0521   25.9077 H   0  0  0  0  0  0
  -22.0599   -2.7608   23.2845 H   0  0  0  0  0  0
  -22.4091  -11.9866   22.4808 H   0  0  0  0  0  0
  -21.1094  -13.1235   22.2635 H   0  0  0  0  0  0
  -24.6344  -15.8301   20.4820 H   0  0  0  0  0  0
  -26.2413  -15.6220   20.0073 H   0  0  0  0  0  0
  -26.7206  -32.5358   23.1000 H   0  0  0  0  0  0
  -25.0074  -33.9649   25.0348 H   0  0  0  0  0  0
  -22.7297  -31.2868   21.3782 H   0  0  0  0  0  0
  -23.3759  -35.9594   23.3297 H   0  0  0  0  0  0
  -24.3579  -36.8897   22.2059 H   0  0  0  0  0  0
  -23.7245  -37.6462   23.6677 H   0  0  0  0  0  0
  -26.1131  -31.5090   20.5940 H   0  0  0  0  0  0
  -26.8539  -30.8089   22.0010 H   0  0  0  0  0  0
  -28.1283  -28.9236   21.1747 H   0  0  0  0  0  0
  -25.9939  -25.8283   19.0716 H   0  0  0  0  0  0
  -23.9848  -27.2428   19.0392 H   0  0  0  0  0  0
  -23.7764  -30.5493   19.3912 H   0  0  0  0  0  0
  -22.7696  -29.2121   19.8562 H   0  0  0  0  0  0
  -25.1310  -36.1879   25.0815 H   0  0  0  0  0  0
  -20.9983  -28.3272   24.1392 H   0  0  0  0  0  0
  -20.5677  -26.2304   23.3615 H   0  0  0  0  0  0
  -21.6650  -26.7427   22.1211 H   0  0  0  0  0  0
  -19.6928  -25.6290   21.1244 H   0  0  0  0  0  0
  -19.6705  -27.3189   20.6739 H   0  0  0  0  0  0
  -17.4211  -26.6669   21.4017 H   0  0  0  0  0  0
  -18.0334  -26.0065   22.9013 H   0  0  0  0  0  0
  -19.7949  -30.7275   24.2245 H   0  0  0  0  0  0
  -17.5026  -31.6265   24.5161 H   0  0  0  0  0  0
  -15.5361  -30.2981   23.7666 H   0  0  0  0  0  0
  -15.8676  -28.0821   22.7065 H   0  0  0  0  0  0
  -24.5911  -30.7051   25.7719 H   0  0  0  0  0  0
  -24.8892  -32.2894   26.4775 H   0  0  0  0  0  0
  -25.8030  -30.8932   27.0190 H   0  0  0  0  0  0
  -26.2947  -29.6708   24.1210 H   0  0  0  0  0  0
  -27.4065  -29.7261   25.4691 H   0  0  0  0  0  0
  -27.8807  -30.4259   23.9397 H   0  0  0  0  0  0
  -27.2654  -33.3627   26.1997 H   0  0  0  0  0  0
  -28.3882  -32.6841   25.0302 H   0  0  0  0  0  0
  -28.0687  -31.8457   26.5408 H   0  0  0  0  0  0
  -28.2588  -38.0091   24.7513 H   0  0  0  0  0  0
  -28.1081  -36.2621   24.6292 H   0  0  0  0  0  0
  -27.2295  -37.1430   25.8869 H   0  0  0  0  0  0
  -20.9408  -29.8725   21.6826 H   0  0  0  0  0  0
  -26.0161  -38.2824   24.1408 H   0  0  0  0  0  0
  -27.5754  -19.9277   21.8200 H   0  0  0  0  0  0
  -31.1425  -17.7340   19.2032 H   0  0  0  0  0  0
  -27.8134  -22.4675   16.9456 H   0  0  0  0  0  0
  -27.5986  -24.3531   18.3210 H   0  0  0  0  0  0
  -29.3262  -24.3170   18.2274 H   0  0  0  0  0  0
  -28.0160  -24.5034   22.2466 H   0  0  0  0  0  0
  -26.8675  -23.8604   21.1063 H   0  0  0  0  0  0
  -28.1509  -22.0104   22.1855 H   0  0  0  0  0  0
  -29.6706  -22.7278   21.7481 H   0  0  0  0  0  0
  -29.5973  -24.8548   20.4287 H   0  0  0  0  0  0
  -27.0719  -17.9967   22.9385 H   0  0  0  0  0  0
  -28.3973  -16.8646   23.1770 H   0  0  0  0  0  0
  -27.1739  -16.5516   21.9424 H   0  0  0  0  0  0
  -32.0407  -19.9192   18.6848 H   0  0  0  0  0  0
  -31.1758  -21.4097   19.0218 H   0  0  0  0  0  0
  -30.6622  -20.3755   17.6854 H   0  0  0  0  0  0
  -27.4134  -19.8369   18.4645 H   0  0  0  0  0  0
  -28.4852  -19.8815   17.0495 H   0  0  0  0  0  0
  -26.7882  -20.3215   16.9101 H   0  0  0  0  0  0
  -28.8495  -15.4725   21.2308 H   0  0  0  0  0  0
  1 25  1  0  0  0
  1 30  2  0  0  0
  1 87  1  0  0  0
  2  3  1  0  0  0
  2 25  1  0  0  0
  2 88  1  0  0  0
  2 89  1  0  0  0
  3  4  1  0  0  0
  3 90  1  0  0  0
  3 91  1  0  0  0
  4  5  1  0  0  0
  4 92  1  0  0  0
  4 93  1  0  0  0
  5  6  1  0  0  0
  5 26  1  0  0  0
  5 94  1  0  0  0
  6 25  1  0  0  0
  6 95  1  0  0  0
  6 96  1  0  0  0
  7  8  2  0  0  0
  7 26  1  0  0  0
  7 29  1  0  0  0
  8  9  1  0  0  0
  8 22  1  0  0  0
  9 10  1  0  0  0
  9 27  2  0  0  0
 10 11  2  0  0  0
 10 15  1  0  0  0
 11 12  1  0  0  0
 11 97  1  0  0  0
 12 13  2  0  0  0
 12 98  1  0  0  0
 13 14  1  0  0  0
 13 31  1  0  0  0
 14 15  2  0  0  0
 14 99  1  0  0  0
 15100  1  0  0  0
 16 17  2  0  0  0
 16 21  1  0  0  0
 16 31  1  0  0  0
 17 18  1  0  0  0
 17101  1  0  0  0
 18 19  2  0  0  0
 18102  1  0  0  0
 19 20  1  0  0  0
 19 24  1  0  0  0
 20 21  2  0  0  0
 20103  1  0  0  0
 21 23  1  0  0  0
 22 28  1  0  0  0
 22 32  2  0  0  0
 26 27  1  0  0  0
 28104  1  0  0  0
 28105  1  0  0  0
 29106  1  0  0  0
 29107  1  0  0  0
 33 34  1  0  0  0
 33 66  1  0  0  0
 33 70  2  0  0  0
 34 36  1  0  0  0
 34 59  1  0  0  0
 34108  1  0  0  0
 35 44  2  0  0  0
 35 45  1  0  0  0
 35 68  1  0  0  0
 36 56  1  0  0  0
 36109  1  0  0  0
 37 39  1  0  0  0
 37 47  1  0  0  0
 37 66  1  0  0  0
 37110  1  0  0  0
 38 43  2  0  0  0
 38 46  1  0  0  0
 38 47  1  0  0  0
 39 64  1  0  0  0
 39 67  2  0  0  0
 40 52  1  0  0  0
 40 53  2  0  0  0
 40 58  1  0  0  0
 41111  1  0  0  0
 41112  1  0  0  0
 41113  1  0  0  0
 41 48  1  0  0  0
 42 43  1  0  0  0
 42 66  1  0  0  0
 42114  1  0  0  0
 42115  1  0  0  0
 43 44  1  0  0  0
 44116  1  0  0  0
 45 46  2  0  0  0
 45117  1  0  0  0
 46118  1  0  0  0
 47119  1  0  0  0
 47120  1  0  0  0
 48 56  1  0  0  0
 48 65  1  0  0  0
 48121  1  0  0  0
 49 50  1  0  0  0
 49 53  1  0  0  0
 49 64  1  0  0  0
 49122  1  0  0  0
 50 51  1  0  0  0
 50123  1  0  0  0
 50124  1  0  0  0
 51 52  1  0  0  0
 51125  1  0  0  0
 51126  1  0  0  0
 52127  1  0  0  0
 52128  1  0  0  0
 53 54  1  0  0  0
 54 55  2  0  0  0
 54129  1  0  0  0
 55 57  1  0  0  0
 55130  1  0  0  0
 56 69  2  0  0  0
 57 58  2  0  0  0
 57131  1  0  0  0
 58132  1  0  0  0
 59 60  1  0  0  0
 59 61  1  0  0  0
 59 62  1  0  0  0
 60133  1  0  0  0
 60134  1  0  0  0
 60135  1  0  0  0
 61136  1  0  0  0
 61137  1  0  0  0
 61138  1  0  0  0
 62139  1  0  0  0
 62140  1  0  0  0
 62141  1  0  0  0
 63 65  1  0  0  0
 63142  1  0  0  0
 63143  1  0  0  0
 63144  1  0  0  0
 64145  1  0  0  0
 65146  1  0  0  0
 68 82  1  0  0  0
 71 73  2  0  0  0
 71 75  1  0  0  0
 71147  1  0  0  0
 72 74  1  0  0  0
 72 76  2  0  0  0
 72148  1  0  0  0
 73 76  1  0  0  0
 73 83  1  0  0  0
 74 75  2  0  0  0
 74 84  1  0  0  0
 75 86  1  0  0  0
 76 87  1  0  0  0
 77 78  2  0  0  0
 77 79  1  0  0  0
 77 86  1  0  0  0
 78 85  1  0  0  0
 78149  1  0  0  0
 79 82  1  0  0  0
 79150  1  0  0  0
 79151  1  0  0  0
 80 81  1  0  0  0
 80 82  1  0  0  0
 80152  1  0  0  0
 80153  1  0  0  0
 81 86  1  0  0  0
 81154  1  0  0  0
 81155  1  0  0  0
 82156  1  0  0  0
 83157  1  0  0  0
 83158  1  0  0  0
 83159  1  0  0  0
 84160  1  0  0  0
 84161  1  0  0  0
 84162  1  0  0  0
 85163  1  0  0  0
 85164  1  0  0  0
 85165  1  0  0  0
 87166  1  0  0  0
M  ISO  4   1 100  68 101  82 101  87 100
M  END
> <chiral flag>
0

> <version>
0

> <s_m_source_file>
/data/baiqing/PycharmProjects/Reinvent-master-3.2/result/LINK_invent/BTK/process_docking_weight1_custom_product_contain_oxygen_bond_distance_aromatic_linkinvent_7_9_3/rearranged_h_0045.sdf

> <i_m_source_file_index>
48

> <r_mmod_Potential_Energy-OPLS-2005>
253.220397949219

> <r_mmod_Stretch_Energy-OPLS-2005>
144.335067749023

> <r_mmod_Bend_Energy-OPLS-2005>
255.983963012695

> <r_mmod_Torsional_Energy-OPLS-2005>
248.059860229492

> <r_mmod_Improper_Torsional_Energy-OPLS-2005>
3.55630207061768

> <r_mmod_Van_der_Waal_Energy-OPLS-2005>
135.856887817383

> <r_mmod_Electrostatic_Energy-OPLS-2005>
-438.667175292969

> <r_mmod_Solvation_Energy-OPLS-2005>
-199.645645141602

> <b_mmod_Minimization_Converged-OPLS-2005>
0

> <r_mmod_RMS_Derivative-OPLS-2005>
0.479729145765305

$$$$
48
                    3D
 Structure written by MMmdl.
165173  0  0  1  0            999 V2000
  -30.6756  -14.5636   20.5240 C   0  0  0  0  0  0
  -30.4304  -12.3495   19.4477 C   0  0  0  0  0  0
  -29.5068  -12.5015   18.2206 C   0  0  0  0  0  0
  -28.0310  -12.3442   18.6372 C   0  0  0  0  0  0
  -27.6592  -13.2127   19.8700 C   0  0  2  0  0  0
  -28.7022  -13.0528   20.9991 C   0  0  0  0  0  0
  -25.2578  -13.8175   20.5709 C   0  0  0  0  0  0
  -24.1831  -13.0433   20.9196 C   0  0  0  0  0  0
  -24.6374  -11.6909   20.8738 C   0  0  0  0  0  0
  -23.9048  -10.4290   21.0407 C   0  0  0  0  0  0
  -24.3608   -9.4214   21.9181 C   0  0  0  0  0  0
  -23.6286   -8.2240   22.0751 C   0  0  0  0  0  0
  -22.4269   -8.0275   21.3541 C   0  0  0  0  0  0
  -21.9901   -9.0249   20.4644 C   0  0  0  0  0  0
  -22.7223  -10.2127   20.3053 C   0  0  0  0  0  0
  -21.6853   -6.0733   22.5282 C   0  0  0  0  0  0
  -21.4007   -6.5633   23.8221 C   0  0  0  0  0  0
  -21.3658   -5.6793   24.9183 C   0  0  0  0  0  0
  -21.6048   -4.3057   24.7231 C   0  0  0  0  0  0
  -21.8818   -3.8141   23.4352 C   0  0  0  0  0  0
  -21.9188   -4.6959   22.3406 C   0  0  0  0  0  0
  -22.7850  -13.5244   21.1872 C   0  0  0  0  0  0
  -22.1664   -4.2137   21.0987 F   0  0  0  0  0  0
  -21.5633   -3.4545   25.7748 F   0  0  0  0  0  0
  -30.0252  -13.3659   20.4372 N   0  0  0  0  0  0
  -26.3015  -12.9344   20.3377 N   0  0  0  0  0  0
  -25.9296  -11.6506   20.5754 N   0  0  0  0  0  0
  -22.0486  -12.8228   22.0420 N   0  0  0  0  0  0
  -25.4283  -15.1885   20.4119 N   0  0  0  0  0  0
  -31.8255  -14.7144   20.1034 O   0  0  0  0  0  0
  -21.6628   -6.8869   21.4246 O   0  0  0  0  0  0
  -22.3553  -14.5559   20.6732 O   0  0  0  0  0  0
  -24.6195  -31.8651   23.2097 C   0  0  0  0  0  0
  -25.9077  -32.4816   23.8399 C   0  0  1  0  0  0
  -27.2310  -27.3899   20.0960 C   0  0  0  0  0  0
  -25.5886  -33.8613   24.2318 N   0  0  0  0  0  0
  -23.4073  -30.4937   21.5508 C   0  0  2  0  0  0
  -24.8534  -28.9588   20.1121 C   0  0  0  0  0  0
  -22.7422  -29.4682   22.4966 C   0  0  0  0  0  0
  -18.0269  -28.1398   22.8506 C   0  0  0  0  0  0
  -24.1477  -36.7307   23.2641 C   0  0  0  0  0  0
  -25.9430  -30.8201   21.3685 C   0  0  0  0  0  0
  -26.0199  -29.4540   20.7077 C   0  0  0  0  0  0
  -27.2098  -28.6786   20.6942 C   0  0  0  0  0  0
  -26.0390  -26.9331   19.4783 C   0  0  0  0  0  0
  -24.8608  -27.7003   19.4921 C   0  0  0  0  0  0
  -23.6168  -29.8289   20.1655 C   0  0  0  0  0  0
  -25.4096  -36.3112   24.0349 C   0  0  1  0  0  0
  -20.5865  -28.3692   23.1294 C   0  0  2  0  0  0
  -20.6754  -26.9407   22.5420 C   0  0  0  0  0  0
  -19.5733  -26.6406   21.5222 C   0  0  0  0  0  0
  -18.1919  -26.7949   22.1633 C   0  0  0  0  0  0
  -19.1527  -28.8854   23.2904 C   0  0  0  0  0  0
  -18.9452  -30.1459   23.8921 C   0  0  0  0  0  0
  -17.6454  -30.6606   24.0569 C   0  0  0  0  0  0
  -25.9028  -34.9469   23.5133 C   0  0  0  0  0  0
  -16.5342  -29.9113   23.6326 C   0  0  0  0  0  0
  -16.7257  -28.6523   23.0365 C   0  0  0  0  0  0
  -26.4487  -31.6603   25.0735 C   0  0  0  0  0  0
  -25.3753  -31.3700   26.1483 C   0  0  0  0  0  0
  -27.0322  -30.3037   24.6135 C   0  0  0  0  0  0
  -27.6066  -32.4314   25.7493 C   0  0  0  0  0  0
  -27.5571  -37.1810   24.8464 C   0  0  0  0  0  0
  -21.4149  -29.3063   22.3706 N   0  0  0  0  0  0
  -26.4279  -37.3798   23.9423 N   0  0  0  0  0  0
  -24.6753  -31.0729   22.1003 N   0  0  0  0  0  0
  -23.4182  -28.8215   23.3012 O   0  0  0  0  0  0
  -28.3814  -26.6049   20.1376 O   0  0  0  0  0  0
  -26.5591  -34.8916   22.4699 O   0  0  0  0  0  0
  -23.5377  -32.1418   23.7455 O   0  0  0  0  0  0
  -30.4690  -17.3424   23.1748 C   0  0  0  0  0  0
  -29.7081  -19.2256   24.4836 C   0  0  0  0  0  0
  -30.0836  -17.9732   21.9683 C   0  0  0  0  0  0
  -29.5998  -19.3411   22.0171 C   0  0  0  0  0  0
  -30.2968  -17.9592   24.4213 C   0  0  0  0  0  0
  -29.3508  -19.9037   23.3065 C   0  0  0  0  0  0
  -29.7343  -24.5149   21.9001 C   0  0  0  0  0  0
  -30.6117  -24.5836   19.5583 C   0  0  0  0  0  0
  -30.2207  -17.0890   20.7032 C   0  0  0  0  0  0
  -29.2477  -20.2241   20.7796 C   0  0  0  0  0  0
  -28.9354  -22.7156   20.2184 C   0  0  0  0  0  0
  -28.1988  -25.1676   19.9928 C   0  0  0  0  0  0
  -29.3859  -24.2287   20.4229 C   0  0  0  0  0  0
  -29.9222  -15.6334   20.8934 N   0  0  0  0  0  0
  -29.8088  -21.6294   20.7929 N   0  3  0  0  0  0
  -30.7820  -17.1430   25.8623 Cl  0  0  0  0  0  0
  -28.5760  -21.4365   23.5140 Cl  0  0  0  0  0  0
  -31.4770  -12.4448   19.1503 H   0  0  0  0  0  0
  -30.3355  -11.3508   19.8760 H   0  0  0  0  0  0
  -29.7626  -11.7590   17.4621 H   0  0  0  0  0  0
  -29.6582  -13.4799   17.7607 H   0  0  0  0  0  0
  -27.8683  -11.2916   18.8699 H   0  0  0  0  0  0
  -27.3727  -12.5703   17.7984 H   0  0  0  0  0  0
  -27.6838  -14.2514   19.5390 H   0  0  0  0  0  0
  -28.6922  -12.0319   21.3835 H   0  0  0  0  0  0
  -28.4576  -13.6909   21.8496 H   0  0  0  0  0  0
  -25.2744   -9.5697   22.4763 H   0  0  0  0  0  0
  -24.0006   -7.4626   22.7462 H   0  0  0  0  0  0
  -21.0836   -8.8763   19.8934 H   0  0  0  0  0  0
  -22.3686  -10.9670   19.6167 H   0  0  0  0  0  0
  -21.1991   -7.6135   23.9724 H   0  0  0  0  0  0
  -21.1494   -6.0517   25.9093 H   0  0  0  0  0  0
  -22.0590   -2.7594   23.2863 H   0  0  0  0  0  0
  -22.4076  -11.9888   22.4826 H   0  0  0  0  0  0
  -21.1088  -13.1249   22.2588 H   0  0  0  0  0  0
  -24.6590  -15.8409   20.5150 H   0  0  0  0  0  0
  -26.2812  -15.6300   20.0907 H   0  0  0  0  0  0
  -26.7136  -32.5532   23.1155 H   0  0  0  0  0  0
  -25.0058  -33.9762   25.0476 H   0  0  0  0  0  0
  -22.7001  -31.3142   21.4121 H   0  0  0  0  0  0
  -23.3746  -35.9629   23.3297 H   0  0  0  0  0  0
  -24.3567  -36.8930   22.2052 H   0  0  0  0  0  0
  -23.7211  -37.6503   23.6651 H   0  0  0  0  0  0
  -26.0606  -31.5878   20.6033 H   0  0  0  0  0  0
  -26.8298  -30.8707   21.9894 H   0  0  0  0  0  0
  -28.1066  -29.0556   21.1636 H   0  0  0  0  0  0
  -25.9898  -25.9741   18.9848 H   0  0  0  0  0  0
  -23.9640  -27.3175   19.0254 H   0  0  0  0  0  0
  -23.7242  -30.6056   19.4093 H   0  0  0  0  0  0
  -22.7389  -29.2522   19.8706 H   0  0  0  0  0  0
  -25.1268  -36.1993   25.0844 H   0  0  0  0  0  0
  -20.9958  -28.3274   24.1406 H   0  0  0  0  0  0
  -20.5654  -26.2298   23.3626 H   0  0  0  0  0  0
  -21.6629  -26.7462   22.1204 H   0  0  0  0  0  0
  -19.6890  -25.6322   21.1237 H   0  0  0  0  0  0
  -19.6672  -27.3227   20.6754 H   0  0  0  0  0  0
  -17.4176  -26.6700   21.4043 H   0  0  0  0  0  0
  -18.0313  -26.0097   22.9031 H   0  0  0  0  0  0
  -19.7938  -30.7272   24.2314 H   0  0  0  0  0  0
  -17.5019  -31.6292   24.5172 H   0  0  0  0  0  0
  -15.5356  -30.3024   23.7654 H   0  0  0  0  0  0
  -15.8654  -28.0857   22.7073 H   0  0  0  0  0  0
  -24.5921  -30.7049   25.7823 H   0  0  0  0  0  0
  -24.8961  -32.2844   26.4967 H   0  0  0  0  0  0
  -25.8125  -30.8850   27.0225 H   0  0  0  0  0  0
  -26.2877  -29.6785   24.1188 H   0  0  0  0  0  0
  -27.4076  -29.7288   25.4619 H   0  0  0  0  0  0
  -27.8723  -30.4335   23.9317 H   0  0  0  0  0  0
  -27.2689  -33.3590   26.2117 H   0  0  0  0  0  0
  -28.3853  -32.6918   25.0316 H   0  0  0  0  0  0
  -28.0750  -31.8420   26.5374 H   0  0  0  0  0  0
  -28.2605  -38.0090   24.7509 H   0  0  0  0  0  0
  -28.1051  -36.2632   24.6298 H   0  0  0  0  0  0
  -27.2290  -37.1465   25.8865 H   0  0  0  0  0  0
  -20.9299  -29.8768   21.6920 H   0  0  0  0  0  0
  -26.0176  -38.2881   24.1432 H   0  0  0  0  0  0
  -30.8968  -16.3527   23.1616 H   0  0  0  0  0  0
  -29.5265  -19.6819   25.4466 H   0  0  0  0  0  0
  -29.9129  -25.5808   22.0560 H   0  0  0  0  0  0
  -28.9341  -24.2208   22.5798 H   0  0  0  0  0  0
  -30.6503  -24.0066   22.2103 H   0  0  0  0  0  0
  -30.3831  -24.5279   18.4931 H   0  0  0  0  0  0
  -30.9429  -25.6062   19.7590 H   0  0  0  0  0  0
  -31.4617  -23.9320   19.7627 H   0  0  0  0  0  0
  -29.5545  -17.4565   19.9241 H   0  0  0  0  0  0
  -31.2332  -17.2174   20.3166 H   0  0  0  0  0  0
  -28.1578  -20.2765   20.7470 H   0  0  0  0  0  0
  -29.5465  -19.7334   19.8544 H   0  0  0  0  0  0
  -28.7790  -22.5255   19.1543 H   0  0  0  0  0  0
  -27.9523  -22.6076   20.6816 H   0  0  0  0  0  0
  -27.9599  -24.9561   18.9483 H   0  0  0  0  0  0
  -27.3260  -24.8686   20.5779 H   0  0  0  0  0  0
  -28.9875  -15.4085   21.2024 H   0  0  0  0  0  0
  -30.7137  -21.6303   20.3492 H   0  0  0  0  0  0
  -29.9448  -21.8631   21.7648 H   0  0  0  0  0  0
  1 25  1  0  0  0
  1 30  2  0  0  0
  1 84  1  0  0  0
  2  3  1  0  0  0
  2 25  1  0  0  0
  2 88  1  0  0  0
  2 89  1  0  0  0
  3  4  1  0  0  0
  3 90  1  0  0  0
  3 91  1  0  0  0
  4  5  1  0  0  0
  4 92  1  0  0  0
  4 93  1  0  0  0
  5  6  1  0  0  0
  5 26  1  0  0  0
  5 94  1  0  0  0
  6 25  1  0  0  0
  6 95  1  0  0  0
  6 96  1  0  0  0
  7  8  2  0  0  0
  7 26  1  0  0  0
  7 29  1  0  0  0
  8  9  1  0  0  0
  8 22  1  0  0  0
  9 10  1  0  0  0
  9 27  2  0  0  0
 10 11  2  0  0  0
 10 15  1  0  0  0
 11 12  1  0  0  0
 11 97  1  0  0  0
 12 13  2  0  0  0
 12 98  1  0  0  0
 13 14  1  0  0  0
 13 31  1  0  0  0
 14 15  2  0  0  0
 14 99  1  0  0  0
 15100  1  0  0  0
 16 17  2  0  0  0
 16 21  1  0  0  0
 16 31  1  0  0  0
 17 18  1  0  0  0
 17101  1  0  0  0
 18 19  2  0  0  0
 18102  1  0  0  0
 19 20  1  0  0  0
 19 24  1  0  0  0
 20 21  2  0  0  0
 20103  1  0  0  0
 21 23  1  0  0  0
 22 28  1  0  0  0
 22 32  2  0  0  0
 26 27  1  0  0  0
 28104  1  0  0  0
 28105  1  0  0  0
 29106  1  0  0  0
 29107  1  0  0  0
 33 34  1  0  0  0
 33 66  1  0  0  0
 33 70  2  0  0  0
 34 36  1  0  0  0
 34 59  1  0  0  0
 34108  1  0  0  0
 35 44  2  0  0  0
 35 45  1  0  0  0
 35 68  1  0  0  0
 36 56  1  0  0  0
 36109  1  0  0  0
 37 39  1  0  0  0
 37 47  1  0  0  0
 37 66  1  0  0  0
 37110  1  0  0  0
 38 43  2  0  0  0
 38 46  1  0  0  0
 38 47  1  0  0  0
 39 64  1  0  0  0
 39 67  2  0  0  0
 40 52  1  0  0  0
 40 53  2  0  0  0
 40 58  1  0  0  0
 41111  1  0  0  0
 41112  1  0  0  0
 41113  1  0  0  0
 41 48  1  0  0  0
 42 43  1  0  0  0
 42 66  1  0  0  0
 42114  1  0  0  0
 42115  1  0  0  0
 43 44  1  0  0  0
 44116  1  0  0  0
 45 46  2  0  0  0
 45117  1  0  0  0
 46118  1  0  0  0
 47119  1  0  0  0
 47120  1  0  0  0
 48 56  1  0  0  0
 48 65  1  0  0  0
 48121  1  0  0  0
 49 50  1  0  0  0
 49 53  1  0  0  0
 49 64  1  0  0  0
 49122  1  0  0  0
 50 51  1  0  0  0
 50123  1  0  0  0
 50124  1  0  0  0
 51 52  1  0  0  0
 51125  1  0  0  0
 51126  1  0  0  0
 52127  1  0  0  0
 52128  1  0  0  0
 53 54  1  0  0  0
 54 55  2  0  0  0
 54129  1  0  0  0
 55 57  1  0  0  0
 55130  1  0  0  0
 56 69  2  0  0  0
 57 58  2  0  0  0
 57131  1  0  0  0
 58132  1  0  0  0
 59 60  1  0  0  0
 59 61  1  0  0  0
 59 62  1  0  0  0
 60133  1  0  0  0
 60134  1  0  0  0
 60135  1  0  0  0
 61136  1  0  0  0
 61137  1  0  0  0
 61138  1  0  0  0
 62139  1  0  0  0
 62140  1  0  0  0
 62141  1  0  0  0
 63 65  1  0  0  0
 63142  1  0  0  0
 63143  1  0  0  0
 63144  1  0  0  0
 64145  1  0  0  0
 65146  1  0  0  0
 68 82  1  0  0  0
 71 73  2  0  0  0
 71 75  1  0  0  0
 71147  1  0  0  0
 72 75  2  0  0  0
 72 76  1  0  0  0
 72148  1  0  0  0
 73 74  1  0  0  0
 73 79  1  0  0  0
 74 76  2  0  0  0
 74 80  1  0  0  0
 75 86  1  0  0  0
 76 87  1  0  0  0
 77149  1  0  0  0
 77150  1  0  0  0
 77151  1  0  0  0
 77 83  1  0  0  0
 78 83  1  0  0  0
 78152  1  0  0  0
 78153  1  0  0  0
 78154  1  0  0  0
 79 84  1  0  0  0
 79155  1  0  0  0
 79156  1  0  0  0
 80 85  1  0  0  0
 80157  1  0  0  0
 80158  1  0  0  0
 81 83  1  0  0  0
 81 85  1  0  0  0
 81159  1  0  0  0
 81160  1  0  0  0
 82 83  1  0  0  0
 82161  1  0  0  0
 82162  1  0  0  0
 84163  1  0  0  0
 85164  1  0  0  0
 85165  1  0  0  0
M  CHG  1  85   1
M  ISO  4   1 100  68 101  82 101  84 100
M  END
> <chiral flag>
0

> <version>
0

> <s_m_source_file>
/data/baiqing/PycharmProjects/Reinvent-master-3.2/result/LINK_invent/BTK/process_docking_weight1_custom_product_contain_oxygen_bond_distance_aromatic_linkinvent_7_9_3/rearranged_h_0045.sdf

> <i_m_source_file_index>
49

> <r_mmod_Potential_Energy-OPLS-2005>
-250.287689208984

> <r_mmod_Stretch_Energy-OPLS-2005>
65.4146728515625

> <r_mmod_Bend_Energy-OPLS-2005>
125.205459594727

> <r_mmod_Torsional_Energy-OPLS-2005>
221.494430541992

> <r_mmod_Improper_Torsional_Energy-OPLS-2005>
5.1865873336792

> <r_mmod_Van_der_Waal_Energy-OPLS-2005>
152.906753540039

> <r_mmod_Electrostatic_Energy-OPLS-2005>
-372.358062744141

> <r_mmod_Solvation_Energy-OPLS-2005>
-474.094268798828

> <b_mmod_Minimization_Converged-OPLS-2005>
0

> <r_mmod_RMS_Derivative-OPLS-2005>
4.24902391433716

$$$$
49
                    3D
 Structure written by MMmdl.
154162  0  0  1  0            999 V2000
  -30.5509  -14.7515   20.5016 C   0  0  0  0  0  0
  -30.4583  -12.4661   19.4567 C   0  0  0  0  0  0
  -29.5154  -12.5260   18.2313 C   0  0  0  0  0  0
  -28.0428  -12.3389   18.6487 C   0  0  0  0  0  0
  -27.6564  -13.2155   19.8682 C   0  0  2  0  0  0
  -28.7041  -13.0768   20.9961 C   0  0  0  0  0  0
  -25.2581  -13.8156   20.5689 C   0  0  0  0  0  0
  -24.1845  -13.0424   20.9189 C   0  0  0  0  0  0
  -24.6419  -11.6895   20.8743 C   0  0  0  0  0  0
  -23.9087  -10.4278   21.0406 C   0  0  0  0  0  0
  -24.3627   -9.4193   21.9183 C   0  0  0  0  0  0
  -23.6294   -8.2234   22.0758 C   0  0  0  0  0  0
  -22.4274   -8.0278   21.3553 C   0  0  0  0  0  0
  -21.9920   -9.0255   20.4655 C   0  0  0  0  0  0
  -22.7262  -10.2126   20.3059 C   0  0  0  0  0  0
  -21.6854   -6.0732   22.5280 C   0  0  0  0  0  0
  -21.4013   -6.5640   23.8213 C   0  0  0  0  0  0
  -21.3656   -5.6796   24.9178 C   0  0  0  0  0  0
  -21.6039   -4.3059   24.7233 C   0  0  0  0  0  0
  -21.8823   -3.8146   23.4354 C   0  0  0  0  0  0
  -21.9194   -4.6957   22.3408 C   0  0  0  0  0  0
  -22.7871  -13.5220   21.1849 C   0  0  0  0  0  0
  -22.1659   -4.2142   21.0988 F   0  0  0  0  0  0
  -21.5633   -3.4547   25.7744 F   0  0  0  0  0  0
  -30.0083  -13.4825   20.4383 N   0  0  0  0  0  0
  -26.3010  -12.9330   20.3341 N   0  0  0  0  0  0
  -25.9348  -11.6486   20.5764 N   0  0  0  0  0  0
  -22.0520  -12.8203   22.0408 N   0  0  0  0  0  0
  -25.4293  -15.1875   20.4084 N   0  0  0  0  0  0
  -31.6815  -14.9646   20.0517 O   0  0  0  0  0  0
  -21.6641   -6.8873   21.4245 O   0  0  0  0  0  0
  -22.3544  -14.5524   20.6704 O   0  0  0  0  0  0
  -24.6330  -31.8544   23.1977 C   0  0  0  0  0  0
  -25.9159  -32.4744   23.8316 C   0  0  1  0  0  0
  -27.2178  -27.2477   20.1328 C   0  0  0  0  0  0
  -25.5949  -33.8542   24.2243 N   0  0  0  0  0  0
  -23.4280  -30.4793   21.5408 C   0  0  2  0  0  0
  -24.8737  -28.9199   20.1148 C   0  0  0  0  0  0
  -22.7472  -29.4633   22.4901 C   0  0  0  0  0  0
  -18.0298  -28.1400   22.8490 C   0  0  0  0  0  0
  -24.1492  -36.7276   23.2642 C   0  0  0  0  0  0
  -25.9749  -30.7621   21.3792 C   0  0  0  0  0  0
  -26.0471  -29.3820   20.7251 C   0  0  0  0  0  0
  -27.2217  -28.5589   20.7234 C   0  0  0  0  0  0
  -26.0241  -26.8640   19.4820 C   0  0  0  0  0  0
  -24.8678  -27.6676   19.4841 C   0  0  0  0  0  0
  -23.6466  -29.8112   20.1585 C   0  0  0  0  0  0
  -25.4118  -36.3056   24.0321 C   0  0  1  0  0  0
  -20.5893  -28.3739   23.1277 C   0  0  2  0  0  0
  -20.6773  -26.9426   22.5490 C   0  0  0  0  0  0
  -19.5785  -26.6397   21.5251 C   0  0  0  0  0  0
  -18.1960  -26.7935   22.1650 C   0  0  0  0  0  0
  -19.1546  -28.8885   23.2866 C   0  0  0  0  0  0
  -18.9460  -30.1491   23.8866 C   0  0  0  0  0  0
  -17.6458  -30.6606   24.0550 C   0  0  0  0  0  0
  -25.9063  -34.9430   23.5087 C   0  0  0  0  0  0
  -16.5348  -29.9099   23.6325 C   0  0  0  0  0  0
  -16.7277  -28.6512   23.0356 C   0  0  0  0  0  0
  -26.4519  -31.6569   25.0708 C   0  0  0  0  0  0
  -25.3743  -31.3722   26.1431 C   0  0  0  0  0  0
  -27.0369  -30.2981   24.6202 C   0  0  0  0  0  0
  -27.6057  -32.4315   25.7500 C   0  0  0  0  0  0
  -27.5573  -37.1793   24.8464 C   0  0  0  0  0  0
  -21.4185  -29.3067   22.3625 N   0  0  0  0  0  0
  -26.4286  -37.3758   23.9409 N   0  0  0  0  0  0
  -24.6977  -31.0503   22.0957 N   0  0  0  0  0  0
  -23.4148  -28.8190   23.3028 O   0  0  0  0  0  0
  -28.3131  -26.3469   20.1561 O   0  0  0  0  0  0
  -26.5633  -34.8908   22.4658 O   0  0  0  0  0  0
  -23.5483  -32.1372   23.7275 O   0  0  0  0  0  0
  -27.3235  -18.4429   21.7332 C   0  0  0  0  0  0
  -27.8593  -19.6354   21.2338 C   0  0  0  0  0  0
  -28.0243  -17.2357   21.6180 C   0  0  0  0  0  0
  -29.1233  -19.6845   20.6039 C   0  0  0  0  0  0
  -29.8499  -18.3938   20.4890 C   0  0  0  0  0  0
  -29.2892  -17.1338   20.9976 C   0  0  0  0  0  0
  -29.5598  -21.0989   20.0689 C   0  0  0  0  0  0
  -31.2242  -18.3540   19.8432 C   0  0  0  0  0  0
  -29.1418  -23.7174   20.0376 C   0  0  0  0  0  0
  -28.0695  -24.8752   20.4254 C   0  0  0  0  0  0
  -29.7360  -15.7082   21.0848 N   0  0  0  0  0  0
  -28.8875  -22.2569   20.4455 N   0  0  0  0  0  0
  -30.5085  -21.1876   19.2893 O   0  0  0  0  0  0
  -31.4907  -12.6316   19.1426 H   0  0  0  0  0  0
  -30.4412  -11.4699   19.9012 H   0  0  0  0  0  0
  -29.7942  -11.7636   17.5023 H   0  0  0  0  0  0
  -29.6325  -13.4848   17.7244 H   0  0  0  0  0  0
  -27.9032  -11.2855   18.8957 H   0  0  0  0  0  0
  -27.3810  -12.5440   17.8068 H   0  0  0  0  0  0
  -27.6714  -14.2496   19.5246 H   0  0  0  0  0  0
  -28.7466  -12.0450   21.3501 H   0  0  0  0  0  0
  -28.4220  -13.6666   21.8682 H   0  0  0  0  0  0
  -25.2775   -9.5660   22.4754 H   0  0  0  0  0  0
  -23.9999   -7.4623   22.7471 H   0  0  0  0  0  0
  -21.0857   -8.8788   19.8949 H   0  0  0  0  0  0
  -22.3738  -10.9669   19.6163 H   0  0  0  0  0  0
  -21.2003   -7.6147   23.9716 H   0  0  0  0  0  0
  -21.1474   -6.0527   25.9081 H   0  0  0  0  0  0
  -22.0601   -2.7608   23.2867 H   0  0  0  0  0  0
  -22.4145  -11.9856   22.4771 H   0  0  0  0  0  0
  -21.1129  -13.1211   22.2618 H   0  0  0  0  0  0
  -24.6627  -15.8410   20.5202 H   0  0  0  0  0  0
  -26.2781  -15.6282   20.0767 H   0  0  0  0  0  0
  -26.7222  -32.5386   23.1051 H   0  0  0  0  0  0
  -25.0069  -33.9671   25.0370 H   0  0  0  0  0  0
  -22.7281  -31.3050   21.3925 H   0  0  0  0  0  0
  -23.3745  -35.9618   23.3300 H   0  0  0  0  0  0
  -24.3580  -36.8904   22.2058 H   0  0  0  0  0  0
  -23.7256  -37.6478   23.6673 H   0  0  0  0  0  0
  -26.1169  -31.5190   20.6068 H   0  0  0  0  0  0
  -26.8525  -30.8127   22.0118 H   0  0  0  0  0  0
  -28.1177  -28.9092   21.2164 H   0  0  0  0  0  0
  -25.9598  -25.9240   18.9558 H   0  0  0  0  0  0
  -23.9728  -27.3095   18.9941 H   0  0  0  0  0  0
  -23.7752  -30.5868   19.4019 H   0  0  0  0  0  0
  -22.7621  -29.2488   19.8532 H   0  0  0  0  0  0
  -25.1306  -36.1894   25.0810 H   0  0  0  0  0  0
  -20.9987  -28.3405   24.1396 H   0  0  0  0  0  0
  -21.6656  -26.7391   22.1364 H   0  0  0  0  0  0
  -20.5588  -26.2361   23.3726 H   0  0  0  0  0  0
  -19.6950  -25.6311   21.1278 H   0  0  0  0  0  0
  -19.6754  -27.3222   20.6796 H   0  0  0  0  0  0
  -17.4227  -26.6649   21.4067 H   0  0  0  0  0  0
  -18.0365  -26.0101   22.9080 H   0  0  0  0  0  0
  -19.7943  -30.7314   24.2203 H   0  0  0  0  0  0
  -17.4999  -31.6292   24.5135 H   0  0  0  0  0  0
  -15.5354  -30.3009   23.7656 H   0  0  0  0  0  0
  -15.8684  -28.0814   22.7086 H   0  0  0  0  0  0
  -24.5936  -30.7044   25.7774 H   0  0  0  0  0  0
  -24.8915  -32.2887   26.4825 H   0  0  0  0  0  0
  -25.8073  -30.8935   27.0224 H   0  0  0  0  0  0
  -26.2951  -29.6721   24.1226 H   0  0  0  0  0  0
  -27.4044  -29.7253   25.4728 H   0  0  0  0  0  0
  -27.8835  -30.4239   23.9451 H   0  0  0  0  0  0
  -27.2648  -33.3623   26.2046 H   0  0  0  0  0  0
  -28.3898  -32.6861   25.0358 H   0  0  0  0  0  0
  -28.0690  -31.8457   26.5449 H   0  0  0  0  0  0
  -28.2590  -38.0089   24.7502 H   0  0  0  0  0  0
  -28.1067  -36.2617   24.6302 H   0  0  0  0  0  0
  -27.2286  -37.1457   25.8864 H   0  0  0  0  0  0
  -20.9384  -29.8733   21.6771 H   0  0  0  0  0  0
  -26.0157  -38.2829   24.1408 H   0  0  0  0  0  0
  -26.3533  -18.4515   22.2100 H   0  0  0  0  0  0
  -27.2591  -20.5262   21.3417 H   0  0  0  0  0  0
  -27.5459  -16.3576   22.0301 H   0  0  0  0  0  0
  -31.8363  -19.2014   20.1507 H   0  0  0  0  0  0
  -31.1339  -18.3612   18.7563 H   0  0  0  0  0  0
  -31.7725  -17.4632   20.1345 H   0  0  0  0  0  0
  -30.1080  -24.0009   20.4535 H   0  0  0  0  0  0
  -29.2753  -23.7365   18.9549 H   0  0  0  0  0  0
  -27.9043  -24.8046   21.5006 H   0  0  0  0  0  0
  -27.1272  -24.5540   19.9880 H   0  0  0  0  0  0
  -29.0275  -15.1777   21.5677 H   0  0  0  0  0  0
  -28.1296  -22.1146   21.0973 H   0  0  0  0  0  0
  1 25  1  0  0  0
  1 30  2  0  0  0
  1 81  1  0  0  0
  2  3  1  0  0  0
  2 25  1  0  0  0
  2 84  1  0  0  0
  2 85  1  0  0  0
  3  4  1  0  0  0
  3 86  1  0  0  0
  3 87  1  0  0  0
  4  5  1  0  0  0
  4 88  1  0  0  0
  4 89  1  0  0  0
  5  6  1  0  0  0
  5 26  1  0  0  0
  5 90  1  0  0  0
  6 25  1  0  0  0
  6 91  1  0  0  0
  6 92  1  0  0  0
  7  8  2  0  0  0
  7 26  1  0  0  0
  7 29  1  0  0  0
  8  9  1  0  0  0
  8 22  1  0  0  0
  9 10  1  0  0  0
  9 27  2  0  0  0
 10 11  2  0  0  0
 10 15  1  0  0  0
 11 12  1  0  0  0
 11 93  1  0  0  0
 12 13  2  0  0  0
 12 94  1  0  0  0
 13 14  1  0  0  0
 13 31  1  0  0  0
 14 15  2  0  0  0
 14 95  1  0  0  0
 15 96  1  0  0  0
 16 17  2  0  0  0
 16 21  1  0  0  0
 16 31  1  0  0  0
 17 18  1  0  0  0
 17 97  1  0  0  0
 18 19  2  0  0  0
 18 98  1  0  0  0
 19 20  1  0  0  0
 19 24  1  0  0  0
 20 21  2  0  0  0
 20 99  1  0  0  0
 21 23  1  0  0  0
 22 28  1  0  0  0
 22 32  2  0  0  0
 26 27  1  0  0  0
 28100  1  0  0  0
 28101  1  0  0  0
 29102  1  0  0  0
 29103  1  0  0  0
 33 34  1  0  0  0
 33 66  1  0  0  0
 33 70  2  0  0  0
 34 36  1  0  0  0
 34 59  1  0  0  0
 34104  1  0  0  0
 35 44  2  0  0  0
 35 45  1  0  0  0
 35 68  1  0  0  0
 36 56  1  0  0  0
 36105  1  0  0  0
 37 39  1  0  0  0
 37 47  1  0  0  0
 37 66  1  0  0  0
 37106  1  0  0  0
 38 43  2  0  0  0
 38 46  1  0  0  0
 38 47  1  0  0  0
 39 64  1  0  0  0
 39 67  2  0  0  0
 40 52  1  0  0  0
 40 53  2  0  0  0
 40 58  1  0  0  0
 41107  1  0  0  0
 41108  1  0  0  0
 41109  1  0  0  0
 41 48  1  0  0  0
 42 43  1  0  0  0
 42 66  1  0  0  0
 42110  1  0  0  0
 42111  1  0  0  0
 43 44  1  0  0  0
 44112  1  0  0  0
 45 46  2  0  0  0
 45113  1  0  0  0
 46114  1  0  0  0
 47115  1  0  0  0
 47116  1  0  0  0
 48 56  1  0  0  0
 48 65  1  0  0  0
 48117  1  0  0  0
 49 50  1  0  0  0
 49 53  1  0  0  0
 49 64  1  0  0  0
 49118  1  0  0  0
 50 51  1  0  0  0
 50119  1  0  0  0
 50120  1  0  0  0
 51 52  1  0  0  0
 51121  1  0  0  0
 51122  1  0  0  0
 52123  1  0  0  0
 52124  1  0  0  0
 53 54  1  0  0  0
 54 55  2  0  0  0
 54125  1  0  0  0
 55 57  1  0  0  0
 55126  1  0  0  0
 56 69  2  0  0  0
 57 58  2  0  0  0
 57127  1  0  0  0
 58128  1  0  0  0
 59 60  1  0  0  0
 59 61  1  0  0  0
 59 62  1  0  0  0
 60129  1  0  0  0
 60130  1  0  0  0
 60131  1  0  0  0
 61132  1  0  0  0
 61133  1  0  0  0
 61134  1  0  0  0
 62135  1  0  0  0
 62136  1  0  0  0
 62137  1  0  0  0
 63 65  1  0  0  0
 63138  1  0  0  0
 63139  1  0  0  0
 63140  1  0  0  0
 64141  1  0  0  0
 65142  1  0  0  0
 68 80  1  0  0  0
 71 72  2  0  0  0
 71 73  1  0  0  0
 71143  1  0  0  0
 72 74  1  0  0  0
 72144  1  0  0  0
 73 76  2  0  0  0
 73145  1  0  0  0
 74 75  2  0  0  0
 74 77  1  0  0  0
 75 76  1  0  0  0
 75 78  1  0  0  0
 76 81  1  0  0  0
 77 82  1  0  0  0
 77 83  2  0  0  0
 78146  1  0  0  0
 78147  1  0  0  0
 78148  1  0  0  0
 79 80  1  0  0  0
 79 82  1  0  0  0
 79149  1  0  0  0
 79150  1  0  0  0
 80151  1  0  0  0
 80152  1  0  0  0
 81153  1  0  0  0
 82154  1  0  0  0
M  ISO  4   1 100  68 101  80 101  81 100
M  END
> <chiral flag>
0

> <version>
0

> <s_m_source_file>
/data/baiqing/PycharmProjects/Reinvent-master-3.2/result/LINK_invent/BTK/process_docking_weight1_custom_product_contain_oxygen_bond_distance_aromatic_linkinvent_7_9_3/rearranged_h_0045.sdf

> <i_m_source_file_index>
50

> <r_mmod_Potential_Energy-OPLS-2005>
168.430419921875

> <r_mmod_Stretch_Energy-OPLS-2005>
142.782623291016

> <r_mmod_Bend_Energy-OPLS-2005>
236.799179077148

> <r_mmod_Torsional_Energy-OPLS-2005>
232.087371826172

> <r_mmod_Improper_Torsional_Energy-OPLS-2005>
3.58308863639832

> <r_mmod_Van_der_Waal_Energy-OPLS-2005>
141.22216796875

> <r_mmod_Electrostatic_Energy-OPLS-2005>
-442.238922119141

> <r_mmod_Solvation_Energy-OPLS-2005>
-235.255386352539

> <b_mmod_Minimization_Converged-OPLS-2005>
0

> <r_mmod_RMS_Derivative-OPLS-2005>
1.76930224895477

$$$$
50
                    3D
 Structure written by MMmdl.
158167  0  0  1  0            999 V2000
  -30.5767  -14.7636   20.4588 C   0  0  0  0  0  0
  -30.4474  -12.4726   19.4505 C   0  0  0  0  0  0
  -29.5105  -12.4997   18.2214 C   0  0  0  0  0  0
  -28.0379  -12.3188   18.6429 C   0  0  0  0  0  0
  -27.6384  -13.2240   19.8381 C   0  0  2  0  0  0
  -28.6872  -13.1585   20.9669 C   0  0  0  0  0  0
  -25.2500  -13.8159   20.5678 C   0  0  0  0  0  0
  -24.1791  -13.0419   20.9189 C   0  0  0  0  0  0
  -24.6376  -11.6898   20.8734 C   0  0  0  0  0  0
  -23.9050  -10.4276   21.0392 C   0  0  0  0  0  0
  -24.3594   -9.4202   21.9171 C   0  0  0  0  0  0
  -23.6266   -8.2244   22.0756 C   0  0  0  0  0  0
  -22.4246   -8.0280   21.3556 C   0  0  0  0  0  0
  -21.9882   -9.0260   20.4663 C   0  0  0  0  0  0
  -22.7221  -10.2126   20.3060 C   0  0  0  0  0  0
  -21.6850   -6.0713   22.5275 C   0  0  0  0  0  0
  -21.4017   -6.5619   23.8204 C   0  0  0  0  0  0
  -21.3654   -5.6775   24.9168 C   0  0  0  0  0  0
  -21.6052   -4.3037   24.7223 C   0  0  0  0  0  0
  -21.8813   -3.8131   23.4343 C   0  0  0  0  0  0
  -21.9196   -4.6950   22.3398 C   0  0  0  0  0  0
  -22.7817  -13.5220   21.1854 C   0  0  0  0  0  0
  -22.1659   -4.2128   21.0973 F   0  0  0  0  0  0
  -21.5640   -3.4521   25.7733 F   0  0  0  0  0  0
  -29.9785  -13.5268   20.3742 N   0  0  0  0  0  0
  -26.2909  -12.9354   20.3216 N   0  0  0  0  0  0
  -25.9298  -11.6506   20.5726 N   0  0  0  0  0  0
  -22.0440  -12.8240   22.0409 N   0  0  0  0  0  0
  -25.4164  -15.1882   20.4118 N   0  0  0  0  0  0
  -31.7862  -14.8829   20.2484 O   0  0  0  0  0  0
  -21.6639   -6.8860   21.4235 O   0  0  0  0  0  0
  -22.3512  -14.5530   20.6715 O   0  0  0  0  0  0
  -24.6301  -31.8550   23.1975 C   0  0  0  0  0  0
  -25.9125  -32.4752   23.8330 C   0  0  1  0  0  0
  -27.2195  -27.2653   20.1403 C   0  0  0  0  0  0
  -25.5906  -33.8561   24.2241 N   0  0  0  0  0  0
  -23.4280  -30.4761   21.5402 C   0  0  2  0  0  0
  -24.8756  -28.9153   20.1182 C   0  0  0  0  0  0
  -22.7498  -29.4602   22.4908 C   0  0  0  0  0  0
  -18.0293  -28.1394   22.8482 C   0  0  0  0  0  0
  -24.1483  -36.7293   23.2637 C   0  0  0  0  0  0
  -25.9741  -30.7688   21.3784 C   0  0  0  0  0  0
  -26.0472  -29.3893   20.7231 C   0  0  0  0  0  0
  -27.2270  -28.5787   20.7174 C   0  0  0  0  0  0
  -26.0283  -26.8476   19.5180 C   0  0  0  0  0  0
  -24.8694  -27.6514   19.5044 C   0  0  0  0  0  0
  -23.6478  -29.8045   20.1590 C   0  0  0  0  0  0
  -25.4107  -36.3080   24.0325 C   0  0  1  0  0  0
  -20.5897  -28.3709   23.1266 C   0  0  2  0  0  0
  -20.6777  -26.9426   22.5406 C   0  0  0  0  0  0
  -19.5749  -26.6389   21.5207 C   0  0  0  0  0  0
  -18.1930  -26.7933   22.1622 C   0  0  0  0  0  0
  -19.1548  -28.8868   23.2867 C   0  0  0  0  0  0
  -18.9465  -30.1460   23.8898 C   0  0  0  0  0  0
  -17.6467  -30.6589   24.0567 C   0  0  0  0  0  0
  -25.9054  -34.9448   23.5093 C   0  0  0  0  0  0
  -16.5357  -29.9089   23.6336 C   0  0  0  0  0  0
  -16.7280  -28.6509   23.0354 C   0  0  0  0  0  0
  -26.4487  -31.6594   25.0736 C   0  0  0  0  0  0
  -25.3691  -31.3780   26.1453 C   0  0  0  0  0  0
  -27.0334  -30.3003   24.6258 C   0  0  0  0  0  0
  -27.6032  -32.4352   25.7497 C   0  0  0  0  0  0
  -27.5583  -37.1788   24.8447 C   0  0  0  0  0  0
  -21.4212  -29.3048   22.3651 N   0  0  0  0  0  0
  -26.4281  -37.3779   23.9415 N   0  0  0  0  0  0
  -24.6960  -31.0516   22.0944 N   0  0  0  0  0  0
  -23.4194  -28.8153   23.3022 O   0  0  0  0  0  0
  -28.3201  -26.3880   20.1047 O   0  0  0  0  0  0
  -26.5649  -34.8918   22.4677 O   0  0  0  0  0  0
  -23.5448  -32.1375   23.7258 O   0  0  0  0  0  0
  -29.4775  -18.4736   20.1932 C   0  0  0  0  0  0
  -29.6148  -19.8400   22.1894 C   0  0  0  0  0  0
  -30.1365  -17.4335   22.2885 C   0  0  0  0  0  0
  -29.3948  -19.8052   20.7942 C   0  0  0  0  0  0
  -29.8418  -17.2611   20.9211 C   0  0  0  0  0  0
  -30.0110  -18.6933   22.9104 C   0  0  0  0  0  0
  -28.3859  -23.6953   20.0249 C   0  0  0  0  0  0
  -29.7536  -23.8529   22.5571 C   0  0  0  0  0  0
  -29.2970  -25.2028   21.9830 C   0  0  0  0  0  0
  -30.2153  -22.9433   21.4090 C   0  0  0  0  0  0
  -28.2567  -25.0836   20.8464 C   0  0  1  0  0  0
  -29.0368  -21.1489   19.9808 C   0  0  0  0  0  0
  -29.0919  -22.5960   20.5293 N   0  0  0  0  0  0
  -29.7295  -15.8675   20.4170 N   0  0  0  0  0  0
  -27.7512  -23.5975   18.9700 O   0  0  0  0  0  0
  -30.3212  -18.8333   24.6010 Cl  0  0  0  0  0  0
  -31.4819  -12.6296   19.1388 H   0  0  0  0  0  0
  -30.4224  -11.4978   19.9398 H   0  0  0  0  0  0
  -29.7923  -11.7177   17.5154 H   0  0  0  0  0  0
  -29.6281  -13.4462   17.6915 H   0  0  0  0  0  0
  -27.8960  -11.2739   18.9154 H   0  0  0  0  0  0
  -27.3768  -12.4987   17.7946 H   0  0  0  0  0  0
  -27.6272  -14.2411   19.4464 H   0  0  0  0  0  0
  -28.7313  -12.1562   21.3977 H   0  0  0  0  0  0
  -28.4255  -13.8339   21.7827 H   0  0  0  0  0  0
  -25.2725   -9.5686   22.4751 H   0  0  0  0  0  0
  -23.9986   -7.4627   22.7469 H   0  0  0  0  0  0
  -21.0815   -8.8791   19.8953 H   0  0  0  0  0  0
  -22.3682  -10.9681   19.6184 H   0  0  0  0  0  0
  -21.2004   -7.6122   23.9707 H   0  0  0  0  0  0
  -21.1480   -6.0493   25.9067 H   0  0  0  0  0  0
  -22.0599   -2.7599   23.2842 H   0  0  0  0  0  0
  -22.4030  -11.9937   22.4877 H   0  0  0  0  0  0
  -21.1072  -13.1344   22.2593 H   0  0  0  0  0  0
  -24.6427  -15.8331   20.5251 H   0  0  0  0  0  0
  -26.2483  -15.6356   20.0520 H   0  0  0  0  0  0
  -26.7195  -32.5408   23.1076 H   0  0  0  0  0  0
  -25.0001  -33.9701   25.0349 H   0  0  0  0  0  0
  -22.7245  -31.2974   21.3902 H   0  0  0  0  0  0
  -23.3760  -35.9608   23.3278 H   0  0  0  0  0  0
  -24.3585  -36.8951   22.2057 H   0  0  0  0  0  0
  -23.7223  -37.6474   23.6694 H   0  0  0  0  0  0
  -26.1167  -31.5302   20.6101 H   0  0  0  0  0  0
  -26.8485  -30.8144   22.0171 H   0  0  0  0  0  0
  -28.1311  -28.9427   21.1847 H   0  0  0  0  0  0
  -25.9927  -25.8764   19.0442 H   0  0  0  0  0  0
  -23.9731  -27.2818   19.0258 H   0  0  0  0  0  0
  -23.7751  -30.5768   19.3991 H   0  0  0  0  0  0
  -22.7671  -29.2361   19.8549 H   0  0  0  0  0  0
  -25.1291  -36.1917   25.0819 H   0  0  0  0  0  0
  -20.9988  -28.3288   24.1388 H   0  0  0  0  0  0
  -20.5676  -26.2318   23.3616 H   0  0  0  0  0  0
  -21.6644  -26.7443   22.1206 H   0  0  0  0  0  0
  -19.6915  -25.6295   21.1248 H   0  0  0  0  0  0
  -19.6689  -27.3198   20.6738 H   0  0  0  0  0  0
  -17.4201  -26.6683   21.4027 H   0  0  0  0  0  0
  -18.0333  -26.0078   22.9024 H   0  0  0  0  0  0
  -19.7938  -30.7272   24.2275 H   0  0  0  0  0  0
  -17.5024  -31.6271   24.5163 H   0  0  0  0  0  0
  -15.5362  -30.2997   23.7656 H   0  0  0  0  0  0
  -15.8677  -28.0830   22.7077 H   0  0  0  0  0  0
  -24.5825  -30.7186   25.7776 H   0  0  0  0  0  0
  -24.8930  -32.2969   26.4889 H   0  0  0  0  0  0
  -25.7974  -30.8928   27.0232 H   0  0  0  0  0  0
  -26.2943  -29.6759   24.1235 H   0  0  0  0  0  0
  -27.3938  -29.7279   25.4814 H   0  0  0  0  0  0
  -27.8853  -30.4271   23.9574 H   0  0  0  0  0  0
  -27.2629  -33.3642   26.2095 H   0  0  0  0  0  0
  -28.3820  -32.6947   25.0310 H   0  0  0  0  0  0
  -28.0740  -31.8482   26.5396 H   0  0  0  0  0  0
  -28.2565  -38.0118   24.7556 H   0  0  0  0  0  0
  -28.1118  -36.2663   24.6196 H   0  0  0  0  0  0
  -27.2326  -37.1342   25.8851 H   0  0  0  0  0  0
  -20.9400  -29.8765   21.6852 H   0  0  0  0  0  0
  -26.0164  -38.2846   24.1449 H   0  0  0  0  0  0
  -29.2341  -18.3833   19.1438 H   0  0  0  0  0  0
  -29.4805  -20.7538   22.7464 H   0  0  0  0  0  0
  -30.3904  -16.5797   22.8996 H   0  0  0  0  0  0
  -28.9473  -23.3782   23.1184 H   0  0  0  0  0  0
  -30.5696  -24.0120   23.2635 H   0  0  0  0  0  0
  -30.1745  -25.7284   21.6034 H   0  0  0  0  0  0
  -28.8943  -25.8289   22.7802 H   0  0  0  0  0  0
  -30.7613  -22.0823   21.7789 H   0  0  0  0  0  0
  -30.9584  -23.4759   20.8122 H   0  0  0  0  0  0
  -27.2760  -25.0138   21.3225 H   0  0  0  0  0  0
  -28.0307  -20.9930   19.5900 H   0  0  0  0  0  0
  -29.6790  -21.1461   19.0982 H   0  0  0  0  0  0
  -28.7817  -15.6021   20.2050 H   0  0  0  0  0  0
  1 25  1  0  0  0
  1 30  2  0  0  0
  1 84  1  0  0  0
  2  3  1  0  0  0
  2 25  1  0  0  0
  2 87  1  0  0  0
  2 88  1  0  0  0
  3  4  1  0  0  0
  3 89  1  0  0  0
  3 90  1  0  0  0
  4  5  1  0  0  0
  4 91  1  0  0  0
  4 92  1  0  0  0
  5  6  1  0  0  0
  5 26  1  0  0  0
  5 93  1  0  0  0
  6 25  1  0  0  0
  6 94  1  0  0  0
  6 95  1  0  0  0
  7  8  2  0  0  0
  7 26  1  0  0  0
  7 29  1  0  0  0
  8  9  1  0  0  0
  8 22  1  0  0  0
  9 10  1  0  0  0
  9 27  2  0  0  0
 10 11  2  0  0  0
 10 15  1  0  0  0
 11 12  1  0  0  0
 11 96  1  0  0  0
 12 13  2  0  0  0
 12 97  1  0  0  0
 13 14  1  0  0  0
 13 31  1  0  0  0
 14 15  2  0  0  0
 14 98  1  0  0  0
 15 99  1  0  0  0
 16 17  2  0  0  0
 16 21  1  0  0  0
 16 31  1  0  0  0
 17 18  1  0  0  0
 17100  1  0  0  0
 18 19  2  0  0  0
 18101  1  0  0  0
 19 20  1  0  0  0
 19 24  1  0  0  0
 20 21  2  0  0  0
 20102  1  0  0  0
 21 23  1  0  0  0
 22 28  1  0  0  0
 22 32  2  0  0  0
 26 27  1  0  0  0
 28103  1  0  0  0
 28104  1  0  0  0
 29105  1  0  0  0
 29106  1  0  0  0
 33 34  1  0  0  0
 33 66  1  0  0  0
 33 70  2  0  0  0
 34 36  1  0  0  0
 34 59  1  0  0  0
 34107  1  0  0  0
 35 44  2  0  0  0
 35 45  1  0  0  0
 35 68  1  0  0  0
 36 56  1  0  0  0
 36108  1  0  0  0
 37 39  1  0  0  0
 37 47  1  0  0  0
 37 66  1  0  0  0
 37109  1  0  0  0
 38 43  2  0  0  0
 38 46  1  0  0  0
 38 47  1  0  0  0
 39 64  1  0  0  0
 39 67  2  0  0  0
 40 52  1  0  0  0
 40 53  2  0  0  0
 40 58  1  0  0  0
 41110  1  0  0  0
 41111  1  0  0  0
 41112  1  0  0  0
 41 48  1  0  0  0
 42 43  1  0  0  0
 42 66  1  0  0  0
 42113  1  0  0  0
 42114  1  0  0  0
 43 44  1  0  0  0
 44115  1  0  0  0
 45 46  2  0  0  0
 45116  1  0  0  0
 46117  1  0  0  0
 47118  1  0  0  0
 47119  1  0  0  0
 48 56  1  0  0  0
 48 65  1  0  0  0
 48120  1  0  0  0
 49 50  1  0  0  0
 49 53  1  0  0  0
 49 64  1  0  0  0
 49121  1  0  0  0
 50 51  1  0  0  0
 50122  1  0  0  0
 50123  1  0  0  0
 51 52  1  0  0  0
 51124  1  0  0  0
 51125  1  0  0  0
 52126  1  0  0  0
 52127  1  0  0  0
 53 54  1  0  0  0
 54 55  2  0  0  0
 54128  1  0  0  0
 55 57  1  0  0  0
 55129  1  0  0  0
 56 69  2  0  0  0
 57 58  2  0  0  0
 57130  1  0  0  0
 58131  1  0  0  0
 59 60  1  0  0  0
 59 61  1  0  0  0
 59 62  1  0  0  0
 60132  1  0  0  0
 60133  1  0  0  0
 60134  1  0  0  0
 61135  1  0  0  0
 61136  1  0  0  0
 61137  1  0  0  0
 62138  1  0  0  0
 62139  1  0  0  0
 62140  1  0  0  0
 63 65  1  0  0  0
 63141  1  0  0  0
 63142  1  0  0  0
 63143  1  0  0  0
 64144  1  0  0  0
 65145  1  0  0  0
 68 81  1  0  0  0
 71 74  2  0  0  0
 71 75  1  0  0  0
 71146  1  0  0  0
 72 74  1  0  0  0
 72 76  2  0  0  0
 72147  1  0  0  0
 73 75  2  0  0  0
 73 76  1  0  0  0
 73148  1  0  0  0
 74 82  1  0  0  0
 75 84  1  0  0  0
 76 86  1  0  0  0
 77 81  1  0  0  0
 77 83  1  0  0  0
 77 85  2  0  0  0
 78 79  1  0  0  0
 78 80  1  0  0  0
 78149  1  0  0  0
 78150  1  0  0  0
 79 81  1  0  0  0
 79151  1  0  0  0
 79152  1  0  0  0
 80 83  1  0  0  0
 80153  1  0  0  0
 80154  1  0  0  0
 81155  1  0  0  0
 82 83  1  0  0  0
 82156  1  0  0  0
 82157  1  0  0  0
 84158  1  0  0  0
M  ISO  4   1 100  68 101  81 101  84 100
M  END
> <chiral flag>
0

> <version>
0

> <s_m_source_file>
/data/baiqing/PycharmProjects/Reinvent-master-3.2/result/LINK_invent/BTK/process_docking_weight1_custom_product_contain_oxygen_bond_distance_aromatic_linkinvent_7_9_3/rearranged_h_0045.sdf

> <i_m_source_file_index>
51

> <r_mmod_Potential_Energy-OPLS-2005>
291.534576416016

> <r_mmod_Stretch_Energy-OPLS-2005>
134.305587768555

> <r_mmod_Bend_Energy-OPLS-2005>
171.314437866211

> <r_mmod_Torsional_Energy-OPLS-2005>
298.089019775391

> <r_mmod_Improper_Torsional_Energy-OPLS-2005>
12.9571447372437

> <r_mmod_Van_der_Waal_Energy-OPLS-2005>
138.403930664062

> <r_mmod_Electrostatic_Energy-OPLS-2005>
-320.518402099609

> <r_mmod_Solvation_Energy-OPLS-2005>
-233.613342285156

> <b_mmod_Minimization_Converged-OPLS-2005>
0

> <r_mmod_RMS_Derivative-OPLS-2005>
2.5507698059082

$$$$
51
                    3D
 Structure written by MMmdl.
154162  0  0  1  0            999 V2000
  -30.6692  -14.6054   20.5156 C   0  0  0  0  0  0
  -30.4240  -12.3769   19.4502 C   0  0  0  0  0  0
  -29.4992  -12.4960   18.2209 C   0  0  0  0  0  0
  -28.0239  -12.3394   18.6367 C   0  0  0  0  0  0
  -27.6489  -13.2194   19.8594 C   0  0  2  0  0  0
  -28.6936  -13.0930   20.9905 C   0  0  0  0  0  0
  -25.2533  -13.8178   20.5683 C   0  0  0  0  0  0
  -24.1810  -13.0437   20.9196 C   0  0  0  0  0  0
  -24.6384  -11.6911   20.8744 C   0  0  0  0  0  0
  -23.9058  -10.4290   21.0406 C   0  0  0  0  0  0
  -24.3611   -9.4206   21.9182 C   0  0  0  0  0  0
  -23.6289   -8.2240   22.0752 C   0  0  0  0  0  0
  -22.4272   -8.0276   21.3542 C   0  0  0  0  0  0
  -21.9904   -9.0250   20.4643 C   0  0  0  0  0  0
  -22.7229  -10.2131   20.3056 C   0  0  0  0  0  0
  -21.6855   -6.0730   22.5277 C   0  0  0  0  0  0
  -21.4016   -6.5636   23.8211 C   0  0  0  0  0  0
  -21.3661   -5.6790   24.9172 C   0  0  0  0  0  0
  -21.6047   -4.3052   24.7223 C   0  0  0  0  0  0
  -21.8819   -3.8142   23.4345 C   0  0  0  0  0  0
  -21.9192   -4.6959   22.3400 C   0  0  0  0  0  0
  -22.7833  -13.5227   21.1860 C   0  0  0  0  0  0
  -22.1662   -4.2143   21.0978 F   0  0  0  0  0  0
  -21.5629   -3.4536   25.7737 F   0  0  0  0  0  0
  -30.0075  -13.4123   20.4162 N   0  0  0  0  0  0
  -26.2965  -12.9368   20.3315 N   0  0  0  0  0  0
  -25.9313  -11.6520   20.5764 N   0  0  0  0  0  0
  -22.0480  -12.8219   22.0417 N   0  0  0  0  0  0
  -25.4224  -15.1899   20.4083 N   0  0  0  0  0  0
  -31.8432  -14.7085   20.1495 O   0  0  0  0  0  0
  -21.6641   -6.8871   21.4239 O   0  0  0  0  0  0
  -22.3519  -14.5534   20.6707 O   0  0  0  0  0  0
  -24.6217  -31.8623   23.2047 C   0  0  0  0  0  0
  -25.9078  -32.4795   23.8365 C   0  0  1  0  0  0
  -27.2281  -27.3613   20.1146 C   0  0  0  0  0  0
  -25.5905  -33.8592   24.2292 N   0  0  0  0  0  0
  -23.4155  -30.4838   21.5455 C   0  0  2  0  0  0
  -24.8659  -28.9429   20.1109 C   0  0  0  0  0  0
  -22.7461  -29.4623   22.4947 C   0  0  0  0  0  0
  -18.0281  -28.1386   22.8489 C   0  0  0  0  0  0
  -24.1485  -36.7301   23.2637 C   0  0  0  0  0  0
  -25.9517  -30.8053   21.3713 C   0  0  0  0  0  0
  -26.0306  -29.4345   20.7173 C   0  0  0  0  0  0
  -27.2189  -28.6510   20.7177 C   0  0  0  0  0  0
  -26.0501  -26.9075   19.4919 C   0  0  0  0  0  0
  -24.8737  -27.6817   19.4920 C   0  0  0  0  0  0
  -23.6298  -29.8165   20.1607 C   0  0  0  0  0  0
  -25.4110  -36.3096   24.0331 C   0  0  1  0  0  0
  -20.5879  -28.3681   23.1291 C   0  0  2  0  0  0
  -20.6769  -26.9405   22.5409 C   0  0  0  0  0  0
  -19.5745  -26.6388   21.5208 C   0  0  0  0  0  0
  -18.1927  -26.7926   22.1626 C   0  0  0  0  0  0
  -19.1536  -28.8851   23.2883 C   0  0  0  0  0  0
  -18.9459  -30.1459   23.8895 C   0  0  0  0  0  0
  -17.6461  -30.6588   24.0559 C   0  0  0  0  0  0
  -25.9041  -34.9463   23.5113 C   0  0  0  0  0  0
  -16.5351  -29.9085   23.6333 C   0  0  0  0  0  0
  -16.7271  -28.6501   23.0353 C   0  0  0  0  0  0
  -26.4482  -31.6591   25.0720 C   0  0  0  0  0  0
  -25.3732  -31.3724   26.1463 C   0  0  0  0  0  0
  -27.0314  -30.3016   24.6148 C   0  0  0  0  0  0
  -27.6053  -32.4317   25.7481 C   0  0  0  0  0  0
  -27.5578  -37.1807   24.8469 C   0  0  0  0  0  0
  -21.4176  -29.3036   22.3690 N   0  0  0  0  0  0
  -26.4294  -37.3785   23.9404 N   0  0  0  0  0  0
  -24.6811  -31.0661   22.0982 N   0  0  0  0  0  0
  -23.4199  -28.8163   23.3015 O   0  0  0  0  0  0
  -28.3084  -26.4867   20.1307 O   0  0  0  0  0  0
  -26.5612  -34.8928   22.4682 O   0  0  0  0  0  0
  -23.5391  -32.1406   23.7398 O   0  0  0  0  0  0
  -32.0782  -18.6904   21.7021 C   0  0  0  0  0  0
  -31.6133  -17.3714   21.5612 C   0  0  0  0  0  0
  -29.5770  -18.2305   20.5513 C   0  0  0  0  0  0
  -31.3221  -19.7924   21.2501 C   0  0  0  0  0  0
  -30.0361  -19.5918   20.6768 C   0  0  0  0  0  0
  -30.3666  -17.0987   20.9580 C   0  0  0  0  0  0
  -28.6393  -24.3519   21.4361 C   0  0  0  0  0  0
  -28.4148  -25.6945   21.2674 C   0  0  0  0  0  0
  -28.8448  -23.1749   20.5203 C   0  0  0  0  0  0
  -31.9473  -21.1735   21.3768 C   0  0  0  0  0  0
  -29.2181  -20.8012   20.0963 C   0  0  0  0  0  0
  -29.0289  -21.9765   20.9892 N   0  0  0  0  0  0
  -29.9222  -15.7160   20.8127 N   0  0  0  0  0  0
  -31.4674  -12.4808   19.1475 H   0  0  0  0  0  0
  -30.3423  -11.3864   19.9002 H   0  0  0  0  0  0
  -29.7591  -11.7397   17.4792 H   0  0  0  0  0  0
  -29.6457  -13.4630   17.7370 H   0  0  0  0  0  0
  -27.8621  -11.2877   18.8760 H   0  0  0  0  0  0
  -27.3672  -12.5624   17.7951 H   0  0  0  0  0  0
  -27.6627  -14.2513   19.5088 H   0  0  0  0  0  0
  -28.6986  -12.0817   21.3998 H   0  0  0  0  0  0
  -28.4479  -13.7540   21.8234 H   0  0  0  0  0  0
  -25.2756   -9.5686   22.4755 H   0  0  0  0  0  0
  -24.0002   -7.4632   22.7469 H   0  0  0  0  0  0
  -21.0835   -8.8763   19.8949 H   0  0  0  0  0  0
  -22.3682  -10.9670   19.6165 H   0  0  0  0  0  0
  -21.2012   -7.6146   23.9712 H   0  0  0  0  0  0
  -21.1487   -6.0521   25.9075 H   0  0  0  0  0  0
  -22.0597   -2.7604   23.2846 H   0  0  0  0  0  0
  -22.4107  -11.9888   22.4815 H   0  0  0  0  0  0
  -21.1097  -13.1241   22.2626 H   0  0  0  0  0  0
  -24.6498  -15.8392   20.5097 H   0  0  0  0  0  0
  -26.2644  -15.6306   20.0613 H   0  0  0  0  0  0
  -26.7142  -32.5483   23.1117 H   0  0  0  0  0  0
  -25.0038  -33.9736   25.0425 H   0  0  0  0  0  0
  -22.7069  -31.3021   21.4019 H   0  0  0  0  0  0
  -23.3742  -35.9640   23.3324 H   0  0  0  0  0  0
  -24.3569  -36.8898   22.2046 H   0  0  0  0  0  0
  -23.7250  -37.6516   23.6644 H   0  0  0  0  0  0
  -26.0751  -31.5699   20.6029 H   0  0  0  0  0  0
  -26.8342  -30.8573   21.9970 H   0  0  0  0  0  0
  -28.1148  -29.0178   21.1989 H   0  0  0  0  0  0
  -26.0383  -25.9309   19.0288 H   0  0  0  0  0  0
  -23.9791  -27.2963   19.0222 H   0  0  0  0  0  0
  -23.7430  -30.5921   19.4028 H   0  0  0  0  0  0
  -22.7523  -29.2407   19.8601 H   0  0  0  0  0  0
  -25.1287  -36.1952   25.0823 H   0  0  0  0  0  0
  -20.9970  -28.3261   24.1411 H   0  0  0  0  0  0
  -20.5668  -26.2290   23.3609 H   0  0  0  0  0  0
  -21.6637  -26.7437   22.1198 H   0  0  0  0  0  0
  -19.6907  -25.6300   21.1231 H   0  0  0  0  0  0
  -19.6683  -27.3205   20.6741 H   0  0  0  0  0  0
  -17.4188  -26.6672   21.4037 H   0  0  0  0  0  0
  -18.0337  -26.0070   22.9026 H   0  0  0  0  0  0
  -19.7937  -30.7276   24.2263 H   0  0  0  0  0  0
  -17.5011  -31.6268   24.5163 H   0  0  0  0  0  0
  -15.5349  -30.2982   23.7660 H   0  0  0  0  0  0
  -15.8670  -28.0818   22.7071 H   0  0  0  0  0  0
  -24.5887  -30.7094   25.7796 H   0  0  0  0  0  0
  -24.8948  -32.2891   26.4920 H   0  0  0  0  0  0
  -25.8072  -30.8877   27.0217 H   0  0  0  0  0  0
  -26.2872  -29.6778   24.1183 H   0  0  0  0  0  0
  -27.4028  -29.7264   25.4639 H   0  0  0  0  0  0
  -27.8738  -30.4302   23.9347 H   0  0  0  0  0  0
  -27.2666  -33.3614   26.2066 H   0  0  0  0  0  0
  -28.3857  -32.6883   25.0303 H   0  0  0  0  0  0
  -28.0723  -31.8435   26.5390 H   0  0  0  0  0  0
  -28.2613  -38.0087   24.7492 H   0  0  0  0  0  0
  -28.1058  -36.2618   24.6325 H   0  0  0  0  0  0
  -27.2292  -37.1488   25.8873 H   0  0  0  0  0  0
  -20.9363  -29.8743   21.6883 H   0  0  0  0  0  0
  -26.0185  -38.2865   24.1402 H   0  0  0  0  0  0
  -33.0495  -18.8488   22.1506 H   0  0  0  0  0  0
  -32.2405  -16.5678   21.9209 H   0  0  0  0  0  0
  -28.6131  -18.0520   20.0951 H   0  0  0  0  0  0
  -28.6736  -24.0355   22.4689 H   0  0  0  0  0  0
  -28.2919  -26.3083   22.1499 H   0  0  0  0  0  0
  -28.8237  -23.3969   19.4496 H   0  0  0  0  0  0
  -33.0159  -21.1101   21.5844 H   0  0  0  0  0  0
  -31.4860  -21.7298   22.1932 H   0  0  0  0  0  0
  -31.8315  -21.7461   20.4563 H   0  0  0  0  0  0
  -28.2379  -20.4268   19.7968 H   0  0  0  0  0  0
  -29.7071  -21.1016   19.1670 H   0  0  0  0  0  0
  -28.9313  -15.5527   20.9021 H   0  0  0  0  0  0
  1 25  1  0  0  0
  1 30  2  0  0  0
  1 83  1  0  0  0
  2  3  1  0  0  0
  2 25  1  0  0  0
  2 84  1  0  0  0
  2 85  1  0  0  0
  3  4  1  0  0  0
  3 86  1  0  0  0
  3 87  1  0  0  0
  4  5  1  0  0  0
  4 88  1  0  0  0
  4 89  1  0  0  0
  5  6  1  0  0  0
  5 26  1  0  0  0
  5 90  1  0  0  0
  6 25  1  0  0  0
  6 91  1  0  0  0
  6 92  1  0  0  0
  7  8  2  0  0  0
  7 26  1  0  0  0
  7 29  1  0  0  0
  8  9  1  0  0  0
  8 22  1  0  0  0
  9 10  1  0  0  0
  9 27  2  0  0  0
 10 11  2  0  0  0
 10 15  1  0  0  0
 11 12  1  0  0  0
 11 93  1  0  0  0
 12 13  2  0  0  0
 12 94  1  0  0  0
 13 14  1  0  0  0
 13 31  1  0  0  0
 14 15  2  0  0  0
 14 95  1  0  0  0
 15 96  1  0  0  0
 16 17  2  0  0  0
 16 21  1  0  0  0
 16 31  1  0  0  0
 17 18  1  0  0  0
 17 97  1  0  0  0
 18 19  2  0  0  0
 18 98  1  0  0  0
 19 20  1  0  0  0
 19 24  1  0  0  0
 20 21  2  0  0  0
 20 99  1  0  0  0
 21 23  1  0  0  0
 22 28  1  0  0  0
 22 32  2  0  0  0
 26 27  1  0  0  0
 28100  1  0  0  0
 28101  1  0  0  0
 29102  1  0  0  0
 29103  1  0  0  0
 33 34  1  0  0  0
 33 66  1  0  0  0
 33 70  2  0  0  0
 34 36  1  0  0  0
 34 59  1  0  0  0
 34104  1  0  0  0
 35 44  2  0  0  0
 35 45  1  0  0  0
 35 68  1  0  0  0
 36 56  1  0  0  0
 36105  1  0  0  0
 37 39  1  0  0  0
 37 47  1  0  0  0
 37 66  1  0  0  0
 37106  1  0  0  0
 38 43  2  0  0  0
 38 46  1  0  0  0
 38 47  1  0  0  0
 39 64  1  0  0  0
 39 67  2  0  0  0
 40 52  1  0  0  0
 40 53  2  0  0  0
 40 58  1  0  0  0
 41107  1  0  0  0
 41108  1  0  0  0
 41109  1  0  0  0
 41 48  1  0  0  0
 42 43  1  0  0  0
 42 66  1  0  0  0
 42110  1  0  0  0
 42111  1  0  0  0
 43 44  1  0  0  0
 44112  1  0  0  0
 45 46  2  0  0  0
 45113  1  0  0  0
 46114  1  0  0  0
 47115  1  0  0  0
 47116  1  0  0  0
 48 56  1  0  0  0
 48 65  1  0  0  0
 48117  1  0  0  0
 49 50  1  0  0  0
 49 53  1  0  0  0
 49 64  1  0  0  0
 49118  1  0  0  0
 50 51  1  0  0  0
 50119  1  0  0  0
 50120  1  0  0  0
 51 52  1  0  0  0
 51121  1  0  0  0
 51122  1  0  0  0
 52123  1  0  0  0
 52124  1  0  0  0
 53 54  1  0  0  0
 54 55  2  0  0  0
 54125  1  0  0  0
 55 57  1  0  0  0
 55126  1  0  0  0
 56 69  2  0  0  0
 57 58  2  0  0  0
 57127  1  0  0  0
 58128  1  0  0  0
 59 60  1  0  0  0
 59 61  1  0  0  0
 59 62  1  0  0  0
 60129  1  0  0  0
 60130  1  0  0  0
 60131  1  0  0  0
 61132  1  0  0  0
 61133  1  0  0  0
 61134  1  0  0  0
 62135  1  0  0  0
 62136  1  0  0  0
 62137  1  0  0  0
 63 65  1  0  0  0
 63138  1  0  0  0
 63139  1  0  0  0
 63140  1  0  0  0
 64141  1  0  0  0
 65142  1  0  0  0
 68 78  1  0  0  0
 71 72  2  0  0  0
 71 74  1  0  0  0
 71143  1  0  0  0
 72 76  1  0  0  0
 72144  1  0  0  0
 73 75  1  0  0  0
 73 76  2  0  0  0
 73145  1  0  0  0
 74 75  2  0  0  0
 74 80  1  0  0  0
 75 81  1  0  0  0
 76 83  1  0  0  0
 77 78  2  0  0  0
 77 79  1  0  0  0
 77146  1  0  0  0
 78147  1  0  0  0
 79 82  2  0  0  0
 79148  1  0  0  0
 80149  1  0  0  0
 80150  1  0  0  0
 80151  1  0  0  0
 81 82  1  0  0  0
 81152  1  0  0  0
 81153  1  0  0  0
 83154  1  0  0  0
M  ISO  4   1 100  68 101  78 101  83 100
M  END
> <chiral flag>
0

> <version>
0

> <s_m_source_file>
/data/baiqing/PycharmProjects/Reinvent-master-3.2/result/LINK_invent/BTK/process_docking_weight1_custom_product_contain_oxygen_bond_distance_aromatic_linkinvent_7_9_3/rearranged_h_0045.sdf

> <i_m_source_file_index>
52

> <r_mmod_Potential_Energy-OPLS-2005>
41.6240081787109

> <r_mmod_Stretch_Energy-OPLS-2005>
66.9001922607422

> <r_mmod_Bend_Energy-OPLS-2005>
140.443862915039

> <r_mmod_Torsional_Energy-OPLS-2005>
229.693786621094

> <r_mmod_Improper_Torsional_Energy-OPLS-2005>
5.43702983856201

> <r_mmod_Van_der_Waal_Energy-OPLS-2005>
144.917846679688

> <r_mmod_Electrostatic_Energy-OPLS-2005>
-372.230438232422

> <r_mmod_Solvation_Energy-OPLS-2005>
-213.202499389648

> <b_mmod_Minimization_Converged-OPLS-2005>
0

> <r_mmod_RMS_Derivative-OPLS-2005>
0.779667377471924

$$$$
52
                    3D
 Structure written by MMmdl.
180189  0  0  1  0            999 V2000
  -30.7519  -14.3738   20.6616 C   0  0  0  0  0  0
  -30.4270  -12.2876   19.3898 C   0  0  0  0  0  0
  -29.4865  -12.5309   18.1937 C   0  0  0  0  0  0
  -28.0150  -12.3667   18.6169 C   0  0  0  0  0  0
  -27.6717  -13.1933   19.8829 C   0  0  2  0  0  0
  -28.7109  -12.9264   20.9957 C   0  0  0  0  0  0
  -25.2644  -13.8123   20.5664 C   0  0  0  0  0  0
  -24.1871  -13.0429   20.9166 C   0  0  0  0  0  0
  -24.6392  -11.6888   20.8725 C   0  0  0  0  0  0
  -23.9048  -10.4280   21.0394 C   0  0  0  0  0  0
  -24.3612   -9.4199   21.9167 C   0  0  0  0  0  0
  -23.6303   -8.2232   22.0739 C   0  0  0  0  0  0
  -22.4283   -8.0268   21.3539 C   0  0  0  0  0  0
  -21.9918   -9.0222   20.4625 C   0  0  0  0  0  0
  -22.7230  -10.2110   20.3032 C   0  0  0  0  0  0
  -21.6845   -6.0732   22.5277 C   0  0  0  0  0  0
  -21.4003   -6.5638   23.8212 C   0  0  0  0  0  0
  -21.3671   -5.6789   24.9173 C   0  0  0  0  0  0
  -21.6064   -4.3053   24.7226 C   0  0  0  0  0  0
  -21.8835   -3.8141   23.4347 C   0  0  0  0  0  0
  -21.9195   -4.6958   22.3400 C   0  0  0  0  0  0
  -22.7889  -13.5233   21.1841 C   0  0  0  0  0  0
  -22.1668   -4.2144   21.0974 F   0  0  0  0  0  0
  -21.5644   -3.4545   25.7744 F   0  0  0  0  0  0
  -30.0553  -13.2244   20.4620 N   0  0  0  0  0  0
  -26.3081  -12.9272   20.3392 N   0  0  0  0  0  0
  -25.9320  -11.6443   20.5755 N   0  0  0  0  0  0
  -22.0538  -12.8194   22.0383 N   0  0  0  0  0  0
  -25.4414  -15.1831   20.4061 N   0  0  0  0  0  0
  -31.8100  -14.6358   20.0809 O   0  0  0  0  0  0
  -21.6646   -6.8863   21.4236 O   0  0  0  0  0  0
  -22.3566  -14.5532   20.6672 O   0  0  0  0  0  0
  -24.6086  -31.8709   23.2130 C   0  0  0  0  0  0
  -25.8999  -32.4843   23.8415 C   0  0  1  0  0  0
  -27.2466  -27.4946   20.0829 C   0  0  0  0  0  0
  -25.5873  -33.8640   24.2351 N   0  0  0  0  0  0
  -23.3962  -30.4918   21.5523 C   0  0  2  0  0  0
  -24.8468  -28.9607   20.1201 C   0  0  0  0  0  0
  -22.7383  -29.4665   22.5025 C   0  0  0  0  0  0
  -18.0265  -28.1370   22.8500 C   0  0  0  0  0  0
  -24.1484  -36.7331   23.2631 C   0  0  0  0  0  0
  -25.9182  -30.8543   21.3574 C   0  0  0  0  0  0
  -26.0022  -29.4906   20.7101 C   0  0  0  0  0  0
  -27.2079  -28.7617   20.6951 C   0  0  0  0  0  0
  -26.0794  -26.9558   19.5078 C   0  0  0  0  0  0
  -24.8762  -27.6882   19.5196 C   0  0  0  0  0  0
  -23.6035  -29.8181   20.1690 C   0  0  0  0  0  0
  -25.4097  -36.3130   24.0344 C   0  0  1  0  0  0
  -20.5848  -28.3648   23.1341 C   0  0  2  0  0  0
  -20.6754  -26.9393   22.5422 C   0  0  0  0  0  0
  -19.5736  -26.6385   21.5215 C   0  0  0  0  0  0
  -18.1918  -26.7915   22.1634 C   0  0  0  0  0  0
  -19.1512  -28.8825   23.2915 C   0  0  0  0  0  0
  -18.9439  -30.1435   23.8921 C   0  0  0  0  0  0
  -17.6442  -30.6577   24.0568 C   0  0  0  0  0  0
  -25.9021  -34.9490   23.5149 C   0  0  0  0  0  0
  -16.5333  -29.9081   23.6322 C   0  0  0  0  0  0
  -16.7257  -28.6496   23.0345 C   0  0  0  0  0  0
  -26.4457  -31.6599   25.0714 C   0  0  0  0  0  0
  -25.3744  -31.3679   26.1479 C   0  0  0  0  0  0
  -27.0274  -30.3051   24.6032 C   0  0  0  0  0  0
  -27.6050  -32.4304   25.7466 C   0  0  0  0  0  0
  -27.5593  -37.1800   24.8452 C   0  0  0  0  0  0
  -21.4115  -29.3016   22.3753 N   0  0  0  0  0  0
  -26.4287  -37.3811   23.9426 N   0  0  0  0  0  0
  -24.6594  -31.0848   22.1009 N   0  0  0  0  0  0
  -23.4169  -28.8217   23.3064 O   0  0  0  0  0  0
  -28.4020  -26.7648   20.0490 O   0  0  0  0  0  0
  -26.5586  -34.8933   22.4711 O   0  0  0  0  0  0
  -23.5292  -32.1440   23.7546 O   0  0  0  0  0  0
  -31.5993  -18.6898   21.6457 C   0  0  0  0  0  0
  -31.5211  -17.2883   21.7567 C   0  0  0  0  0  0
  -32.1473  -24.6369   19.6264 C   0  0  0  0  0  0
  -30.2224  -25.2954   17.6953 C   0  0  0  0  0  0
  -29.1893  -17.3703   21.0522 C   0  0  0  0  0  0
  -31.9659  -23.7898   18.5070 C   0  0  0  0  0  0
  -30.4829  -19.4395   21.2124 C   0  0  0  0  0  0
  -31.3447  -25.7830   19.8110 C   0  0  0  0  0  0
  -31.0164  -24.1466   17.5116 C   0  0  0  0  0  0
  -30.3533  -26.0948   18.8472 C   0  0  0  0  0  0
  -29.2697  -18.7697   20.9059 C   0  0  0  0  0  0
  -30.3159  -16.6255   21.4465 C   0  0  0  0  0  0
  -32.7511  -22.5221   18.4363 C   0  0  0  0  0  0
  -30.7657  -23.2897   16.2770 C   0  0  0  0  0  0
  -28.0402  -19.5136   20.4072 C   0  0  0  0  0  0
  -30.4009  -27.3853   23.1307 C   0  0  0  0  0  0
  -30.6197  -20.9507   21.0845 C   0  0  0  0  0  0
  -31.5374  -26.6370   21.0613 C   0  0  0  0  0  0
  -29.3414  -27.2032   19.0753 C   0  0  0  0  0  0
  -32.5538  -21.5737   19.6224 C   0  0  0  0  0  0
  -30.1942  -15.2226   21.5349 N   0  0  0  0  0  0
  -30.4496  -26.4059   22.0288 N   0  3  0  0  0  0
  -31.0994  -21.3295   19.7434 N   0  3  0  0  0  0
  -33.4532  -22.1944   17.4761 O   0  0  0  0  0  0
  -31.4651  -12.4026   19.0709 H   0  0  0  0  0  0
  -30.3369  -11.2605   19.7456 H   0  0  0  0  0  0
  -29.7197  -11.8437   17.3800 H   0  0  0  0  0  0
  -29.6446  -13.5365   17.7999 H   0  0  0  0  0  0
  -27.8380  -11.3080   18.8110 H   0  0  0  0  0  0
  -27.3539  -12.6402   17.7934 H   0  0  0  0  0  0
  -27.7329  -14.2468   19.6099 H   0  0  0  0  0  0
  -28.6782  -11.8795   21.2997 H   0  0  0  0  0  0
  -28.4547  -13.4894   21.8934 H   0  0  0  0  0  0
  -25.2768   -9.5684   22.4727 H   0  0  0  0  0  0
  -24.0032   -7.4620   22.7444 H   0  0  0  0  0  0
  -21.0858   -8.8723   19.8913 H   0  0  0  0  0  0
  -22.3692  -10.9635   19.6134 H   0  0  0  0  0  0
  -21.1983   -7.6143   23.9713 H   0  0  0  0  0  0
  -21.1482   -6.0514   25.9078 H   0  0  0  0  0  0
  -22.0606   -2.7606   23.2842 H   0  0  0  0  0  0
  -22.4171  -11.9875   22.4785 H   0  0  0  0  0  0
  -21.1124  -13.1150   22.2532 H   0  0  0  0  0  0
  -24.6749  -15.8411   20.4905 H   0  0  0  0  0  0
  -26.2995  -15.6099   20.0815 H   0  0  0  0  0  0
  -26.7075  -32.5585   23.1196 H   0  0  0  0  0  0
  -25.0031  -33.9809   25.0502 H   0  0  0  0  0  0
  -22.6831  -31.3065   21.4114 H   0  0  0  0  0  0
  -23.3750  -35.9658   23.3280 H   0  0  0  0  0  0
  -24.3597  -36.8952   22.2050 H   0  0  0  0  0  0
  -23.7224  -37.6531   23.6644 H   0  0  0  0  0  0
  -26.0154  -31.6186   20.5850 H   0  0  0  0  0  0
  -26.8115  -30.9161   21.9674 H   0  0  0  0  0  0
  -28.1014  -29.1709   21.1449 H   0  0  0  0  0  0
  -26.1082  -25.9795   19.0441 H   0  0  0  0  0  0
  -23.9867  -27.2692   19.0691 H   0  0  0  0  0  0
  -23.7046  -30.5888   19.4045 H   0  0  0  0  0  0
  -22.7317  -29.2287   19.8788 H   0  0  0  0  0  0
  -25.1263  -36.2004   25.0835 H   0  0  0  0  0  0
  -20.9937  -28.3205   24.1463 H   0  0  0  0  0  0
  -20.5663  -26.2252   23.3599 H   0  0  0  0  0  0
  -21.6628  -26.7445   22.1212 H   0  0  0  0  0  0
  -19.6898  -25.6303   21.1224 H   0  0  0  0  0  0
  -19.6674  -27.3214   20.6761 H   0  0  0  0  0  0
  -17.4183  -26.6659   21.4040 H   0  0  0  0  0  0
  -18.0330  -26.0052   22.9030 H   0  0  0  0  0  0
  -19.7914  -30.7248   24.2304 H   0  0  0  0  0  0
  -17.4993  -31.6261   24.5165 H   0  0  0  0  0  0
  -15.5335  -30.2988   23.7626 H   0  0  0  0  0  0
  -15.8657  -28.0821   22.7044 H   0  0  0  0  0  0
  -24.5906  -30.7040   25.7821 H   0  0  0  0  0  0
  -24.8945  -32.2818   26.4981 H   0  0  0  0  0  0
  -25.8112  -30.8812   27.0205 H   0  0  0  0  0  0
  -26.2791  -29.6835   24.1095 H   0  0  0  0  0  0
  -27.4078  -29.7262   25.4459 H   0  0  0  0  0  0
  -27.8613  -30.4403   23.9140 H   0  0  0  0  0  0
  -27.2687  -33.3593   26.2084 H   0  0  0  0  0  0
  -28.3828  -32.6876   25.0264 H   0  0  0  0  0  0
  -28.0745  -31.8395   26.5339 H   0  0  0  0  0  0
  -28.2563  -38.0146   24.7583 H   0  0  0  0  0  0
  -28.1136  -36.2686   24.6163 H   0  0  0  0  0  0
  -27.2330  -37.1311   25.8854 H   0  0  0  0  0  0
  -20.9273  -29.8730   21.6972 H   0  0  0  0  0  0
  -26.0182  -38.2883   24.1470 H   0  0  0  0  0  0
  -32.5277  -19.1867   21.8916 H   0  0  0  0  0  0
  -32.3907  -16.7290   22.0727 H   0  0  0  0  0  0
  -32.8938  -24.3923   20.3709 H   0  0  0  0  0  0
  -29.4610  -25.5427   16.9663 H   0  0  0  0  0  0
  -28.2640  -16.8574   20.8286 H   0  0  0  0  0  0
  -29.9519  -23.6934   15.6729 H   0  0  0  0  0  0
  -30.4887  -22.2725   16.5547 H   0  0  0  0  0  0
  -31.6529  -23.2487   15.6453 H   0  0  0  0  0  0
  -27.2681  -18.8207   20.0696 H   0  0  0  0  0  0
  -28.2840  -20.1514   19.5568 H   0  0  0  0  0  0
  -27.6092  -20.1280   21.1979 H   0  0  0  0  0  0
  -29.5424  -27.1880   23.7732 H   0  0  0  0  0  0
  -30.3030  -28.4011   22.7454 H   0  0  0  0  0  0
  -31.3022  -27.3352   23.7425 H   0  0  0  0  0  0
  -31.2703  -21.3432   21.8673 H   0  0  0  0  0  0
  -29.6536  -21.4262   21.2566 H   0  0  0  0  0  0
  -31.5854  -27.6894   20.7789 H   0  0  0  0  0  0
  -32.4972  -26.4125   21.5305 H   0  0  0  0  0  0
  -28.8390  -27.4468   18.1371 H   0  0  0  0  0  0
  -29.8388  -28.1171   19.4003 H   0  0  0  0  0  0
  -32.9476  -22.0487   20.5197 H   0  0  0  0  0  0
  -33.0980  -20.6421   19.4709 H   0  0  0  0  0  0
  -29.3379  -14.8783   21.9393 H   0  0  0  0  0  0
  -29.5755  -26.4458   21.5238 H   0  0  0  0  0  0
  -30.5424  -25.4802   22.4122 H   0  0  0  0  0  0
  -30.6519  -22.1993   19.5031 H   0  0  0  0  0  0
  -30.8125  -20.6395   19.0675 H   0  0  0  0  0  0
  1 25  1  0  0  0
  1 30  2  0  0  0
  1 91  1  0  0  0
  2  3  1  0  0  0
  2 25  1  0  0  0
  2 95  1  0  0  0
  2 96  1  0  0  0
  3  4  1  0  0  0
  3 97  1  0  0  0
  3 98  1  0  0  0
  4  5  1  0  0  0
  4 99  1  0  0  0
  4100  1  0  0  0
  5  6  1  0  0  0
  5 26  1  0  0  0
  5101  1  0  0  0
  6 25  1  0  0  0
  6102  1  0  0  0
  6103  1  0  0  0
  7  8  2  0  0  0
  7 26  1  0  0  0
  7 29  1  0  0  0
  8  9  1  0  0  0
  8 22  1  0  0  0
  9 10  1  0  0  0
  9 27  2  0  0  0
 10 11  2  0  0  0
 10 15  1  0  0  0
 11 12  1  0  0  0
 11104  1  0  0  0
 12 13  2  0  0  0
 12105  1  0  0  0
 13 14  1  0  0  0
 13 31  1  0  0  0
 14 15  2  0  0  0
 14106  1  0  0  0
 15107  1  0  0  0
 16 17  2  0  0  0
 16 21  1  0  0  0
 16 31  1  0  0  0
 17 18  1  0  0  0
 17108  1  0  0  0
 18 19  2  0  0  0
 18109  1  0  0  0
 19 20  1  0  0  0
 19 24  1  0  0  0
 20 21  2  0  0  0
 20110  1  0  0  0
 21 23  1  0  0  0
 22 28  1  0  0  0
 22 32  2  0  0  0
 26 27  1  0  0  0
 28111  1  0  0  0
 28112  1  0  0  0
 29113  1  0  0  0
 29114  1  0  0  0
 33 34  1  0  0  0
 33 66  1  0  0  0
 33 70  2  0  0  0
 34 36  1  0  0  0
 34 59  1  0  0  0
 34115  1  0  0  0
 35 44  2  0  0  0
 35 45  1  0  0  0
 35 68  1  0  0  0
 36 56  1  0  0  0
 36116  1  0  0  0
 37 39  1  0  0  0
 37 47  1  0  0  0
 37 66  1  0  0  0
 37117  1  0  0  0
 38 43  2  0  0  0
 38 46  1  0  0  0
 38 47  1  0  0  0
 39 64  1  0  0  0
 39 67  2  0  0  0
 40 52  1  0  0  0
 40 53  2  0  0  0
 40 58  1  0  0  0
 41118  1  0  0  0
 41119  1  0  0  0
 41120  1  0  0  0
 41 48  1  0  0  0
 42 43  1  0  0  0
 42 66  1  0  0  0
 42121  1  0  0  0
 42122  1  0  0  0
 43 44  1  0  0  0
 44123  1  0  0  0
 45 46  2  0  0  0
 45124  1  0  0  0
 46125  1  0  0  0
 47126  1  0  0  0
 47127  1  0  0  0
 48 56  1  0  0  0
 48 65  1  0  0  0
 48128  1  0  0  0
 49 50  1  0  0  0
 49 53  1  0  0  0
 49 64  1  0  0  0
 49129  1  0  0  0
 50 51  1  0  0  0
 50130  1  0  0  0
 50131  1  0  0  0
 51 52  1  0  0  0
 51132  1  0  0  0
 51133  1  0  0  0
 52134  1  0  0  0
 52135  1  0  0  0
 53 54  1  0  0  0
 54 55  2  0  0  0
 54136  1  0  0  0
 55 57  1  0  0  0
 55137  1  0  0  0
 56 69  2  0  0  0
 57 58  2  0  0  0
 57138  1  0  0  0
 58139  1  0  0  0
 59 60  1  0  0  0
 59 61  1  0  0  0
 59 62  1  0  0  0
 60140  1  0  0  0
 60141  1  0  0  0
 60142  1  0  0  0
 61143  1  0  0  0
 61144  1  0  0  0
 61145  1  0  0  0
 62146  1  0  0  0
 62147  1  0  0  0
 62148  1  0  0  0
 63 65  1  0  0  0
 63149  1  0  0  0
 63150  1  0  0  0
 63151  1  0  0  0
 64152  1  0  0  0
 65153  1  0  0  0
 68 89  1  0  0  0
 71 72  2  0  0  0
 71 77  1  0  0  0
 71154  1  0  0  0
 72 82  1  0  0  0
 72155  1  0  0  0
 73 76  2  0  0  0
 73 78  1  0  0  0
 73156  1  0  0  0
 74 79  2  0  0  0
 74 80  1  0  0  0
 74157  1  0  0  0
 75 81  1  0  0  0
 75 82  2  0  0  0
 75158  1  0  0  0
 76 79  1  0  0  0
 76 83  1  0  0  0
 77 81  2  0  0  0
 77 87  1  0  0  0
 78 80  2  0  0  0
 78 88  1  0  0  0
 79 84  1  0  0  0
 80 89  1  0  0  0
 81 85  1  0  0  0
 82 91  1  0  0  0
 83 90  1  0  0  0
 83 94  2  0  0  0
 84159  1  0  0  0
 84160  1  0  0  0
 84161  1  0  0  0
 85162  1  0  0  0
 85163  1  0  0  0
 85164  1  0  0  0
 86 92  1  0  0  0
 86165  1  0  0  0
 86166  1  0  0  0
 86167  1  0  0  0
 87 93  1  0  0  0
 87168  1  0  0  0
 87169  1  0  0  0
 88 92  1  0  0  0
 88170  1  0  0  0
 88171  1  0  0  0
 89172  1  0  0  0
 89173  1  0  0  0
 90 93  1  0  0  0
 90174  1  0  0  0
 90175  1  0  0  0
 91176  1  0  0  0
 92177  1  0  0  0
 92178  1  0  0  0
 93179  1  0  0  0
 93180  1  0  0  0
M  CHG  2  92   1  93   1
M  ISO  4   1 100  68 101  89 101  91 100
M  END
> <chiral flag>
0

> <version>
0

> <s_m_source_file>
/data/baiqing/PycharmProjects/Reinvent-master-3.2/result/LINK_invent/BTK/process_docking_weight1_custom_product_contain_oxygen_bond_distance_aromatic_linkinvent_7_9_3/rearranged_h_0045.sdf

> <i_m_source_file_index>
53

> <r_mmod_Potential_Energy-OPLS-2005>
-457.161529541016

> <r_mmod_Stretch_Energy-OPLS-2005>
34.8301048278809

> <r_mmod_Bend_Energy-OPLS-2005>
89.1024322509766

> <r_mmod_Torsional_Energy-OPLS-2005>
303.688873291016

> <r_mmod_Improper_Torsional_Energy-OPLS-2005>
5.00939798355103

> <r_mmod_Van_der_Waal_Energy-OPLS-2005>
162.346878051758

> <r_mmod_Electrostatic_Energy-OPLS-2005>
-103.68042755127

> <r_mmod_Solvation_Energy-OPLS-2005>
-954.763854980469

> <b_mmod_Minimization_Converged-OPLS-2005>
0

> <r_mmod_RMS_Derivative-OPLS-2005>
2.04296207427979

$$$$
53
                    3D
 Structure written by MMmdl.
167176  0  0  1  0            999 V2000
  -30.6818  -14.5407   20.4783 C   0  0  0  0  0  0
  -30.4241  -12.3111   19.4605 C   0  0  0  0  0  0
  -29.5039  -12.4813   18.2315 C   0  0  0  0  0  0
  -28.0240  -12.3488   18.6393 C   0  0  0  0  0  0
  -27.6612  -13.2119   19.8780 C   0  0  2  0  0  0
  -28.7071  -13.0459   21.0081 C   0  0  0  0  0  0
  -25.2586  -13.8143   20.5700 C   0  0  0  0  0  0
  -24.1856  -13.0453   20.9218 C   0  0  0  0  0  0
  -24.6401  -11.6892   20.8755 C   0  0  0  0  0  0
  -23.9052  -10.4301   21.0412 C   0  0  0  0  0  0
  -24.3611   -9.4214   21.9182 C   0  0  0  0  0  0
  -23.6310   -8.2236   22.0740 C   0  0  0  0  0  0
  -22.4287   -8.0275   21.3536 C   0  0  0  0  0  0
  -21.9907   -9.0249   20.4635 C   0  0  0  0  0  0
  -22.7218  -10.2148   20.3069 C   0  0  0  0  0  0
  -21.6862   -6.0729   22.5285 C   0  0  0  0  0  0
  -21.4012   -6.5634   23.8223 C   0  0  0  0  0  0
  -21.3661   -5.6796   24.9185 C   0  0  0  0  0  0
  -21.6051   -4.3055   24.7240 C   0  0  0  0  0  0
  -21.8813   -3.8140   23.4353 C   0  0  0  0  0  0
  -21.9203   -4.6954   22.3415 C   0  0  0  0  0  0
  -22.7877  -13.5216   21.1914 C   0  0  0  0  0  0
  -22.1673   -4.2146   21.0988 F   0  0  0  0  0  0
  -21.5637   -3.4533   25.7746 F   0  0  0  0  0  0
  -30.0379  -13.3357   20.4469 N   0  0  0  0  0  0
  -26.3045  -12.9342   20.3414 N   0  0  0  0  0  0
  -25.9348  -11.6489   20.5817 N   0  0  0  0  0  0
  -22.0531  -12.8214   22.0445 N   0  0  0  0  0  0
  -25.4317  -15.1867   20.3978 N   0  0  0  0  0  0
  -31.8294  -14.6865   20.0555 O   0  0  0  0  0  0
  -21.6658   -6.8876   21.4245 O   0  0  0  0  0  0
  -22.3555  -14.5554   20.6787 O   0  0  0  0  0  0
  -24.6217  -31.8551   23.2002 C   0  0  0  0  0  0
  -25.9062  -32.4753   23.8326 C   0  0  1  0  0  0
  -27.2850  -27.3851   20.0291 C   0  0  0  0  0  0
  -25.5877  -33.8559   24.2256 N   0  0  0  0  0  0
  -23.4222  -30.4656   21.5393 C   0  0  2  0  0  0
  -24.8809  -28.9245   20.0938 C   0  0  0  0  0  0
  -22.7477  -29.4527   22.4926 C   0  0  0  0  0  0
  -18.0267  -28.1355   22.8457 C   0  0  0  0  0  0
  -24.1481  -36.7314   23.2642 C   0  0  0  0  0  0
  -25.9569  -30.7898   21.3716 C   0  0  0  0  0  0
  -26.0386  -29.4244   20.7033 C   0  0  0  0  0  0
  -27.2306  -28.6500   20.6827 C   0  0  0  0  0  0
  -26.1065  -26.9122   19.4200 C   0  0  0  0  0  0
  -24.9117  -27.6680   19.4543 C   0  0  0  0  0  0
  -23.6401  -29.7905   20.1556 C   0  0  0  0  0  0
  -25.4107  -36.3084   24.0324 C   0  0  1  0  0  0
  -20.5858  -28.3650   23.1301 C   0  0  2  0  0  0
  -20.6732  -26.9358   22.5432 C   0  0  0  0  0  0
  -19.5737  -26.6360   21.5202 C   0  0  0  0  0  0
  -18.1912  -26.7913   22.1582 C   0  0  0  0  0  0
  -19.1514  -28.8819   23.2876 C   0  0  0  0  0  0
  -18.9448  -30.1415   23.8896 C   0  0  0  0  0  0
  -17.6449  -30.6556   24.0549 C   0  0  0  0  0  0
  -25.9044  -34.9450   23.5103 C   0  0  0  0  0  0
  -16.5337  -29.9062   23.6299 C   0  0  0  0  0  0
  -16.7258  -28.6476   23.0331 C   0  0  0  0  0  0
  -26.4495  -31.6573   25.0689 C   0  0  0  0  0  0
  -25.3794  -31.3733   26.1478 C   0  0  0  0  0  0
  -27.0302  -30.2984   24.6150 C   0  0  0  0  0  0
  -27.6059  -32.4335   25.7447 C   0  0  0  0  0  0
  -27.5588  -37.1793   24.8444 C   0  0  0  0  0  0
  -21.4176  -29.2995   22.3717 N   0  0  0  0  0  0
  -26.4293  -37.3777   23.9403 N   0  0  0  0  0  0
  -24.6845  -31.0533   22.0952 N   0  0  0  0  0  0
  -23.4188  -28.8070   23.3023 O   0  0  0  0  0  0
  -28.4142  -26.5837   20.1785 O   0  0  0  0  0  0
  -26.5649  -34.8922   22.4686 O   0  0  0  0  0  0
  -23.5385  -32.1329   23.7348 O   0  0  0  0  0  0
  -31.6213  -18.3494   20.6048 C   0  0  0  0  0  0
  -32.1977  -19.6342   20.6221 C   0  0  0  0  0  0
  -29.5683  -19.3594   19.7833 C   0  0  0  0  0  0
  -30.3099  -18.1857   20.1283 C   0  0  0  0  0  0
  -31.4926  -20.7840   20.1766 C   0  0  0  0  0  0
  -30.1137  -20.6867   19.7991 C   0  0  0  0  0  0
  -28.7095  -24.4272   18.6993 C   0  0  0  0  0  0
  -28.0503  -24.1309   17.5584 C   0  0  0  0  0  0
  -30.3900  -24.7923   21.1408 C   0  0  0  0  0  0
  -30.5176  -25.7235   19.8858 C   0  0  0  0  0  0
  -29.2968  -23.7215   20.9593 C   0  0  0  0  0  0
  -29.1603  -25.8707   19.1467 C   0  0  2  0  0  0
  -32.3284  -22.0443   20.0358 C   0  0  0  0  0  0
  -29.7758  -16.7709   19.7805 C   0  0  0  0  0  0
  -29.2153  -21.8489   19.1992 C   0  0  0  0  0  0
  -29.8986  -15.6206   20.7159 N   0  0  0  0  0  0
  -29.3777  -23.3190   19.5461 N   0  3  2  0  0  0
  -31.4718  -12.3854   19.1618 H   0  0  0  0  0  0
  -30.3145  -11.3125   19.8898 H   0  0  0  0  0  0
  -29.7470  -11.7316   17.4789 H   0  0  0  0  0  0
  -29.6790  -13.4516   17.7639 H   0  0  0  0  0  0
  -27.8363  -11.2963   18.8563 H   0  0  0  0  0  0
  -27.3756  -12.6008   17.7996 H   0  0  0  0  0  0
  -27.6906  -14.2513   19.5512 H   0  0  0  0  0  0
  -28.6813  -12.0309   21.4066 H   0  0  0  0  0  0
  -28.4742  -13.6989   21.8533 H   0  0  0  0  0  0
  -25.2755   -9.5705   22.4755 H   0  0  0  0  0  0
  -24.0043   -7.4607   22.7420 H   0  0  0  0  0  0
  -21.0846   -8.8728   19.8925 H   0  0  0  0  0  0
  -22.3634  -10.9685   19.6182 H   0  0  0  0  0  0
  -21.1984   -7.6140   23.9722 H   0  0  0  0  0  0
  -21.1506   -6.0526   25.9091 H   0  0  0  0  0  0
  -22.0594   -2.7603   23.2869 H   0  0  0  0  0  0
  -22.4163  -11.9861   22.4814 H   0  0  0  0  0  0
  -21.1149  -13.1220   22.2681 H   0  0  0  0  0  0
  -24.6599  -15.8395   20.4825 H   0  0  0  0  0  0
  -26.2691  -15.6091   20.0210 H   0  0  0  0  0  0
  -26.7125  -32.5454   23.1071 H   0  0  0  0  0  0
  -24.9960  -33.9683   25.0359 H   0  0  0  0  0  0
  -22.7164  -31.2856   21.3874 H   0  0  0  0  0  0
  -23.3745  -35.9647   23.3280 H   0  0  0  0  0  0
  -24.3567  -36.8969   22.2057 H   0  0  0  0  0  0
  -23.7238  -37.6504   23.6693 H   0  0  0  0  0  0
  -26.0882  -31.5597   20.6090 H   0  0  0  0  0  0
  -26.8365  -30.8381   22.0034 H   0  0  0  0  0  0
  -28.1150  -29.0084   21.1878 H   0  0  0  0  0  0
  -26.0962  -25.9372   18.9537 H   0  0  0  0  0  0
  -24.0214  -27.2703   18.9885 H   0  0  0  0  0  0
  -23.7579  -30.5632   19.3971 H   0  0  0  0  0  0
  -22.7666  -29.2089   19.8550 H   0  0  0  0  0  0
  -25.1292  -36.1929   25.0821 H   0  0  0  0  0  0
  -20.9934  -28.3200   24.1432 H   0  0  0  0  0  0
  -20.5550  -26.2260   23.3628 H   0  0  0  0  0  0
  -21.6622  -26.7324   22.1287 H   0  0  0  0  0  0
  -19.6889  -25.6273   21.1232 H   0  0  0  0  0  0
  -19.6716  -27.3180   20.6745 H   0  0  0  0  0  0
  -17.4193  -26.6679   21.3961 H   0  0  0  0  0  0
  -18.0262  -26.0039   22.8951 H   0  0  0  0  0  0
  -19.7925  -30.7213   24.2300 H   0  0  0  0  0  0
  -17.4999  -31.6236   24.5153 H   0  0  0  0  0  0
  -15.5341  -30.2965   23.7615 H   0  0  0  0  0  0
  -15.8658  -28.0801   22.7049 H   0  0  0  0  0  0
  -24.5898  -30.7143   25.7853 H   0  0  0  0  0  0
  -24.9097  -32.2914   26.5012 H   0  0  0  0  0  0
  -25.8183  -30.8834   27.0183 H   0  0  0  0  0  0
  -26.2819  -29.6747   24.1246 H   0  0  0  0  0  0
  -27.4023  -29.7246   25.4648 H   0  0  0  0  0  0
  -27.8701  -30.4222   23.9320 H   0  0  0  0  0  0
  -27.2615  -33.3586   26.2097 H   0  0  0  0  0  0
  -28.3817  -32.7001   25.0251 H   0  0  0  0  0  0
  -28.0800  -31.8446   26.5303 H   0  0  0  0  0  0
  -28.2592  -38.0111   24.7517 H   0  0  0  0  0  0
  -28.1102  -36.2634   24.6228 H   0  0  0  0  0  0
  -27.2312  -37.1399   25.8855 H   0  0  0  0  0  0
  -20.9358  -29.8785   21.6974 H   0  0  0  0  0  0
  -26.0170  -38.2851   24.1448 H   0  0  0  0  0  0
  -32.2170  -17.4828   20.8644 H   0  0  0  0  0  0
  -33.2395  -19.7160   20.9052 H   0  0  0  0  0  0
  -28.5687  -19.2241   19.3950 H   0  0  0  0  0  0
  -27.7047  -24.9025   16.8855 H   0  0  0  0  0  0
  -27.8484  -23.1173   17.2403 H   0  0  0  0  0  0
  -30.1646  -25.3644   22.0411 H   0  0  0  0  0  0
  -31.3370  -24.2845   21.3261 H   0  0  0  0  0  0
  -31.2409  -25.3046   19.1815 H   0  0  0  0  0  0
  -30.9315  -26.6921   20.1722 H   0  0  0  0  0  0
  -28.3099  -24.1590   21.1520 H   0  0  0  0  0  0
  -29.4113  -22.9085   21.6747 H   0  0  0  0  0  0
  -29.2666  -26.5183   18.2700 H   0  0  0  0  0  0
  -33.2867  -21.7938   19.5765 H   0  0  0  0  0  0
  -32.5503  -22.4811   21.0094 H   0  0  0  0  0  0
  -31.8786  -22.7920   19.3908 H   0  0  0  0  0  0
  -30.2526  -16.4885   18.8383 H   0  0  0  0  0  0
  -28.7167  -16.8589   19.5364 H   0  0  0  0  0  0
  -28.1630  -21.5878   19.3171 H   0  0  0  0  0  0
  -29.4146  -21.7792   18.1291 H   0  0  0  0  0  0
  -29.0396  -15.3949   21.1955 H   0  0  0  0  0  0
  -30.3637  -23.4217   19.3684 H   0  0  0  0  0  0
  1 25  1  0  0  0
  1 30  2  0  0  0
  1 86  1  0  0  0
  2  3  1  0  0  0
  2 25  1  0  0  0
  2 88  1  0  0  0
  2 89  1  0  0  0
  3  4  1  0  0  0
  3 90  1  0  0  0
  3 91  1  0  0  0
  4  5  1  0  0  0
  4 92  1  0  0  0
  4 93  1  0  0  0
  5  6  1  0  0  0
  5 26  1  0  0  0
  5 94  1  0  0  0
  6 25  1  0  0  0
  6 95  1  0  0  0
  6 96  1  0  0  0
  7  8  2  0  0  0
  7 26  1  0  0  0
  7 29  1  0  0  0
  8  9  1  0  0  0
  8 22  1  0  0  0
  9 10  1  0  0  0
  9 27  2  0  0  0
 10 11  2  0  0  0
 10 15  1  0  0  0
 11 12  1  0  0  0
 11 97  1  0  0  0
 12 13  2  0  0  0
 12 98  1  0  0  0
 13 14  1  0  0  0
 13 31  1  0  0  0
 14 15  2  0  0  0
 14 99  1  0  0  0
 15100  1  0  0  0
 16 17  2  0  0  0
 16 21  1  0  0  0
 16 31  1  0  0  0
 17 18  1  0  0  0
 17101  1  0  0  0
 18 19  2  0  0  0
 18102  1  0  0  0
 19 20  1  0  0  0
 19 24  1  0  0  0
 20 21  2  0  0  0
 20103  1  0  0  0
 21 23  1  0  0  0
 22 28  1  0  0  0
 22 32  2  0  0  0
 26 27  1  0  0  0
 28104  1  0  0  0
 28105  1  0  0  0
 29106  1  0  0  0
 29107  1  0  0  0
 33 34  1  0  0  0
 33 66  1  0  0  0
 33 70  2  0  0  0
 34 36  1  0  0  0
 34 59  1  0  0  0
 34108  1  0  0  0
 35 44  2  0  0  0
 35 45  1  0  0  0
 35 68  1  0  0  0
 36 56  1  0  0  0
 36109  1  0  0  0
 37 39  1  0  0  0
 37 47  1  0  0  0
 37 66  1  0  0  0
 37110  1  0  0  0
 38 43  2  0  0  0
 38 46  1  0  0  0
 38 47  1  0  0  0
 39 64  1  0  0  0
 39 67  2  0  0  0
 40 52  1  0  0  0
 40 53  2  0  0  0
 40 58  1  0  0  0
 41111  1  0  0  0
 41112  1  0  0  0
 41113  1  0  0  0
 41 48  1  0  0  0
 42 43  1  0  0  0
 42 66  1  0  0  0
 42114  1  0  0  0
 42115  1  0  0  0
 43 44  1  0  0  0
 44116  1  0  0  0
 45 46  2  0  0  0
 45117  1  0  0  0
 46118  1  0  0  0
 47119  1  0  0  0
 47120  1  0  0  0
 48 56  1  0  0  0
 48 65  1  0  0  0
 48121  1  0  0  0
 49 50  1  0  0  0
 49 53  1  0  0  0
 49 64  1  0  0  0
 49122  1  0  0  0
 50 51  1  0  0  0
 50123  1  0  0  0
 50124  1  0  0  0
 51 52  1  0  0  0
 51125  1  0  0  0
 51126  1  0  0  0
 52127  1  0  0  0
 52128  1  0  0  0
 53 54  1  0  0  0
 54 55  2  0  0  0
 54129  1  0  0  0
 55 57  1  0  0  0
 55130  1  0  0  0
 56 69  2  0  0  0
 57 58  2  0  0  0
 57131  1  0  0  0
 58132  1  0  0  0
 59 60  1  0  0  0
 59 61  1  0  0  0
 59 62  1  0  0  0
 60133  1  0  0  0
 60134  1  0  0  0
 60135  1  0  0  0
 61136  1  0  0  0
 61137  1  0  0  0
 61138  1  0  0  0
 62139  1  0  0  0
 62140  1  0  0  0
 62141  1  0  0  0
 63 65  1  0  0  0
 63142  1  0  0  0
 63143  1  0  0  0
 63144  1  0  0  0
 64145  1  0  0  0
 65146  1  0  0  0
 68 82  1  0  0  0
 71 72  2  0  0  0
 71 74  1  0  0  0
 71147  1  0  0  0
 72 75  1  0  0  0
 72148  1  0  0  0
 73 74  2  0  0  0
 73 76  1  0  0  0
 73149  1  0  0  0
 74 84  1  0  0  0
 75 76  2  0  0  0
 75 83  1  0  0  0
 76 85  1  0  0  0
 77 78  2  0  0  0
 77 82  1  0  0  0
 77 87  1  0  0  0
 78150  1  0  0  0
 78151  1  0  0  0
 79 80  1  0  0  0
 79 81  1  0  0  0
 79152  1  0  0  0
 79153  1  0  0  0
 80 82  1  0  0  0
 80154  1  0  0  0
 80155  1  0  0  0
 81 87  1  0  0  0
 81156  1  0  0  0
 81157  1  0  0  0
 82158  1  0  0  0
 83159  1  0  0  0
 83160  1  0  0  0
 83161  1  0  0  0
 84 86  1  0  0  0
 84162  1  0  0  0
 84163  1  0  0  0
 85164  1  0  0  0
 85165  1  0  0  0
 85 87  1  0  0  0
 86166  1  0  0  0
 87167  1  0  0  0
M  CHG  1  87   1
M  ISO  4   1 100  68 101  82 101  86 100
M  END
> <chiral flag>
0

> <version>
0

> <s_m_source_file>
/data/baiqing/PycharmProjects/Reinvent-master-3.2/result/LINK_invent/BTK/process_docking_weight1_custom_product_contain_oxygen_bond_distance_aromatic_linkinvent_7_9_3/rearranged_h_0045.sdf

> <i_m_source_file_index>
54

> <r_mmod_Potential_Energy-OPLS-2005>
3.01796817779541

> <r_mmod_Stretch_Energy-OPLS-2005>
77.7885589599609

> <r_mmod_Bend_Energy-OPLS-2005>
205.399841308594

> <r_mmod_Torsional_Energy-OPLS-2005>
276.181640625

> <r_mmod_Improper_Torsional_Energy-OPLS-2005>
14.2909088134766

> <r_mmod_Van_der_Waal_Energy-OPLS-2005>
148.378173828125

> <r_mmod_Electrostatic_Energy-OPLS-2005>
-321.737640380859

> <r_mmod_Solvation_Energy-OPLS-2005>
-428.551818847656

> <b_mmod_Minimization_Converged-OPLS-2005>
0

> <r_mmod_RMS_Derivative-OPLS-2005>
7.56934642791748

$$$$
54
                    3D
 Structure written by MMmdl.
161170  0  0  1  0            999 V2000
  -30.5211  -14.7823   20.4396 C   0  0  0  0  0  0
  -30.4507  -12.4712   19.4949 C   0  0  0  0  0  0
  -29.5412  -12.5394   18.2571 C   0  0  0  0  0  0
  -28.0611  -12.3504   18.6404 C   0  0  0  0  0  0
  -27.6465  -13.2223   19.8575 C   0  0  2  0  0  0
  -28.6820  -13.1267   20.9986 C   0  0  0  0  0  0
  -25.2487  -13.8161   20.5552 C   0  0  0  0  0  0
  -24.1832  -13.0461   20.9131 C   0  0  0  0  0  0
  -24.6396  -11.6894   20.8777 C   0  0  0  0  0  0
  -23.9077  -10.4304   21.0424 C   0  0  0  0  0  0
  -24.3627   -9.4200   21.9184 C   0  0  0  0  0  0
  -23.6295   -8.2248   22.0788 C   0  0  0  0  0  0
  -22.4266   -8.0304   21.3573 C   0  0  0  0  0  0
  -21.9900   -9.0273   20.4640 C   0  0  0  0  0  0
  -22.7267  -10.2117   20.3052 C   0  0  0  0  0  0
  -21.6854   -6.0725   22.5308 C   0  0  0  0  0  0
  -21.4018   -6.5623   23.8245 C   0  0  0  0  0  0
  -21.3663   -5.6762   24.9197 C   0  0  0  0  0  0
  -21.6072   -4.3026   24.7219 C   0  0  0  0  0  0
  -21.8828   -3.8139   23.4325 C   0  0  0  0  0  0
  -21.9171   -4.6960   22.3385 C   0  0  0  0  0  0
  -22.7806  -13.5180   21.1785 C   0  0  0  0  0  0
  -22.1638   -4.2147   21.0949 F   0  0  0  0  0  0
  -21.5671   -3.4522   25.7717 F   0  0  0  0  0  0
  -29.9850  -13.5128   20.4431 N   0  0  0  0  0  0
  -26.2933  -12.9356   20.3185 N   0  0  0  0  0  0
  -25.9295  -11.6497   20.5676 N   0  0  0  0  0  0
  -22.0407  -12.8318   22.0369 N   0  0  0  0  0  0
  -25.4152  -15.1963   20.3944 N   0  0  0  0  0  0
  -31.6763  -14.9467   20.0345 O   0  0  0  0  0  0
  -21.6674   -6.8870   21.4258 O   0  0  0  0  0  0
  -22.3483  -14.5449   20.6487 O   0  0  0  0  0  0
  -24.6464  -31.8400   23.1867 C   0  0  0  0  0  0
  -25.9195  -32.4708   23.8266 C   0  0  1  0  0  0
  -27.2337  -27.1767   20.1049 C   0  0  0  0  0  0
  -25.5967  -33.8525   24.2235 N   0  0  0  0  0  0
  -23.4404  -30.4718   21.5295 C   0  0  2  0  0  0
  -24.8892  -28.9068   20.0911 C   0  0  0  0  0  0
  -22.7537  -29.4576   22.4761 C   0  0  0  0  0  0
  -18.0277  -28.1469   22.8439 C   0  0  0  0  0  0
  -24.1449  -36.7311   23.2636 C   0  0  0  0  0  0
  -25.9895  -30.7246   21.3734 C   0  0  0  0  0  0
  -26.0596  -29.3390   20.7217 C   0  0  0  0  0  0
  -27.2199  -28.4865   20.7290 C   0  0  0  0  0  0
  -26.0342  -26.8387   19.4304 C   0  0  0  0  0  0
  -24.8925  -27.6714   19.4280 C   0  0  0  0  0  0
  -23.6642  -29.8083   20.1433 C   0  0  0  0  0  0
  -25.4046  -36.3076   24.0359 C   0  0  1  0  0  0
  -20.5894  -28.3772   23.1232 C   0  0  2  0  0  0
  -20.6757  -26.9475   22.5411 C   0  0  0  0  0  0
  -19.5742  -26.6410   21.5210 C   0  0  0  0  0  0
  -18.1913  -26.7976   22.1611 C   0  0  0  0  0  0
  -19.1547  -28.8922   23.2832 C   0  0  0  0  0  0
  -18.9489  -30.1503   23.8898 C   0  0  0  0  0  0
  -17.6502  -30.6660   24.0588 C   0  0  0  0  0  0
  -25.9025  -34.9445   23.5080 C   0  0  0  0  0  0
  -16.5375  -29.9212   23.6323 C   0  0  0  0  0  0
  -16.7267  -28.6632   23.0314 C   0  0  0  0  0  0
  -26.4497  -31.6593   25.0726 C   0  0  0  0  0  0
  -25.3720  -31.3746   26.1467 C   0  0  0  0  0  0
  -27.0316  -30.3014   24.6243 C   0  0  0  0  0  0
  -27.6088  -32.4309   25.7514 C   0  0  0  0  0  0
  -27.5508  -37.1807   24.8453 C   0  0  0  0  0  0
  -21.4205  -29.3118   22.3586 N   0  0  0  0  0  0
  -26.4177  -37.3828   23.9450 N   0  0  0  0  0  0
  -24.7123  -31.0329   22.0868 N   0  0  0  0  0  0
  -23.4181  -28.8065   23.2858 O   0  0  0  0  0  0
  -28.3369  -26.2556   20.1816 O   0  0  0  0  0  0
  -26.5627  -34.8960   22.4687 O   0  0  0  0  0  0
  -23.5629  -32.1269   23.7149 O   0  0  0  0  0  0
  -32.0705  -18.6020   22.8549 C   0  0  0  0  0  0
  -31.4211  -17.9506   21.8108 C   0  0  0  0  0  0
  -31.6541  -19.8822   23.2212 C   0  0  0  0  0  0
  -30.2888  -18.4912   21.1521 C   0  0  0  0  0  0
  -29.9690  -19.9373   21.3781 C   0  0  0  0  0  0
  -30.6857  -20.5620   22.4517 C   0  0  0  0  0  0
  -28.3564  -23.4968   20.4634 C   0  0  0  0  0  0
  -30.6550  -23.6049   18.7102 C   0  0  0  0  0  0
  -29.6332  -24.7781   18.5309 C   0  0  0  0  0  0
  -29.8531  -22.2902   18.9068 C   0  0  0  0  0  0
  -28.4317  -24.8479   19.5426 C   0  0  2  0  0  0
  -28.8164  -20.8659   20.7345 C   0  0  0  0  0  0
  -29.5762  -17.3573   20.3037 C   0  0  0  0  0  0
  -29.0366  -22.3007   20.1377 N   0  0  0  0  0  0
  -29.6644  -15.8520   20.6985 N   0  0  0  0  0  0
  -27.5887  -23.5360   21.4303 O   0  0  0  0  0  0
  -30.3731  -22.1885   22.9451 Cl  0  0  0  0  0  0
  -31.4920  -12.6181   19.1980 H   0  0  0  0  0  0
  -30.4108  -11.4827   19.9469 H   0  0  0  0  0  0
  -29.8417  -11.8043   17.5108 H   0  0  0  0  0  0
  -29.6880  -13.5185   17.7985 H   0  0  0  0  0  0
  -27.9156  -11.2950   18.8698 H   0  0  0  0  0  0
  -27.4312  -12.5762   17.7792 H   0  0  0  0  0  0
  -27.6470  -14.2503   19.4974 H   0  0  0  0  0  0
  -28.7360  -12.1065   21.3853 H   0  0  0  0  0  0
  -28.3975  -13.7607   21.8376 H   0  0  0  0  0  0
  -25.2789   -9.5726   22.4703 H   0  0  0  0  0  0
  -24.0002   -7.4704   22.7563 H   0  0  0  0  0  0
  -21.0814   -8.8844   19.8945 H   0  0  0  0  0  0
  -22.3779  -10.9680   19.6171 H   0  0  0  0  0  0
  -21.2006   -7.6146   23.9724 H   0  0  0  0  0  0
  -21.1493   -6.0512   25.9102 H   0  0  0  0  0  0
  -22.0561   -2.7598   23.2858 H   0  0  0  0  0  0
  -22.3875  -12.0012   22.4959 H   0  0  0  0  0  0
  -21.1034  -13.1493   22.2351 H   0  0  0  0  0  0
  -24.6400  -15.8430   20.4957 H   0  0  0  0  0  0
  -26.2322  -15.6480   20.0111 H   0  0  0  0  0  0
  -26.7259  -32.5317   23.0989 H   0  0  0  0  0  0
  -25.0038  -33.9684   25.0341 H   0  0  0  0  0  0
  -22.7447  -31.3018   21.3854 H   0  0  0  0  0  0
  -23.3711  -35.9650   23.3288 H   0  0  0  0  0  0
  -24.3453  -36.8948   22.2028 H   0  0  0  0  0  0
  -23.7237  -37.6532   23.6664 H   0  0  0  0  0  0
  -26.1218  -31.4685   20.5859 H   0  0  0  0  0  0
  -26.8695  -30.7941   21.9980 H   0  0  0  0  0  0
  -28.0979  -28.8161   21.2608 H   0  0  0  0  0  0
  -25.9214  -25.9049   18.9027 H   0  0  0  0  0  0
  -24.0055  -27.3540   18.8979 H   0  0  0  0  0  0
  -23.8105  -30.5954   19.4038 H   0  0  0  0  0  0
  -22.7757  -29.2673   19.8132 H   0  0  0  0  0  0
  -25.1226  -36.1833   25.0859 H   0  0  0  0  0  0
  -20.9983  -28.3379   24.1361 H   0  0  0  0  0  0
  -20.5608  -26.2402   23.3627 H   0  0  0  0  0  0
  -21.6617  -26.7452   22.1231 H   0  0  0  0  0  0
  -19.6899  -25.6310   21.1278 H   0  0  0  0  0  0
  -19.6719  -27.3190   20.6718 H   0  0  0  0  0  0
  -17.4156  -26.6689   21.4053 H   0  0  0  0  0  0
  -18.0369  -26.0181   22.9083 H   0  0  0  0  0  0
  -19.7984  -30.7286   24.2296 H   0  0  0  0  0  0
  -17.5102  -31.6328   24.5232 H   0  0  0  0  0  0
  -15.5408  -30.3163   23.7671 H   0  0  0  0  0  0
  -15.8621  -28.1000   22.7030 H   0  0  0  0  0  0
  -24.6051  -30.6895   25.7834 H   0  0  0  0  0  0
  -24.8733  -32.2885   26.4714 H   0  0  0  0  0  0
  -25.8095  -30.9122   27.0331 H   0  0  0  0  0  0
  -26.2881  -29.6794   24.1261 H   0  0  0  0  0  0
  -27.3951  -29.7265   25.4757 H   0  0  0  0  0  0
  -27.8786  -30.4277   23.9504 H   0  0  0  0  0  0
  -27.2787  -33.3716   26.1939 H   0  0  0  0  0  0
  -28.4006  -32.6645   25.0387 H   0  0  0  0  0  0
  -28.0614  -31.8461   26.5544 H   0  0  0  0  0  0
  -28.2549  -38.0085   24.7475 H   0  0  0  0  0  0
  -28.1004  -36.2628   24.6284 H   0  0  0  0  0  0
  -27.2236  -37.1440   25.8865 H   0  0  0  0  0  0
  -20.9375  -29.8999   21.6934 H   0  0  0  0  0  0
  -26.0040  -38.2883   24.1565 H   0  0  0  0  0  0
  -32.8659  -18.0948   23.3842 H   0  0  0  0  0  0
  -31.7792  -16.9556   21.5786 H   0  0  0  0  0  0
  -32.0978  -20.3535   24.0862 H   0  0  0  0  0  0
  -31.3478  -23.7880   19.5460 H   0  0  0  0  0  0
  -31.3027  -23.5103   17.8194 H   0  0  0  0  0  0
  -29.2212  -24.6935   17.5137 H   0  0  0  0  0  0
  -30.1636  -25.7302   18.5545 H   0  0  0  0  0  0
  -30.5156  -21.4198   18.8602 H   0  0  0  0  0  0
  -29.1754  -22.1590   18.0531 H   0  0  0  0  0  0
  -27.5432  -24.7182   18.9259 H   0  0  0  0  0  0
  -28.1111  -20.9995   21.5612 H   0  0  0  0  0  0
  -28.2572  -20.2712   20.0132 H   0  0  0  0  0  0
  -29.8311  -17.4871   19.2489 H   0  0  0  0  0  0
  -28.5197  -17.6045   20.3561 H   0  0  0  0  0  0
  -28.8009  -15.5332   21.1112 H   0  0  0  0  0  0
  1 25  1  0  0  0
  1 30  2  0  0  0
  1 85  1  0  0  0
  2  3  1  0  0  0
  2 25  1  0  0  0
  2 88  1  0  0  0
  2 89  1  0  0  0
  3  4  1  0  0  0
  3 90  1  0  0  0
  3 91  1  0  0  0
  4  5  1  0  0  0
  4 92  1  0  0  0
  4 93  1  0  0  0
  5  6  1  0  0  0
  5 26  1  0  0  0
  5 94  1  0  0  0
  6 25  1  0  0  0
  6 95  1  0  0  0
  6 96  1  0  0  0
  7  8  2  0  0  0
  7 26  1  0  0  0
  7 29  1  0  0  0
  8  9  1  0  0  0
  8 22  1  0  0  0
  9 10  1  0  0  0
  9 27  2  0  0  0
 10 11  2  0  0  0
 10 15  1  0  0  0
 11 12  1  0  0  0
 11 97  1  0  0  0
 12 13  2  0  0  0
 12 98  1  0  0  0
 13 14  1  0  0  0
 13 31  1  0  0  0
 14 15  2  0  0  0
 14 99  1  0  0  0
 15100  1  0  0  0
 16 17  2  0  0  0
 16 21  1  0  0  0
 16 31  1  0  0  0
 17 18  1  0  0  0
 17101  1  0  0  0
 18 19  2  0  0  0
 18102  1  0  0  0
 19 20  1  0  0  0
 19 24  1  0  0  0
 20 21  2  0  0  0
 20103  1  0  0  0
 21 23  1  0  0  0
 22 28  1  0  0  0
 22 32  2  0  0  0
 26 27  1  0  0  0
 28104  1  0  0  0
 28105  1  0  0  0
 29106  1  0  0  0
 29107  1  0  0  0
 33 34  1  0  0  0
 33 66  1  0  0  0
 33 70  2  0  0  0
 34 36  1  0  0  0
 34 59  1  0  0  0
 34108  1  0  0  0
 35 44  2  0  0  0
 35 45  1  0  0  0
 35 68  1  0  0  0
 36 56  1  0  0  0
 36109  1  0  0  0
 37 39  1  0  0  0
 37 47  1  0  0  0
 37 66  1  0  0  0
 37110  1  0  0  0
 38 43  2  0  0  0
 38 46  1  0  0  0
 38 47  1  0  0  0
 39 64  1  0  0  0
 39 67  2  0  0  0
 40 52  1  0  0  0
 40 53  2  0  0  0
 40 58  1  0  0  0
 41111  1  0  0  0
 41112  1  0  0  0
 41113  1  0  0  0
 41 48  1  0  0  0
 42 43  1  0  0  0
 42 66  1  0  0  0
 42114  1  0  0  0
 42115  1  0  0  0
 43 44  1  0  0  0
 44116  1  0  0  0
 45 46  2  0  0  0
 45117  1  0  0  0
 46118  1  0  0  0
 47119  1  0  0  0
 47120  1  0  0  0
 48 56  1  0  0  0
 48 65  1  0  0  0
 48121  1  0  0  0
 49 50  1  0  0  0
 49 53  1  0  0  0
 49 64  1  0  0  0
 49122  1  0  0  0
 50 51  1  0  0  0
 50123  1  0  0  0
 50124  1  0  0  0
 51 52  1  0  0  0
 51125  1  0  0  0
 51126  1  0  0  0
 52127  1  0  0  0
 52128  1  0  0  0
 53 54  1  0  0  0
 54 55  2  0  0  0
 54129  1  0  0  0
 55 57  1  0  0  0
 55130  1  0  0  0
 56 69  2  0  0  0
 57 58  2  0  0  0
 57131  1  0  0  0
 58132  1  0  0  0
 59 60  1  0  0  0
 59 61  1  0  0  0
 59 62  1  0  0  0
 60133  1  0  0  0
 60134  1  0  0  0
 60135  1  0  0  0
 61136  1  0  0  0
 61137  1  0  0  0
 61138  1  0  0  0
 62139  1  0  0  0
 62140  1  0  0  0
 62141  1  0  0  0
 63 65  1  0  0  0
 63142  1  0  0  0
 63143  1  0  0  0
 63144  1  0  0  0
 64145  1  0  0  0
 65146  1  0  0  0
 68 81  1  0  0  0
 71 72  2  0  0  0
 71 73  1  0  0  0
 71147  1  0  0  0
 72 74  1  0  0  0
 72148  1  0  0  0
 73 76  2  0  0  0
 73149  1  0  0  0
 74 75  2  0  0  0
 74 83  1  0  0  0
 75 76  1  0  0  0
 75 82  1  0  0  0
 76 87  1  0  0  0
 77 81  1  0  0  0
 77 84  1  0  0  0
 77 86  2  0  0  0
 78 79  1  0  0  0
 78 80  1  0  0  0
 78150  1  0  0  0
 78151  1  0  0  0
 79 81  1  0  0  0
 79152  1  0  0  0
 79153  1  0  0  0
 80 84  1  0  0  0
 80154  1  0  0  0
 80155  1  0  0  0
 81156  1  0  0  0
 82 84  1  0  0  0
 82157  1  0  0  0
 82158  1  0  0  0
 83 85  1  0  0  0
 83159  1  0  0  0
 83160  1  0  0  0
 85161  1  0  0  0
M  ISO  4   1 100  68 101  81 101  85 100
M  END
> <chiral flag>
0

> <version>
0

> <s_m_source_file>
/data/baiqing/PycharmProjects/Reinvent-master-3.2/result/LINK_invent/BTK/process_docking_weight1_custom_product_contain_oxygen_bond_distance_aromatic_linkinvent_7_9_3/rearranged_h_0045.sdf

> <i_m_source_file_index>
55

> <r_mmod_Potential_Energy-OPLS-2005>
380.47705078125

> <r_mmod_Stretch_Energy-OPLS-2005>
206.120040893555

> <r_mmod_Bend_Energy-OPLS-2005>
256.751800537109

> <r_mmod_Torsional_Energy-OPLS-2005>
242.59049987793

> <r_mmod_Improper_Torsional_Energy-OPLS-2005>
7.92235708236694

> <r_mmod_Van_der_Waal_Energy-OPLS-2005>
144.577850341797

> <r_mmod_Electrostatic_Energy-OPLS-2005>
-357.513946533203

> <r_mmod_Solvation_Energy-OPLS-2005>
-242.363906860352

> <b_mmod_Minimization_Converged-OPLS-2005>
0

> <r_mmod_RMS_Derivative-OPLS-2005>
13.2182521820068

$$$$
55
                    3D
 Structure written by MMmdl.
167176  0  0  1  0            999 V2000
  -30.6994  -14.7340   20.4168 C   0  0  0  0  0  0
  -30.4235  -12.4452   19.4674 C   0  0  0  0  0  0
  -29.5023  -12.4839   18.2320 C   0  0  0  0  0  0
  -28.0328  -12.3222   18.6576 C   0  0  0  0  0  0
  -27.6432  -13.2417   19.8450 C   0  0  2  0  0  0
  -28.7009  -13.2253   20.9728 C   0  0  0  0  0  0
  -25.2510  -13.8226   20.5716 C   0  0  0  0  0  0
  -24.1809  -13.0446   20.9227 C   0  0  0  0  0  0
  -24.6423  -11.6934   20.8781 C   0  0  0  0  0  0
  -23.9092  -10.4298   21.0413 C   0  0  0  0  0  0
  -24.3635   -9.4204   21.9187 C   0  0  0  0  0  0
  -23.6301   -8.2241   22.0755 C   0  0  0  0  0  0
  -22.4281   -8.0282   21.3548 C   0  0  0  0  0  0
  -21.9926   -9.0256   20.4643 C   0  0  0  0  0  0
  -22.7263  -10.2134   20.3053 C   0  0  0  0  0  0
  -21.6856   -6.0728   22.5274 C   0  0  0  0  0  0
  -21.4019   -6.5636   23.8207 C   0  0  0  0  0  0
  -21.3661   -5.6788   24.9171 C   0  0  0  0  0  0
  -21.6038   -4.3051   24.7229 C   0  0  0  0  0  0
  -21.8825   -3.8144   23.4354 C   0  0  0  0  0  0
  -21.9192   -4.6953   22.3403 C   0  0  0  0  0  0
  -22.7819  -13.5209   21.1873 C   0  0  0  0  0  0
  -22.1660   -4.2136   21.0981 F   0  0  0  0  0  0
  -21.5626   -3.4545   25.7748 F   0  0  0  0  0  0
  -30.0012  -13.5442   20.3670 N   0  0  0  0  0  0
  -26.2974  -12.9464   20.3331 N   0  0  0  0  0  0
  -25.9369  -11.6597   20.5811 N   0  0  0  0  0  0
  -22.0487  -12.8171   22.0430 N   0  0  0  0  0  0
  -25.4173  -15.1952   20.4119 N   0  0  0  0  0  0
  -31.8960  -14.7182   20.1311 O   0  0  0  0  0  0
  -21.6648   -6.8875   21.4238 O   0  0  0  0  0  0
  -22.3480  -14.5512   20.6725 O   0  0  0  0  0  0
  -24.6335  -31.8513   23.1982 C   0  0  0  0  0  0
  -25.9144  -32.4735   23.8337 C   0  0  1  0  0  0
  -27.2458  -27.2606   20.1157 C   0  0  0  0  0  0
  -25.5927  -33.8545   24.2254 N   0  0  0  0  0  0
  -23.4315  -30.4702   21.5455 C   0  0  2  0  0  0
  -24.8828  -28.9120   20.1197 C   0  0  0  0  0  0
  -22.7511  -29.4552   22.4945 C   0  0  0  0  0  0
  -18.0264  -28.1393   22.8443 C   0  0  0  0  0  0
  -24.1480  -36.7276   23.2654 C   0  0  0  0  0  0
  -25.9803  -30.7580   21.3819 C   0  0  0  0  0  0
  -26.0534  -29.3798   20.7282 C   0  0  0  0  0  0
  -27.2340  -28.5661   20.7160 C   0  0  0  0  0  0
  -26.0553  -26.8779   19.4591 C   0  0  0  0  0  0
  -24.8886  -27.6655   19.4791 C   0  0  0  0  0  0
  -23.6498  -29.7979   20.1644 C   0  0  0  0  0  0
  -25.4109  -36.3068   24.0340 C   0  0  1  0  0  0
  -20.5869  -28.3669   23.1284 C   0  0  2  0  0  0
  -20.6753  -26.9395   22.5412 C   0  0  0  0  0  0
  -19.5750  -26.6378   21.5199 C   0  0  0  0  0  0
  -18.1911  -26.7932   22.1602 C   0  0  0  0  0  0
  -19.1529  -28.8853   23.2839 C   0  0  0  0  0  0
  -18.9479  -30.1455   23.8855 C   0  0  0  0  0  0
  -17.6484  -30.6584   24.0544 C   0  0  0  0  0  0
  -25.9066  -34.9434   23.5108 C   0  0  0  0  0  0
  -16.5351  -29.9092   23.6363 C   0  0  0  0  0  0
  -16.7259  -28.6518   23.0353 C   0  0  0  0  0  0
  -26.4509  -31.6580   25.0742 C   0  0  0  0  0  0
  -25.3715  -31.3726   26.1459 C   0  0  0  0  0  0
  -27.0387  -30.3012   24.6224 C   0  0  0  0  0  0
  -27.6047  -32.4344   25.7496 C   0  0  0  0  0  0
  -27.5563  -37.1777   24.8477 C   0  0  0  0  0  0
  -21.4211  -29.3013   22.3694 N   0  0  0  0  0  0
  -26.4267  -37.3780   23.9430 N   0  0  0  0  0  0
  -24.7012  -31.0439   22.0995 N   0  0  0  0  0  0
  -23.4203  -28.8096   23.3059 O   0  0  0  0  0  0
  -28.3798  -26.4039   20.0670 O   0  0  0  0  0  0
  -26.5662  -34.8909   22.4694 O   0  0  0  0  0  0
  -23.5476  -32.1386   23.7252 O   0  0  0  0  0  0
  -31.6253  -20.0310   20.3326 C   0  0  0  0  0  0
  -31.9052  -17.6172   20.6926 C   0  0  0  0  0  0
  -29.7067  -18.5314   20.2351 C   0  0  0  0  0  0
  -32.4473  -18.9153   20.6025 C   0  0  0  0  0  0
  -30.2304  -19.8940   20.1585 C   0  0  0  0  0  0
  -30.5282  -17.3519   20.4834 C   0  0  0  0  0  0
  -29.4800  -23.9609   19.9750 C   0  0  0  0  0  0
  -30.4591  -24.3812   19.1443 C   0  0  0  0  0  0
  -27.1027  -22.8476   21.3242 C   0  0  0  0  0  0
  -27.0326  -24.2214   20.6178 C   0  0  0  0  0  0
  -28.5262  -22.3917   21.7249 C   0  0  0  0  0  0
  -28.3833  -24.9661   20.5597 C   0  0  2  0  0  0
  -33.9459  -19.1012   20.7648 C   0  0  0  0  0  0
  -31.6654  -23.6081   18.6355 C   0  0  0  0  0  0
  -29.4059  -21.2053   19.7399 C   0  0  0  0  0  0
  -30.0196  -15.9443   20.5340 N   0  0  0  0  0  0
  -29.4715  -22.4945   20.5903 N   0  3  1  0  0  0
  -31.4641  -12.5280   19.1533 H   0  0  0  0  0  0
  -30.3474  -11.4845   19.9800 H   0  0  0  0  0  0
  -29.7758  -11.6915   17.5337 H   0  0  0  0  0  0
  -29.6315  -13.4234   17.6951 H   0  0  0  0  0  0
  -27.8916  -11.2788   18.9426 H   0  0  0  0  0  0
  -27.3688  -12.4947   17.8102 H   0  0  0  0  0  0
  -27.6224  -14.2543   19.4407 H   0  0  0  0  0  0
  -28.7371  -12.2528   21.4626 H   0  0  0  0  0  0
  -28.4516  -13.9533   21.7466 H   0  0  0  0  0  0
  -25.2779   -9.5668   22.4768 H   0  0  0  0  0  0
  -24.0002   -7.4629   22.7477 H   0  0  0  0  0  0
  -21.0859   -8.8776   19.8946 H   0  0  0  0  0  0
  -22.3722  -10.9674   19.6164 H   0  0  0  0  0  0
  -21.2021   -7.6151   23.9705 H   0  0  0  0  0  0
  -21.1470   -6.0527   25.9068 H   0  0  0  0  0  0
  -22.0606   -2.7606   23.2863 H   0  0  0  0  0  0
  -22.4130  -11.9826   22.4788 H   0  0  0  0  0  0
  -21.1095  -13.1156   22.2666 H   0  0  0  0  0  0
  -24.6487  -15.8486   20.5197 H   0  0  0  0  0  0
  -26.2639  -15.6349   20.0756 H   0  0  0  0  0  0
  -26.7184  -32.5356   23.1051 H   0  0  0  0  0  0
  -25.0044  -33.9700   25.0375 H   0  0  0  0  0  0
  -22.7306  -31.2917   21.3934 H   0  0  0  0  0  0
  -23.3750  -35.9597   23.3351 H   0  0  0  0  0  0
  -24.3575  -36.8901   22.2064 H   0  0  0  0  0  0
  -23.7252  -37.6479   23.6665 H   0  0  0  0  0  0
  -26.1293  -31.5131   20.6101 H   0  0  0  0  0  0
  -26.8561  -30.8084   22.0170 H   0  0  0  0  0  0
  -28.1332  -28.9301   21.1908 H   0  0  0  0  0  0
  -26.0152  -25.9550   18.9040 H   0  0  0  0  0  0
  -23.9996  -27.3092   18.9781 H   0  0  0  0  0  0
  -23.7742  -30.5723   19.4097 H   0  0  0  0  0  0
  -22.7688  -29.2324   19.8563 H   0  0  0  0  0  0
  -25.1288  -36.1903   25.0833 H   0  0  0  0  0  0
  -20.9914  -28.3211   24.1420 H   0  0  0  0  0  0
  -20.5690  -26.2248   23.3600 H   0  0  0  0  0  0
  -21.6618  -26.7450   22.1186 H   0  0  0  0  0  0
  -19.6967  -25.6305   21.1237 H   0  0  0  0  0  0
  -19.6727  -27.3158   20.6715 H   0  0  0  0  0  0
  -17.4214  -26.6642   21.4003 H   0  0  0  0  0  0
  -18.0305  -26.0067   22.9006 H   0  0  0  0  0  0
  -19.7966  -30.7255   24.2181 H   0  0  0  0  0  0
  -17.5070  -31.6267   24.5148 H   0  0  0  0  0  0
  -15.5374  -30.3012   23.7726 H   0  0  0  0  0  0
  -15.8627  -28.0852   22.7108 H   0  0  0  0  0  0
  -24.5891  -30.7097   25.7776 H   0  0  0  0  0  0
  -24.8902  -32.2880   26.4857 H   0  0  0  0  0  0
  -25.8017  -30.8902   27.0251 H   0  0  0  0  0  0
  -26.2980  -29.6737   24.1260 H   0  0  0  0  0  0
  -27.4146  -29.7292   25.4718 H   0  0  0  0  0  0
  -27.8806  -30.4358   23.9446 H   0  0  0  0  0  0
  -27.2653  -33.3678   26.1984 H   0  0  0  0  0  0
  -28.3842  -32.6885   25.0308 H   0  0  0  0  0  0
  -28.0713  -31.8558   26.5470 H   0  0  0  0  0  0
  -28.2567  -38.0077   24.7515 H   0  0  0  0  0  0
  -28.1067  -36.2620   24.6281 H   0  0  0  0  0  0
  -27.2283  -37.1404   25.8879 H   0  0  0  0  0  0
  -20.9413  -29.8733   21.6881 H   0  0  0  0  0  0
  -26.0159  -38.2854   24.1453 H   0  0  0  0  0  0
  -32.0906  -21.0020   20.2312 H   0  0  0  0  0  0
  -32.5940  -16.8171   20.9185 H   0  0  0  0  0  0
  -28.6514  -18.3839   20.0567 H   0  0  0  0  0  0
  -30.4445  -25.4213   18.8457 H   0  0  0  0  0  0
  -26.6325  -22.0981   20.6858 H   0  0  0  0  0  0
  -26.4876  -22.8786   22.2222 H   0  0  0  0  0  0
  -26.2827  -24.8257   21.1283 H   0  0  0  0  0  0
  -26.6796  -24.0575   19.5997 H   0  0  0  0  0  0
  -28.5049  -21.3740   22.1157 H   0  0  0  0  0  0
  -28.9021  -23.0088   22.5438 H   0  0  0  0  0  0
  -28.6930  -25.1056   21.5959 H   0  0  0  0  0  0
  -34.1878  -20.0831   21.1706 H   0  0  0  0  0  0
  -34.4504  -18.9993   19.8024 H   0  0  0  0  0  0
  -34.3653  -18.3559   21.4411 H   0  0  0  0  0  0
  -32.3778  -23.4014   19.4346 H   0  0  0  0  0  0
  -32.1873  -24.2130   17.8901 H   0  0  0  0  0  0
  -31.3988  -22.6727   18.1467 H   0  0  0  0  0  0
  -28.3639  -20.9150   19.6232 H   0  0  0  0  0  0
  -29.7156  -21.4518   18.7269 H   0  0  0  0  0  0
  -29.0180  -15.8477   20.5967 H   0  0  0  0  0  0
  -30.3739  -22.3963   21.0312 H   0  0  0  0  0  0
  1 25  1  0  0  0
  1 30  2  0  0  0
  1 86  1  0  0  0
  2  3  1  0  0  0
  2 25  1  0  0  0
  2 88  1  0  0  0
  2 89  1  0  0  0
  3  4  1  0  0  0
  3 90  1  0  0  0
  3 91  1  0  0  0
  4  5  1  0  0  0
  4 92  1  0  0  0
  4 93  1  0  0  0
  5  6  1  0  0  0
  5 26  1  0  0  0
  5 94  1  0  0  0
  6 25  1  0  0  0
  6 95  1  0  0  0
  6 96  1  0  0  0
  7  8  2  0  0  0
  7 26  1  0  0  0
  7 29  1  0  0  0
  8  9  1  0  0  0
  8 22  1  0  0  0
  9 10  1  0  0  0
  9 27  2  0  0  0
 10 11  2  0  0  0
 10 15  1  0  0  0
 11 12  1  0  0  0
 11 97  1  0  0  0
 12 13  2  0  0  0
 12 98  1  0  0  0
 13 14  1  0  0  0
 13 31  1  0  0  0
 14 15  2  0  0  0
 14 99  1  0  0  0
 15100  1  0  0  0
 16 17  2  0  0  0
 16 21  1  0  0  0
 16 31  1  0  0  0
 17 18  1  0  0  0
 17101  1  0  0  0
 18 19  2  0  0  0
 18102  1  0  0  0
 19 20  1  0  0  0
 19 24  1  0  0  0
 20 21  2  0  0  0
 20103  1  0  0  0
 21 23  1  0  0  0
 22 28  1  0  0  0
 22 32  2  0  0  0
 26 27  1  0  0  0
 28104  1  0  0  0
 28105  1  0  0  0
 29106  1  0  0  0
 29107  1  0  0  0
 33 34  1  0  0  0
 33 66  1  0  0  0
 33 70  2  0  0  0
 34 36  1  0  0  0
 34 59  1  0  0  0
 34108  1  0  0  0
 35 44  2  0  0  0
 35 45  1  0  0  0
 35 68  1  0  0  0
 36 56  1  0  0  0
 36109  1  0  0  0
 37 39  1  0  0  0
 37 47  1  0  0  0
 37 66  1  0  0  0
 37110  1  0  0  0
 38 43  2  0  0  0
 38 46  1  0  0  0
 38 47  1  0  0  0
 39 64  1  0  0  0
 39 67  2  0  0  0
 40 52  1  0  0  0
 40 53  2  0  0  0
 40 58  1  0  0  0
 41111  1  0  0  0
 41112  1  0  0  0
 41113  1  0  0  0
 41 48  1  0  0  0
 42 43  1  0  0  0
 42 66  1  0  0  0
 42114  1  0  0  0
 42115  1  0  0  0
 43 44  1  0  0  0
 44116  1  0  0  0
 45 46  2  0  0  0
 45117  1  0  0  0
 46118  1  0  0  0
 47119  1  0  0  0
 47120  1  0  0  0
 48 56  1  0  0  0
 48 65  1  0  0  0
 48121  1  0  0  0
 49 50  1  0  0  0
 49 53  1  0  0  0
 49 64  1  0  0  0
 49122  1  0  0  0
 50 51  1  0  0  0
 50123  1  0  0  0
 50124  1  0  0  0
 51 52  1  0  0  0
 51125  1  0  0  0
 51126  1  0  0  0
 52127  1  0  0  0
 52128  1  0  0  0
 53 54  1  0  0  0
 54 55  2  0  0  0
 54129  1  0  0  0
 55 57  1  0  0  0
 55130  1  0  0  0
 56 69  2  0  0  0
 57 58  2  0  0  0
 57131  1  0  0  0
 58132  1  0  0  0
 59 60  1  0  0  0
 59 61  1  0  0  0
 59 62  1  0  0  0
 60133  1  0  0  0
 60134  1  0  0  0
 60135  1  0  0  0
 61136  1  0  0  0
 61137  1  0  0  0
 61138  1  0  0  0
 62139  1  0  0  0
 62140  1  0  0  0
 62141  1  0  0  0
 63 65  1  0  0  0
 63142  1  0  0  0
 63143  1  0  0  0
 63144  1  0  0  0
 64145  1  0  0  0
 65146  1  0  0  0
 68 82  1  0  0  0
 71 74  2  0  0  0
 71 75  1  0  0  0
 71147  1  0  0  0
 72 74  1  0  0  0
 72 76  2  0  0  0
 72148  1  0  0  0
 73 75  2  0  0  0
 73 76  1  0  0  0
 73149  1  0  0  0
 74 83  1  0  0  0
 75 85  1  0  0  0
 76 86  1  0  0  0
 77 78  2  0  0  0
 77 82  1  0  0  0
 77 87  1  0  0  0
 78 84  1  0  0  0
 78150  1  0  0  0
 79 80  1  0  0  0
 79 81  1  0  0  0
 79151  1  0  0  0
 79152  1  0  0  0
 80 82  1  0  0  0
 80153  1  0  0  0
 80154  1  0  0  0
 81 87  1  0  0  0
 81155  1  0  0  0
 81156  1  0  0  0
 82157  1  0  0  0
 83158  1  0  0  0
 83159  1  0  0  0
 83160  1  0  0  0
 84161  1  0  0  0
 84162  1  0  0  0
 84163  1  0  0  0
 85164  1  0  0  0
 85165  1  0  0  0
 85 87  1  0  0  0
 86166  1  0  0  0
 87167  1  0  0  0
M  CHG  1  87   1
M  ISO  4   1 100  68 101  82 101  86 100
M  END
> <chiral flag>
0

> <version>
0

> <s_m_source_file>
/data/baiqing/PycharmProjects/Reinvent-master-3.2/result/LINK_invent/BTK/process_docking_weight1_custom_product_contain_oxygen_bond_distance_aromatic_linkinvent_7_9_3/rearranged_h_0045.sdf

> <i_m_source_file_index>
56

> <r_mmod_Potential_Energy-OPLS-2005>
138.260726928711

> <r_mmod_Stretch_Energy-OPLS-2005>
146.050689697266

> <r_mmod_Bend_Energy-OPLS-2005>
192.232955932617

> <r_mmod_Torsional_Energy-OPLS-2005>
271.014556884766

> <r_mmod_Improper_Torsional_Energy-OPLS-2005>
6.6263952255249

> <r_mmod_Van_der_Waal_Energy-OPLS-2005>
149.872756958008

> <r_mmod_Electrostatic_Energy-OPLS-2005>
-275.976623535156

> <r_mmod_Solvation_Energy-OPLS-2005>
-434.466400146484

> <b_mmod_Minimization_Converged-OPLS-2005>
0

> <r_mmod_RMS_Derivative-OPLS-2005>
3.94348359107971

$$$$
56
                    3D
 Structure written by MMmdl.
154162  0  0  1  0            999 V2000
  -30.6346  -14.7291   20.4611 C   0  0  0  0  0  0
  -30.4245  -12.4436   19.4785 C   0  0  0  0  0  0
  -29.5088  -12.5075   18.2374 C   0  0  0  0  0  0
  -28.0341  -12.3360   18.6481 C   0  0  0  0  0  0
  -27.6405  -13.2355   19.8498 C   0  0  2  0  0  0
  -28.6840  -13.1756   20.9875 C   0  0  0  0  0  0
  -25.2477  -13.8202   20.5652 C   0  0  0  0  0  0
  -24.1795  -13.0442   20.9224 C   0  0  0  0  0  0
  -24.6393  -11.6927   20.8765 C   0  0  0  0  0  0
  -23.9067  -10.4299   21.0414 C   0  0  0  0  0  0
  -24.3623   -9.4208   21.9184 C   0  0  0  0  0  0
  -23.6296   -8.2247   22.0756 C   0  0  0  0  0  0
  -22.4277   -8.0285   21.3549 C   0  0  0  0  0  0
  -21.9918   -9.0258   20.4647 C   0  0  0  0  0  0
  -22.7243  -10.2136   20.3057 C   0  0  0  0  0  0
  -21.6853   -6.0729   22.5274 C   0  0  0  0  0  0
  -21.4016   -6.5632   23.8207 C   0  0  0  0  0  0
  -21.3665   -5.6791   24.9173 C   0  0  0  0  0  0
  -21.6049   -4.3054   24.7226 C   0  0  0  0  0  0
  -21.8823   -3.8143   23.4347 C   0  0  0  0  0  0
  -21.9199   -4.6957   22.3401 C   0  0  0  0  0  0
  -22.7812  -13.5209   21.1879 C   0  0  0  0  0  0
  -22.1667   -4.2140   21.0975 F   0  0  0  0  0  0
  -21.5628   -3.4536   25.7738 F   0  0  0  0  0  0
  -29.9885  -13.5137   20.4068 N   0  0  0  0  0  0
  -26.2920  -12.9424   20.3256 N   0  0  0  0  0  0
  -25.9324  -11.6563   20.5766 N   0  0  0  0  0  0
  -22.0467  -12.8189   22.0436 N   0  0  0  0  0  0
  -25.4123  -15.1917   20.3973 N   0  0  0  0  0  0
  -31.8229  -14.7781   20.1377 O   0  0  0  0  0  0
  -21.6647   -6.8875   21.4238 O   0  0  0  0  0  0
  -22.3491  -14.5512   20.6720 O   0  0  0  0  0  0
  -24.6277  -31.8562   23.1977 C   0  0  0  0  0  0
  -25.9106  -32.4759   23.8333 C   0  0  1  0  0  0
  -27.2272  -27.2777   20.1244 C   0  0  0  0  0  0
  -25.5904  -33.8563   24.2247 N   0  0  0  0  0  0
  -23.4247  -30.4759   21.5419 C   0  0  2  0  0  0
  -24.8730  -28.9226   20.1097 C   0  0  0  0  0  0
  -22.7481  -29.4596   22.4932 C   0  0  0  0  0  0
  -18.0279  -28.1381   22.8494 C   0  0  0  0  0  0
  -24.1489  -36.7300   23.2643 C   0  0  0  0  0  0
  -25.9678  -30.7739   21.3738 C   0  0  0  0  0  0
  -26.0410  -29.3966   20.7188 C   0  0  0  0  0  0
  -27.2162  -28.5835   20.7184 C   0  0  0  0  0  0
  -26.0317  -26.8590   19.4988 C   0  0  0  0  0  0
  -24.8725  -27.6619   19.4908 C   0  0  0  0  0  0
  -23.6416  -29.8055   20.1591 C   0  0  0  0  0  0
  -25.4112  -36.3079   24.0325 C   0  0  1  0  0  0
  -20.5881  -28.3688   23.1287 C   0  0  2  0  0  0
  -20.6760  -26.9410   22.5418 C   0  0  0  0  0  0
  -19.5741  -26.6383   21.5218 C   0  0  0  0  0  0
  -18.1925  -26.7923   22.1634 C   0  0  0  0  0  0
  -19.1535  -28.8853   23.2884 C   0  0  0  0  0  0
  -18.9455  -30.1456   23.8902 C   0  0  0  0  0  0
  -17.6455  -30.6590   24.0569 C   0  0  0  0  0  0
  -25.9048  -34.9440   23.5092 C   0  0  0  0  0  0
  -16.5346  -29.9090   23.6328 C   0  0  0  0  0  0
  -16.7266  -28.6502   23.0357 C   0  0  0  0  0  0
  -26.4472  -31.6578   25.0718 C   0  0  0  0  0  0
  -25.3696  -31.3727   26.1439 C   0  0  0  0  0  0
  -27.0308  -30.2990   24.6196 C   0  0  0  0  0  0
  -27.6031  -32.4310   25.7489 C   0  0  0  0  0  0
  -27.5574  -37.1802   24.8462 C   0  0  0  0  0  0
  -21.4190  -29.3044   22.3677 N   0  0  0  0  0  0
  -26.4289  -37.3773   23.9400 N   0  0  0  0  0  0
  -24.6927  -31.0533   22.0952 N   0  0  0  0  0  0
  -23.4185  -28.8140   23.3032 O   0  0  0  0  0  0
  -28.3521  -26.4297   20.2133 O   0  0  0  0  0  0
  -26.5648  -34.8913   22.4679 O   0  0  0  0  0  0
  -23.5429  -32.1392   23.7278 O   0  0  0  0  0  0
  -30.9071  -20.1206   20.1666 C   0  0  0  0  0  0
  -31.5252  -17.7510   20.2461 C   0  0  0  0  0  0
  -29.5590  -19.8518   20.4829 C   0  0  0  0  0  0
  -29.2204  -18.4252   20.6499 C   0  0  0  0  0  0
  -30.1996  -17.3406   20.5292 C   0  0  0  0  0  0
  -31.8675  -19.1018   20.0617 C   0  0  0  0  0  0
  -28.8941  -22.5236   20.0218 C   0  0  0  0  0  0
  -28.2638  -23.7353   20.2842 C   0  0  0  0  0  0
  -28.6420  -21.1190   20.6292 C   0  0  0  0  0  0
  -27.7763  -18.0309   20.9376 C   0  0  0  0  0  0
  -28.4680  -25.1105   19.5213 C   0  0  0  0  0  0
  -27.5851  -21.0317   21.3169 N   0  0  0  0  0  0
  -29.8840  -15.8827   20.6824 N   0  0  0  0  0  0
  -33.5052  -19.5191   19.7116 Cl  0  0  0  0  0  0
  -31.4678  -12.5477   19.1777 H   0  0  0  0  0  0
  -30.3524  -11.4682   19.9619 H   0  0  0  0  0  0
  -29.7871  -11.7370   17.5171 H   0  0  0  0  0  0
  -29.6420  -13.4648   17.7303 H   0  0  0  0  0  0
  -27.8856  -11.2867   18.9065 H   0  0  0  0  0  0
  -27.3806  -12.5328   17.7975 H   0  0  0  0  0  0
  -27.6340  -14.2559   19.4664 H   0  0  0  0  0  0
  -28.7122  -12.1821   21.4370 H   0  0  0  0  0  0
  -28.4205  -13.8646   21.7906 H   0  0  0  0  0  0
  -25.2773   -9.5668   22.4744 H   0  0  0  0  0  0
  -24.0005   -7.4630   22.7475 H   0  0  0  0  0  0
  -21.0855   -8.8772   19.8945 H   0  0  0  0  0  0
  -22.3713  -10.9671   19.6159 H   0  0  0  0  0  0
  -21.2003   -7.6137   23.9700 H   0  0  0  0  0  0
  -21.1485   -6.0523   25.9070 H   0  0  0  0  0  0
  -22.0598   -2.7603   23.2849 H   0  0  0  0  0  0
  -22.4104  -11.9859   22.4821 H   0  0  0  0  0  0
  -21.1080  -13.1187   22.2644 H   0  0  0  0  0  0
  -24.6277  -15.8296   20.4701 H   0  0  0  0  0  0
  -26.2206  -15.6099   19.9573 H   0  0  0  0  0  0
  -26.7166  -32.5416   23.1072 H   0  0  0  0  0  0
  -24.9972  -33.9709   25.0336 H   0  0  0  0  0  0
  -22.7204  -31.2977   21.3950 H   0  0  0  0  0  0
  -23.3743  -35.9644   23.3319 H   0  0  0  0  0  0
  -24.3575  -36.8923   22.2056 H   0  0  0  0  0  0
  -23.7256  -37.6507   23.6664 H   0  0  0  0  0  0
  -26.0978  -31.5316   20.5998 H   0  0  0  0  0  0
  -26.8477  -30.8297   22.0019 H   0  0  0  0  0  0
  -28.1102  -28.9421   21.2091 H   0  0  0  0  0  0
  -25.9496  -25.8839   19.0452 H   0  0  0  0  0  0
  -23.9740  -27.2882   19.0186 H   0  0  0  0  0  0
  -23.7603  -30.5814   19.4025 H   0  0  0  0  0  0
  -22.7620  -29.2338   19.8587 H   0  0  0  0  0  0
  -25.1294  -36.1926   25.0820 H   0  0  0  0  0  0
  -20.9966  -28.3264   24.1414 H   0  0  0  0  0  0
  -20.5654  -26.2304   23.3625 H   0  0  0  0  0  0
  -21.6627  -26.7432   22.1222 H   0  0  0  0  0  0
  -19.6909  -25.6295   21.1256 H   0  0  0  0  0  0
  -19.6675  -27.3191   20.6747 H   0  0  0  0  0  0
  -17.4186  -26.6672   21.4045 H   0  0  0  0  0  0
  -18.0329  -26.0063   22.9029 H   0  0  0  0  0  0
  -19.7927  -30.7273   24.2281 H   0  0  0  0  0  0
  -17.5004  -31.6275   24.5169 H   0  0  0  0  0  0
  -15.5343  -30.2995   23.7647 H   0  0  0  0  0  0
  -15.8665  -28.0824   22.7070 H   0  0  0  0  0  0
  -24.5879  -30.7070   25.7759 H   0  0  0  0  0  0
  -24.8876  -32.2902   26.4829 H   0  0  0  0  0  0
  -25.8010  -30.8925   27.0235 H   0  0  0  0  0  0
  -26.2892  -29.6744   24.1202 H   0  0  0  0  0  0
  -27.3970  -29.7229   25.4707 H   0  0  0  0  0  0
  -27.8775  -30.4257   23.9445 H   0  0  0  0  0  0
  -27.2643  -33.3613   26.2059 H   0  0  0  0  0  0
  -28.3840  -32.6869   25.0313 H   0  0  0  0  0  0
  -28.0700  -31.8445   26.5414 H   0  0  0  0  0  0
  -28.2593  -38.0093   24.7480 H   0  0  0  0  0  0
  -28.1067  -36.2621   24.6315 H   0  0  0  0  0  0
  -27.2297  -37.1484   25.8869 H   0  0  0  0  0  0
  -20.9364  -29.8777   21.6898 H   0  0  0  0  0  0
  -26.0176  -38.2854   24.1383 H   0  0  0  0  0  0
  -31.2430  -21.1386   20.0379 H   0  0  0  0  0  0
  -32.3328  -17.0455   20.1586 H   0  0  0  0  0  0
  -29.6542  -22.5187   19.2546 H   0  0  0  0  0  0
  -27.5016  -23.7574   21.0509 H   0  0  0  0  0  0
  -27.0891  -18.5778   20.2918 H   0  0  0  0  0  0
  -27.5195  -18.2352   21.9774 H   0  0  0  0  0  0
  -27.5858  -16.9753   20.7561 H   0  0  0  0  0  0
  -27.8525  -25.0916   18.6242 H   0  0  0  0  0  0
  -29.4837  -25.0823   19.1285 H   0  0  0  0  0  0
  -27.4754  -20.0981   21.6960 H   0  0  0  0  0  0
  -28.9252  -15.6824   20.9197 H   0  0  0  0  0  0
  1 25  1  0  0  0
  1 30  2  0  0  0
  1 83  1  0  0  0
  2  3  1  0  0  0
  2 25  1  0  0  0
  2 85  1  0  0  0
  2 86  1  0  0  0
  3  4  1  0  0  0
  3 87  1  0  0  0
  3 88  1  0  0  0
  4  5  1  0  0  0
  4 89  1  0  0  0
  4 90  1  0  0  0
  5  6  1  0  0  0
  5 26  1  0  0  0
  5 91  1  0  0  0
  6 25  1  0  0  0
  6 92  1  0  0  0
  6 93  1  0  0  0
  7  8  2  0  0  0
  7 26  1  0  0  0
  7 29  1  0  0  0
  8  9  1  0  0  0
  8 22  1  0  0  0
  9 10  1  0  0  0
  9 27  2  0  0  0
 10 11  2  0  0  0
 10 15  1  0  0  0
 11 12  1  0  0  0
 11 94  1  0  0  0
 12 13  2  0  0  0
 12 95  1  0  0  0
 13 14  1  0  0  0
 13 31  1  0  0  0
 14 15  2  0  0  0
 14 96  1  0  0  0
 15 97  1  0  0  0
 16 17  2  0  0  0
 16 21  1  0  0  0
 16 31  1  0  0  0
 17 18  1  0  0  0
 17 98  1  0  0  0
 18 19  2  0  0  0
 18 99  1  0  0  0
 19 20  1  0  0  0
 19 24  1  0  0  0
 20 21  2  0  0  0
 20100  1  0  0  0
 21 23  1  0  0  0
 22 28  1  0  0  0
 22 32  2  0  0  0
 26 27  1  0  0  0
 28101  1  0  0  0
 28102  1  0  0  0
 29103  1  0  0  0
 29104  1  0  0  0
 33 34  1  0  0  0
 33 66  1  0  0  0
 33 70  2  0  0  0
 34 36  1  0  0  0
 34 59  1  0  0  0
 34105  1  0  0  0
 35 44  2  0  0  0
 35 45  1  0  0  0
 35 68  1  0  0  0
 36 56  1  0  0  0
 36106  1  0  0  0
 37 39  1  0  0  0
 37 47  1  0  0  0
 37 66  1  0  0  0
 37107  1  0  0  0
 38 43  2  0  0  0
 38 46  1  0  0  0
 38 47  1  0  0  0
 39 64  1  0  0  0
 39 67  2  0  0  0
 40 52  1  0  0  0
 40 53  2  0  0  0
 40 58  1  0  0  0
 41108  1  0  0  0
 41109  1  0  0  0
 41110  1  0  0  0
 41 48  1  0  0  0
 42 43  1  0  0  0
 42 66  1  0  0  0
 42111  1  0  0  0
 42112  1  0  0  0
 43 44  1  0  0  0
 44113  1  0  0  0
 45 46  2  0  0  0
 45114  1  0  0  0
 46115  1  0  0  0
 47116  1  0  0  0
 47117  1  0  0  0
 48 56  1  0  0  0
 48 65  1  0  0  0
 48118  1  0  0  0
 49 50  1  0  0  0
 49 53  1  0  0  0
 49 64  1  0  0  0
 49119  1  0  0  0
 50 51  1  0  0  0
 50120  1  0  0  0
 50121  1  0  0  0
 51 52  1  0  0  0
 51122  1  0  0  0
 51123  1  0  0  0
 52124  1  0  0  0
 52125  1  0  0  0
 53 54  1  0  0  0
 54 55  2  0  0  0
 54126  1  0  0  0
 55 57  1  0  0  0
 55127  1  0  0  0
 56 69  2  0  0  0
 57 58  2  0  0  0
 57128  1  0  0  0
 58129  1  0  0  0
 59 60  1  0  0  0
 59 61  1  0  0  0
 59 62  1  0  0  0
 60130  1  0  0  0
 60131  1  0  0  0
 60132  1  0  0  0
 61133  1  0  0  0
 61134  1  0  0  0
 61135  1  0  0  0
 62136  1  0  0  0
 62137  1  0  0  0
 62138  1  0  0  0
 63 65  1  0  0  0
 63139  1  0  0  0
 63140  1  0  0  0
 63141  1  0  0  0
 64142  1  0  0  0
 65143  1  0  0  0
 68 81  1  0  0  0
 71 73  2  0  0  0
 71 76  1  0  0  0
 71144  1  0  0  0
 72 75  1  0  0  0
 72 76  2  0  0  0
 72145  1  0  0  0
 73 74  1  0  0  0
 73 79  1  0  0  0
 74 75  2  0  0  0
 74 80  1  0  0  0
 75 83  1  0  0  0
 76 84  1  0  0  0
 77 78  2  0  0  0
 77 79  1  0  0  0
 77146  1  0  0  0
 78 81  1  0  0  0
 78147  1  0  0  0
 79 82  2  0  0  0
 80148  1  0  0  0
 80149  1  0  0  0
 80150  1  0  0  0
 81151  1  0  0  0
 81152  1  0  0  0
 82153  1  0  0  0
 83154  1  0  0  0
M  ISO  4   1 100  68 101  81 101  83 100
M  END
> <chiral flag>
0

> <version>
0

> <s_m_source_file>
/data/baiqing/PycharmProjects/Reinvent-master-3.2/result/LINK_invent/BTK/process_docking_weight1_custom_product_contain_oxygen_bond_distance_aromatic_linkinvent_7_9_3/rearranged_h_0045.sdf

> <i_m_source_file_index>
57

> <r_mmod_Potential_Energy-OPLS-2005>
125.49235534668

> <r_mmod_Stretch_Energy-OPLS-2005>
130.612716674805

> <r_mmod_Bend_Energy-OPLS-2005>
168.513320922852

> <r_mmod_Torsional_Energy-OPLS-2005>
221.319076538086

> <r_mmod_Improper_Torsional_Energy-OPLS-2005>
5.84913444519043

> <r_mmod_Van_der_Waal_Energy-OPLS-2005>
151.317626953125

> <r_mmod_Electrostatic_Energy-OPLS-2005>
-410.587493896484

> <r_mmod_Solvation_Energy-OPLS-2005>
-217.492752075195

> <b_mmod_Minimization_Converged-OPLS-2005>
0

> <r_mmod_RMS_Derivative-OPLS-2005>
1.68306994438171

$$$$
57
                    3D
 Structure written by MMmdl.
157165  0  0  1  0            999 V2000
  -30.6388  -14.7674   20.4647 C   0  0  0  0  0  0
  -30.4133  -12.4792   19.4692 C   0  0  0  0  0  0
  -29.4961  -12.5135   18.2276 C   0  0  0  0  0  0
  -28.0224  -12.3397   18.6380 C   0  0  0  0  0  0
  -27.6282  -13.2457   19.8349 C   0  0  2  0  0  0
  -28.6702  -13.2128   20.9662 C   0  0  0  0  0  0
  -25.2459  -13.8221   20.5780 C   0  0  0  0  0  0
  -24.1776  -13.0427   20.9244 C   0  0  0  0  0  0
  -24.6383  -11.6904   20.8717 C   0  0  0  0  0  0
  -23.9077  -10.4277   21.0363 C   0  0  0  0  0  0
  -24.3610   -9.4237   21.9189 C   0  0  0  0  0  0
  -23.6279   -8.2289   22.0796 C   0  0  0  0  0  0
  -22.4278   -8.0294   21.3548 C   0  0  0  0  0  0
  -21.9925   -9.0247   20.4622 C   0  0  0  0  0  0
  -22.7268  -10.2095   20.2991 C   0  0  0  0  0  0
  -21.6884   -6.0738   22.5264 C   0  0  0  0  0  0
  -21.4023   -6.5636   23.8193 C   0  0  0  0  0  0
  -21.3648   -5.6787   24.9151 C   0  0  0  0  0  0
  -21.6030   -4.3052   24.7207 C   0  0  0  0  0  0
  -21.8821   -3.8137   23.4336 C   0  0  0  0  0  0
  -21.9217   -4.6956   22.3394 C   0  0  0  0  0  0
  -22.7807  -13.5182   21.1979 C   0  0  0  0  0  0
  -22.1692   -4.2114   21.0984 F   0  0  0  0  0  0
  -21.5604   -3.4542   25.7746 F   0  0  0  0  0  0
  -29.9680  -13.5618   20.3787 N   0  0  0  0  0  0
  -26.2873  -12.9450   20.3247 N   0  0  0  0  0  0
  -25.9300  -11.6568   20.5644 N   0  0  0  0  0  0
  -22.0580  -12.8226   22.0670 N   0  0  0  0  0  0
  -25.4232  -15.1957   20.4397 N   0  0  0  0  0  0
  -31.8322  -14.8093   20.1604 O   0  0  0  0  0  0
  -21.6656   -6.8869   21.4222 O   0  0  0  0  0  0
  -22.3449  -14.5437   20.6751 O   0  0  0  0  0  0
  -24.6356  -31.8536   23.1995 C   0  0  0  0  0  0
  -25.9152  -32.4768   23.8355 C   0  0  1  0  0  0
  -27.1971  -27.2161   20.1316 C   0  0  0  0  0  0
  -25.5948  -33.8578   24.2255 N   0  0  0  0  0  0
  -23.4326  -30.4760   21.5475 C   0  0  2  0  0  0
  -24.8795  -28.9240   20.1108 C   0  0  0  0  0  0
  -22.7510  -29.4579   22.4941 C   0  0  0  0  0  0
  -18.0274  -28.1397   22.8476 C   0  0  0  0  0  0
  -24.1501  -36.7268   23.2629 C   0  0  0  0  0  0
  -25.9884  -30.7465   21.3952 C   0  0  0  0  0  0
  -26.0545  -29.3713   20.7266 C   0  0  0  0  0  0
  -27.2178  -28.5294   20.7253 C   0  0  0  0  0  0
  -25.9994  -26.8540   19.4718 C   0  0  0  0  0  0
  -24.8581  -27.6768   19.4743 C   0  0  0  0  0  0
  -23.6552  -29.8172   20.1619 C   0  0  0  0  0  0
  -25.4134  -36.3091   24.0316 C   0  0  1  0  0  0
  -20.5880  -28.3696   23.1274 C   0  0  2  0  0  0
  -20.6785  -26.9411   22.5417 C   0  0  0  0  0  0
  -19.5771  -26.6386   21.5214 C   0  0  0  0  0  0
  -18.1936  -26.7938   22.1605 C   0  0  0  0  0  0
  -19.1529  -28.8859   23.2877 C   0  0  0  0  0  0
  -18.9455  -30.1465   23.8902 C   0  0  0  0  0  0
  -17.6453  -30.6605   24.0549 C   0  0  0  0  0  0
  -25.9077  -34.9459   23.5086 C   0  0  0  0  0  0
  -16.5337  -29.9104   23.6349 C   0  0  0  0  0  0
  -16.7256  -28.6519   23.0367 C   0  0  0  0  0  0
  -26.4499  -31.6618   25.0764 C   0  0  0  0  0  0
  -25.3672  -31.3826   26.1450 C   0  0  0  0  0  0
  -27.0337  -30.3011   24.6320 C   0  0  0  0  0  0
  -27.6066  -32.4351   25.7520 C   0  0  0  0  0  0
  -27.5596  -37.1796   24.8459 C   0  0  0  0  0  0
  -21.4211  -29.3043   22.3681 N   0  0  0  0  0  0
  -26.4309  -37.3780   23.9400 N   0  0  0  0  0  0
  -24.7050  -31.0431   22.1034 N   0  0  0  0  0  0
  -23.4193  -28.8094   23.3027 O   0  0  0  0  0  0
  -28.2599  -26.2736   20.2098 O   0  0  0  0  0  0
  -26.5642  -34.8918   22.4652 O   0  0  0  0  0  0
  -23.5487  -32.1418   23.7225 O   0  0  0  0  0  0
  -29.3325  -17.1495   24.1031 C   0  0  0  0  0  0
  -28.7642  -19.0025   22.6827 C   0  0  0  0  0  0
  -29.8453  -16.4381   23.0028 C   0  0  0  0  0  0
  -29.2776  -18.3691   21.5241 C   0  0  0  0  0  0
  -29.7194  -16.9423   21.6540 C   0  0  0  0  0  0
  -28.7512  -18.4030   23.9423 C   0  0  0  0  0  0
  -28.6305  -22.0192   20.0378 C   0  0  0  0  0  0
  -30.5597  -15.1485   23.4066 C   0  0  0  0  0  0
  -29.2697  -19.3961   20.2919 C   0  0  0  0  0  0
  -28.9342  -23.5576   20.4594 C   0  0  0  0  0  0
  -27.9767  -24.7954   19.9693 C   0  0  0  0  0  0
  -29.9342  -15.9687   20.5500 N   0  0  0  0  0  0
  -29.3123  -20.9287   20.5746 N   0  0  0  0  0  0
  -27.7651  -21.8232   19.1847 O   0  0  0  0  0  0
  -28.0668  -19.2243   25.2969 Cl  0  0  0  0  0  0
  -31.4556  -12.5946   19.1714 H   0  0  0  0  0  0
  -30.3454  -11.5123   19.9708 H   0  0  0  0  0  0
  -29.7844  -11.7316   17.5253 H   0  0  0  0  0  0
  -29.6112  -13.4618   17.7002 H   0  0  0  0  0  0
  -27.8727  -11.2915   18.8991 H   0  0  0  0  0  0
  -27.3620  -12.5340   17.7909 H   0  0  0  0  0  0
  -27.6105  -14.2655   19.4485 H   0  0  0  0  0  0
  -28.7079  -12.2278   21.4351 H   0  0  0  0  0  0
  -28.3757  -13.9226   21.7394 H   0  0  0  0  0  0
  -25.2688   -9.5765   22.4832 H   0  0  0  0  0  0
  -23.9946   -7.4724   22.7574 H   0  0  0  0  0  0
  -21.0855   -8.8772   19.8928 H   0  0  0  0  0  0
  -22.3754  -10.9623   19.6080 H   0  0  0  0  0  0
  -21.2006   -7.6136   23.9677 H   0  0  0  0  0  0
  -21.1469   -6.0535   25.9050 H   0  0  0  0  0  0
  -22.0598   -2.7598   23.2868 H   0  0  0  0  0  0
  -22.4436  -12.0117   22.5316 H   0  0  0  0  0  0
  -21.1222  -13.1179   22.3035 H   0  0  0  0  0  0
  -26.3056  -15.6434   20.2276 H   0  0  0  0  0  0
  -24.6690  -15.8529   20.6099 H   0  0  0  0  0  0
  -26.7174  -32.5364   23.1054 H   0  0  0  0  0  0
  -25.0114  -33.9729   25.0411 H   0  0  0  0  0  0
  -22.7298  -31.3000   21.4018 H   0  0  0  0  0  0
  -23.3790  -35.9574   23.3310 H   0  0  0  0  0  0
  -24.3580  -36.8874   22.2039 H   0  0  0  0  0  0
  -23.7211  -37.6451   23.6646 H   0  0  0  0  0  0
  -26.1425  -31.5091   20.6305 H   0  0  0  0  0  0
  -26.8606  -30.7813   22.0379 H   0  0  0  0  0  0
  -28.1149  -28.8629   21.2302 H   0  0  0  0  0  0
  -25.9018  -25.9041   18.9672 H   0  0  0  0  0  0
  -23.9530  -27.3291   18.9961 H   0  0  0  0  0  0
  -23.7907  -30.6012   19.4166 H   0  0  0  0  0  0
  -22.7733  -29.2587   19.8480 H   0  0  0  0  0  0
  -25.1313  -36.1968   25.0806 H   0  0  0  0  0  0
  -20.9935  -28.3275   24.1406 H   0  0  0  0  0  0
  -20.5708  -26.2283   23.3613 H   0  0  0  0  0  0
  -21.6656  -26.7480   22.1184 H   0  0  0  0  0  0
  -19.6965  -25.6299   21.1257 H   0  0  0  0  0  0
  -19.6753  -27.3185   20.6745 H   0  0  0  0  0  0
  -17.4211  -26.6659   21.4007 H   0  0  0  0  0  0
  -18.0366  -26.0097   22.9023 H   0  0  0  0  0  0
  -19.7929  -30.7277   24.2297 H   0  0  0  0  0  0
  -17.5009  -31.6293   24.5129 H   0  0  0  0  0  0
  -15.5342  -30.2999   23.7712 H   0  0  0  0  0  0
  -15.8644  -28.0839   22.7116 H   0  0  0  0  0  0
  -24.5845  -30.7182   25.7773 H   0  0  0  0  0  0
  -24.8853  -32.3019   26.4795 H   0  0  0  0  0  0
  -25.7927  -30.9049   27.0276 H   0  0  0  0  0  0
  -26.2973  -29.6775   24.1235 H   0  0  0  0  0  0
  -27.3865  -29.7280   25.4902 H   0  0  0  0  0  0
  -27.8924  -30.4258   23.9715 H   0  0  0  0  0  0
  -27.2705  -33.3659   26.2091 H   0  0  0  0  0  0
  -28.3877  -32.6882   25.0343 H   0  0  0  0  0  0
  -28.0724  -31.8465   26.5428 H   0  0  0  0  0  0
  -28.2613  -38.0100   24.7523 H   0  0  0  0  0  0
  -28.1108  -36.2628   24.6290 H   0  0  0  0  0  0
  -27.2302  -37.1431   25.8860 H   0  0  0  0  0  0
  -20.9436  -29.8724   21.6826 H   0  0  0  0  0  0
  -26.0214  -38.2858   24.1412 H   0  0  0  0  0  0
  -29.3863  -16.7340   25.0994 H   0  0  0  0  0  0
  -28.3504  -19.9974   22.6281 H   0  0  0  0  0  0
  -29.9943  -14.2571   23.1543 H   0  0  0  0  0  0
  -30.7336  -15.0969   24.4817 H   0  0  0  0  0  0
  -31.5502  -15.0953   22.9581 H   0  0  0  0  0  0
  -28.4014  -19.1718   19.6721 H   0  0  0  0  0  0
  -30.1363  -19.1709   19.6697 H   0  0  0  0  0  0
  -29.9517  -23.7781   20.1353 H   0  0  0  0  0  0
  -28.9681  -23.5771   21.5482 H   0  0  0  0  0  0
  -27.0007  -24.5761   20.4045 H   0  0  0  0  0  0
  -27.8401  -24.6902   18.8929 H   0  0  0  0  0  0
  -29.8948  -16.4050   19.6400 H   0  0  0  0  0  0
  -30.0172  -21.1862   21.2529 H   0  0  0  0  0  0
  1 25  1  0  0  0
  1 30  2  0  0  0
  1 82  1  0  0  0
  2  3  1  0  0  0
  2 25  1  0  0  0
  2 86  1  0  0  0
  2 87  1  0  0  0
  3  4  1  0  0  0
  3 88  1  0  0  0
  3 89  1  0  0  0
  4  5  1  0  0  0
  4 90  1  0  0  0
  4 91  1  0  0  0
  5  6  1  0  0  0
  5 26  1  0  0  0
  5 92  1  0  0  0
  6 25  1  0  0  0
  6 93  1  0  0  0
  6 94  1  0  0  0
  7  8  2  0  0  0
  7 26  1  0  0  0
  7 29  1  0  0  0
  8  9  1  0  0  0
  8 22  1  0  0  0
  9 10  1  0  0  0
  9 27  2  0  0  0
 10 11  2  0  0  0
 10 15  1  0  0  0
 11 12  1  0  0  0
 11 95  1  0  0  0
 12 13  2  0  0  0
 12 96  1  0  0  0
 13 14  1  0  0  0
 13 31  1  0  0  0
 14 15  2  0  0  0
 14 97  1  0  0  0
 15 98  1  0  0  0
 16 17  2  0  0  0
 16 21  1  0  0  0
 16 31  1  0  0  0
 17 18  1  0  0  0
 17 99  1  0  0  0
 18 19  2  0  0  0
 18100  1  0  0  0
 19 20  1  0  0  0
 19 24  1  0  0  0
 20 21  2  0  0  0
 20101  1  0  0  0
 21 23  1  0  0  0
 22 28  1  0  0  0
 22 32  2  0  0  0
 26 27  1  0  0  0
 28102  1  0  0  0
 28103  1  0  0  0
 29104  1  0  0  0
 29105  1  0  0  0
 33 34  1  0  0  0
 33 66  1  0  0  0
 33 70  2  0  0  0
 34 36  1  0  0  0
 34 59  1  0  0  0
 34106  1  0  0  0
 35 44  2  0  0  0
 35 45  1  0  0  0
 35 68  1  0  0  0
 36 56  1  0  0  0
 36107  1  0  0  0
 37 39  1  0  0  0
 37 47  1  0  0  0
 37 66  1  0  0  0
 37108  1  0  0  0
 38 43  2  0  0  0
 38 46  1  0  0  0
 38 47  1  0  0  0
 39 64  1  0  0  0
 39 67  2  0  0  0
 40 52  1  0  0  0
 40 53  2  0  0  0
 40 58  1  0  0  0
 41109  1  0  0  0
 41110  1  0  0  0
 41111  1  0  0  0
 41 48  1  0  0  0
 42 43  1  0  0  0
 42 66  1  0  0  0
 42112  1  0  0  0
 42113  1  0  0  0
 43 44  1  0  0  0
 44114  1  0  0  0
 45 46  2  0  0  0
 45115  1  0  0  0
 46116  1  0  0  0
 47117  1  0  0  0
 47118  1  0  0  0
 48 56  1  0  0  0
 48 65  1  0  0  0
 48119  1  0  0  0
 49 50  1  0  0  0
 49 53  1  0  0  0
 49 64  1  0  0  0
 49120  1  0  0  0
 50 51  1  0  0  0
 50121  1  0  0  0
 50122  1  0  0  0
 51 52  1  0  0  0
 51123  1  0  0  0
 51124  1  0  0  0
 52125  1  0  0  0
 52126  1  0  0  0
 53 54  1  0  0  0
 54 55  2  0  0  0
 54127  1  0  0  0
 55 57  1  0  0  0
 55128  1  0  0  0
 56 69  2  0  0  0
 57 58  2  0  0  0
 57129  1  0  0  0
 58130  1  0  0  0
 59 60  1  0  0  0
 59 61  1  0  0  0
 59 62  1  0  0  0
 60131  1  0  0  0
 60132  1  0  0  0
 60133  1  0  0  0
 61134  1  0  0  0
 61135  1  0  0  0
 61136  1  0  0  0
 62137  1  0  0  0
 62138  1  0  0  0
 62139  1  0  0  0
 63 65  1  0  0  0
 63140  1  0  0  0
 63141  1  0  0  0
 63142  1  0  0  0
 64143  1  0  0  0
 65144  1  0  0  0
 68 81  1  0  0  0
 71 73  2  0  0  0
 71 76  1  0  0  0
 71145  1  0  0  0
 72 74  1  0  0  0
 72 76  2  0  0  0
 72146  1  0  0  0
 73 75  1  0  0  0
 73 78  1  0  0  0
 74 75  2  0  0  0
 74 79  1  0  0  0
 75 82  1  0  0  0
 76 85  1  0  0  0
 77 80  1  0  0  0
 77 83  1  0  0  0
 77 84  2  0  0  0
 78147  1  0  0  0
 78148  1  0  0  0
 78149  1  0  0  0
 79 83  1  0  0  0
 79150  1  0  0  0
 79151  1  0  0  0
 80 81  1  0  0  0
 80152  1  0  0  0
 80153  1  0  0  0
 81154  1  0  0  0
 81155  1  0  0  0
 82156  1  0  0  0
 83157  1  0  0  0
M  ISO  4   1 100  68 101  81 101  82 100
M  END
> <chiral flag>
0

> <version>
0

> <s_m_source_file>
/data/baiqing/PycharmProjects/Reinvent-master-3.2/result/LINK_invent/BTK/process_docking_weight1_custom_product_contain_oxygen_bond_distance_aromatic_linkinvent_7_9_3/rearranged_h_0045.sdf

> <i_m_source_file_index>
58

> <r_mmod_Potential_Energy-OPLS-2005>
247.991195678711

> <r_mmod_Stretch_Energy-OPLS-2005>
170.356079101562

> <r_mmod_Bend_Energy-OPLS-2005>
214.653823852539

> <r_mmod_Torsional_Energy-OPLS-2005>
280.952728271484

> <r_mmod_Improper_Torsional_Energy-OPLS-2005>
10.7776832580566

> <r_mmod_Van_der_Waal_Energy-OPLS-2005>
152.163269042969

> <r_mmod_Electrostatic_Energy-OPLS-2005>
-461.265808105469

> <r_mmod_Solvation_Energy-OPLS-2005>
-230.037322998047

> <b_mmod_Minimization_Converged-OPLS-2005>
0

> <r_mmod_RMS_Derivative-OPLS-2005>
4.51518821716309

$$$$
58
                    3D
 Structure written by MMmdl.
160168  0  0  1  0            999 V2000
  -30.6452  -14.6164   20.5093 C   0  0  0  0  0  0
  -30.4331  -12.3796   19.4546 C   0  0  0  0  0  0
  -29.5036  -12.5079   18.2269 C   0  0  0  0  0  0
  -28.0267  -12.3520   18.6386 C   0  0  0  0  0  0
  -27.6551  -13.2203   19.8700 C   0  0  2  0  0  0
  -28.7008  -13.0727   21.0001 C   0  0  0  0  0  0
  -25.2552  -13.8188   20.5713 C   0  0  0  0  0  0
  -24.1816  -13.0442   20.9209 C   0  0  0  0  0  0
  -24.6393  -11.6919   20.8749 C   0  0  0  0  0  0
  -23.9064  -10.4295   21.0404 C   0  0  0  0  0  0
  -24.3613   -9.4212   21.9183 C   0  0  0  0  0  0
  -23.6287   -8.2246   22.0750 C   0  0  0  0  0  0
  -22.4273   -8.0276   21.3540 C   0  0  0  0  0  0
  -21.9908   -9.0253   20.4648 C   0  0  0  0  0  0
  -22.7236  -10.2135   20.3057 C   0  0  0  0  0  0
  -21.6854   -6.0730   22.5279 C   0  0  0  0  0  0
  -21.4014   -6.5636   23.8210 C   0  0  0  0  0  0
  -21.3660   -5.6790   24.9174 C   0  0  0  0  0  0
  -21.6048   -4.3053   24.7226 C   0  0  0  0  0  0
  -21.8819   -3.8143   23.4347 C   0  0  0  0  0  0
  -21.9194   -4.6958   22.3402 C   0  0  0  0  0  0
  -22.7836  -13.5226   21.1867 C   0  0  0  0  0  0
  -22.1661   -4.2140   21.0981 F   0  0  0  0  0  0
  -21.5632   -3.4540   25.7741 F   0  0  0  0  0  0
  -30.0195  -13.4006   20.4373 N   0  0  0  0  0  0
  -26.2996  -12.9379   20.3373 N   0  0  0  0  0  0
  -25.9327  -11.6530   20.5787 N   0  0  0  0  0  0
  -22.0477  -12.8211   22.0425 N   0  0  0  0  0  0
  -25.4265  -15.1908   20.4131 N   0  0  0  0  0  0
  -31.7963  -14.7758   20.0950 O   0  0  0  0  0  0
  -21.6639   -6.8873   21.4238 O   0  0  0  0  0  0
  -22.3515  -14.5525   20.6714 O   0  0  0  0  0  0
  -24.6253  -31.8626   23.2059 C   0  0  0  0  0  0
  -25.9110  -32.4791   23.8380 C   0  0  1  0  0  0
  -27.2159  -27.3240   20.1115 C   0  0  0  0  0  0
  -25.5935  -33.8591   24.2303 N   0  0  0  0  0  0
  -23.4179  -30.4904   21.5487 C   0  0  2  0  0  0
  -24.8622  -28.9547   20.1065 C   0  0  0  0  0  0
  -22.7460  -29.4654   22.4936 C   0  0  0  0  0  0
  -18.0294  -28.1369   22.8502 C   0  0  0  0  0  0
  -24.1491  -36.7304   23.2640 C   0  0  0  0  0  0
  -25.9609  -30.7928   21.3803 C   0  0  0  0  0  0
  -26.0319  -29.4235   20.7178 C   0  0  0  0  0  0
  -27.2105  -28.6185   20.7156 C   0  0  0  0  0  0
  -26.0270  -26.9252   19.4523 C   0  0  0  0  0  0
  -24.8621  -27.7103   19.4630 C   0  0  0  0  0  0
  -23.6308  -29.8337   20.1612 C   0  0  0  0  0  0
  -25.4113  -36.3092   24.0332 C   0  0  1  0  0  0
  -20.5888  -28.3705   23.1280 C   0  0  2  0  0  0
  -20.6804  -26.9433   22.5402 C   0  0  0  0  0  0
  -19.5770  -26.6385   21.5220 C   0  0  0  0  0  0
  -18.1947  -26.7918   22.1640 C   0  0  0  0  0  0
  -19.1539  -28.8845   23.2888 C   0  0  0  0  0  0
  -18.9466  -30.1450   23.8899 C   0  0  0  0  0  0
  -17.6466  -30.6586   24.0550 C   0  0  0  0  0  0
  -25.9049  -34.9459   23.5115 C   0  0  0  0  0  0
  -16.5359  -29.9082   23.6315 C   0  0  0  0  0  0
  -16.7279  -28.6491   23.0359 C   0  0  0  0  0  0
  -26.4494  -31.6592   25.0742 C   0  0  0  0  0  0
  -25.3731  -31.3724   26.1472 C   0  0  0  0  0  0
  -27.0346  -30.3020   24.6192 C   0  0  0  0  0  0
  -27.6050  -32.4331   25.7517 C   0  0  0  0  0  0
  -27.5581  -37.1805   24.8462 C   0  0  0  0  0  0
  -21.4173  -29.3082   22.3688 N   0  0  0  0  0  0
  -26.4294  -37.3780   23.9407 N   0  0  0  0  0  0
  -24.6870  -31.0644   22.1017 N   0  0  0  0  0  0
  -23.4182  -28.8180   23.3009 O   0  0  0  0  0  0
  -28.3188  -26.4519   20.1897 O   0  0  0  0  0  0
  -26.5606  -34.8920   22.4676 O   0  0  0  0  0  0
  -23.5422  -32.1433   23.7389 O   0  0  0  0  0  0
  -30.8914  -17.5111   22.8775 C   0  0  0  0  0  0
  -31.2401  -18.2529   24.0169 C   0  0  0  0  0  0
  -30.5080  -20.2759   22.9035 C   0  0  0  0  0  0
  -30.3369  -18.1174   21.7224 C   0  0  0  0  0  0
  -30.1370  -19.5621   21.7373 C   0  0  0  0  0  0
  -31.0477  -19.6386   24.0305 C   0  0  0  0  0  0
  -28.2687  -22.6941   21.2435 C   0  0  0  0  0  0
  -27.2889  -20.4795   21.4924 C   0  0  0  0  0  0
  -30.0401  -17.1458   20.5430 C   0  0  0  0  0  0
  -29.5589  -20.4788   20.6104 C   0  0  0  0  0  0
  -29.0160  -23.8352   20.4616 C   0  0  0  0  0  0
  -28.0635  -25.0113   19.9417 C   0  0  0  0  0  0
  -29.8622  -15.6799   20.8516 N   0  0  0  0  0  0
  -28.4036  -21.3299   21.0438 N   0  0  0  0  0  0
  -27.4288  -23.0892   22.0601 O   0  0  0  0  0  0
  -31.4764  -20.5599   25.4240 Cl  0  0  0  0  0  0
  -31.4754  -12.4940   19.1515 H   0  0  0  0  0  0
  -30.3574  -11.3829   19.8921 H   0  0  0  0  0  0
  -29.7616  -11.7607   17.4758 H   0  0  0  0  0  0
  -29.6512  -13.4799   17.7534 H   0  0  0  0  0  0
  -27.8578  -11.2992   18.8665 H   0  0  0  0  0  0
  -27.3715  -12.5899   17.7997 H   0  0  0  0  0  0
  -27.6744  -14.2566   19.5314 H   0  0  0  0  0  0
  -28.7043  -12.0539   21.3899 H   0  0  0  0  0  0
  -28.4528  -13.7143   21.8473 H   0  0  0  0  0  0
  -25.2751   -9.5685   22.4769 H   0  0  0  0  0  0
  -23.9999   -7.4631   22.7463 H   0  0  0  0  0  0
  -21.0844   -8.8769   19.8949 H   0  0  0  0  0  0
  -22.3688  -10.9673   19.6171 H   0  0  0  0  0  0
  -21.2001   -7.6143   23.9710 H   0  0  0  0  0  0
  -21.1486   -6.0522   25.9076 H   0  0  0  0  0  0
  -22.0598   -2.7605   23.2853 H   0  0  0  0  0  0
  -22.4083  -11.9871   22.4817 H   0  0  0  0  0  0
  -21.1092  -13.1236   22.2630 H   0  0  0  0  0  0
  -24.6597  -15.8460   20.5212 H   0  0  0  0  0  0
  -26.2764  -15.6300   20.0836 H   0  0  0  0  0  0
  -26.7184  -32.5454   23.1137 H   0  0  0  0  0  0
  -25.0093  -33.9736   25.0457 H   0  0  0  0  0  0
  -22.7121  -31.3121   21.4109 H   0  0  0  0  0  0
  -23.3746  -35.9643   23.3304 H   0  0  0  0  0  0
  -24.3588  -36.8919   22.2054 H   0  0  0  0  0  0
  -23.7248  -37.6510   23.6659 H   0  0  0  0  0  0
  -26.0967  -31.5581   20.6145 H   0  0  0  0  0  0
  -26.8413  -30.8361   22.0098 H   0  0  0  0  0  0
  -28.1041  -28.9696   21.2123 H   0  0  0  0  0  0
  -25.9587  -25.9856   18.9254 H   0  0  0  0  0  0
  -23.9708  -27.3516   18.9657 H   0  0  0  0  0  0
  -23.7491  -30.6154   19.4102 H   0  0  0  0  0  0
  -22.7508  -29.2647   19.8559 H   0  0  0  0  0  0
  -25.1292  -36.1955   25.0824 H   0  0  0  0  0  0
  -20.9975  -28.3283   24.1400 H   0  0  0  0  0  0
  -20.5758  -26.2320   23.3609 H   0  0  0  0  0  0
  -21.6669  -26.7493   22.1175 H   0  0  0  0  0  0
  -19.6975  -25.6298   21.1264 H   0  0  0  0  0  0
  -19.6701  -27.3197   20.6752 H   0  0  0  0  0  0
  -17.4209  -26.6695   21.4044 H   0  0  0  0  0  0
  -18.0354  -26.0045   22.9024 H   0  0  0  0  0  0
  -19.7944  -30.7257   24.2266 H   0  0  0  0  0  0
  -17.5021  -31.6278   24.5116 H   0  0  0  0  0  0
  -15.5355  -30.2994   23.7609 H   0  0  0  0  0  0
  -15.8667  -28.0823   22.7076 H   0  0  0  0  0  0
  -24.5896  -30.7085   25.7805 H   0  0  0  0  0  0
  -24.8934  -32.2888   26.4916 H   0  0  0  0  0  0
  -25.8055  -30.8889   27.0241 H   0  0  0  0  0  0
  -26.2926  -29.6765   24.1216 H   0  0  0  0  0  0
  -27.4058  -29.7274   25.4691 H   0  0  0  0  0  0
  -27.8794  -30.4319   23.9423 H   0  0  0  0  0  0
  -27.2649  -33.3623   26.2110 H   0  0  0  0  0  0
  -28.3855  -32.6907   25.0343 H   0  0  0  0  0  0
  -28.0737  -31.8454   26.5423 H   0  0  0  0  0  0
  -28.2596  -38.0103   24.7509 H   0  0  0  0  0  0
  -28.1077  -36.2631   24.6293 H   0  0  0  0  0  0
  -27.2300  -37.1470   25.8864 H   0  0  0  0  0  0
  -20.9337  -29.8845   21.6945 H   0  0  0  0  0  0
  -26.0179  -38.2862   24.1389 H   0  0  0  0  0  0
  -31.0750  -16.4472   22.9102 H   0  0  0  0  0  0
  -31.6639  -17.7575   24.8788 H   0  0  0  0  0  0
  -30.3780  -21.3478   22.9470 H   0  0  0  0  0  0
  -27.4028  -19.4378   21.1895 H   0  0  0  0  0  0
  -26.3417  -20.8267   21.0757 H   0  0  0  0  0  0
  -27.2059  -20.4927   22.5800 H   0  0  0  0  0  0
  -29.1254  -17.4832   20.0545 H   0  0  0  0  0  0
  -30.8338  -17.2667   19.8043 H   0  0  0  0  0  0
  -29.2581  -19.8759   19.7529 H   0  0  0  0  0  0
  -30.3622  -21.1245   20.2524 H   0  0  0  0  0  0
  -29.7705  -24.2526   21.1282 H   0  0  0  0  0  0
  -29.5596  -23.3991   19.6237 H   0  0  0  0  0  0
  -27.0690  -24.7883   20.3272 H   0  0  0  0  0  0
  -27.9790  -24.8898   18.8606 H   0  0  0  0  0  0
  -28.9459  -15.4298   21.1904 H   0  0  0  0  0  0
  1 25  1  0  0  0
  1 30  2  0  0  0
  1 83  1  0  0  0
  2  3  1  0  0  0
  2 25  1  0  0  0
  2 87  1  0  0  0
  2 88  1  0  0  0
  3  4  1  0  0  0
  3 89  1  0  0  0
  3 90  1  0  0  0
  4  5  1  0  0  0
  4 91  1  0  0  0
  4 92  1  0  0  0
  5  6  1  0  0  0
  5 26  1  0  0  0
  5 93  1  0  0  0
  6 25  1  0  0  0
  6 94  1  0  0  0
  6 95  1  0  0  0
  7  8  2  0  0  0
  7 26  1  0  0  0
  7 29  1  0  0  0
  8  9  1  0  0  0
  8 22  1  0  0  0
  9 10  1  0  0  0
  9 27  2  0  0  0
 10 11  2  0  0  0
 10 15  1  0  0  0
 11 12  1  0  0  0
 11 96  1  0  0  0
 12 13  2  0  0  0
 12 97  1  0  0  0
 13 14  1  0  0  0
 13 31  1  0  0  0
 14 15  2  0  0  0
 14 98  1  0  0  0
 15 99  1  0  0  0
 16 17  2  0  0  0
 16 21  1  0  0  0
 16 31  1  0  0  0
 17 18  1  0  0  0
 17100  1  0  0  0
 18 19  2  0  0  0
 18101  1  0  0  0
 19 20  1  0  0  0
 19 24  1  0  0  0
 20 21  2  0  0  0
 20102  1  0  0  0
 21 23  1  0  0  0
 22 28  1  0  0  0
 22 32  2  0  0  0
 26 27  1  0  0  0
 28103  1  0  0  0
 28104  1  0  0  0
 29105  1  0  0  0
 29106  1  0  0  0
 33 34  1  0  0  0
 33 66  1  0  0  0
 33 70  2  0  0  0
 34 36  1  0  0  0
 34 59  1  0  0  0
 34107  1  0  0  0
 35 44  2  0  0  0
 35 45  1  0  0  0
 35 68  1  0  0  0
 36 56  1  0  0  0
 36108  1  0  0  0
 37 39  1  0  0  0
 37 47  1  0  0  0
 37 66  1  0  0  0
 37109  1  0  0  0
 38 43  2  0  0  0
 38 46  1  0  0  0
 38 47  1  0  0  0
 39 64  1  0  0  0
 39 67  2  0  0  0
 40 52  1  0  0  0
 40 53  2  0  0  0
 40 58  1  0  0  0
 41110  1  0  0  0
 41111  1  0  0  0
 41112  1  0  0  0
 41 48  1  0  0  0
 42 43  1  0  0  0
 42 66  1  0  0  0
 42113  1  0  0  0
 42114  1  0  0  0
 43 44  1  0  0  0
 44115  1  0  0  0
 45 46  2  0  0  0
 45116  1  0  0  0
 46117  1  0  0  0
 47118  1  0  0  0
 47119  1  0  0  0
 48 56  1  0  0  0
 48 65  1  0  0  0
 48120  1  0  0  0
 49 50  1  0  0  0
 49 53  1  0  0  0
 49 64  1  0  0  0
 49121  1  0  0  0
 50 51  1  0  0  0
 50122  1  0  0  0
 50123  1  0  0  0
 51 52  1  0  0  0
 51124  1  0  0  0
 51125  1  0  0  0
 52126  1  0  0  0
 52127  1  0  0  0
 53 54  1  0  0  0
 54 55  2  0  0  0
 54128  1  0  0  0
 55 57  1  0  0  0
 55129  1  0  0  0
 56 69  2  0  0  0
 57 58  2  0  0  0
 57130  1  0  0  0
 58131  1  0  0  0
 59 60  1  0  0  0
 59 61  1  0  0  0
 59 62  1  0  0  0
 60132  1  0  0  0
 60133  1  0  0  0
 60134  1  0  0  0
 61135  1  0  0  0
 61136  1  0  0  0
 61137  1  0  0  0
 62138  1  0  0  0
 62139  1  0  0  0
 62140  1  0  0  0
 63 65  1  0  0  0
 63141  1  0  0  0
 63142  1  0  0  0
 63143  1  0  0  0
 64144  1  0  0  0
 65145  1  0  0  0
 68 82  1  0  0  0
 71 72  2  0  0  0
 71 74  1  0  0  0
 71146  1  0  0  0
 72 76  1  0  0  0
 72147  1  0  0  0
 73 75  1  0  0  0
 73 76  2  0  0  0
 73148  1  0  0  0
 74 75  2  0  0  0
 74 79  1  0  0  0
 75 80  1  0  0  0
 76 86  1  0  0  0
 77 81  1  0  0  0
 77 84  1  0  0  0
 77 85  2  0  0  0
 78 84  1  0  0  0
 78149  1  0  0  0
 78150  1  0  0  0
 78151  1  0  0  0
 79 83  1  0  0  0
 79152  1  0  0  0
 79153  1  0  0  0
 80 84  1  0  0  0
 80154  1  0  0  0
 80155  1  0  0  0
 81 82  1  0  0  0
 81156  1  0  0  0
 81157  1  0  0  0
 82158  1  0  0  0
 82159  1  0  0  0
 83160  1  0  0  0
M  ISO  4   1 100  68 101  82 101  83 100
M  END
> <chiral flag>
0

> <version>
0

> <s_m_source_file>
/data/baiqing/PycharmProjects/Reinvent-master-3.2/result/LINK_invent/BTK/process_docking_weight1_custom_product_contain_oxygen_bond_distance_aromatic_linkinvent_7_9_3/rearranged_h_0045.sdf

> <i_m_source_file_index>
59

> <r_mmod_Potential_Energy-OPLS-2005>
22.095724105835

> <r_mmod_Stretch_Energy-OPLS-2005>
84.7038650512695

> <r_mmod_Bend_Energy-OPLS-2005>
158.784149169922

> <r_mmod_Torsional_Energy-OPLS-2005>
228.010986328125

> <r_mmod_Improper_Torsional_Energy-OPLS-2005>
6.22251605987549

> <r_mmod_Van_der_Waal_Energy-OPLS-2005>
160.880477905273

> <r_mmod_Electrostatic_Energy-OPLS-2005>
-421.130340576172

> <r_mmod_Solvation_Energy-OPLS-2005>
-242.034225463867

> <b_mmod_Minimization_Converged-OPLS-2005>
0

> <r_mmod_RMS_Derivative-OPLS-2005>
1.47607958316803

$$$$
59
                    3D
 Structure written by MMmdl.
158167  0  0  1  0            999 V2000
  -30.6570  -14.7299   20.4631 C   0  0  0  0  0  0
  -30.4251  -12.4421   19.4865 C   0  0  0  0  0  0
  -29.5119  -12.5169   18.2451 C   0  0  0  0  0  0
  -28.0392  -12.3369   18.6552 C   0  0  0  0  0  0
  -27.6464  -13.2336   19.8607 C   0  0  2  0  0  0
  -28.6923  -13.1904   20.9982 C   0  0  0  0  0  0
  -25.2539  -13.8220   20.5706 C   0  0  0  0  0  0
  -24.1837  -13.0469   20.9220 C   0  0  0  0  0  0
  -24.6442  -11.6940   20.8784 C   0  0  0  0  0  0
  -23.9122  -10.4311   21.0428 C   0  0  0  0  0  0
  -24.3666   -9.4225   21.9205 C   0  0  0  0  0  0
  -23.6328   -8.2259   22.0780 C   0  0  0  0  0  0
  -22.4294   -8.0309   21.3570 C   0  0  0  0  0  0
  -21.9962   -9.0285   20.4655 C   0  0  0  0  0  0
  -22.7300  -10.2160   20.3076 C   0  0  0  0  0  0
  -21.6870   -6.0764   22.5303 C   0  0  0  0  0  0
  -21.4004   -6.5655   23.8242 C   0  0  0  0  0  0
  -21.3676   -5.6809   24.9203 C   0  0  0  0  0  0
  -21.6043   -4.3071   24.7252 C   0  0  0  0  0  0
  -21.8806   -3.8163   23.4362 C   0  0  0  0  0  0
  -21.9194   -4.6988   22.3421 C   0  0  0  0  0  0
  -22.7837  -13.5251   21.1851 C   0  0  0  0  0  0
  -22.1659   -4.2185   21.0987 F   0  0  0  0  0  0
  -21.5649   -3.4567   25.7776 F   0  0  0  0  0  0
  -29.9963  -13.5210   20.4082 N   0  0  0  0  0  0
  -26.2990  -12.9431   20.3372 N   0  0  0  0  0  0
  -25.9381  -11.6577   20.5832 N   0  0  0  0  0  0
  -22.0490  -12.8233   22.0401 N   0  0  0  0  0  0
  -25.4190  -15.1945   20.4030 N   0  0  0  0  0  0
  -31.8452  -14.7737   20.1384 O   0  0  0  0  0  0
  -21.6653   -6.8903   21.4271 O   0  0  0  0  0  0
  -22.3510  -14.5570   20.6739 O   0  0  0  0  0  0
  -24.6298  -31.8556   23.1982 C   0  0  0  0  0  0
  -25.9128  -32.4748   23.8324 C   0  0  1  0  0  0
  -27.2181  -27.2577   20.1436 C   0  0  0  0  0  0
  -25.5930  -33.8549   24.2235 N   0  0  0  0  0  0
  -23.4285  -30.4734   21.5440 C   0  0  2  0  0  0
  -24.8779  -28.9198   20.1151 C   0  0  0  0  0  0
  -22.7495  -29.4574   22.4944 C   0  0  0  0  0  0
  -18.0293  -28.1410   22.8490 C   0  0  0  0  0  0
  -24.1504  -36.7282   23.2633 C   0  0  0  0  0  0
  -25.9719  -30.7653   21.3802 C   0  0  0  0  0  0
  -26.0480  -29.3845   20.7294 C   0  0  0  0  0  0
  -27.2225  -28.5643   20.7362 C   0  0  0  0  0  0
  -26.0315  -26.8644   19.4914 C   0  0  0  0  0  0
  -24.8736  -27.6644   19.4864 C   0  0  0  0  0  0
  -23.6493  -29.8069   20.1606 C   0  0  0  0  0  0
  -25.4131  -36.3036   24.0301 C   0  0  1  0  0  0
  -20.5890  -28.3695   23.1304 C   0  0  2  0  0  0
  -20.6788  -26.9423   22.5418 C   0  0  0  0  0  0
  -19.5760  -26.6398   21.5224 C   0  0  0  0  0  0
  -18.1939  -26.7955   22.1631 C   0  0  0  0  0  0
  -19.1547  -28.8871   23.2887 C   0  0  0  0  0  0
  -18.9468  -30.1486   23.8878 C   0  0  0  0  0  0
  -17.6467  -30.6612   24.0563 C   0  0  0  0  0  0
  -25.9079  -34.9422   23.5076 C   0  0  0  0  0  0
  -16.5359  -29.9105   23.6346 C   0  0  0  0  0  0
  -16.7278  -28.6531   23.0349 C   0  0  0  0  0  0
  -26.4499  -31.6571   25.0713 C   0  0  0  0  0  0
  -25.3732  -31.3740   26.1442 C   0  0  0  0  0  0
  -27.0333  -30.2977   24.6202 C   0  0  0  0  0  0
  -27.6051  -32.4303   25.7498 C   0  0  0  0  0  0
  -27.5566  -37.1798   24.8458 C   0  0  0  0  0  0
  -21.4198  -29.3033   22.3683 N   0  0  0  0  0  0
  -26.4291  -37.3737   23.9387 N   0  0  0  0  0  0
  -24.6959  -31.0488   22.0983 N   0  0  0  0  0  0
  -23.4174  -28.8126   23.3075 O   0  0  0  0  0  0
  -28.2970  -26.3441   20.1653 O   0  0  0  0  0  0
  -26.5647  -34.8892   22.4646 O   0  0  0  0  0  0
  -23.5451  -32.1391   23.7276 O   0  0  0  0  0  0
  -31.6949  -17.6986   20.7990 C   0  0  0  0  0  0
  -32.1176  -19.0424   20.7322 C   0  0  0  0  0  0
  -29.4217  -18.4564   20.4318 C   0  0  0  0  0  0
  -29.8291  -19.8586   20.3593 C   0  0  0  0  0  0
  -30.3357  -17.3354   20.6228 C   0  0  0  0  0  0
  -31.2194  -20.0995   20.4827 C   0  0  0  0  0  0
  -28.6659  -23.6785   19.9548 C   0  0  0  0  0  0
  -28.1264  -23.5385   22.8050 C   0  0  0  0  0  0
  -28.3633  -24.9312   22.1996 C   0  0  0  0  0  0
  -28.9736  -22.4626   22.0961 C   0  0  0  0  0  0
  -28.0335  -24.9556   20.7003 C   0  0  1  0  0  0
  -28.8287  -21.0585   19.9959 C   0  0  0  0  0  0
  -28.8430  -22.4635   20.6277 N   0  0  0  0  0  0
  -29.9262  -15.8999   20.6575 N   0  0  0  0  0  0
  -28.8669  -23.7643   18.7396 O   0  0  0  0  0  0
  -31.8898  -21.6769   20.2632 Cl  0  0  0  0  0  0
  -31.4726  -12.5279   19.1923 H   0  0  0  0  0  0
  -30.3328  -11.4686   19.9722 H   0  0  0  0  0  0
  -29.7940  -11.7573   17.5164 H   0  0  0  0  0  0
  -29.6450  -13.4815   17.7513 H   0  0  0  0  0  0
  -27.8902  -11.2831   18.8998 H   0  0  0  0  0  0
  -27.3863  -12.5427   17.8069 H   0  0  0  0  0  0
  -27.6378  -14.2543   19.4762 H   0  0  0  0  0  0
  -28.7245  -12.2075   21.4690 H   0  0  0  0  0  0
  -28.4307  -13.9017   21.7848 H   0  0  0  0  0  0
  -25.2820   -9.5720   22.4779 H   0  0  0  0  0  0
  -24.0063   -7.4639   22.7481 H   0  0  0  0  0  0
  -21.0931   -8.8822   19.8900 H   0  0  0  0  0  0
  -22.3806  -10.9708   19.6177 H   0  0  0  0  0  0
  -21.1966   -7.6146   23.9764 H   0  0  0  0  0  0
  -21.1511   -6.0531   25.9116 H   0  0  0  0  0  0
  -22.0556   -2.7615   23.2876 H   0  0  0  0  0  0
  -22.4136  -11.9859   22.4708 H   0  0  0  0  0  0
  -21.1088  -13.1218   22.2610 H   0  0  0  0  0  0
  -24.6362  -15.8350   20.4706 H   0  0  0  0  0  0
  -26.2560  -15.6349   20.0456 H   0  0  0  0  0  0
  -26.7191  -32.5386   23.1059 H   0  0  0  0  0  0
  -25.0037  -33.9700   25.0348 H   0  0  0  0  0  0
  -22.7232  -31.2936   21.3967 H   0  0  0  0  0  0
  -23.3730  -35.9658   23.3337 H   0  0  0  0  0  0
  -24.3561  -36.8876   22.2037 H   0  0  0  0  0  0
  -23.7335  -37.6516   23.6670 H   0  0  0  0  0  0
  -26.1042  -31.5234   20.6059 H   0  0  0  0  0  0
  -26.8513  -30.8204   22.0110 H   0  0  0  0  0  0
  -28.1149  -28.9103   21.2390 H   0  0  0  0  0  0
  -25.9885  -25.9062   18.9949 H   0  0  0  0  0  0
  -23.9799  -27.2992   18.9999 H   0  0  0  0  0  0
  -23.7754  -30.5854   19.4071 H   0  0  0  0  0  0
  -22.7677  -29.2412   19.8534 H   0  0  0  0  0  0
  -25.1332  -36.1857   25.0794 H   0  0  0  0  0  0
  -20.9965  -28.3270   24.1434 H   0  0  0  0  0  0
  -20.5741  -26.2286   23.3605 H   0  0  0  0  0  0
  -21.6656  -26.7492   22.1184 H   0  0  0  0  0  0
  -19.6931  -25.6307   21.1266 H   0  0  0  0  0  0
  -19.6727  -27.3200   20.6752 H   0  0  0  0  0  0
  -17.4213  -26.6699   21.4030 H   0  0  0  0  0  0
  -18.0344  -26.0110   22.9043 H   0  0  0  0  0  0
  -19.7941  -30.7325   24.2216 H   0  0  0  0  0  0
  -17.5022  -31.6289   24.5180 H   0  0  0  0  0  0
  -15.5364  -30.2999   23.7703 H   0  0  0  0  0  0
  -15.8672  -28.0859   22.7060 H   0  0  0  0  0  0
  -24.5880  -30.7114   25.7772 H   0  0  0  0  0  0
  -24.8962  -32.2934   26.4867 H   0  0  0  0  0  0
  -25.8045  -30.8899   27.0222 H   0  0  0  0  0  0
  -26.2914  -29.6726   24.1214 H   0  0  0  0  0  0
  -27.3989  -29.7221   25.4719 H   0  0  0  0  0  0
  -27.8811  -30.4217   23.9455 H   0  0  0  0  0  0
  -27.2645  -33.3585   26.2108 H   0  0  0  0  0  0
  -28.3873  -32.6896   25.0345 H   0  0  0  0  0  0
  -28.0733  -31.8415   26.5403 H   0  0  0  0  0  0
  -28.2591  -38.0077   24.7431 H   0  0  0  0  0  0
  -28.1044  -36.2595   24.6378 H   0  0  0  0  0  0
  -27.2256  -37.1564   25.8851 H   0  0  0  0  0  0
  -20.9394  -29.8692   21.6824 H   0  0  0  0  0  0
  -26.0146  -38.2798   24.1386 H   0  0  0  0  0  0
  -32.4574  -16.9548   20.9771 H   0  0  0  0  0  0
  -33.1718  -19.2639   20.8397 H   0  0  0  0  0  0
  -28.3754  -18.2356   20.2927 H   0  0  0  0  0  0
  -27.0678  -23.2780   22.7417 H   0  0  0  0  0  0
  -28.3681  -23.5591   23.8690 H   0  0  0  0  0  0
  -29.3989  -25.2310   22.3507 H   0  0  0  0  0  0
  -27.7510  -25.6651   22.7259 H   0  0  0  0  0  0
  -28.7243  -21.4822   22.5051 H   0  0  0  0  0  0
  -30.0216  -22.6351   22.3427 H   0  0  0  0  0  0
  -26.9654  -24.7519   20.6332 H   0  0  0  0  0  0
  -27.8170  -20.6807   20.1496 H   0  0  0  0  0  0
  -28.9065  -21.1786   18.9144 H   0  0  0  0  0  0
  -28.9379  -15.7392   20.7819 H   0  0  0  0  0  0
  1 25  1  0  0  0
  1 30  2  0  0  0
  1 84  1  0  0  0
  2  3  1  0  0  0
  2 25  1  0  0  0
  2 87  1  0  0  0
  2 88  1  0  0  0
  3  4  1  0  0  0
  3 89  1  0  0  0
  3 90  1  0  0  0
  4  5  1  0  0  0
  4 91  1  0  0  0
  4 92  1  0  0  0
  5  6  1  0  0  0
  5 26  1  0  0  0
  5 93  1  0  0  0
  6 25  1  0  0  0
  6 94  1  0  0  0
  6 95  1  0  0  0
  7  8  2  0  0  0
  7 26  1  0  0  0
  7 29  1  0  0  0
  8  9  1  0  0  0
  8 22  1  0  0  0
  9 10  1  0  0  0
  9 27  2  0  0  0
 10 11  2  0  0  0
 10 15  1  0  0  0
 11 12  1  0  0  0
 11 96  1  0  0  0
 12 13  2  0  0  0
 12 97  1  0  0  0
 13 14  1  0  0  0
 13 31  1  0  0  0
 14 15  2  0  0  0
 14 98  1  0  0  0
 15 99  1  0  0  0
 16 17  2  0  0  0
 16 21  1  0  0  0
 16 31  1  0  0  0
 17 18  1  0  0  0
 17100  1  0  0  0
 18 19  2  0  0  0
 18101  1  0  0  0
 19 20  1  0  0  0
 19 24  1  0  0  0
 20 21  2  0  0  0
 20102  1  0  0  0
 21 23  1  0  0  0
 22 28  1  0  0  0
 22 32  2  0  0  0
 26 27  1  0  0  0
 28103  1  0  0  0
 28104  1  0  0  0
 29105  1  0  0  0
 29106  1  0  0  0
 33 34  1  0  0  0
 33 66  1  0  0  0
 33 70  2  0  0  0
 34 36  1  0  0  0
 34 59  1  0  0  0
 34107  1  0  0  0
 35 44  2  0  0  0
 35 45  1  0  0  0
 35 68  1  0  0  0
 36 56  1  0  0  0
 36108  1  0  0  0
 37 39  1  0  0  0
 37 47  1  0  0  0
 37 66  1  0  0  0
 37109  1  0  0  0
 38 43  2  0  0  0
 38 46  1  0  0  0
 38 47  1  0  0  0
 39 64  1  0  0  0
 39 67  2  0  0  0
 40 52  1  0  0  0
 40 53  2  0  0  0
 40 58  1  0  0  0
 41110  1  0  0  0
 41111  1  0  0  0
 41112  1  0  0  0
 41 48  1  0  0  0
 42 43  1  0  0  0
 42 66  1  0  0  0
 42113  1  0  0  0
 42114  1  0  0  0
 43 44  1  0  0  0
 44115  1  0  0  0
 45 46  2  0  0  0
 45116  1  0  0  0
 46117  1  0  0  0
 47118  1  0  0  0
 47119  1  0  0  0
 48 56  1  0  0  0
 48 65  1  0  0  0
 48120  1  0  0  0
 49 50  1  0  0  0
 49 53  1  0  0  0
 49 64  1  0  0  0
 49121  1  0  0  0
 50 51  1  0  0  0
 50122  1  0  0  0
 50123  1  0  0  0
 51 52  1  0  0  0
 51124  1  0  0  0
 51125  1  0  0  0
 52126  1  0  0  0
 52127  1  0  0  0
 53 54  1  0  0  0
 54 55  2  0  0  0
 54128  1  0  0  0
 55 57  1  0  0  0
 55129  1  0  0  0
 56 69  2  0  0  0
 57 58  2  0  0  0
 57130  1  0  0  0
 58131  1  0  0  0
 59 60  1  0  0  0
 59 61  1  0  0  0
 59 62  1  0  0  0
 60132  1  0  0  0
 60133  1  0  0  0
 60134  1  0  0  0
 61135  1  0  0  0
 61136  1  0  0  0
 61137  1  0  0  0
 62138  1  0  0  0
 62139  1  0  0  0
 62140  1  0  0  0
 63 65  1  0  0  0
 63141  1  0  0  0
 63142  1  0  0  0
 63143  1  0  0  0
 64144  1  0  0  0
 65145  1  0  0  0
 68 81  1  0  0  0
 71 72  2  0  0  0
 71 75  1  0  0  0
 71146  1  0  0  0
 72 76  1  0  0  0
 72147  1  0  0  0
 73 74  1  0  0  0
 73 75  2  0  0  0
 73148  1  0  0  0
 74 76  2  0  0  0
 74 82  1  0  0  0
 75 84  1  0  0  0
 76 86  1  0  0  0
 77 81  1  0  0  0
 77 83  1  0  0  0
 77 85  2  0  0  0
 78 79  1  0  0  0
 78 80  1  0  0  0
 78149  1  0  0  0
 78150  1  0  0  0
 79 81  1  0  0  0
 79151  1  0  0  0
 79152  1  0  0  0
 80 83  1  0  0  0
 80153  1  0  0  0
 80154  1  0  0  0
 81155  1  0  0  0
 82 83  1  0  0  0
 82156  1  0  0  0
 82157  1  0  0  0
 84158  1  0  0  0
M  ISO  4   1 100  68 101  81 101  84 100
M  END
> <chiral flag>
0

> <version>
0

> <s_m_source_file>
/data/baiqing/PycharmProjects/Reinvent-master-3.2/result/LINK_invent/BTK/process_docking_weight1_custom_product_contain_oxygen_bond_distance_aromatic_linkinvent_7_9_3/rearranged_h_0045.sdf

> <i_m_source_file_index>
60

> <r_mmod_Potential_Energy-OPLS-2005>
225.621215820312

> <r_mmod_Stretch_Energy-OPLS-2005>
134.255874633789

> <r_mmod_Bend_Energy-OPLS-2005>
164.042922973633

> <r_mmod_Torsional_Energy-OPLS-2005>
259.438110351562

> <r_mmod_Improper_Torsional_Energy-OPLS-2005>
7.33725738525391

> <r_mmod_Van_der_Waal_Energy-OPLS-2005>
143.650787353516

> <r_mmod_Electrostatic_Energy-OPLS-2005>
-336.653656005859

> <r_mmod_Solvation_Energy-OPLS-2005>
-230.80078125

> <b_mmod_Minimization_Converged-OPLS-2005>
0

> <r_mmod_RMS_Derivative-OPLS-2005>
4.12359094619751

$$$$
60
                    3D
 Structure written by MMmdl.
155163  0  0  1  0            999 V2000
  -30.6815  -14.5093   20.5532 C   0  0  0  0  0  0
  -30.4328  -12.3223   19.4310 C   0  0  0  0  0  0
  -29.5174  -12.5499   18.2115 C   0  0  0  0  0  0
  -28.0326  -12.3865   18.6036 C   0  0  0  0  0  0
  -27.6642  -13.2119   19.8667 C   0  0  2  0  0  0
  -28.7048  -12.9987   20.9872 C   0  0  0  0  0  0
  -25.2600  -13.8179   20.5648 C   0  0  0  0  0  0
  -24.1871  -13.0448   20.9156 C   0  0  0  0  0  0
  -24.6434  -11.6939   20.8673 C   0  0  0  0  0  0
  -23.9089  -10.4321   21.0332 C   0  0  0  0  0  0
  -24.3632   -9.4255   21.9143 C   0  0  0  0  0  0
  -23.6330   -8.2280   22.0722 C   0  0  0  0  0  0
  -22.4314   -8.0297   21.3513 C   0  0  0  0  0  0
  -21.9926   -9.0262   20.4618 C   0  0  0  0  0  0
  -22.7245  -10.2145   20.2994 C   0  0  0  0  0  0
  -21.6876   -6.0757   22.5273 C   0  0  0  0  0  0
  -21.4007   -6.5637   23.8208 C   0  0  0  0  0  0
  -21.3659   -5.6789   24.9162 C   0  0  0  0  0  0
  -21.6072   -4.3058   24.7191 C   0  0  0  0  0  0
  -21.8834   -3.8153   23.4301 C   0  0  0  0  0  0
  -21.9197   -4.6988   22.3378 C   0  0  0  0  0  0
  -22.7893  -13.5234   21.1815 C   0  0  0  0  0  0
  -22.1677   -4.2178   21.0962 F   0  0  0  0  0  0
  -21.5655   -3.4522   25.7684 F   0  0  0  0  0  0
  -30.0405  -13.3096   20.4495 N   0  0  0  0  0  0
  -26.3032  -12.9349   20.3276 N   0  0  0  0  0  0
  -25.9343  -11.6500   20.5672 N   0  0  0  0  0  0
  -22.0536  -12.8217   22.0357 N   0  0  0  0  0  0
  -25.4358  -15.1872   20.4067 N   0  0  0  0  0  0
  -31.8353  -14.6363   20.1289 O   0  0  0  0  0  0
  -21.6675   -6.8887   21.4215 O   0  0  0  0  0  0
  -22.3565  -14.5545   20.6657 O   0  0  0  0  0  0
  -24.6193  -31.8696   23.2142 C   0  0  0  0  0  0
  -25.9078  -32.4808   23.8413 C   0  0  1  0  0  0
  -27.2138  -27.4127   20.1010 C   0  0  0  0  0  0
  -25.5946  -33.8605   24.2348 N   0  0  0  0  0  0
  -23.4052  -30.4980   21.5558 C   0  0  2  0  0  0
  -24.8444  -28.9735   20.1086 C   0  0  0  0  0  0
  -22.7421  -29.4684   22.5003 C   0  0  0  0  0  0
  -18.0261  -28.1397   22.8497 C   0  0  0  0  0  0
  -24.1481  -36.7309   23.2647 C   0  0  0  0  0  0
  -25.9376  -30.8291   21.3698 C   0  0  0  0  0  0
  -26.0106  -29.4653   20.7115 C   0  0  0  0  0  0
  -27.1996  -28.6952   20.7048 C   0  0  0  0  0  0
  -26.0285  -26.9632   19.4624 C   0  0  0  0  0  0
  -24.8527  -27.7237   19.4774 C   0  0  0  0  0  0
  -23.6094  -29.8415   20.1658 C   0  0  0  0  0  0
  -25.4098  -36.3113   24.0369 C   0  0  1  0  0  0
  -20.5862  -28.3690   23.1317 C   0  0  2  0  0  0
  -20.6768  -26.9433   22.5421 C   0  0  0  0  0  0
  -19.5745  -26.6384   21.5231 C   0  0  0  0  0  0
  -18.1909  -26.7951   22.1604 C   0  0  0  0  0  0
  -19.1509  -28.8849   23.2907 C   0  0  0  0  0  0
  -18.9432  -30.1446   23.8940 C   0  0  0  0  0  0
  -17.6438  -30.6608   24.0558 C   0  0  0  0  0  0
  -25.9048  -34.9482   23.5152 C   0  0  0  0  0  0
  -16.5329  -29.9104   23.6332 C   0  0  0  0  0  0
  -16.7244  -28.6507   23.0367 C   0  0  0  0  0  0
  -26.4488  -31.6576   25.0745 C   0  0  0  0  0  0
  -25.3726  -31.3645   26.1469 C   0  0  0  0  0  0
  -27.0299  -30.3007   24.6109 C   0  0  0  0  0  0
  -27.6069  -32.4278   25.7522 C   0  0  0  0  0  0
  -27.5583  -37.1801   24.8450 C   0  0  0  0  0  0
  -21.4153  -29.3053   22.3734 N   0  0  0  0  0  0
  -26.4263  -37.3815   23.9449 N   0  0  0  0  0  0
  -24.6719  -31.0795   22.1036 N   0  0  0  0  0  0
  -23.4196  -28.8224   23.3038 O   0  0  0  0  0  0
  -28.3436  -26.6138   20.1624 O   0  0  0  0  0  0
  -26.5579  -34.8945   22.4692 O   0  0  0  0  0  0
  -23.5387  -32.1441   23.7535 O   0  0  0  0  0  0
  -27.1925  -19.0245   20.8930 C   0  0  0  0  0  0
  -28.0220  -17.8904   20.8439 C   0  0  0  0  0  0
  -27.7570  -20.3059   21.0064 C   0  0  0  0  0  0
  -29.4263  -18.0112   20.9264 C   0  0  0  0  0  0
  -29.1590  -20.4796   21.0852 C   0  0  0  0  0  0
  -29.9939  -19.3190   21.0886 C   0  0  0  0  0  0
  -30.2525  -16.7676   20.7635 C   0  0  0  0  0  0
  -29.1687  -24.2884   20.6269 C   0  0  0  0  0  0
  -31.5039  -19.4708   21.2775 C   0  0  0  0  0  0
  -29.7392  -21.9086   21.1838 C   0  0  0  0  0  0
  -28.0873  -25.1968   20.0188 C   0  0  0  0  0  0
  -29.8604  -15.5605   20.9821 N   0  0  0  0  0  0
  -28.9088  -22.9678   20.6009 N   0  0  0  0  0  0
  -30.1952  -24.7606   21.1201 O   0  0  0  0  0  0
  -31.4805  -12.4061   19.1432 H   0  0  0  0  0  0
  -30.3193  -11.3098   19.8233 H   0  0  0  0  0  0
  -29.7865  -11.8673   17.4040 H   0  0  0  0  0  0
  -29.6802  -13.5560   17.8187 H   0  0  0  0  0  0
  -27.8452  -11.3280   18.7764 H   0  0  0  0  0  0
  -27.3968  -12.6760   17.7664 H   0  0  0  0  0  0
  -27.7037  -14.2615   19.5740 H   0  0  0  0  0  0
  -28.6855  -11.9642   21.3323 H   0  0  0  0  0  0
  -28.4668  -13.6040   21.8615 H   0  0  0  0  0  0
  -25.2775   -9.5796   22.4700 H   0  0  0  0  0  0
  -24.0070   -7.4690   22.7427 H   0  0  0  0  0  0
  -21.0878   -8.8739   19.8915 H   0  0  0  0  0  0
  -22.3677  -10.9660   19.6082 H   0  0  0  0  0  0
  -21.1961   -7.6144   23.9725 H   0  0  0  0  0  0
  -21.1494   -6.0498   25.9076 H   0  0  0  0  0  0
  -22.0611   -2.7618   23.2780 H   0  0  0  0  0  0
  -22.4157  -11.9900   22.4782 H   0  0  0  0  0  0
  -21.1123  -13.1207   22.2479 H   0  0  0  0  0  0
  -24.6853  -15.8600   20.5223 H   0  0  0  0  0  0
  -26.3003  -15.6022   20.0824 H   0  0  0  0  0  0
  -26.7157  -32.5502   23.1182 H   0  0  0  0  0  0
  -25.0107  -33.9748   25.0496 H   0  0  0  0  0  0
  -22.6978  -31.3192   21.4216 H   0  0  0  0  0  0
  -23.3787  -35.9588   23.3241 H   0  0  0  0  0  0
  -24.3601  -36.8990   22.2074 H   0  0  0  0  0  0
  -23.7177  -37.6486   23.6670 H   0  0  0  0  0  0
  -26.0535  -31.5964   20.6021 H   0  0  0  0  0  0
  -26.8258  -30.8747   21.9880 H   0  0  0  0  0  0
  -28.0906  -29.0662   21.1939 H   0  0  0  0  0  0
  -25.9742  -26.0128   18.9523 H   0  0  0  0  0  0
  -23.9623  -27.3446   18.9949 H   0  0  0  0  0  0
  -23.7189  -30.6200   19.4097 H   0  0  0  0  0  0
  -22.7323  -29.2642   19.8679 H   0  0  0  0  0  0
  -25.1277  -36.1974   25.0863 H   0  0  0  0  0  0
  -20.9919  -28.3235   24.1451 H   0  0  0  0  0  0
  -20.5668  -26.2316   23.3609 H   0  0  0  0  0  0
  -21.6639  -26.7480   22.1209 H   0  0  0  0  0  0
  -19.6920  -25.6293   21.1259 H   0  0  0  0  0  0
  -19.6711  -27.3196   20.6774 H   0  0  0  0  0  0
  -17.4216  -26.6745   21.3965 H   0  0  0  0  0  0
  -18.0265  -26.0057   22.8936 H   0  0  0  0  0  0
  -19.7907  -30.7241   24.2339 H   0  0  0  0  0  0
  -17.5002  -31.6293   24.5136 H   0  0  0  0  0  0
  -15.5340  -30.3014   23.7662 H   0  0  0  0  0  0
  -15.8626  -28.0838   22.7087 H   0  0  0  0  0  0
  -24.5979  -30.6930   25.7766 H   0  0  0  0  0  0
  -24.8820  -32.2766   26.4865 H   0  0  0  0  0  0
  -25.8094  -30.8850   27.0234 H   0  0  0  0  0  0
  -26.2819  -29.6792   24.1177 H   0  0  0  0  0  0
  -27.4067  -29.7248   25.4565 H   0  0  0  0  0  0
  -27.8667  -30.4318   23.9248 H   0  0  0  0  0  0
  -27.2699  -33.3567   26.2126 H   0  0  0  0  0  0
  -28.3872  -32.6860   25.0352 H   0  0  0  0  0  0
  -28.0724  -31.8365   26.5408 H   0  0  0  0  0  0
  -28.2557  -38.0144   24.7610 H   0  0  0  0  0  0
  -28.1149  -36.2710   24.6136 H   0  0  0  0  0  0
  -27.2348  -37.1250   25.8856 H   0  0  0  0  0  0
  -20.9325  -29.8786   21.6963 H   0  0  0  0  0  0
  -26.0176  -38.2898   24.1487 H   0  0  0  0  0  0
  -26.1189  -18.9089   20.8373 H   0  0  0  0  0  0
  -27.5679  -16.9147   20.7304 H   0  0  0  0  0  0
  -27.0899  -21.1541   21.0444 H   0  0  0  0  0  0
  -31.2571  -16.9674   20.3781 H   0  0  0  0  0  0
  -31.8989  -18.6782   21.9109 H   0  0  0  0  0  0
  -31.7888  -20.3967   21.7778 H   0  0  0  0  0  0
  -32.0091  -19.4310   20.3129 H   0  0  0  0  0  0
  -30.7087  -21.9629   20.6864 H   0  0  0  0  0  0
  -29.9075  -22.1319   22.2391 H   0  0  0  0  0  0
  -27.1724  -24.9267   20.5516 H   0  0  0  0  0  0
  -27.9547  -24.9421   18.9653 H   0  0  0  0  0  0
  -28.0650  -22.6696   20.1328 H   0  0  0  0  0  0
  1 25  1  0  0  0
  1 30  2  0  0  0
  1 82  1  0  0  0
  2  3  1  0  0  0
  2 25  1  0  0  0
  2 85  1  0  0  0
  2 86  1  0  0  0
  3  4  1  0  0  0
  3 87  1  0  0  0
  3 88  1  0  0  0
  4  5  1  0  0  0
  4 89  1  0  0  0
  4 90  1  0  0  0
  5  6  1  0  0  0
  5 26  1  0  0  0
  5 91  1  0  0  0
  6 25  1  0  0  0
  6 92  1  0  0  0
  6 93  1  0  0  0
  7  8  2  0  0  0
  7 26  1  0  0  0
  7 29  1  0  0  0
  8  9  1  0  0  0
  8 22  1  0  0  0
  9 10  1  0  0  0
  9 27  2  0  0  0
 10 11  2  0  0  0
 10 15  1  0  0  0
 11 12  1  0  0  0
 11 94  1  0  0  0
 12 13  2  0  0  0
 12 95  1  0  0  0
 13 14  1  0  0  0
 13 31  1  0  0  0
 14 15  2  0  0  0
 14 96  1  0  0  0
 15 97  1  0  0  0
 16 17  2  0  0  0
 16 21  1  0  0  0
 16 31  1  0  0  0
 17 18  1  0  0  0
 17 98  1  0  0  0
 18 19  2  0  0  0
 18 99  1  0  0  0
 19 20  1  0  0  0
 19 24  1  0  0  0
 20 21  2  0  0  0
 20100  1  0  0  0
 21 23  1  0  0  0
 22 28  1  0  0  0
 22 32  2  0  0  0
 26 27  1  0  0  0
 28101  1  0  0  0
 28102  1  0  0  0
 29103  1  0  0  0
 29104  1  0  0  0
 33 34  1  0  0  0
 33 66  1  0  0  0
 33 70  2  0  0  0
 34 36  1  0  0  0
 34 59  1  0  0  0
 34105  1  0  0  0
 35 44  2  0  0  0
 35 45  1  0  0  0
 35 68  1  0  0  0
 36 56  1  0  0  0
 36106  1  0  0  0
 37 39  1  0  0  0
 37 47  1  0  0  0
 37 66  1  0  0  0
 37107  1  0  0  0
 38 43  2  0  0  0
 38 46  1  0  0  0
 38 47  1  0  0  0
 39 64  1  0  0  0
 39 67  2  0  0  0
 40 52  1  0  0  0
 40 53  2  0  0  0
 40 58  1  0  0  0
 41108  1  0  0  0
 41109  1  0  0  0
 41110  1  0  0  0
 41 48  1  0  0  0
 42 43  1  0  0  0
 42 66  1  0  0  0
 42111  1  0  0  0
 42112  1  0  0  0
 43 44  1  0  0  0
 44113  1  0  0  0
 45 46  2  0  0  0
 45114  1  0  0  0
 46115  1  0  0  0
 47116  1  0  0  0
 47117  1  0  0  0
 48 56  1  0  0  0
 48 65  1  0  0  0
 48118  1  0  0  0
 49 50  1  0  0  0
 49 53  1  0  0  0
 49 64  1  0  0  0
 49119  1  0  0  0
 50 51  1  0  0  0
 50120  1  0  0  0
 50121  1  0  0  0
 51 52  1  0  0  0
 51122  1  0  0  0
 51123  1  0  0  0
 52124  1  0  0  0
 52125  1  0  0  0
 53 54  1  0  0  0
 54 55  2  0  0  0
 54126  1  0  0  0
 55 57  1  0  0  0
 55127  1  0  0  0
 56 69  2  0  0  0
 57 58  2  0  0  0
 57128  1  0  0  0
 58129  1  0  0  0
 59 60  1  0  0  0
 59 61  1  0  0  0
 59 62  1  0  0  0
 60130  1  0  0  0
 60131  1  0  0  0
 60132  1  0  0  0
 61133  1  0  0  0
 61134  1  0  0  0
 61135  1  0  0  0
 62136  1  0  0  0
 62137  1  0  0  0
 62138  1  0  0  0
 63 65  1  0  0  0
 63139  1  0  0  0
 63140  1  0  0  0
 63141  1  0  0  0
 64142  1  0  0  0
 65143  1  0  0  0
 68 81  1  0  0  0
 71 72  2  0  0  0
 71 73  1  0  0  0
 71144  1  0  0  0
 72 74  1  0  0  0
 72145  1  0  0  0
 73 75  2  0  0  0
 73146  1  0  0  0
 74 76  2  0  0  0
 74 77  1  0  0  0
 75 76  1  0  0  0
 75 80  1  0  0  0
 76 79  1  0  0  0
 77 82  2  0  0  0
 77147  1  0  0  0
 78 81  1  0  0  0
 78 83  1  0  0  0
 78 84  2  0  0  0
 79148  1  0  0  0
 79149  1  0  0  0
 79150  1  0  0  0
 80 83  1  0  0  0
 80151  1  0  0  0
 80152  1  0  0  0
 81153  1  0  0  0
 81154  1  0  0  0
 83155  1  0  0  0
M  ISO  4   1 100  68 101  81 101  82 100
M  END
> <chiral flag>
0

> <version>
0

> <s_m_source_file>
/data/baiqing/PycharmProjects/Reinvent-master-3.2/result/LINK_invent/BTK/process_docking_weight1_custom_product_contain_oxygen_bond_distance_aromatic_linkinvent_7_9_3/rearranged_h_0045.sdf

> <i_m_source_file_index>
61

> <r_mmod_Potential_Energy-OPLS-2005>
-65.4154357910156

> <r_mmod_Stretch_Energy-OPLS-2005>
46.2486457824707

> <r_mmod_Bend_Energy-OPLS-2005>
97.8205108642578

> <r_mmod_Torsional_Energy-OPLS-2005>
168.605026245117

> <r_mmod_Improper_Torsional_Energy-OPLS-2005>
4.75183439254761

> <r_mmod_Van_der_Waal_Energy-OPLS-2005>
179.963150024414

> <r_mmod_Electrostatic_Energy-OPLS-2005>
-363.193389892578

> <r_mmod_Solvation_Energy-OPLS-2005>
-219.975769042969

> <b_mmod_Minimization_Converged-OPLS-2005>
0

> <r_mmod_RMS_Derivative-OPLS-2005>
4.67005348205566

$$$$
61
                    3D
 Structure written by MMmdl.
167176  0  0  1  0            999 V2000
  -30.5695  -14.6151   20.5493 C   0  0  0  0  0  0
  -30.4594  -12.4072   19.3889 C   0  0  0  0  0  0
  -29.4968  -12.5529   18.1852 C   0  0  0  0  0  0
  -28.0161  -12.3930   18.6025 C   0  0  0  0  0  0
  -27.6635  -13.2006   19.8777 C   0  0  2  0  0  0
  -28.7218  -12.9527   20.9773 C   0  0  0  0  0  0
  -25.2666  -13.8130   20.5803 C   0  0  0  0  0  0
  -24.1906  -13.0420   20.9259 C   0  0  0  0  0  0
  -24.6436  -11.6881   20.8756 C   0  0  0  0  0  0
  -23.9122  -10.4257   21.0410 C   0  0  0  0  0  0
  -24.3676   -9.4168   21.9190 C   0  0  0  0  0  0
  -23.6337   -8.2209   22.0761 C   0  0  0  0  0  0
  -22.4305   -8.0267   21.3560 C   0  0  0  0  0  0
  -21.9961   -9.0252   20.4648 C   0  0  0  0  0  0
  -22.7305  -10.2125   20.3064 C   0  0  0  0  0  0
  -21.6863   -6.0750   22.5305 C   0  0  0  0  0  0
  -21.3970   -6.5634   23.8242 C   0  0  0  0  0  0
  -21.3671   -5.6781   24.9200 C   0  0  0  0  0  0
  -21.6086   -4.3050   24.7230 C   0  0  0  0  0  0
  -21.8818   -3.8158   23.4336 C   0  0  0  0  0  0
  -21.9188   -4.6983   22.3406 C   0  0  0  0  0  0
  -22.7920  -13.5202   21.1914 C   0  0  0  0  0  0
  -22.1664   -4.2190   21.0979 F   0  0  0  0  0  0
  -21.5683   -3.4515   25.7727 F   0  0  0  0  0  0
  -30.0310  -13.3620   20.4270 N   0  0  0  0  0  0
  -26.3072  -12.9270   20.3431 N   0  0  0  0  0  0
  -25.9346  -11.6443   20.5722 N   0  0  0  0  0  0
  -22.0524  -12.8187   22.0443 N   0  0  0  0  0  0
  -25.4461  -15.1860   20.4293 N   0  0  0  0  0  0
  -31.6973  -14.9000   20.1255 O   0  0  0  0  0  0
  -21.6648   -6.8885   21.4263 O   0  0  0  0  0  0
  -22.3602  -14.5510   20.6750 O   0  0  0  0  0  0
  -24.6243  -31.8598   23.2078 C   0  0  0  0  0  0
  -25.9104  -32.4776   23.8409 C   0  0  1  0  0  0
  -27.2302  -27.3355   20.1262 C   0  0  0  0  0  0
  -25.5916  -33.8580   24.2327 N   0  0  0  0  0  0
  -23.4177  -30.4855   21.5452 C   0  0  2  0  0  0
  -24.8688  -28.9423   20.1133 C   0  0  0  0  0  0
  -22.7453  -29.4627   22.4919 C   0  0  0  0  0  0
  -18.0289  -28.1359   22.8532 C   0  0  0  0  0  0
  -24.1473  -36.7300   23.2642 C   0  0  0  0  0  0
  -25.9567  -30.7966   21.3816 C   0  0  0  0  0  0
  -26.0315  -29.4257   20.7242 C   0  0  0  0  0  0
  -27.2121  -28.6300   20.7264 C   0  0  0  0  0  0
  -26.0488  -26.9054   19.4802 C   0  0  0  0  0  0
  -24.8779  -27.6888   19.4821 C   0  0  0  0  0  0
  -23.6351  -29.8196   20.1609 C   0  0  0  0  0  0
  -25.4088  -36.3085   24.0347 C   0  0  1  0  0  0
  -20.5893  -28.3658   23.1295 C   0  0  2  0  0  0
  -20.6762  -26.9379   22.5413 C   0  0  0  0  0  0
  -19.5721  -26.6370   21.5233 C   0  0  0  0  0  0
  -18.1912  -26.7910   22.1661 C   0  0  0  0  0  0
  -19.1545  -28.8830   23.2915 C   0  0  0  0  0  0
  -18.9456  -30.1440   23.8916 C   0  0  0  0  0  0
  -17.6456  -30.6572   24.0565 C   0  0  0  0  0  0
  -25.9020  -34.9452   23.5126 C   0  0  0  0  0  0
  -16.5350  -29.9065   23.6334 C   0  0  0  0  0  0
  -16.7283  -28.6476   23.0383 C   0  0  0  0  0  0
  -26.4499  -31.6584   25.0768 C   0  0  0  0  0  0
  -25.3739  -31.3726   26.1496 C   0  0  0  0  0  0
  -27.0371  -30.3012   24.6257 C   0  0  0  0  0  0
  -27.6056  -32.4321   25.7527 C   0  0  0  0  0  0
  -27.5571  -37.1800   24.8463 C   0  0  0  0  0  0
  -21.4174  -29.3025   22.3673 N   0  0  0  0  0  0
  -26.4276  -37.3776   23.9413 N   0  0  0  0  0  0
  -24.6838  -31.0643   22.1017 N   0  0  0  0  0  0
  -23.4187  -28.8152   23.2981 O   0  0  0  0  0  0
  -28.3769  -26.5330   20.1478 O   0  0  0  0  0  0
  -26.5575  -34.8912   22.4685 O   0  0  0  0  0  0
  -23.5407  -32.1372   23.7415 O   0  0  0  0  0  0
  -28.7201  -19.5637   22.0700 C   0  0  0  0  0  0
  -28.4344  -18.4769   22.9102 C   0  0  0  0  0  0
  -29.8447  -18.0380   20.5205 C   0  0  0  0  0  0
  -29.4235  -19.3781   20.8653 C   0  0  0  0  0  0
  -28.8201  -17.1689   22.5610 C   0  0  0  0  0  0
  -29.5487  -16.9162   21.3693 C   0  0  0  0  0  0
  -30.7908  -22.0845   21.4205 C   0  0  0  0  0  0
  -29.9371  -23.0725   19.5310 C   0  0  0  0  0  0
  -30.5529  -22.3776   22.7110 C   0  0  0  0  0  0
  -29.3490  -24.3141   19.4560 C   0  0  0  0  0  0
  -32.1984  -21.9066   20.8481 C   0  0  0  0  0  0
  -31.1647  -22.8313   18.6568 C   0  0  0  0  0  0
  -32.4107  -22.7539   19.5668 C   0  0  0  0  0  0
  -28.3570  -16.0255   23.4550 C   0  0  0  0  0  0
  -29.6075  -20.6072   19.9201 C   0  0  0  0  0  0
  -28.2725  -25.0608   20.2706 C   0  0  0  0  0  0
  -29.7905  -22.0037   20.4565 N   0  0  0  0  0  0
  -29.6651  -15.5067   21.0442 N   0  0  0  0  0  0
  -31.4878  -12.5923   19.0696 H   0  0  0  0  0  0
  -30.4429  -11.3858   19.7709 H   0  0  0  0  0  0
  -29.7453  -11.8246   17.4102 H   0  0  0  0  0  0
  -29.6336  -13.5346   17.7267 H   0  0  0  0  0  0
  -27.8148  -11.3345   18.7653 H   0  0  0  0  0  0
  -27.3653  -12.7056   17.7839 H   0  0  0  0  0  0
  -27.6986  -14.2526   19.6005 H   0  0  0  0  0  0
  -28.7495  -11.8933   21.2377 H   0  0  0  0  0  0
  -28.4761  -13.4614   21.9089 H   0  0  0  0  0  0
  -25.2840   -9.5632   22.4741 H   0  0  0  0  0  0
  -24.0087   -7.4587   22.7455 H   0  0  0  0  0  0
  -21.0925   -8.8770   19.8917 H   0  0  0  0  0  0
  -22.3818  -10.9670   19.6154 H   0  0  0  0  0  0
  -21.1895   -7.6128   23.9751 H   0  0  0  0  0  0
  -21.1534   -6.0501   25.9119 H   0  0  0  0  0  0
  -22.0594   -2.7628   23.2825 H   0  0  0  0  0  0
  -22.4054  -11.9787   22.4817 H   0  0  0  0  0  0
  -21.1142  -13.1234   22.2613 H   0  0  0  0  0  0
  -24.6946  -15.8518   20.5651 H   0  0  0  0  0  0
  -26.3183  -15.6252   20.1633 H   0  0  0  0  0  0
  -26.7158  -32.5456   23.1150 H   0  0  0  0  0  0
  -25.0101  -33.9721   25.0500 H   0  0  0  0  0  0
  -22.7123  -31.3067   21.4014 H   0  0  0  0  0  0
  -23.3736  -35.9632   23.3284 H   0  0  0  0  0  0
  -24.3583  -36.8930   22.2062 H   0  0  0  0  0  0
  -23.7216  -37.6498   23.6662 H   0  0  0  0  0  0
  -26.0884  -31.5655   20.6196 H   0  0  0  0  0  0
  -26.8357  -30.8416   22.0134 H   0  0  0  0  0  0
  -28.1045  -28.9911   21.2187 H   0  0  0  0  0  0
  -26.0140  -25.9649   18.9529 H   0  0  0  0  0  0
  -23.9889  -27.3252   18.9854 H   0  0  0  0  0  0
  -23.7481  -30.5943   19.4005 H   0  0  0  0  0  0
  -22.7588  -29.2434   19.8607 H   0  0  0  0  0  0
  -25.1263  -36.1945   25.0844 H   0  0  0  0  0  0
  -21.0029  -28.3215   24.1401 H   0  0  0  0  0  0
  -20.5676  -26.2256   23.3601 H   0  0  0  0  0  0
  -21.6617  -26.7393   22.1188 H   0  0  0  0  0  0
  -19.6855  -25.6288   21.1240 H   0  0  0  0  0  0
  -19.6642  -27.3203   20.6781 H   0  0  0  0  0  0
  -17.4176  -26.6717   21.4054 H   0  0  0  0  0  0
  -18.0284  -26.0031   22.9035 H   0  0  0  0  0  0
  -19.7919  -30.7276   24.2281 H   0  0  0  0  0  0
  -17.4988  -31.6260   24.5136 H   0  0  0  0  0  0
  -15.5339  -30.2961   23.7626 H   0  0  0  0  0  0
  -15.8693  -28.0784   22.7096 H   0  0  0  0  0  0
  -24.5912  -30.7071   25.7830 H   0  0  0  0  0  0
  -24.8936  -32.2898   26.4924 H   0  0  0  0  0  0
  -25.8069  -30.8906   27.0274 H   0  0  0  0  0  0
  -26.2992  -29.6730   24.1261 H   0  0  0  0  0  0
  -27.4026  -29.7295   25.4800 H   0  0  0  0  0  0
  -27.8864  -30.4287   23.9541 H   0  0  0  0  0  0
  -27.2687  -33.3629   26.2107 H   0  0  0  0  0  0
  -28.3881  -32.6873   25.0365 H   0  0  0  0  0  0
  -28.0724  -31.8452   26.5448 H   0  0  0  0  0  0
  -28.2567  -38.0117   24.7531 H   0  0  0  0  0  0
  -28.1089  -36.2651   24.6257 H   0  0  0  0  0  0
  -27.2302  -37.1412   25.8869 H   0  0  0  0  0  0
  -20.9317  -29.8764   21.6921 H   0  0  0  0  0  0
  -26.0159  -38.2849   24.1431 H   0  0  0  0  0  0
  -28.3605  -20.5462   22.3439 H   0  0  0  0  0  0
  -27.8585  -18.6502   23.8088 H   0  0  0  0  0  0
  -30.3214  -17.8642   19.5665 H   0  0  0  0  0  0
  -31.3555  -22.4654   23.4297 H   0  0  0  0  0  0
  -29.5494  -22.5448   23.0755 H   0  0  0  0  0  0
  -29.7254  -24.9618   18.6772 H   0  0  0  0  0  0
  -32.3525  -20.8482   20.6301 H   0  0  0  0  0  0
  -32.9490  -22.1734   21.5939 H   0  0  0  0  0  0
  -31.2926  -23.6205   17.9151 H   0  0  0  0  0  0
  -31.0501  -21.9226   18.0671 H   0  0  0  0  0  0
  -33.2786  -22.4046   19.0069 H   0  0  0  0  0  0
  -32.6465  -23.7731   19.8773 H   0  0  0  0  0  0
  -27.8804  -16.3918   24.3640 H   0  0  0  0  0  0
  -29.1953  -15.3892   23.7461 H   0  0  0  0  0  0
  -27.6177  -15.4192   22.9302 H   0  0  0  0  0  0
  -28.7565  -20.6269   19.2388 H   0  0  0  0  0  0
  -30.4595  -20.3455   19.2959 H   0  0  0  0  0  0
  -28.3799  -24.7754   21.3182 H   0  0  0  0  0  0
  -27.3123  -24.6658   19.9491 H   0  0  0  0  0  0
  -28.8686  -14.9914   21.3843 H   0  0  0  0  0  0
  1 25  1  0  0  0
  1 30  2  0  0  0
  1 88  1  0  0  0
  2  3  1  0  0  0
  2 25  1  0  0  0
  2 89  1  0  0  0
  2 90  1  0  0  0
  3  4  1  0  0  0
  3 91  1  0  0  0
  3 92  1  0  0  0
  4  5  1  0  0  0
  4 93  1  0  0  0
  4 94  1  0  0  0
  5  6  1  0  0  0
  5 26  1  0  0  0
  5 95  1  0  0  0
  6 25  1  0  0  0
  6 96  1  0  0  0
  6 97  1  0  0  0
  7  8  2  0  0  0
  7 26  1  0  0  0
  7 29  1  0  0  0
  8  9  1  0  0  0
  8 22  1  0  0  0
  9 10  1  0  0  0
  9 27  2  0  0  0
 10 11  2  0  0  0
 10 15  1  0  0  0
 11 12  1  0  0  0
 11 98  1  0  0  0
 12 13  2  0  0  0
 12 99  1  0  0  0
 13 14  1  0  0  0
 13 31  1  0  0  0
 14 15  2  0  0  0
 14100  1  0  0  0
 15101  1  0  0  0
 16 17  2  0  0  0
 16 21  1  0  0  0
 16 31  1  0  0  0
 17 18  1  0  0  0
 17102  1  0  0  0
 18 19  2  0  0  0
 18103  1  0  0  0
 19 20  1  0  0  0
 19 24  1  0  0  0
 20 21  2  0  0  0
 20104  1  0  0  0
 21 23  1  0  0  0
 22 28  1  0  0  0
 22 32  2  0  0  0
 26 27  1  0  0  0
 28105  1  0  0  0
 28106  1  0  0  0
 29107  1  0  0  0
 29108  1  0  0  0
 33 34  1  0  0  0
 33 66  1  0  0  0
 33 70  2  0  0  0
 34 36  1  0  0  0
 34 59  1  0  0  0
 34109  1  0  0  0
 35 44  2  0  0  0
 35 45  1  0  0  0
 35 68  1  0  0  0
 36 56  1  0  0  0
 36110  1  0  0  0
 37 39  1  0  0  0
 37 47  1  0  0  0
 37 66  1  0  0  0
 37111  1  0  0  0
 38 43  2  0  0  0
 38 46  1  0  0  0
 38 47  1  0  0  0
 39 64  1  0  0  0
 39 67  2  0  0  0
 40 52  1  0  0  0
 40 53  2  0  0  0
 40 58  1  0  0  0
 41112  1  0  0  0
 41113  1  0  0  0
 41114  1  0  0  0
 41 48  1  0  0  0
 42 43  1  0  0  0
 42 66  1  0  0  0
 42115  1  0  0  0
 42116  1  0  0  0
 43 44  1  0  0  0
 44117  1  0  0  0
 45 46  2  0  0  0
 45118  1  0  0  0
 46119  1  0  0  0
 47120  1  0  0  0
 47121  1  0  0  0
 48 56  1  0  0  0
 48 65  1  0  0  0
 48122  1  0  0  0
 49 50  1  0  0  0
 49 53  1  0  0  0
 49 64  1  0  0  0
 49123  1  0  0  0
 50 51  1  0  0  0
 50124  1  0  0  0
 50125  1  0  0  0
 51 52  1  0  0  0
 51126  1  0  0  0
 51127  1  0  0  0
 52128  1  0  0  0
 52129  1  0  0  0
 53 54  1  0  0  0
 54 55  2  0  0  0
 54130  1  0  0  0
 55 57  1  0  0  0
 55131  1  0  0  0
 56 69  2  0  0  0
 57 58  2  0  0  0
 57132  1  0  0  0
 58133  1  0  0  0
 59 60  1  0  0  0
 59 61  1  0  0  0
 59 62  1  0  0  0
 60134  1  0  0  0
 60135  1  0  0  0
 60136  1  0  0  0
 61137  1  0  0  0
 61138  1  0  0  0
 61139  1  0  0  0
 62140  1  0  0  0
 62141  1  0  0  0
 62142  1  0  0  0
 63 65  1  0  0  0
 63143  1  0  0  0
 63144  1  0  0  0
 63145  1  0  0  0
 64146  1  0  0  0
 65147  1  0  0  0
 68 86  1  0  0  0
 71 72  2  0  0  0
 71 74  1  0  0  0
 71148  1  0  0  0
 72 75  1  0  0  0
 72149  1  0  0  0
 73 74  2  0  0  0
 73 76  1  0  0  0
 73150  1  0  0  0
 74 85  1  0  0  0
 75 76  2  0  0  0
 75 84  1  0  0  0
 76 88  1  0  0  0
 77 79  2  0  0  0
 77 81  1  0  0  0
 77 87  1  0  0  0
 78 80  2  0  0  0
 78 82  1  0  0  0
 78 87  1  0  0  0
 79151  1  0  0  0
 79152  1  0  0  0
 80 86  1  0  0  0
 80153  1  0  0  0
 81 83  1  0  0  0
 81154  1  0  0  0
 81155  1  0  0  0
 82 83  1  0  0  0
 82156  1  0  0  0
 82157  1  0  0  0
 83158  1  0  0  0
 83159  1  0  0  0
 84160  1  0  0  0
 84161  1  0  0  0
 84162  1  0  0  0
 85 87  1  0  0  0
 85163  1  0  0  0
 85164  1  0  0  0
 86165  1  0  0  0
 86166  1  0  0  0
 88167  1  0  0  0
M  ISO  4   1 100  68 101  86 101  88 100
M  END
> <chiral flag>
0

> <version>
0

> <s_m_source_file>
/data/baiqing/PycharmProjects/Reinvent-master-3.2/result/LINK_invent/BTK/process_docking_weight1_custom_product_contain_oxygen_bond_distance_aromatic_linkinvent_7_9_3/rearranged_h_0045.sdf

> <i_m_source_file_index>
62

> <r_mmod_Potential_Energy-OPLS-2005>
167.896377563477

> <r_mmod_Stretch_Energy-OPLS-2005>
75.1137466430664

> <r_mmod_Bend_Energy-OPLS-2005>
192.803314208984

> <r_mmod_Torsional_Energy-OPLS-2005>
284.87646484375

> <r_mmod_Improper_Torsional_Energy-OPLS-2005>
10.7215700149536

> <r_mmod_Van_der_Waal_Energy-OPLS-2005>
159.375854492188

> <r_mmod_Electrostatic_Energy-OPLS-2005>
-397.465515136719

> <r_mmod_Solvation_Energy-OPLS-2005>
-200.691024780273

> <b_mmod_Minimization_Converged-OPLS-2005>
0

> <r_mmod_RMS_Derivative-OPLS-2005>
3.47829103469849

$$$$
62
                    3D
 Structure written by MMmdl.
156164  0  0  1  0            999 V2000
  -30.5883  -14.6640   20.4893 C   0  0  0  0  0  0
  -30.4454  -12.4048   19.4458 C   0  0  0  0  0  0
  -29.5089  -12.5131   18.2199 C   0  0  0  0  0  0
  -28.0305  -12.3460   18.6309 C   0  0  0  0  0  0
  -27.6522  -13.2112   19.8621 C   0  0  2  0  0  0
  -28.7008  -13.0544   20.9876 C   0  0  0  0  0  0
  -25.2549  -13.8138   20.5688 C   0  0  0  0  0  0
  -24.1818  -13.0408   20.9198 C   0  0  0  0  0  0
  -24.6384  -11.6880   20.8735 C   0  0  0  0  0  0
  -23.9046  -10.4275   21.0404 C   0  0  0  0  0  0
  -24.3607   -9.4195   21.9182 C   0  0  0  0  0  0
  -23.6291   -8.2230   22.0743 C   0  0  0  0  0  0
  -22.4270   -8.0271   21.3539 C   0  0  0  0  0  0
  -21.9904   -9.0237   20.4638 C   0  0  0  0  0  0
  -22.7221  -10.2120   20.3050 C   0  0  0  0  0  0
  -21.6846   -6.0730   22.5281 C   0  0  0  0  0  0
  -21.4011   -6.5636   23.8214 C   0  0  0  0  0  0
  -21.3663   -5.6793   24.9179 C   0  0  0  0  0  0
  -21.6044   -4.3053   24.7230 C   0  0  0  0  0  0
  -21.8819   -3.8143   23.4350 C   0  0  0  0  0  0
  -21.9191   -4.6961   22.3407 C   0  0  0  0  0  0
  -22.7845  -13.5207   21.1870 C   0  0  0  0  0  0
  -22.1660   -4.2143   21.0984 F   0  0  0  0  0  0
  -21.5632   -3.4538   25.7743 F   0  0  0  0  0  0
  -30.0128  -13.4190   20.4267 N   0  0  0  0  0  0
  -26.2979  -12.9314   20.3310 N   0  0  0  0  0  0
  -25.9309  -11.6472   20.5746 N   0  0  0  0  0  0
  -22.0491  -12.8201   22.0429 N   0  0  0  0  0  0
  -25.4248  -15.1856   20.4104 N   0  0  0  0  0  0
  -31.7537  -14.8553   20.1279 O   0  0  0  0  0  0
  -21.6633   -6.8868   21.4238 O   0  0  0  0  0  0
  -22.3539  -14.5521   20.6722 O   0  0  0  0  0  0
  -24.6246  -31.8603   23.2004 C   0  0  0  0  0  0
  -25.9085  -32.4780   23.8350 C   0  0  1  0  0  0
  -27.2365  -27.3150   20.1316 C   0  0  0  0  0  0
  -25.5897  -33.8582   24.2281 N   0  0  0  0  0  0
  -23.4220  -30.4802   21.5411 C   0  0  2  0  0  0
  -24.8722  -28.9204   20.1234 C   0  0  0  0  0  0
  -22.7471  -29.4629   22.4917 C   0  0  0  0  0  0
  -18.0296  -28.1404   22.8509 C   0  0  0  0  0  0
  -24.1483  -36.7295   23.2643 C   0  0  0  0  0  0
  -25.9618  -30.7849   21.3750 C   0  0  0  0  0  0
  -26.0365  -29.4046   20.7335 C   0  0  0  0  0  0
  -27.2216  -28.6105   20.7326 C   0  0  0  0  0  0
  -26.0516  -26.8722   19.5100 C   0  0  0  0  0  0
  -24.8779  -27.6560   19.5082 C   0  0  0  0  0  0
  -23.6440  -29.8085   20.1592 C   0  0  0  0  0  0
  -25.4102  -36.3081   24.0334 C   0  0  1  0  0  0
  -20.5896  -28.3696   23.1293 C   0  0  2  0  0  0
  -20.6781  -26.9414   22.5418 C   0  0  0  0  0  0
  -19.5753  -26.6407   21.5219 C   0  0  0  0  0  0
  -18.1933  -26.7956   22.1634 C   0  0  0  0  0  0
  -19.1552  -28.8865   23.2908 C   0  0  0  0  0  0
  -18.9473  -30.1471   23.8914 C   0  0  0  0  0  0
  -17.6476  -30.6602   24.0586 C   0  0  0  0  0  0
  -25.9042  -34.9455   23.5112 C   0  0  0  0  0  0
  -16.5364  -29.9112   23.6330 C   0  0  0  0  0  0
  -16.7287  -28.6534   23.0341 C   0  0  0  0  0  0
  -26.4468  -31.6585   25.0717 C   0  0  0  0  0  0
  -25.3709  -31.3748   26.1451 C   0  0  0  0  0  0
  -27.0280  -30.3000   24.6157 C   0  0  0  0  0  0
  -27.6034  -32.4305   25.7487 C   0  0  0  0  0  0
  -27.5580  -37.1799   24.8465 C   0  0  0  0  0  0
  -21.4183  -29.3061   22.3679 N   0  0  0  0  0  0
  -26.4286  -37.3771   23.9418 N   0  0  0  0  0  0
  -24.6880  -31.0608   22.0956 N   0  0  0  0  0  0
  -23.4187  -28.8168   23.3000 O   0  0  0  0  0  0
  -28.3858  -26.5219   20.0365 O   0  0  0  0  0  0
  -26.5619  -34.8927   22.4682 O   0  0  0  0  0  0
  -23.5403  -32.1396   23.7327 O   0  0  0  0  0  0
  -28.2680  -19.0741   19.9448 C   0  0  0  0  0  0
  -28.4951  -17.6728   20.0215 C   0  0  0  0  0  0
  -30.6350  -18.0776   21.0119 C   0  0  0  0  0  0
  -29.1804  -20.0499   20.4242 C   0  0  0  0  0  0
  -30.3993  -19.5004   20.9590 C   0  0  0  0  0  0
  -29.6778  -17.1236   20.5685 C   0  0  0  0  0  0
  -28.6724  -21.5057   20.3495 C   0  0  0  0  0  0
  -29.1713  -22.7158   19.9187 C   0  0  0  0  0  0
  -31.4481  -20.3795   21.6157 C   0  0  0  0  0  0
  -29.5035  -25.1892   21.5989 C   0  0  0  0  0  0
  -28.3874  -24.0820   19.7134 C   0  0  0  0  0  0
  -29.7202  -15.6773   20.8117 N   0  0  0  0  0  0
  -28.3339  -25.1868   20.7328 N   0  0  0  0  0  0
  -30.7616  -22.8741   19.2600 Cl  0  0  0  0  0  0
  -31.4844  -12.5453   19.1439 H   0  0  0  0  0  0
  -30.3931  -11.4067   19.8841 H   0  0  0  0  0  0
  -29.7762  -11.7638   17.4732 H   0  0  0  0  0  0
  -29.6448  -13.4840   17.7403 H   0  0  0  0  0  0
  -27.8674  -11.2913   18.8574 H   0  0  0  0  0  0
  -27.3760  -12.5794   17.7899 H   0  0  0  0  0  0
  -27.6689  -14.2468   19.5229 H   0  0  0  0  0  0
  -28.7199  -12.0239   21.3472 H   0  0  0  0  0  0
  -28.4444  -13.6636   21.8556 H   0  0  0  0  0  0
  -25.2754   -9.5676   22.4749 H   0  0  0  0  0  0
  -24.0003   -7.4618   22.7457 H   0  0  0  0  0  0
  -21.0835   -8.8747   19.8942 H   0  0  0  0  0  0
  -22.3679  -10.9656   19.6156 H   0  0  0  0  0  0
  -21.1997   -7.6143   23.9717 H   0  0  0  0  0  0
  -21.1490   -6.0523   25.9084 H   0  0  0  0  0  0
  -22.0594   -2.7602   23.2854 H   0  0  0  0  0  0
  -22.4121  -11.9860   22.4802 H   0  0  0  0  0  0
  -21.1108  -13.1214   22.2634 H   0  0  0  0  0  0
  -24.6538  -15.8358   20.5187 H   0  0  0  0  0  0
  -26.2635  -15.6224   20.0553 H   0  0  0  0  0  0
  -26.7140  -32.5453   23.1095 H   0  0  0  0  0  0
  -25.0016  -33.9723   25.0400 H   0  0  0  0  0  0
  -22.7181  -31.3012   21.3910 H   0  0  0  0  0  0
  -23.3741  -35.9629   23.3294 H   0  0  0  0  0  0
  -24.3593  -36.8923   22.2063 H   0  0  0  0  0  0
  -23.7234  -37.6502   23.6662 H   0  0  0  0  0  0
  -26.0891  -31.5361   20.5952 H   0  0  0  0  0  0
  -26.8446  -30.8451   21.9990 H   0  0  0  0  0  0
  -28.1252  -28.9873   21.1905 H   0  0  0  0  0  0
  -26.0388  -25.9089   19.0203 H   0  0  0  0  0  0
  -23.9830  -27.2818   19.0291 H   0  0  0  0  0  0
  -23.7796  -30.5836   19.4038 H   0  0  0  0  0  0
  -22.7634  -29.2453   19.8477 H   0  0  0  0  0  0
  -25.1276  -36.1932   25.0822 H   0  0  0  0  0  0
  -21.0006  -28.3264   24.1409 H   0  0  0  0  0  0
  -20.5676  -26.2296   23.3616 H   0  0  0  0  0  0
  -21.6646  -26.7443   22.1205 H   0  0  0  0  0  0
  -19.6898  -25.6321   21.1235 H   0  0  0  0  0  0
  -19.6686  -27.3236   20.6762 H   0  0  0  0  0  0
  -17.4201  -26.6723   21.4033 H   0  0  0  0  0  0
  -18.0323  -26.0098   22.9028 H   0  0  0  0  0  0
  -19.7946  -30.7302   24.2266 H   0  0  0  0  0  0
  -17.5027  -31.6274   24.5207 H   0  0  0  0  0  0
  -15.5364  -30.3024   23.7648 H   0  0  0  0  0  0
  -15.8689  -28.0875   22.7011 H   0  0  0  0  0  0
  -24.5900  -30.7058   25.7817 H   0  0  0  0  0  0
  -24.8876  -32.2925   26.4823 H   0  0  0  0  0  0
  -25.8049  -30.9000   27.0257 H   0  0  0  0  0  0
  -26.2835  -29.6793   24.1159 H   0  0  0  0  0  0
  -27.3951  -29.7217   25.4647 H   0  0  0  0  0  0
  -27.8722  -30.4279   23.9371 H   0  0  0  0  0  0
  -27.2645  -33.3599   26.2066 H   0  0  0  0  0  0
  -28.3850  -32.6862   25.0323 H   0  0  0  0  0  0
  -28.0678  -31.8422   26.5412 H   0  0  0  0  0  0
  -28.2583  -38.0114   24.7518 H   0  0  0  0  0  0
  -28.1093  -36.2647   24.6255 H   0  0  0  0  0  0
  -27.2325  -37.1408   25.8880 H   0  0  0  0  0  0
  -20.9336  -29.8797   21.6917 H   0  0  0  0  0  0
  -26.0169  -38.2844   24.1429 H   0  0  0  0  0  0
  -27.3244  -19.4039   19.5332 H   0  0  0  0  0  0
  -27.7135  -17.0148   19.6735 H   0  0  0  0  0  0
  -31.5404  -17.7119   21.4761 H   0  0  0  0  0  0
  -27.6506  -21.5801   20.6963 H   0  0  0  0  0  0
  -32.4287  -19.9025   21.5875 H   0  0  0  0  0  0
  -31.1886  -20.5443   22.6614 H   0  0  0  0  0  0
  -31.5555  -21.3474   21.1434 H   0  0  0  0  0  0
  -30.4225  -25.3058   21.0232 H   0  0  0  0  0  0
  -29.5684  -24.2622   22.1704 H   0  0  0  0  0  0
  -29.4430  -26.0125   22.3124 H   0  0  0  0  0  0
  -27.3572  -23.8278   19.4619 H   0  0  0  0  0  0
  -28.7919  -24.5168   18.7973 H   0  0  0  0  0  0
  -28.8185  -15.2912   21.0433 H   0  0  0  0  0  0
  1 25  1  0  0  0
  1 30  2  0  0  0
  1 82  1  0  0  0
  2  3  1  0  0  0
  2 25  1  0  0  0
  2 85  1  0  0  0
  2 86  1  0  0  0
  3  4  1  0  0  0
  3 87  1  0  0  0
  3 88  1  0  0  0
  4  5  1  0  0  0
  4 89  1  0  0  0
  4 90  1  0  0  0
  5  6  1  0  0  0
  5 26  1  0  0  0
  5 91  1  0  0  0
  6 25  1  0  0  0
  6 92  1  0  0  0
  6 93  1  0  0  0
  7  8  2  0  0  0
  7 26  1  0  0  0
  7 29  1  0  0  0
  8  9  1  0  0  0
  8 22  1  0  0  0
  9 10  1  0  0  0
  9 27  2  0  0  0
 10 11  2  0  0  0
 10 15  1  0  0  0
 11 12  1  0  0  0
 11 94  1  0  0  0
 12 13  2  0  0  0
 12 95  1  0  0  0
 13 14  1  0  0  0
 13 31  1  0  0  0
 14 15  2  0  0  0
 14 96  1  0  0  0
 15 97  1  0  0  0
 16 17  2  0  0  0
 16 21  1  0  0  0
 16 31  1  0  0  0
 17 18  1  0  0  0
 17 98  1  0  0  0
 18 19  2  0  0  0
 18 99  1  0  0  0
 19 20  1  0  0  0
 19 24  1  0  0  0
 20 21  2  0  0  0
 20100  1  0  0  0
 21 23  1  0  0  0
 22 28  1  0  0  0
 22 32  2  0  0  0
 26 27  1  0  0  0
 28101  1  0  0  0
 28102  1  0  0  0
 29103  1  0  0  0
 29104  1  0  0  0
 33 34  1  0  0  0
 33 66  1  0  0  0
 33 70  2  0  0  0
 34 36  1  0  0  0
 34 59  1  0  0  0
 34105  1  0  0  0
 35 44  2  0  0  0
 35 45  1  0  0  0
 35 68  1  0  0  0
 36 56  1  0  0  0
 36106  1  0  0  0
 37 39  1  0  0  0
 37 47  1  0  0  0
 37 66  1  0  0  0
 37107  1  0  0  0
 38 43  2  0  0  0
 38 46  1  0  0  0
 38 47  1  0  0  0
 39 64  1  0  0  0
 39 67  2  0  0  0
 40 52  1  0  0  0
 40 53  2  0  0  0
 40 58  1  0  0  0
 41108  1  0  0  0
 41109  1  0  0  0
 41110  1  0  0  0
 41 48  1  0  0  0
 42 43  1  0  0  0
 42 66  1  0  0  0
 42111  1  0  0  0
 42112  1  0  0  0
 43 44  1  0  0  0
 44113  1  0  0  0
 45 46  2  0  0  0
 45114  1  0  0  0
 46115  1  0  0  0
 47116  1  0  0  0
 47117  1  0  0  0
 48 56  1  0  0  0
 48 65  1  0  0  0
 48118  1  0  0  0
 49 50  1  0  0  0
 49 53  1  0  0  0
 49 64  1  0  0  0
 49119  1  0  0  0
 50 51  1  0  0  0
 50120  1  0  0  0
 50121  1  0  0  0
 51 52  1  0  0  0
 51122  1  0  0  0
 51123  1  0  0  0
 52124  1  0  0  0
 52125  1  0  0  0
 53 54  1  0  0  0
 54 55  2  0  0  0
 54126  1  0  0  0
 55 57  1  0  0  0
 55127  1  0  0  0
 56 69  2  0  0  0
 57 58  2  0  0  0
 57128  1  0  0  0
 58129  1  0  0  0
 59 60  1  0  0  0
 59 61  1  0  0  0
 59 62  1  0  0  0
 60130  1  0  0  0
 60131  1  0  0  0
 60132  1  0  0  0
 61133  1  0  0  0
 61134  1  0  0  0
 61135  1  0  0  0
 62136  1  0  0  0
 62137  1  0  0  0
 62138  1  0  0  0
 63 65  1  0  0  0
 63139  1  0  0  0
 63140  1  0  0  0
 63141  1  0  0  0
 64142  1  0  0  0
 65143  1  0  0  0
 68 83  1  0  0  0
 71 72  2  0  0  0
 71 74  1  0  0  0
 71144  1  0  0  0
 72 76  1  0  0  0
 72145  1  0  0  0
 73 75  1  0  0  0
 73 76  2  0  0  0
 73146  1  0  0  0
 74 75  2  0  0  0
 74 77  1  0  0  0
 75 79  1  0  0  0
 76 82  1  0  0  0
 77 78  2  0  0  0
 77147  1  0  0  0
 78 81  1  0  0  0
 78 84  1  0  0  0
 79148  1  0  0  0
 79149  1  0  0  0
 79150  1  0  0  0
 80 83  1  0  0  0
 80151  1  0  0  0
 80152  1  0  0  0
 80153  1  0  0  0
 81 83  1  0  0  0
 81154  1  0  0  0
 81155  1  0  0  0
 82156  1  0  0  0
M  ISO  4   1 100  68 101  82 100  83 101
M  END
> <chiral flag>
0

> <version>
0

> <s_m_source_file>
/data/baiqing/PycharmProjects/Reinvent-master-3.2/result/LINK_invent/BTK/process_docking_weight1_custom_product_contain_oxygen_bond_distance_aromatic_linkinvent_7_9_3/rearranged_h_0045.sdf

> <i_m_source_file_index>
63

> <r_mmod_Potential_Energy-OPLS-2005>
149.741363525391

> <r_mmod_Stretch_Energy-OPLS-2005>
88.8214721679688

> <r_mmod_Bend_Energy-OPLS-2005>
176.68049621582

> <r_mmod_Torsional_Energy-OPLS-2005>
261.068908691406

> <r_mmod_Improper_Torsional_Energy-OPLS-2005>
9.83957481384277

> <r_mmod_Van_der_Waal_Energy-OPLS-2005>
133.111053466797

> <r_mmod_Electrostatic_Energy-OPLS-2005>
-356.296325683594

> <r_mmod_Solvation_Energy-OPLS-2005>
-213.069305419922

> <b_mmod_Minimization_Converged-OPLS-2005>
0

> <r_mmod_RMS_Derivative-OPLS-2005>
1.81485569477081

$$$$
63
                    3D
 Structure written by MMmdl.
159167  0  0  1  0            999 V2000
  -31.7018  -14.6362   20.0589 C   0  0  0  0  0  0
  -30.3941  -12.4587   20.0467 C   0  0  0  0  0  0
  -29.0598  -11.8900   18.9688 C   0  0  0  0  0  0
  -27.5447  -12.6718   18.4356 C   0  0  0  0  0  0
  -26.9347  -14.2807   19.1815 C   0  0  2  0  0  0
  -29.7098  -15.3212   20.8972 C   0  0  0  0  0  0
  -24.8290  -14.0677   20.4776 C   0  0  0  0  0  0
  -23.9819  -13.1302   20.9529 C   0  0  0  0  0  0
  -24.5884  -11.8423   20.8261 C   0  0  0  0  0  0
  -23.9514  -10.4977   21.0015 C   0  0  0  0  0  0
  -24.4030   -9.4861   21.8890 C   0  0  0  0  0  0
  -23.6730   -8.2787   22.0603 C   0  0  0  0  0  0
  -22.4666   -8.0611   21.3542 C   0  0  0  0  0  0
  -22.0373   -9.0438   20.4478 C   0  0  0  0  0  0
  -22.7673  -10.2342   20.2684 C   0  0  0  0  0  0
  -21.7095   -6.0918   22.5340 C   0  0  0  0  0  0
  -21.4201   -6.5703   23.8327 C   0  0  0  0  0  0
  -21.3735   -5.6780   24.9187 C   0  0  0  0  0  0
  -21.6031   -4.3060   24.7184 C   0  0  0  0  0  0
  -21.8765   -3.8195   23.4281 C   0  0  0  0  0  0
  -21.9246   -4.7096   22.3362 C   0  0  0  0  0  0
  -22.5829  -13.4840   21.2703 C   0  0  0  0  0  0
  -22.1632   -4.2293   21.0961 F   0  0  0  0  0  0
  -21.5593   -3.4486   25.7681 F   0  0  0  0  0  0
  -30.7292  -13.9877   20.6952 N   0  0  0  0  0  0
  -25.8605  -13.4293   19.9492 N   0  0  0  0  0  0
  -25.8260  -12.0574   20.3371 N   0  0  0  0  0  0
  -21.9408  -12.7298   22.1482 N   0  0  0  0  0  0
  -24.7651  -15.4363   20.3236 N   0  0  0  0  0  0
  -32.8179  -14.3883   20.3631 O   0  0  0  0  0  0
  -21.7001   -6.9121   21.4333 O   0  0  0  0  0  0
  -22.0813  -14.4857   20.7617 O   0  0  0  0  0  0
  -24.6816  -31.8027   23.1584 C   0  0  0  0  0  0
  -25.9449  -32.4435   23.8101 C   0  0  1  0  0  0
  -27.0052  -26.6333   20.2946 C   0  0  0  0  0  0
  -25.6040  -33.8279   24.1992 N   0  0  0  0  0  0
  -23.4948  -30.4251   21.5164 C   0  0  2  0  0  0
  -24.9115  -28.7715   20.1126 C   0  0  0  0  0  0
  -22.7704  -29.4381   22.4753 C   0  0  0  0  0  0
  -18.0338  -28.1392   22.8466 C   0  0  0  0  0  0
  -24.1502  -36.7134   23.2658 C   0  0  0  0  0  0
  -26.0748  -30.5198   21.4229 C   0  0  0  0  0  0
  -26.0998  -29.0805   20.7814 C   0  0  0  0  0  0
  -27.1564  -28.0380   20.8286 C   0  0  0  0  0  0
  -25.8348  -26.5505   19.5234 C   0  0  0  0  0  0
  -24.8265  -27.5445   19.4397 C   0  0  0  0  0  0
  -23.7343  -29.7457   20.1387 C   0  0  0  0  0  0
  -25.4148  -36.2896   24.0310 C   0  0  1  0  0  0
  -20.5946  -28.3754   23.1164 C   0  0  2  0  0  0
  -20.6799  -26.9435   22.5388 C   0  0  0  0  0  0
  -19.5765  -26.6371   21.5210 C   0  0  0  0  0  0
  -18.1959  -26.7928   22.1625 C   0  0  0  0  0  0
  -19.1590  -28.8913   23.2789 C   0  0  0  0  0  0
  -18.9502  -30.1502   23.8843 C   0  0  0  0  0  0
  -17.6486  -30.6591   24.0559 C   0  0  0  0  0  0
  -25.9141  -34.9263   23.4979 C   0  0  0  0  0  0
  -16.5387  -29.9083   23.6318 C   0  0  0  0  0  0
  -16.7321  -28.6486   23.0377 C   0  0  0  0  0  0
  -26.4611  -31.6423   25.0682 C   0  0  0  0  0  0
  -25.3685  -31.3696   26.1284 C   0  0  0  0  0  0
  -27.0505  -30.2762   24.6535 C   0  0  0  0  0  0
  -27.6107  -32.4231   25.7463 C   0  0  0  0  0  0
  -27.5561  -37.1721   24.8477 C   0  0  0  0  0  0
  -21.4377  -29.3017   22.3470 N   0  0  0  0  0  0
  -26.4271  -37.3652   23.9425 N   0  0  0  0  0  0
  -24.7771  -30.9512   22.0835 N   0  0  0  0  0  0
  -23.4176  -28.7935   23.3039 O   0  0  0  0  0  0
  -27.8212  -25.3315   20.3428 O   0  0  0  0  0  0
  -26.5749  -34.8835   22.4581 O   0  0  0  0  0  0
  -23.5867  -32.1169   23.6565 O   0  0  0  0  0  0
  -29.0964  -14.3577   19.0288 C   0  0  0  0  0  0
  -28.2009  -13.8075   20.8340 C   0  0  0  0  0  0
  -28.2718  -16.8393   19.2413 C   0  0  0  0  0  0
  -27.5723  -16.8658   20.5518 C   0  0  0  0  0  0
  -29.0389  -15.7571   18.5675 C   0  0  0  0  0  0
  -27.4215  -15.3511   21.3177 C   0  0  0  0  0  0
  -27.1514  -18.6025   20.8517 C   0  0  0  0  0  0
  -26.7377  -15.3721   22.6757 C   0  0  0  0  0  0
  -30.4569  -16.0376   18.0825 C   0  0  0  0  0  0
  -27.1634  -21.8053   20.2930 C   0  0  0  0  0  0
  -27.5326  -23.6438   20.8293 C   0  0  0  0  0  0
  -26.0174  -18.7350   21.5405 N   0  0  0  0  0  0
  -31.5410  -15.5613   19.0309 N   0  0  0  0  0  0
  -27.6444  -20.0683   20.5458 N   0  3  0  0  0  0
  -31.3260  -12.1119   19.5998 H   0  0  0  0  0  0
  -30.3206  -11.8462   20.9427 H   0  0  0  0  0  0
  -28.7295  -10.9673   19.4483 H   0  0  0  0  0  0
  -29.5401  -11.5257   18.0576 H   0  0  0  0  0  0
  -26.7796  -11.9320   18.1724 H   0  0  0  0  0  0
  -27.7718  -12.9657   17.4042 H   0  0  0  0  0  0
  -26.4774  -14.9512   18.4385 H   0  0  0  0  0  0
  -29.6628  -15.3588   22.0003 H   0  0  0  0  0  0
  -30.1084  -16.3355   20.7756 H   0  0  0  0  0  0
  -25.3157   -9.6442   22.4482 H   0  0  0  0  0  0
  -24.0445   -7.5271   22.7430 H   0  0  0  0  0  0
  -21.1323   -8.8811   19.8813 H   0  0  0  0  0  0
  -22.4005  -10.9642   19.5612 H   0  0  0  0  0  0
  -21.2263   -7.6224   23.9882 H   0  0  0  0  0  0
  -21.1594   -6.0465   25.9124 H   0  0  0  0  0  0
  -22.0442   -2.7686   23.2693 H   0  0  0  0  0  0
  -22.3932  -11.9323   22.5701 H   0  0  0  0  0  0
  -20.9918  -12.9574   22.4081 H   0  0  0  0  0  0
  -24.3535  -15.8552   21.1424 H   0  0  0  0  0  0
  -24.0245  -15.5739   19.6403 H   0  0  0  0  0  0
  -26.7465  -32.4866   23.0743 H   0  0  0  0  0  0
  -25.0123  -33.9302   25.0109 H   0  0  0  0  0  0
  -22.8221  -31.2654   21.3445 H   0  0  0  0  0  0
  -23.3784  -35.9435   23.3276 H   0  0  0  0  0  0
  -24.3587  -36.8836   22.2074 H   0  0  0  0  0  0
  -23.7216  -37.6293   23.6758 H   0  0  0  0  0  0
  -26.2892  -31.2355   20.6278 H   0  0  0  0  0  0
  -26.9287  -30.5712   22.0864 H   0  0  0  0  0  0
  -28.0578  -28.2700   21.3813 H   0  0  0  0  0  0
  -25.6451  -25.6212   19.0075 H   0  0  0  0  0  0
  -23.9387  -27.3186   18.8718 H   0  0  0  0  0  0
  -23.9289  -30.5130   19.3885 H   0  0  0  0  0  0
  -22.8295  -29.2351   19.8038 H   0  0  0  0  0  0
  -25.1345  -36.1671   25.0802 H   0  0  0  0  0  0
  -21.0062  -28.3382   24.1279 H   0  0  0  0  0  0
  -20.5672  -26.2395   23.3640 H   0  0  0  0  0  0
  -21.6661  -26.7383   22.1188 H   0  0  0  0  0  0
  -19.6910  -25.6273   21.1265 H   0  0  0  0  0  0
  -19.6679  -27.3163   20.6725 H   0  0  0  0  0  0
  -17.4208  -26.6682   21.4047 H   0  0  0  0  0  0
  -18.0355  -26.0094   22.9042 H   0  0  0  0  0  0
  -19.8001  -30.7327   24.2184 H   0  0  0  0  0  0
  -17.5059  -31.6277   24.5170 H   0  0  0  0  0  0
  -15.5387  -30.2967   23.7704 H   0  0  0  0  0  0
  -15.8720  -28.0794   22.7132 H   0  0  0  0  0  0
  -24.5905  -30.7014   25.7543 H   0  0  0  0  0  0
  -24.8825  -32.2887   26.4567 H   0  0  0  0  0  0
  -25.7869  -30.8923   27.0149 H   0  0  0  0  0  0
  -26.3179  -29.6359   24.1586 H   0  0  0  0  0  0
  -27.3965  -29.7193   25.5244 H   0  0  0  0  0  0
  -27.9187  -30.3858   24.0030 H   0  0  0  0  0  0
  -27.2693  -33.3562   26.1939 H   0  0  0  0  0  0
  -28.3951  -32.6705   25.0302 H   0  0  0  0  0  0
  -28.0724  -31.8408   26.5436 H   0  0  0  0  0  0
  -28.2556  -38.0034   24.7531 H   0  0  0  0  0  0
  -28.1080  -36.2559   24.6320 H   0  0  0  0  0  0
  -27.2276  -37.1372   25.8877 H   0  0  0  0  0  0
  -20.9683  -29.8707   21.6566 H   0  0  0  0  0  0
  -26.0103  -38.2704   24.1451 H   0  0  0  0  0  0
  -29.7485  -13.8528   18.3254 H   0  0  0  0  0  0
  -28.1821  -12.8644   21.3570 H   0  0  0  0  0  0
  -28.4191  -17.8184   18.7919 H   0  0  0  0  0  0
  -27.4809  -15.2702   23.4634 H   0  0  0  0  0  0
  -26.0004  -14.5752   22.7721 H   0  0  0  0  0  0
  -26.2263  -16.3205   22.8324 H   0  0  0  0  0  0
  -30.6299  -15.5033   17.1493 H   0  0  0  0  0  0
  -30.5766  -17.0995   17.8440 H   0  0  0  0  0  0
  -27.2692  -21.8965   19.2092 H   0  0  0  0  0  0
  -26.0796  -21.7523   20.4210 H   0  0  0  0  0  0
  -28.3741  -23.5065   21.5064 H   0  0  0  0  0  0
  -26.7057  -23.8112   21.5259 H   0  0  0  0  0  0
  -25.6780  -19.6426   21.8048 H   0  0  0  0  0  0
  -25.5533  -17.9154   21.9000 H   0  0  0  0  0  0
  -32.4383  -15.9654   18.7964 H   0  0  0  0  0  0
  -28.5936  -20.0014   20.1855 H   0  0  0  0  0  0
  1 25  1  0  0  0
  1 30  2  0  0  0
  1 83  1  0  0  0
  2  3  1  0  0  0
  2 25  1  0  0  0
  2 85  1  0  0  0
  2 86  1  0  0  0
  3  4  1  0  0  0
  3 87  1  0  0  0
  3 88  1  0  0  0
  4  5  1  0  0  0
  4 89  1  0  0  0
  4 90  1  0  0  0
  5  6  1  0  0  0
  5 26  1  0  0  0
  5 91  1  0  0  0
  6 25  1  0  0  0
  6 92  1  0  0  0
  6 93  1  0  0  0
  7  8  2  0  0  0
  7 26  1  0  0  0
  7 29  1  0  0  0
  8  9  1  0  0  0
  8 22  1  0  0  0
  9 10  1  0  0  0
  9 27  2  0  0  0
 10 11  2  0  0  0
 10 15  1  0  0  0
 11 12  1  0  0  0
 11 94  1  0  0  0
 12 13  2  0  0  0
 12 95  1  0  0  0
 13 14  1  0  0  0
 13 31  1  0  0  0
 14 15  2  0  0  0
 14 96  1  0  0  0
 15 97  1  0  0  0
 16 17  2  0  0  0
 16 21  1  0  0  0
 16 31  1  0  0  0
 17 18  1  0  0  0
 17 98  1  0  0  0
 18 19  2  0  0  0
 18 99  1  0  0  0
 19 20  1  0  0  0
 19 24  1  0  0  0
 20 21  2  0  0  0
 20100  1  0  0  0
 21 23  1  0  0  0
 22 28  1  0  0  0
 22 32  2  0  0  0
 26 27  1  0  0  0
 28101  1  0  0  0
 28102  1  0  0  0
 29103  1  0  0  0
 29104  1  0  0  0
 33 34  1  0  0  0
 33 66  1  0  0  0
 33 70  2  0  0  0
 34 36  1  0  0  0
 34 59  1  0  0  0
 34105  1  0  0  0
 35 44  2  0  0  0
 35 45  1  0  0  0
 35 68  1  0  0  0
 36 56  1  0  0  0
 36106  1  0  0  0
 37 39  1  0  0  0
 37 47  1  0  0  0
 37 66  1  0  0  0
 37107  1  0  0  0
 38 43  2  0  0  0
 38 46  1  0  0  0
 38 47  1  0  0  0
 39 64  1  0  0  0
 39 67  2  0  0  0
 40 52  1  0  0  0
 40 53  2  0  0  0
 40 58  1  0  0  0
 41108  1  0  0  0
 41109  1  0  0  0
 41110  1  0  0  0
 41 48  1  0  0  0
 42 43  1  0  0  0
 42 66  1  0  0  0
 42111  1  0  0  0
 42112  1  0  0  0
 43 44  1  0  0  0
 44113  1  0  0  0
 45 46  2  0  0  0
 45114  1  0  0  0
 46115  1  0  0  0
 47116  1  0  0  0
 47117  1  0  0  0
 48 56  1  0  0  0
 48 65  1  0  0  0
 48118  1  0  0  0
 49 50  1  0  0  0
 49 53  1  0  0  0
 49 64  1  0  0  0
 49119  1  0  0  0
 50 51  1  0  0  0
 50120  1  0  0  0
 50121  1  0  0  0
 51 52  1  0  0  0
 51122  1  0  0  0
 51123  1  0  0  0
 52124  1  0  0  0
 52125  1  0  0  0
 53 54  1  0  0  0
 54 55  2  0  0  0
 54126  1  0  0  0
 55 57  1  0  0  0
 55127  1  0  0  0
 56 69  2  0  0  0
 57 58  2  0  0  0
 57128  1  0  0  0
 58129  1  0  0  0
 59 60  1  0  0  0
 59 61  1  0  0  0
 59 62  1  0  0  0
 60130  1  0  0  0
 60131  1  0  0  0
 60132  1  0  0  0
 61133  1  0  0  0
 61134  1  0  0  0
 61135  1  0  0  0
 62136  1  0  0  0
 62137  1  0  0  0
 62138  1  0  0  0
 63 65  1  0  0  0
 63139  1  0  0  0
 63140  1  0  0  0
 63141  1  0  0  0
 64142  1  0  0  0
 65143  1  0  0  0
 68 81  1  0  0  0
 71 72  2  0  0  0
 71 75  1  0  0  0
 71144  1  0  0  0
 72 76  1  0  0  0
 72145  1  0  0  0
 73 74  1  0  0  0
 73 75  2  0  0  0
 73146  1  0  0  0
 74 76  2  0  0  0
 74 77  1  0  0  0
 75 79  1  0  0  0
 76 78  1  0  0  0
 77 82  1  0  0  0
 77 84  2  0  0  0
 78147  1  0  0  0
 78148  1  0  0  0
 78149  1  0  0  0
 79 83  1  0  0  0
 79150  1  0  0  0
 79151  1  0  0  0
 80 81  1  0  0  0
 80 84  1  0  0  0
 80152  1  0  0  0
 80153  1  0  0  0
 81154  1  0  0  0
 81155  1  0  0  0
 82156  1  0  0  0
 82157  1  0  0  0
 83158  1  0  0  0
 84159  1  0  0  0
M  CHG  1  84   1
M  ISO  4   1 100  68 101  81 101  83 100
M  END
> <chiral flag>
0

> <version>
0

> <s_m_source_file>
/data/baiqing/PycharmProjects/Reinvent-master-3.2/result/LINK_invent/BTK/process_docking_weight1_custom_product_contain_oxygen_bond_distance_aromatic_linkinvent_7_9_3/rearranged_h_0045.sdf

> <i_m_source_file_index>
64

> <r_mmod_Potential_Energy-OPLS-2005>
12611.25390625

> <r_mmod_Stretch_Energy-OPLS-2005>
7005.78759765625

> <r_mmod_Bend_Energy-OPLS-2005>
1044.20166015625

> <r_mmod_Torsional_Energy-OPLS-2005>
468.855865478516

> <r_mmod_Improper_Torsional_Energy-OPLS-2005>
29.8338623046875

> <r_mmod_Van_der_Waal_Energy-OPLS-2005>
2791.6298828125

> <r_mmod_Electrostatic_Energy-OPLS-2005>
-419.410705566406

> <r_mmod_Solvation_Energy-OPLS-2005>
-415.229888916016

> <b_mmod_Minimization_Converged-OPLS-2005>
0

> <r_mmod_RMS_Derivative-OPLS-2005>
19.0654258728027

$$$$
64
                    3D
 Structure written by MMmdl.
156164  0  0  1  0            999 V2000
  -30.6415  -14.7178   20.5097 C   0  0  0  0  0  0
  -30.4512  -12.4577   19.4615 C   0  0  0  0  0  0
  -29.5143  -12.5180   18.2340 C   0  0  0  0  0  0
  -28.0434  -12.3403   18.6554 C   0  0  0  0  0  0
  -27.6571  -13.2310   19.8650 C   0  0  2  0  0  0
  -28.7088  -13.1381   20.9945 C   0  0  0  0  0  0
  -25.2596  -13.8206   20.5724 C   0  0  0  0  0  0
  -24.1879  -13.0438   20.9197 C   0  0  0  0  0  0
  -24.6473  -11.6925   20.8750 C   0  0  0  0  0  0
  -23.9141  -10.4290   21.0400 C   0  0  0  0  0  0
  -24.3674   -9.4193   21.9193 C   0  0  0  0  0  0
  -23.6322   -8.2233   22.0738 C   0  0  0  0  0  0
  -22.4303   -8.0298   21.3520 C   0  0  0  0  0  0
  -21.9962   -9.0281   20.4621 C   0  0  0  0  0  0
  -22.7300  -10.2160   20.3039 C   0  0  0  0  0  0
  -21.6872   -6.0766   22.5281 C   0  0  0  0  0  0
  -21.4017   -6.5653   23.8220 C   0  0  0  0  0  0
  -21.3642   -5.6793   24.9172 C   0  0  0  0  0  0
  -21.6051   -4.3063   24.7216 C   0  0  0  0  0  0
  -21.8818   -3.8164   23.4332 C   0  0  0  0  0  0
  -21.9185   -4.6988   22.3390 C   0  0  0  0  0  0
  -22.7888  -13.5227   21.1808 C   0  0  0  0  0  0
  -22.1667   -4.2176   21.0966 F   0  0  0  0  0  0
  -21.5603   -3.4530   25.7722 F   0  0  0  0  0  0
  -30.0243  -13.4897   20.4267 N   0  0  0  0  0  0
  -26.3056  -12.9423   20.3387 N   0  0  0  0  0  0
  -25.9418  -11.6553   20.5808 N   0  0  0  0  0  0
  -22.0526  -12.8214   22.0368 N   0  0  0  0  0  0
  -25.4228  -15.1922   20.4137 N   0  0  0  0  0  0
  -31.7766  -14.8974   20.0521 O   0  0  0  0  0  0
  -21.6636   -6.8922   21.4248 O   0  0  0  0  0  0
  -22.3550  -14.5503   20.6628 O   0  0  0  0  0  0
  -24.6316  -31.8466   23.1968 C   0  0  0  0  0  0
  -25.9182  -32.4695   23.8282 C   0  0  1  0  0  0
  -27.2488  -27.3079   20.1249 C   0  0  0  0  0  0
  -25.5981  -33.8482   24.2171 N   0  0  0  0  0  0
  -23.4248  -30.4719   21.5387 C   0  0  2  0  0  0
  -24.8811  -28.9170   20.1173 C   0  0  0  0  0  0
  -22.7481  -29.4572   22.4855 C   0  0  0  0  0  0
  -18.0164  -28.1461   22.8471 C   0  0  0  0  0  0
  -24.1538  -36.7293   23.2622 C   0  0  0  0  0  0
  -25.9661  -30.7921   21.3538 C   0  0  0  0  0  0
  -26.0523  -29.4185   20.6944 C   0  0  0  0  0  0
  -27.2436  -28.6351   20.6678 C   0  0  0  0  0  0
  -26.0374  -26.8463   19.5554 C   0  0  0  0  0  0
  -24.8728  -27.6394   19.5372 C   0  0  0  0  0  0
  -23.6517  -29.8067   20.1616 C   0  0  0  0  0  0
  -25.4170  -36.2995   24.0273 C   0  0  1  0  0  0
  -20.5833  -28.3655   23.1033 C   0  0  2  0  0  0
  -20.6902  -26.9625   22.4485 C   0  0  0  0  0  0
  -19.5288  -26.6264   21.4984 C   0  0  0  0  0  0
  -18.1706  -26.7792   22.1970 C   0  0  0  0  0  0
  -19.1502  -28.8888   23.2760 C   0  0  0  0  0  0
  -18.9603  -30.1491   23.8862 C   0  0  0  0  0  0
  -17.6631  -30.6621   24.0845 C   0  0  0  0  0  0
  -25.9101  -34.9385   23.5009 C   0  0  0  0  0  0
  -16.5425  -29.9212   23.6625 C   0  0  0  0  0  0
  -16.7187  -28.6677   23.0459 C   0  0  0  0  0  0
  -26.4551  -31.6515   25.0665 C   0  0  0  0  0  0
  -25.3791  -31.3670   26.1390 C   0  0  0  0  0  0
  -27.0394  -30.2936   24.6105 C   0  0  0  0  0  0
  -27.6085  -32.4257   25.7460 C   0  0  0  0  0  0
  -27.5584  -37.1805   24.8449 C   0  0  0  0  0  0
  -21.4149  -29.3396   22.3974 N   0  0  0  0  0  0
  -26.4326  -37.3709   23.9376 N   0  0  0  0  0  0
  -24.6931  -31.0521   22.0895 N   0  0  0  0  0  0
  -23.4229  -28.7769   23.2628 O   0  0  0  0  0  0
  -28.3967  -26.4963   20.1946 O   0  0  0  0  0  0
  -26.5641  -34.8869   22.4567 O   0  0  0  0  0  0
  -23.5490  -32.1227   23.7318 O   0  0  0  0  0  0
  -30.2137  -19.5633   20.2002 C   0  0  0  0  0  0
  -30.4931  -18.1458   20.1359 C   0  0  0  0  0  0
  -29.2934  -20.1362   21.1337 C   0  0  0  0  0  0
  -29.8510  -17.2088   21.0131 C   0  0  0  0  0  0
  -28.7089  -19.1816   22.0417 C   0  0  0  0  0  0
  -28.9757  -17.7801   21.9636 C   0  0  0  0  0  0
  -28.9325  -21.6401   21.1681 C   0  0  0  0  0  0
  -28.5452  -24.7109   18.5128 C   0  0  0  0  0  0
  -29.4219  -24.1966   20.8602 C   0  0  0  0  0  0
  -28.3567  -25.0189   20.0075 C   0  0  1  0  0  0
  -27.8448  -22.0597   21.8039 N   0  0  0  0  0  0
  -29.8929  -15.7323   21.0302 N   0  0  0  0  0  0
  -29.6085  -22.6920   20.6107 N   0  3  0  0  0  0
  -27.6184  -19.6444   23.3164 Cl  0  0  0  0  0  0
  -28.1902  -16.7157   23.0967 Cl  0  0  0  0  0  0
  -31.4853  -12.6057   19.1487 H   0  0  0  0  0  0
  -30.4165  -11.4752   19.9284 H   0  0  0  0  0  0
  -29.7904  -11.7430   17.5170 H   0  0  0  0  0  0
  -29.6307  -13.4658   17.7127 H   0  0  0  0  0  0
  -27.9140  -11.2901   18.9175 H   0  0  0  0  0  0
  -27.3750  -12.5364   17.8145 H   0  0  0  0  0  0
  -27.6564  -14.2574   19.5023 H   0  0  0  0  0  0
  -28.7544  -12.1306   21.4014 H   0  0  0  0  0  0
  -28.4323  -13.7908   21.8261 H   0  0  0  0  0  0
  -25.2839   -9.5641   22.4763 H   0  0  0  0  0  0
  -24.0012   -7.4623   22.7469 H   0  0  0  0  0  0
  -21.0879   -8.8817   19.8947 H   0  0  0  0  0  0
  -22.3780  -10.9697   19.6120 H   0  0  0  0  0  0
  -21.2033   -7.6162   23.9732 H   0  0  0  0  0  0
  -21.1462   -6.0520   25.9082 H   0  0  0  0  0  0
  -22.0617   -2.7624   23.2806 H   0  0  0  0  0  0
  -22.4172  -11.9937   22.4847 H   0  0  0  0  0  0
  -21.1105  -13.1159   22.2530 H   0  0  0  0  0  0
  -24.6358  -15.8266   20.4984 H   0  0  0  0  0  0
  -26.2751  -15.6574   20.1291 H   0  0  0  0  0  0
  -26.7284  -32.5341   23.1053 H   0  0  0  0  0  0
  -25.0238  -33.9585   25.0367 H   0  0  0  0  0  0
  -22.7141  -31.2906   21.3933 H   0  0  0  0  0  0
  -23.3733  -35.9672   23.3261 H   0  0  0  0  0  0
  -24.3660  -36.8975   22.2055 H   0  0  0  0  0  0
  -23.7385  -37.6535   23.6678 H   0  0  0  0  0  0
  -26.0963  -31.5627   20.5943 H   0  0  0  0  0  0
  -26.8513  -30.8369   21.9804 H   0  0  0  0  0  0
  -28.1558  -29.0284   21.0932 H   0  0  0  0  0  0
  -25.9411  -25.8522   19.1446 H   0  0  0  0  0  0
  -23.9595  -27.2382   19.1118 H   0  0  0  0  0  0
  -23.8001  -30.5926   19.4154 H   0  0  0  0  0  0
  -22.7684  -29.2562   19.8427 H   0  0  0  0  0  0
  -25.1339  -36.1853   25.0761 H   0  0  0  0  0  0
  -20.9863  -28.2657   24.1153 H   0  0  0  0  0  0
  -20.7194  -26.2091   23.2321 H   0  0  0  0  0  0
  -21.6371  -26.8490   21.9199 H   0  0  0  0  0  0
  -19.6245  -25.5955   21.1457 H   0  0  0  0  0  0
  -19.5793  -27.2734   20.6230 H   0  0  0  0  0  0
  -17.3559  -26.5919   21.4942 H   0  0  0  0  0  0
  -18.0786  -26.0286   22.9824 H   0  0  0  0  0  0
  -19.8210  -30.7129   24.2283 H   0  0  0  0  0  0
  -17.5305  -31.6182   24.5765 H   0  0  0  0  0  0
  -15.5434  -30.3046   23.8360 H   0  0  0  0  0  0
  -15.8513  -28.0991   22.7453 H   0  0  0  0  0  0
  -24.5928  -30.7027   25.7744 H   0  0  0  0  0  0
  -24.8975  -32.2842   26.4801 H   0  0  0  0  0  0
  -25.8103  -30.8892   27.0190 H   0  0  0  0  0  0
  -26.2924  -29.6658   24.1199 H   0  0  0  0  0  0
  -27.4219  -29.7191   25.4562 H   0  0  0  0  0  0
  -27.8724  -30.4243   23.9177 H   0  0  0  0  0  0
  -27.2679  -33.3566   26.2005 H   0  0  0  0  0  0
  -28.3943  -32.6829   25.0318 H   0  0  0  0  0  0
  -28.0707  -31.8417   26.5444 H   0  0  0  0  0  0
  -28.2521  -38.0162   24.7447 H   0  0  0  0  0  0
  -28.1152  -36.2670   24.6309 H   0  0  0  0  0  0
  -27.2266  -37.1450   25.8838 H   0  0  0  0  0  0
  -20.9270  -30.0325   21.8477 H   0  0  0  0  0  0
  -26.0173  -38.2741   24.1438 H   0  0  0  0  0  0
  -30.7008  -20.2174   19.4856 H   0  0  0  0  0  0
  -31.1806  -17.8040   19.3785 H   0  0  0  0  0  0
  -28.5655  -23.6354   18.3350 H   0  0  0  0  0  0
  -29.4886  -25.1348   18.1498 H   0  0  0  0  0  0
  -27.7266  -25.0942   17.9075 H   0  0  0  0  0  0
  -29.1758  -24.3256   21.9160 H   0  0  0  0  0  0
  -30.3977  -24.6707   20.7391 H   0  0  0  0  0  0
  -27.3856  -24.6422   20.3464 H   0  0  0  0  0  0
  -27.4355  -21.4260   22.4774 H   0  0  0  0  0  0
  -27.6132  -23.0318   21.8938 H   0  0  0  0  0  0
  -29.0995  -15.3638   21.5341 H   0  0  0  0  0  0
  -30.4495  -22.4580   20.0896 H   0  0  0  0  0  0
  1 25  1  0  0  0
  1 30  2  0  0  0
  1 82  1  0  0  0
  2  3  1  0  0  0
  2 25  1  0  0  0
  2 86  1  0  0  0
  2 87  1  0  0  0
  3  4  1  0  0  0
  3 88  1  0  0  0
  3 89  1  0  0  0
  4  5  1  0  0  0
  4 90  1  0  0  0
  4 91  1  0  0  0
  5  6  1  0  0  0
  5 26  1  0  0  0
  5 92  1  0  0  0
  6 25  1  0  0  0
  6 93  1  0  0  0
  6 94  1  0  0  0
  7  8  2  0  0  0
  7 26  1  0  0  0
  7 29  1  0  0  0
  8  9  1  0  0  0
  8 22  1  0  0  0
  9 10  1  0  0  0
  9 27  2  0  0  0
 10 11  2  0  0  0
 10 15  1  0  0  0
 11 12  1  0  0  0
 11 95  1  0  0  0
 12 13  2  0  0  0
 12 96  1  0  0  0
 13 14  1  0  0  0
 13 31  1  0  0  0
 14 15  2  0  0  0
 14 97  1  0  0  0
 15 98  1  0  0  0
 16 17  2  0  0  0
 16 21  1  0  0  0
 16 31  1  0  0  0
 17 18  1  0  0  0
 17 99  1  0  0  0
 18 19  2  0  0  0
 18100  1  0  0  0
 19 20  1  0  0  0
 19 24  1  0  0  0
 20 21  2  0  0  0
 20101  1  0  0  0
 21 23  1  0  0  0
 22 28  1  0  0  0
 22 32  2  0  0  0
 26 27  1  0  0  0
 28102  1  0  0  0
 28103  1  0  0  0
 29104  1  0  0  0
 29105  1  0  0  0
 33 34  1  0  0  0
 33 66  1  0  0  0
 33 70  2  0  0  0
 34 36  1  0  0  0
 34 59  1  0  0  0
 34106  1  0  0  0
 35 44  2  0  0  0
 35 45  1  0  0  0
 35 68  1  0  0  0
 36 56  1  0  0  0
 36107  1  0  0  0
 37 39  1  0  0  0
 37 47  1  0  0  0
 37 66  1  0  0  0
 37108  1  0  0  0
 38 43  2  0  0  0
 38 46  1  0  0  0
 38 47  1  0  0  0
 39 64  1  0  0  0
 39 67  2  0  0  0
 40 52  1  0  0  0
 40 53  2  0  0  0
 40 58  1  0  0  0
 41109  1  0  0  0
 41110  1  0  0  0
 41111  1  0  0  0
 41 48  1  0  0  0
 42 43  1  0  0  0
 42 66  1  0  0  0
 42112  1  0  0  0
 42113  1  0  0  0
 43 44  1  0  0  0
 44114  1  0  0  0
 45 46  2  0  0  0
 45115  1  0  0  0
 46116  1  0  0  0
 47117  1  0  0  0
 47118  1  0  0  0
 48 56  1  0  0  0
 48 65  1  0  0  0
 48119  1  0  0  0
 49 50  1  0  0  0
 49 53  1  0  0  0
 49 64  1  0  0  0
 49120  1  0  0  0
 50 51  1  0  0  0
 50121  1  0  0  0
 50122  1  0  0  0
 51 52  1  0  0  0
 51123  1  0  0  0
 51124  1  0  0  0
 52125  1  0  0  0
 52126  1  0  0  0
 53 54  1  0  0  0
 54 55  2  0  0  0
 54127  1  0  0  0
 55 57  1  0  0  0
 55128  1  0  0  0
 56 69  2  0  0  0
 57 58  2  0  0  0
 57129  1  0  0  0
 58130  1  0  0  0
 59 60  1  0  0  0
 59 61  1  0  0  0
 59 62  1  0  0  0
 60131  1  0  0  0
 60132  1  0  0  0
 60133  1  0  0  0
 61134  1  0  0  0
 61135  1  0  0  0
 61136  1  0  0  0
 62137  1  0  0  0
 62138  1  0  0  0
 62139  1  0  0  0
 63 65  1  0  0  0
 63140  1  0  0  0
 63141  1  0  0  0
 63142  1  0  0  0
 64143  1  0  0  0
 65144  1  0  0  0
 68 80  1  0  0  0
 71 72  2  0  0  0
 71 73  1  0  0  0
 71145  1  0  0  0
 72 74  1  0  0  0
 72146  1  0  0  0
 73 75  2  0  0  0
 73 77  1  0  0  0
 74 76  2  0  0  0
 74 82  1  0  0  0
 75 76  1  0  0  0
 75 84  1  0  0  0
 76 85  1  0  0  0
 77 81  1  0  0  0
 77 83  2  0  0  0
 78147  1  0  0  0
 78148  1  0  0  0
 78149  1  0  0  0
 78 80  1  0  0  0
 79 80  1  0  0  0
 79 83  1  0  0  0
 79150  1  0  0  0
 79151  1  0  0  0
 80152  1  0  0  0
 81153  1  0  0  0
 81154  1  0  0  0
 82155  1  0  0  0
 83156  1  0  0  0
M  CHG  1  83   1
M  ISO  4   1 100  68 101  80 101  82 100
M  END
> <chiral flag>
0

> <version>
0

> <s_m_source_file>
/data/baiqing/PycharmProjects/Reinvent-master-3.2/result/LINK_invent/BTK/process_docking_weight1_custom_product_contain_oxygen_bond_distance_aromatic_linkinvent_7_9_3/rearranged_h_0045.sdf

> <i_m_source_file_index>
65

> <r_mmod_Potential_Energy-OPLS-2005>
-109.288642883301

> <r_mmod_Stretch_Energy-OPLS-2005>
101.286605834961

> <r_mmod_Bend_Energy-OPLS-2005>
184.999542236328

> <r_mmod_Torsional_Energy-OPLS-2005>
223.513778686523

> <r_mmod_Improper_Torsional_Energy-OPLS-2005>
4.2868709564209

> <r_mmod_Van_der_Waal_Energy-OPLS-2005>
160.187423706055

> <r_mmod_Electrostatic_Energy-OPLS-2005>
-421.497955322266

> <r_mmod_Solvation_Energy-OPLS-2005>
-430.190979003906

> <b_mmod_Minimization_Converged-OPLS-2005>
0

> <r_mmod_RMS_Derivative-OPLS-2005>
11.0625410079956

$$$$
65
                    3D
 Structure written by MMmdl.
152160  0  0  1  0            999 V2000
  -30.6246  -14.6271   20.5052 C   0  0  0  0  0  0
  -30.4403  -12.3851   19.4487 C   0  0  0  0  0  0
  -29.5077  -12.5056   18.2224 C   0  0  0  0  0  0
  -28.0302  -12.3446   18.6343 C   0  0  0  0  0  0
  -27.6550  -13.2128   19.8644 C   0  0  2  0  0  0
  -28.7003  -13.0590   20.9930 C   0  0  0  0  0  0
  -25.2570  -13.8161   20.5676 C   0  0  0  0  0  0
  -24.1835  -13.0436   20.9196 C   0  0  0  0  0  0
  -24.6397  -11.6904   20.8744 C   0  0  0  0  0  0
  -23.9063  -10.4291   21.0409 C   0  0  0  0  0  0
  -24.3614   -9.4205   21.9186 C   0  0  0  0  0  0
  -23.6290   -8.2241   22.0754 C   0  0  0  0  0  0
  -22.4272   -8.0279   21.3544 C   0  0  0  0  0  0
  -21.9908   -9.0254   20.4647 C   0  0  0  0  0  0
  -22.7235  -10.2134   20.3058 C   0  0  0  0  0  0
  -21.6852   -6.0734   22.5279 C   0  0  0  0  0  0
  -21.4013   -6.5639   23.8211 C   0  0  0  0  0  0
  -21.3659   -5.6792   24.9174 C   0  0  0  0  0  0
  -21.6044   -4.3055   24.7225 C   0  0  0  0  0  0
  -21.8820   -3.8146   23.4346 C   0  0  0  0  0  0
  -21.9193   -4.6962   22.3402 C   0  0  0  0  0  0
  -22.7858  -13.5233   21.1855 C   0  0  0  0  0  0
  -22.1661   -4.2148   21.0980 F   0  0  0  0  0  0
  -21.5629   -3.4539   25.7738 F   0  0  0  0  0  0
  -30.0174  -13.4013   20.4315 N   0  0  0  0  0  0
  -26.2996  -12.9335   20.3318 N   0  0  0  0  0  0
  -25.9324  -11.6495   20.5760 N   0  0  0  0  0  0
  -22.0496  -12.8227   22.0410 N   0  0  0  0  0  0
  -25.4283  -15.1878   20.4054 N   0  0  0  0  0  0
  -31.7868  -14.7933   20.1233 O   0  0  0  0  0  0
  -21.6637   -6.8876   21.4240 O   0  0  0  0  0  0
  -22.3548  -14.5541   20.6701 O   0  0  0  0  0  0
  -24.6255  -31.8612   23.2040 C   0  0  0  0  0  0
  -25.9107  -32.4786   23.8365 C   0  0  1  0  0  0
  -27.2244  -27.3298   20.1105 C   0  0  0  0  0  0
  -25.5927  -33.8587   24.2292 N   0  0  0  0  0  0
  -23.4182  -30.4863   21.5469 C   0  0  2  0  0  0
  -24.8638  -28.9456   20.1111 C   0  0  0  0  0  0
  -22.7472  -29.4632   22.4942 C   0  0  0  0  0  0
  -18.0286  -28.1382   22.8486 C   0  0  0  0  0  0
  -24.1489  -36.7296   23.2639 C   0  0  0  0  0  0
  -25.9592  -30.7956   21.3734 C   0  0  0  0  0  0
  -26.0336  -29.4247   20.7141 C   0  0  0  0  0  0
  -27.2170  -28.6288   20.7041 C   0  0  0  0  0  0
  -26.0279  -26.9039   19.4847 C   0  0  0  0  0  0
  -24.8624  -27.6898   19.4884 C   0  0  0  0  0  0
  -23.6317  -29.8242   20.1612 C   0  0  0  0  0  0
  -25.4112  -36.3088   24.0332 C   0  0  1  0  0  0
  -20.5886  -28.3686   23.1283 C   0  0  2  0  0  0
  -20.6776  -26.9411   22.5407 C   0  0  0  0  0  0
  -19.5751  -26.6385   21.5209 C   0  0  0  0  0  0
  -18.1931  -26.7925   22.1623 C   0  0  0  0  0  0
  -19.1538  -28.8850   23.2881 C   0  0  0  0  0  0
  -18.9463  -30.1452   23.8897 C   0  0  0  0  0  0
  -17.6463  -30.6585   24.0562 C   0  0  0  0  0  0
  -25.9049  -34.9457   23.5111 C   0  0  0  0  0  0
  -16.5354  -29.9085   23.6328 C   0  0  0  0  0  0
  -16.7274  -28.6501   23.0350 C   0  0  0  0  0  0
  -26.4496  -31.6588   25.0727 C   0  0  0  0  0  0
  -25.3733  -31.3716   26.1457 C   0  0  0  0  0  0
  -27.0337  -30.3017   24.6165 C   0  0  0  0  0  0
  -27.6059  -32.4318   25.7497 C   0  0  0  0  0  0
  -27.5579  -37.1804   24.8466 C   0  0  0  0  0  0
  -21.4186  -29.3044   22.3682 N   0  0  0  0  0  0
  -26.4292  -37.3780   23.9409 N   0  0  0  0  0  0
  -24.6865  -31.0636   22.0985 N   0  0  0  0  0  0
  -23.4201  -28.8166   23.3013 O   0  0  0  0  0  0
  -28.3448  -26.4840   20.1597 O   0  0  0  0  0  0
  -26.5615  -34.8920   22.4676 O   0  0  0  0  0  0
  -23.5422  -32.1403   23.7376 O   0  0  0  0  0  0
  -28.7233  -17.9023   20.8323 C   0  0  0  0  0  0
  -28.7272  -19.3248   20.7289 C   0  0  0  0  0  0
  -31.1032  -17.8444   20.4898 C   0  0  0  0  0  0
  -29.9044  -17.1187   20.7139 C   0  0  0  0  0  0
  -29.9258  -20.0509   20.5178 C   0  0  0  0  0  0
  -31.1137  -19.2685   20.3991 C   0  0  0  0  0  0
  -29.2569  -23.9906   20.3576 C   0  0  0  0  0  0
  -28.8716  -22.4442   20.2833 C   0  0  0  0  0  0
  -28.1076  -25.0302   20.0222 C   0  0  0  0  0  0
  -29.8033  -15.6656   20.8549 N   0  0  0  0  0  0
  -30.0001  -21.4831   20.4466 N   0  0  0  0  0  0
  -32.6311  -20.0597   20.1427 Cl  0  0  0  0  0  0
  -31.4810  -12.5127   19.1456 H   0  0  0  0  0  0
  -30.3764  -11.3875   19.8858 H   0  0  0  0  0  0
  -29.7700  -11.7560   17.4745 H   0  0  0  0  0  0
  -29.6510  -13.4762   17.7447 H   0  0  0  0  0  0
  -27.8651  -11.2911   18.8632 H   0  0  0  0  0  0
  -27.3758  -12.5781   17.7936 H   0  0  0  0  0  0
  -27.6755  -14.2488   19.5263 H   0  0  0  0  0  0
  -28.7099  -12.0348   21.3688 H   0  0  0  0  0  0
  -28.4474  -13.6849   21.8502 H   0  0  0  0  0  0
  -25.2760   -9.5681   22.4760 H   0  0  0  0  0  0
  -23.9999   -7.4632   22.7474 H   0  0  0  0  0  0
  -21.0839   -8.8773   19.8953 H   0  0  0  0  0  0
  -22.3695  -10.9673   19.6167 H   0  0  0  0  0  0
  -21.2005   -7.6148   23.9714 H   0  0  0  0  0  0
  -21.1481   -6.0523   25.9076 H   0  0  0  0  0  0
  -22.0600   -2.7609   23.2847 H   0  0  0  0  0  0
  -22.4107  -11.9886   22.4797 H   0  0  0  0  0  0
  -21.1115  -13.1257   22.2614 H   0  0  0  0  0  0
  -24.6546  -15.8370   20.4979 H   0  0  0  0  0  0
  -26.2600  -15.6176   20.0222 H   0  0  0  0  0  0
  -26.7175  -32.5460   23.1115 H   0  0  0  0  0  0
  -25.0078  -33.9733   25.0439 H   0  0  0  0  0  0
  -22.7113  -31.3066   21.4060 H   0  0  0  0  0  0
  -23.3751  -35.9630   23.3305 H   0  0  0  0  0  0
  -24.3580  -36.8911   22.2053 H   0  0  0  0  0  0
  -23.7245  -37.6501   23.6656 H   0  0  0  0  0  0
  -26.0890  -31.5603   20.6063 H   0  0  0  0  0  0
  -26.8404  -30.8436   22.0015 H   0  0  0  0  0  0
  -28.1142  -28.9923   21.1855 H   0  0  0  0  0  0
  -25.9576  -25.9469   18.9911 H   0  0  0  0  0  0
  -23.9659  -27.3170   19.0121 H   0  0  0  0  0  0
  -23.7505  -30.6021   19.4062 H   0  0  0  0  0  0
  -22.7517  -29.2539   19.8582 H   0  0  0  0  0  0
  -25.1292  -36.1944   25.0824 H   0  0  0  0  0  0
  -20.9978  -28.3260   24.1403 H   0  0  0  0  0  0
  -20.5677  -26.2296   23.3606 H   0  0  0  0  0  0
  -21.6645  -26.7442   22.1199 H   0  0  0  0  0  0
  -19.6914  -25.6297   21.1235 H   0  0  0  0  0  0
  -19.6686  -27.3198   20.6740 H   0  0  0  0  0  0
  -17.4200  -26.6670   21.4027 H   0  0  0  0  0  0
  -18.0336  -26.0066   22.9019 H   0  0  0  0  0  0
  -19.7940  -30.7266   24.2268 H   0  0  0  0  0  0
  -17.5019  -31.6265   24.5165 H   0  0  0  0  0  0
  -15.5354  -30.2988   23.7652 H   0  0  0  0  0  0
  -15.8673  -28.0821   22.7064 H   0  0  0  0  0  0
  -24.5914  -30.7057   25.7787 H   0  0  0  0  0  0
  -24.8916  -32.2878   26.4883 H   0  0  0  0  0  0
  -25.8065  -30.8898   27.0231 H   0  0  0  0  0  0
  -26.2906  -29.6768   24.1196 H   0  0  0  0  0  0
  -27.4055  -29.7267   25.4656 H   0  0  0  0  0  0
  -27.8767  -30.4312   23.9373 H   0  0  0  0  0  0
  -27.2675  -33.3619   26.2076 H   0  0  0  0  0  0
  -28.3870  -32.6875   25.0324 H   0  0  0  0  0  0
  -28.0727  -31.8440   26.5411 H   0  0  0  0  0  0
  -28.2600  -38.0098   24.7510 H   0  0  0  0  0  0
  -28.1072  -36.2630   24.6297 H   0  0  0  0  0  0
  -27.2296  -37.1460   25.8869 H   0  0  0  0  0  0
  -20.9361  -29.8777   21.6903 H   0  0  0  0  0  0
  -26.0176  -38.2857   24.1407 H   0  0  0  0  0  0
  -27.7767  -17.4115   21.0098 H   0  0  0  0  0  0
  -27.7904  -19.8522   20.8324 H   0  0  0  0  0  0
  -32.0428  -17.3211   20.3976 H   0  0  0  0  0  0
  -30.0878  -24.1823   19.6781 H   0  0  0  0  0  0
  -29.6343  -24.2065   21.3576 H   0  0  0  0  0  0
  -28.4000  -22.2444   19.3197 H   0  0  0  0  0  0
  -28.1149  -22.2320   21.0401 H   0  0  0  0  0  0
  -27.8111  -24.8352   18.9912 H   0  0  0  0  0  0
  -27.2523  -24.7673   20.6470 H   0  0  0  0  0  0
  -28.8924  -15.3395   21.1392 H   0  0  0  0  0  0
  -30.9352  -21.8519   20.2880 H   0  0  0  0  0  0
  1 25  1  0  0  0
  1 30  2  0  0  0
  1 80  1  0  0  0
  2  3  1  0  0  0
  2 25  1  0  0  0
  2 83  1  0  0  0
  2 84  1  0  0  0
  3  4  1  0  0  0
  3 85  1  0  0  0
  3 86  1  0  0  0
  4  5  1  0  0  0
  4 87  1  0  0  0
  4 88  1  0  0  0
  5  6  1  0  0  0
  5 26  1  0  0  0
  5 89  1  0  0  0
  6 25  1  0  0  0
  6 90  1  0  0  0
  6 91  1  0  0  0
  7  8  2  0  0  0
  7 26  1  0  0  0
  7 29  1  0  0  0
  8  9  1  0  0  0
  8 22  1  0  0  0
  9 10  1  0  0  0
  9 27  2  0  0  0
 10 11  2  0  0  0
 10 15  1  0  0  0
 11 12  1  0  0  0
 11 92  1  0  0  0
 12 13  2  0  0  0
 12 93  1  0  0  0
 13 14  1  0  0  0
 13 31  1  0  0  0
 14 15  2  0  0  0
 14 94  1  0  0  0
 15 95  1  0  0  0
 16 17  2  0  0  0
 16 21  1  0  0  0
 16 31  1  0  0  0
 17 18  1  0  0  0
 17 96  1  0  0  0
 18 19  2  0  0  0
 18 97  1  0  0  0
 19 20  1  0  0  0
 19 24  1  0  0  0
 20 21  2  0  0  0
 20 98  1  0  0  0
 21 23  1  0  0  0
 22 28  1  0  0  0
 22 32  2  0  0  0
 26 27  1  0  0  0
 28 99  1  0  0  0
 28100  1  0  0  0
 29101  1  0  0  0
 29102  1  0  0  0
 33 34  1  0  0  0
 33 66  1  0  0  0
 33 70  2  0  0  0
 34 36  1  0  0  0
 34 59  1  0  0  0
 34103  1  0  0  0
 35 44  2  0  0  0
 35 45  1  0  0  0
 35 68  1  0  0  0
 36 56  1  0  0  0
 36104  1  0  0  0
 37 39  1  0  0  0
 37 47  1  0  0  0
 37 66  1  0  0  0
 37105  1  0  0  0
 38 43  2  0  0  0
 38 46  1  0  0  0
 38 47  1  0  0  0
 39 64  1  0  0  0
 39 67  2  0  0  0
 40 52  1  0  0  0
 40 53  2  0  0  0
 40 58  1  0  0  0
 41106  1  0  0  0
 41107  1  0  0  0
 41108  1  0  0  0
 41 48  1  0  0  0
 42 43  1  0  0  0
 42 66  1  0  0  0
 42109  1  0  0  0
 42110  1  0  0  0
 43 44  1  0  0  0
 44111  1  0  0  0
 45 46  2  0  0  0
 45112  1  0  0  0
 46113  1  0  0  0
 47114  1  0  0  0
 47115  1  0  0  0
 48 56  1  0  0  0
 48 65  1  0  0  0
 48116  1  0  0  0
 49 50  1  0  0  0
 49 53  1  0  0  0
 49 64  1  0  0  0
 49117  1  0  0  0
 50 51  1  0  0  0
 50118  1  0  0  0
 50119  1  0  0  0
 51 52  1  0  0  0
 51120  1  0  0  0
 51121  1  0  0  0
 52122  1  0  0  0
 52123  1  0  0  0
 53 54  1  0  0  0
 54 55  2  0  0  0
 54124  1  0  0  0
 55 57  1  0  0  0
 55125  1  0  0  0
 56 69  2  0  0  0
 57 58  2  0  0  0
 57126  1  0  0  0
 58127  1  0  0  0
 59 60  1  0  0  0
 59 61  1  0  0  0
 59 62  1  0  0  0
 60128  1  0  0  0
 60129  1  0  0  0
 60130  1  0  0  0
 61131  1  0  0  0
 61132  1  0  0  0
 61133  1  0  0  0
 62134  1  0  0  0
 62135  1  0  0  0
 62136  1  0  0  0
 63 65  1  0  0  0
 63137  1  0  0  0
 63138  1  0  0  0
 63139  1  0  0  0
 64140  1  0  0  0
 65141  1  0  0  0
 68 79  1  0  0  0
 71 72  2  0  0  0
 71 74  1  0  0  0
 71142  1  0  0  0
 72 75  1  0  0  0
 72143  1  0  0  0
 73 74  2  0  0  0
 73 76  1  0  0  0
 73144  1  0  0  0
 74 80  1  0  0  0
 75 76  2  0  0  0
 75 81  1  0  0  0
 76 82  1  0  0  0
 77 78  1  0  0  0
 77 79  1  0  0  0
 77145  1  0  0  0
 77146  1  0  0  0
 78 81  1  0  0  0
 78147  1  0  0  0
 78148  1  0  0  0
 79149  1  0  0  0
 79150  1  0  0  0
 80151  1  0  0  0
 81152  1  0  0  0
M  ISO  4   1 100  68 101  79 101  80 100
M  END
> <chiral flag>
0

> <version>
0

> <s_m_source_file>
/data/baiqing/PycharmProjects/Reinvent-master-3.2/result/LINK_invent/BTK/process_docking_weight1_custom_product_contain_oxygen_bond_distance_aromatic_linkinvent_7_9_3/rearranged_h_0045.sdf

> <i_m_source_file_index>
66

> <r_mmod_Potential_Energy-OPLS-2005>
51.4140205383301

> <r_mmod_Stretch_Energy-OPLS-2005>
73.131950378418

> <r_mmod_Bend_Energy-OPLS-2005>
142.454284667969

> <r_mmod_Torsional_Energy-OPLS-2005>
200.327728271484

> <r_mmod_Improper_Torsional_Energy-OPLS-2005>
5.0526065826416

> <r_mmod_Van_der_Waal_Energy-OPLS-2005>
146.416397094727

> <r_mmod_Electrostatic_Energy-OPLS-2005>
-345.115447998047

> <r_mmod_Solvation_Energy-OPLS-2005>
-215.356430053711

> <b_mmod_Minimization_Converged-OPLS-2005>
0

> <r_mmod_RMS_Derivative-OPLS-2005>
0.175336450338364

$$$$
66
                    3D
 Structure written by MMmdl.
155163  0  0  1  0            999 V2000
  -30.6282  -14.6833   20.4809 C   0  0  0  0  0  0
  -30.4300  -12.4346   19.4143 C   0  0  0  0  0  0
  -29.4781  -12.5338   18.1940 C   0  0  0  0  0  0
  -27.9962  -12.4258   18.6125 C   0  0  0  0  0  0
  -27.6463  -13.2465   19.8872 C   0  0  2  0  0  0
  -28.7188  -13.0788   20.9872 C   0  0  0  0  0  0
  -25.2257  -13.8087   20.5395 C   0  0  0  0  0  0
  -24.1676  -13.0308   20.9000 C   0  0  0  0  0  0
  -24.6371  -11.6856   20.8757 C   0  0  0  0  0  0
  -23.9059  -10.4256   21.0344 C   0  0  0  0  0  0
  -24.3652   -9.4202   21.9109 C   0  0  0  0  0  0
  -23.6356   -8.2235   22.0762 C   0  0  0  0  0  0
  -22.4317   -8.0249   21.3550 C   0  0  0  0  0  0
  -21.9971   -9.0188   20.4583 C   0  0  0  0  0  0
  -22.7280  -10.2062   20.2960 C   0  0  0  0  0  0
  -21.6837   -6.0701   22.5268 C   0  0  0  0  0  0
  -21.3994   -6.5618   23.8170 C   0  0  0  0  0  0
  -21.3675   -5.6788   24.9139 C   0  0  0  0  0  0
  -21.6075   -4.3074   24.7203 C   0  0  0  0  0  0
  -21.8834   -3.8152   23.4331 C   0  0  0  0  0  0
  -21.9188   -4.6922   22.3364 C   0  0  0  0  0  0
  -22.7699  -13.5070   21.1641 C   0  0  0  0  0  0
  -22.1707   -4.2121   21.0943 F   0  0  0  0  0  0
  -21.5622   -3.4539   25.7718 F   0  0  0  0  0  0
  -30.0064  -13.4589   20.3939 N   0  0  0  0  0  0
  -26.2942  -12.9471   20.3574 N   0  0  0  0  0  0
  -25.9373  -11.6585   20.6115 N   0  0  0  0  0  0
  -22.0559  -12.7986   22.0270 N   0  0  0  0  0  0
  -25.3434  -15.1754   20.3292 N   0  0  0  0  0  0
  -31.8104  -14.8027   20.1586 O   0  0  0  0  0  0
  -21.6680   -6.8841   21.4244 O   0  0  0  0  0  0
  -22.3312  -14.5326   20.6482 O   0  0  0  0  0  0
  -24.6147  -31.8711   23.2120 C   0  0  0  0  0  0
  -25.9027  -32.4835   23.8424 C   0  0  1  0  0  0
  -27.2646  -27.4136   20.0828 C   0  0  0  0  0  0
  -25.5930  -33.8626   24.2388 N   0  0  0  0  0  0
  -23.4022  -30.4866   21.5529 C   0  0  2  0  0  0
  -24.8600  -28.9363   20.1338 C   0  0  0  0  0  0
  -22.7367  -29.4644   22.5023 C   0  0  0  0  0  0
  -18.0265  -28.1323   22.8513 C   0  0  0  0  0  0
  -24.1527  -36.7318   23.2620 C   0  0  0  0  0  0
  -25.9357  -30.8192   21.3746 C   0  0  0  0  0  0
  -26.0205  -29.4434   20.7340 C   0  0  0  0  0  0
  -27.2195  -28.6896   20.7129 C   0  0  0  0  0  0
  -26.0837  -26.9293   19.4892 C   0  0  0  0  0  0
  -24.8863  -27.6710   19.5167 C   0  0  0  0  0  0
  -23.6219  -29.8040   20.1737 C   0  0  0  0  0  0
  -25.4127  -36.3108   24.0344 C   0  0  1  0  0  0
  -20.5879  -28.3642   23.1372 C   0  0  2  0  0  0
  -20.6782  -26.9383   22.5442 C   0  0  0  0  0  0
  -19.5755  -26.6371   21.5242 C   0  0  0  0  0  0
  -18.1933  -26.7889   22.1631 C   0  0  0  0  0  0
  -19.1508  -28.8789   23.2976 C   0  0  0  0  0  0
  -18.9416  -30.1420   23.8954 C   0  0  0  0  0  0
  -17.6409  -30.6533   24.0583 C   0  0  0  0  0  0
  -25.9039  -34.9474   23.5147 C   0  0  0  0  0  0
  -16.5307  -29.9056   23.6305 C   0  0  0  0  0  0
  -16.7267  -28.6482   23.0323 C   0  0  0  0  0  0
  -26.4458  -31.6568   25.0704 C   0  0  0  0  0  0
  -25.3711  -31.3709   26.1439 C   0  0  0  0  0  0
  -27.0352  -30.3000   24.6110 C   0  0  0  0  0  0
  -27.6033  -32.4260   25.7494 C   0  0  0  0  0  0
  -27.5609  -37.1820   24.8442 C   0  0  0  0  0  0
  -21.4103  -29.3057   22.3816 N   0  0  0  0  0  0
  -26.4324  -37.3789   23.9411 N   0  0  0  0  0  0
  -24.6700  -31.0739   22.1065 N   0  0  0  0  0  0
  -23.4163  -28.8105   23.2974 O   0  0  0  0  0  0
  -28.4560  -26.7244   19.9020 O   0  0  0  0  0  0
  -26.5531  -34.8903   22.4671 O   0  0  0  0  0  0
  -23.5325  -32.1471   23.7492 O   0  0  0  0  0  0
  -26.7881  -19.5097   19.0756 C   0  0  0  0  0  0
  -28.0429  -20.1283   19.0480 C   0  0  0  0  0  0
  -26.5731  -18.4693   19.9922 C   0  0  0  0  0  0
  -29.1343  -19.6493   19.8163 C   0  0  0  0  0  0
  -29.0008  -18.3156   20.3942 C   0  0  0  0  0  0
  -27.6683  -17.8968   20.6681 C   0  0  0  0  0  0
  -29.2233  -24.4124   19.7695 C   0  0  0  0  0  0
  -28.6613  -25.4601   20.4409 C   0  0  0  0  0  0
  -29.5607  -23.1414   20.4481 C   0  0  0  0  0  0
  -30.2852  -20.6898   20.0514 C   0  0  0  0  0  0
  -30.1714  -17.2848   20.6668 C   0  0  0  0  0  0
  -29.9680  -22.1138   19.6562 N   0  0  0  0  0  0
  -29.8437  -15.7908   20.7205 N   0  0  0  0  0  0
  -29.5175  -23.0025   21.6752 O   0  0  0  0  0  0
  -27.3377  -16.7713   21.9355 Cl  0  0  0  0  0  0
  -31.4644  -12.5597   19.0896 H   0  0  0  0  0  0
  -30.3992  -11.4368   19.8557 H   0  0  0  0  0  0
  -29.7021  -11.7637   17.4500 H   0  0  0  0  0  0
  -29.6428  -13.4907   17.6924 H   0  0  0  0  0  0
  -27.7689  -11.3739   18.7820 H   0  0  0  0  0  0
  -27.3581  -12.7487   17.7850 H   0  0  0  0  0  0
  -27.6613  -14.2979   19.6055 H   0  0  0  0  0  0
  -28.7510  -12.0364   21.3142 H   0  0  0  0  0  0
  -28.4901  -13.6724   21.8726 H   0  0  0  0  0  0
  -25.2779   -9.5744   22.4634 H   0  0  0  0  0  0
  -24.0019   -7.4683   22.7544 H   0  0  0  0  0  0
  -21.0913   -8.8736   19.8860 H   0  0  0  0  0  0
  -22.3779  -10.9595   19.6035 H   0  0  0  0  0  0
  -21.2034   -7.6131   23.9666 H   0  0  0  0  0  0
  -21.1467   -6.0525   25.9029 H   0  0  0  0  0  0
  -22.0613   -2.7619   23.2857 H   0  0  0  0  0  0
  -22.4538  -11.9730   22.4515 H   0  0  0  0  0  0
  -21.1112  -13.0707   22.2515 H   0  0  0  0  0  0
  -24.5335  -15.7819   20.3539 H   0  0  0  0  0  0
  -26.2215  -15.6721   20.3200 H   0  0  0  0  0  0
  -26.7051  -32.5565   23.1169 H   0  0  0  0  0  0
  -25.0298  -33.9840   25.0651 H   0  0  0  0  0  0
  -22.6913  -31.3058   21.4049 H   0  0  0  0  0  0
  -23.3814  -35.9641   23.3270 H   0  0  0  0  0  0
  -24.3627  -36.8939   22.2038 H   0  0  0  0  0  0
  -23.7274  -37.6517   23.6621 H   0  0  0  0  0  0
  -26.0389  -31.5814   20.6026 H   0  0  0  0  0  0
  -26.8249  -30.8864   21.9912 H   0  0  0  0  0  0
  -28.1146  -29.0939   21.1675 H   0  0  0  0  0  0
  -26.1105  -25.9848   18.9612 H   0  0  0  0  0  0
  -23.9945  -27.2754   19.0515 H   0  0  0  0  0  0
  -23.7281  -30.5761   19.4125 H   0  0  0  0  0  0
  -22.7511  -29.2161   19.8776 H   0  0  0  0  0  0
  -25.1325  -36.1988   25.0837 H   0  0  0  0  0  0
  -20.9949  -28.3188   24.1511 H   0  0  0  0  0  0
  -20.5749  -26.2238   23.3631 H   0  0  0  0  0  0
  -21.6667  -26.7487   22.1206 H   0  0  0  0  0  0
  -19.6970  -25.6319   21.1238 H   0  0  0  0  0  0
  -19.6700  -27.3239   20.6832 H   0  0  0  0  0  0
  -17.4247  -26.6709   21.3977 H   0  0  0  0  0  0
  -18.0265  -25.9972   22.8949 H   0  0  0  0  0  0
  -19.7882  -30.7251   24.2303 H   0  0  0  0  0  0
  -17.4948  -31.6197   24.5220 H   0  0  0  0  0  0
  -15.5324  -30.2958   23.7559 H   0  0  0  0  0  0
  -15.8677  -28.0821   22.6942 H   0  0  0  0  0  0
  -24.5847  -30.7100   25.7752 H   0  0  0  0  0  0
  -24.8938  -32.2910   26.4803 H   0  0  0  0  0  0
  -25.7992  -30.8882   27.0233 H   0  0  0  0  0  0
  -26.2965  -29.6683   24.1132 H   0  0  0  0  0  0
  -27.4141  -29.7243   25.4576 H   0  0  0  0  0  0
  -27.8777  -30.4364   23.9323 H   0  0  0  0  0  0
  -27.2650  -33.3544   26.2109 H   0  0  0  0  0  0
  -28.3831  -32.6812   25.0304 H   0  0  0  0  0  0
  -28.0704  -31.8341   26.5381 H   0  0  0  0  0  0
  -28.2585  -38.0151   24.7521 H   0  0  0  0  0  0
  -28.1157  -36.2672   24.6247 H   0  0  0  0  0  0
  -27.2323  -37.1448   25.8840 H   0  0  0  0  0  0
  -20.9176  -29.8999   21.7278 H   0  0  0  0  0  0
  -26.0219  -38.2904   24.1328 H   0  0  0  0  0  0
  -25.9776  -19.9166   18.4772 H   0  0  0  0  0  0
  -28.1327  -21.0252   18.4541 H   0  0  0  0  0  0
  -25.5714  -18.0923   20.1586 H   0  0  0  0  0  0
  -29.4519  -24.5374   18.7218 H   0  0  0  0  0  0
  -28.3799  -25.4230   21.4833 H   0  0  0  0  0  0
  -31.1773  -20.3804   19.5061 H   0  0  0  0  0  0
  -30.5747  -20.6732   21.1111 H   0  0  0  0  0  0
  -30.6903  -17.5693   21.5826 H   0  0  0  0  0  0
  -30.8908  -17.4075   19.8552 H   0  0  0  0  0  0
  -30.0364  -22.3120   18.6633 H   0  0  0  0  0  0
  -28.8753  -15.5933   20.9339 H   0  0  0  0  0  0
  1 25  1  0  0  0
  1 30  2  0  0  0
  1 83  1  0  0  0
  2  3  1  0  0  0
  2 25  1  0  0  0
  2 86  1  0  0  0
  2 87  1  0  0  0
  3  4  1  0  0  0
  3 88  1  0  0  0
  3 89  1  0  0  0
  4  5  1  0  0  0
  4 90  1  0  0  0
  4 91  1  0  0  0
  5  6  1  0  0  0
  5 26  1  0  0  0
  5 92  1  0  0  0
  6 25  1  0  0  0
  6 93  1  0  0  0
  6 94  1  0  0  0
  7  8  2  0  0  0
  7 26  1  0  0  0
  7 29  1  0  0  0
  8  9  1  0  0  0
  8 22  1  0  0  0
  9 10  1  0  0  0
  9 27  2  0  0  0
 10 11  2  0  0  0
 10 15  1  0  0  0
 11 12  1  0  0  0
 11 95  1  0  0  0
 12 13  2  0  0  0
 12 96  1  0  0  0
 13 14  1  0  0  0
 13 31  1  0  0  0
 14 15  2  0  0  0
 14 97  1  0  0  0
 15 98  1  0  0  0
 16 17  2  0  0  0
 16 21  1  0  0  0
 16 31  1  0  0  0
 17 18  1  0  0  0
 17 99  1  0  0  0
 18 19  2  0  0  0
 18100  1  0  0  0
 19 20  1  0  0  0
 19 24  1  0  0  0
 20 21  2  0  0  0
 20101  1  0  0  0
 21 23  1  0  0  0
 22 28  1  0  0  0
 22 32  2  0  0  0
 26 27  1  0  0  0
 28102  1  0  0  0
 28103  1  0  0  0
 29104  1  0  0  0
 29105  1  0  0  0
 33 34  1  0  0  0
 33 66  1  0  0  0
 33 70  2  0  0  0
 34 36  1  0  0  0
 34 59  1  0  0  0
 34106  1  0  0  0
 35 44  2  0  0  0
 35 45  1  0  0  0
 35 68  1  0  0  0
 36 56  1  0  0  0
 36107  1  0  0  0
 37 39  1  0  0  0
 37 47  1  0  0  0
 37 66  1  0  0  0
 37108  1  0  0  0
 38 43  2  0  0  0
 38 46  1  0  0  0
 38 47  1  0  0  0
 39 64  1  0  0  0
 39 67  2  0  0  0
 40 52  1  0  0  0
 40 53  2  0  0  0
 40 58  1  0  0  0
 41109  1  0  0  0
 41110  1  0  0  0
 41111  1  0  0  0
 41 48  1  0  0  0
 42 43  1  0  0  0
 42 66  1  0  0  0
 42112  1  0  0  0
 42113  1  0  0  0
 43 44  1  0  0  0
 44114  1  0  0  0
 45 46  2  0  0  0
 45115  1  0  0  0
 46116  1  0  0  0
 47117  1  0  0  0
 47118  1  0  0  0
 48 56  1  0  0  0
 48 65  1  0  0  0
 48119  1  0  0  0
 49 50  1  0  0  0
 49 53  1  0  0  0
 49 64  1  0  0  0
 49120  1  0  0  0
 50 51  1  0  0  0
 50121  1  0  0  0
 50122  1  0  0  0
 51 52  1  0  0  0
 51123  1  0  0  0
 51124  1  0  0  0
 52125  1  0  0  0
 52126  1  0  0  0
 53 54  1  0  0  0
 54 55  2  0  0  0
 54127  1  0  0  0
 55 57  1  0  0  0
 55128  1  0  0  0
 56 69  2  0  0  0
 57 58  2  0  0  0
 57129  1  0  0  0
 58130  1  0  0  0
 59 60  1  0  0  0
 59 61  1  0  0  0
 59 62  1  0  0  0
 60131  1  0  0  0
 60132  1  0  0  0
 60133  1  0  0  0
 61134  1  0  0  0
 61135  1  0  0  0
 61136  1  0  0  0
 62137  1  0  0  0
 62138  1  0  0  0
 62139  1  0  0  0
 63 65  1  0  0  0
 63140  1  0  0  0
 63141  1  0  0  0
 63142  1  0  0  0
 64143  1  0  0  0
 65144  1  0  0  0
 68 78  1  0  0  0
 71 72  2  0  0  0
 71 73  1  0  0  0
 71145  1  0  0  0
 72 74  1  0  0  0
 72146  1  0  0  0
 73 76  2  0  0  0
 73147  1  0  0  0
 74 75  2  0  0  0
 74 80  1  0  0  0
 75 76  1  0  0  0
 75 81  1  0  0  0
 76 85  1  0  0  0
 77 78  2  0  0  0
 77 79  1  0  0  0
 77148  1  0  0  0
 78149  1  0  0  0
 79 82  1  0  0  0
 79 84  2  0  0  0
 80 82  1  0  0  0
 80150  1  0  0  0
 80151  1  0  0  0
 81 83  1  0  0  0
 81152  1  0  0  0
 81153  1  0  0  0
 82154  1  0  0  0
 83155  1  0  0  0
M  ISO  4   1 100  68 101  78 101  83 100
M  END
> <chiral flag>
0

> <version>
0

> <s_m_source_file>
/data/baiqing/PycharmProjects/Reinvent-master-3.2/result/LINK_invent/BTK/process_docking_weight1_custom_product_contain_oxygen_bond_distance_aromatic_linkinvent_7_9_3/rearranged_h_0045.sdf

> <i_m_source_file_index>
67

> <r_mmod_Potential_Energy-OPLS-2005>
2.82696986198425

> <r_mmod_Stretch_Energy-OPLS-2005>
80.9792709350586

> <r_mmod_Bend_Energy-OPLS-2005>
131.551788330078

> <r_mmod_Torsional_Energy-OPLS-2005>
286.294067382812

> <r_mmod_Improper_Torsional_Energy-OPLS-2005>
7.49356126785278

> <r_mmod_Van_der_Waal_Energy-OPLS-2005>
148.804809570312

> <r_mmod_Electrostatic_Energy-OPLS-2005>
-467.187255859375

> <r_mmod_Solvation_Energy-OPLS-2005>
-227.57292175293

> <b_mmod_Minimization_Converged-OPLS-2005>
0

> <r_mmod_RMS_Derivative-OPLS-2005>
10.8506937026978

$$$$
67
                    3D
 Structure written by MMmdl.
161170  0  0  1  0            999 V2000
  -30.6084  -14.6552   20.4945 C   0  0  0  0  0  0
  -30.4406  -12.3992   19.4591 C   0  0  0  0  0  0
  -29.5126  -12.5113   18.2283 C   0  0  0  0  0  0
  -28.0343  -12.3466   18.6369 C   0  0  0  0  0  0
  -27.6535  -13.2161   19.8647 C   0  0  2  0  0  0
  -28.6972  -13.0721   20.9961 C   0  0  0  0  0  0
  -25.2560  -13.8170   20.5671 C   0  0  0  0  0  0
  -24.1834  -13.0438   20.9203 C   0  0  0  0  0  0
  -24.6389  -11.6908   20.8739 C   0  0  0  0  0  0
  -23.9053  -10.4290   21.0408 C   0  0  0  0  0  0
  -24.3612   -9.4205   21.9181 C   0  0  0  0  0  0
  -23.6291   -8.2236   22.0753 C   0  0  0  0  0  0
  -22.4272   -8.0275   21.3550 C   0  0  0  0  0  0
  -21.9904   -9.0242   20.4649 C   0  0  0  0  0  0
  -22.7229  -10.2122   20.3052 C   0  0  0  0  0  0
  -21.6846   -6.0738   22.5281 C   0  0  0  0  0  0
  -21.4011   -6.5640   23.8216 C   0  0  0  0  0  0
  -21.3659   -5.6789   24.9174 C   0  0  0  0  0  0
  -21.6047   -4.3053   24.7224 C   0  0  0  0  0  0
  -21.8815   -3.8151   23.4340 C   0  0  0  0  0  0
  -21.9189   -4.6969   22.3402 C   0  0  0  0  0  0
  -22.7856  -13.5238   21.1869 C   0  0  0  0  0  0
  -22.1658   -4.2155   21.0982 F   0  0  0  0  0  0
  -21.5627   -3.4541   25.7735 F   0  0  0  0  0  0
  -30.0135  -13.4205   20.4362 N   0  0  0  0  0  0
  -26.2988  -12.9344   20.3306 N   0  0  0  0  0  0
  -25.9319  -11.6501   20.5749 N   0  0  0  0  0  0
  -22.0496  -12.8229   22.0419 N   0  0  0  0  0  0
  -25.4260  -15.1890   20.4048 N   0  0  0  0  0  0
  -31.7689  -14.8244   20.1071 O   0  0  0  0  0  0
  -21.6641   -6.8874   21.4240 O   0  0  0  0  0  0
  -22.3548  -14.5544   20.6715 O   0  0  0  0  0  0
  -24.6250  -31.8594   23.2015 C   0  0  0  0  0  0
  -25.9095  -32.4779   23.8348 C   0  0  1  0  0  0
  -27.2314  -27.3281   20.1260 C   0  0  0  0  0  0
  -25.5906  -33.8581   24.2278 N   0  0  0  0  0  0
  -23.4194  -30.4810   21.5437 C   0  0  2  0  0  0
  -24.8688  -28.9314   20.1148 C   0  0  0  0  0  0
  -22.7468  -29.4624   22.4942 C   0  0  0  0  0  0
  -18.0284  -28.1383   22.8488 C   0  0  0  0  0  0
  -24.1491  -36.7305   23.2651 C   0  0  0  0  0  0
  -25.9585  -30.7936   21.3707 C   0  0  0  0  0  0
  -26.0360  -29.4196   20.7169 C   0  0  0  0  0  0
  -27.2230  -28.6302   20.7105 C   0  0  0  0  0  0
  -26.0458  -26.8859   19.5025 C   0  0  0  0  0  0
  -24.8746  -27.6691   19.4983 C   0  0  0  0  0  0
  -23.6349  -29.8100   20.1609 C   0  0  0  0  0  0
  -25.4122  -36.3094   24.0333 C   0  0  1  0  0  0
  -20.5885  -28.3690   23.1289 C   0  0  2  0  0  0
  -20.6775  -26.9415   22.5413 C   0  0  0  0  0  0
  -19.5749  -26.6385   21.5217 C   0  0  0  0  0  0
  -18.1929  -26.7924   22.1628 C   0  0  0  0  0  0
  -19.1535  -28.8853   23.2884 C   0  0  0  0  0  0
  -18.9457  -30.1455   23.8902 C   0  0  0  0  0  0
  -17.6459  -30.6590   24.0565 C   0  0  0  0  0  0
  -25.9043  -34.9456   23.5108 C   0  0  0  0  0  0
  -16.5351  -29.9089   23.6330 C   0  0  0  0  0  0
  -16.7272  -28.6504   23.0353 C   0  0  0  0  0  0
  -26.4483  -31.6587   25.0717 C   0  0  0  0  0  0
  -25.3717  -31.3726   26.1444 C   0  0  0  0  0  0
  -27.0327  -30.3010   24.6167 C   0  0  0  0  0  0
  -27.6043  -32.4323   25.7488 C   0  0  0  0  0  0
  -27.5562  -37.1848   24.8494 C   0  0  0  0  0  0
  -21.4182  -29.3042   22.3682 N   0  0  0  0  0  0
  -26.4323  -37.3761   23.9363 N   0  0  0  0  0  0
  -24.6864  -31.0612   22.0961 N   0  0  0  0  0  0
  -23.4192  -28.8171   23.3028 O   0  0  0  0  0  0
  -28.3511  -26.4882   20.1285 O   0  0  0  0  0  0
  -26.5615  -34.8919   22.4677 O   0  0  0  0  0  0
  -23.5417  -32.1390   23.7349 O   0  0  0  0  0  0
  -28.5165  -19.2818   20.5376 C   0  0  0  0  0  0
  -28.6137  -17.8871   20.8150 C   0  0  0  0  0  0
  -30.9257  -17.9037   20.1799 C   0  0  0  0  0  0
  -29.6151  -20.0360   20.0513 C   0  0  0  0  0  0
  -30.8496  -19.3135   19.9115 C   0  0  0  0  0  0
  -29.8071  -17.1427   20.6121 C   0  0  0  0  0  0
  -28.6768  -23.9211   19.7966 C   0  0  0  0  0  0
  -28.7433  -23.6777   22.6874 C   0  0  0  0  0  0
  -28.8831  -25.0755   22.0674 C   0  0  0  0  0  0
  -29.3568  -22.5798   21.7931 C   0  0  0  0  0  0
  -28.1892  -25.1277   20.6999 C   0  0  1  0  0  0
  -29.4039  -21.5106   19.5062 C   0  0  0  0  0  0
  -32.1143  -20.0234   19.4277 C   0  0  0  0  0  0
  -29.0442  -22.7059   20.3602 N   0  0  0  0  0  0
  -29.7856  -15.6934   20.8560 N   0  0  0  0  0  0
  -28.6609  -24.0779   18.5711 O   0  0  0  0  0  0
  -33.2043  -19.2731   19.5962 F   0  0  0  0  0  0
  -32.0085  -20.3040   18.1282 F   0  0  0  0  0  0
  -32.3009  -21.1570   20.1051 F   0  0  0  0  0  0
  -31.4830  -12.5249   19.1621 H   0  0  0  0  0  0
  -30.3742  -11.4048   19.9021 H   0  0  0  0  0  0
  -29.7816  -11.7599   17.4848 H   0  0  0  0  0  0
  -29.6554  -13.4810   17.7486 H   0  0  0  0  0  0
  -27.8731  -11.2936   18.8678 H   0  0  0  0  0  0
  -27.3800  -12.5750   17.7946 H   0  0  0  0  0  0
  -27.6698  -14.2515   19.5247 H   0  0  0  0  0  0
  -28.7114  -12.0508   21.3791 H   0  0  0  0  0  0
  -28.4400  -13.7022   21.8488 H   0  0  0  0  0  0
  -25.2758   -9.5675   22.4754 H   0  0  0  0  0  0
  -23.9999   -7.4627   22.7464 H   0  0  0  0  0  0
  -21.0836   -8.8753   19.8957 H   0  0  0  0  0  0
  -22.3689  -10.9654   19.6154 H   0  0  0  0  0  0
  -21.2002   -7.6149   23.9727 H   0  0  0  0  0  0
  -21.1491   -6.0518   25.9080 H   0  0  0  0  0  0
  -22.0598   -2.7617   23.2838 H   0  0  0  0  0  0
  -22.4100  -11.9880   22.4799 H   0  0  0  0  0  0
  -21.1113  -13.1252   22.2625 H   0  0  0  0  0  0
  -24.6518  -15.8371   20.5007 H   0  0  0  0  0  0
  -26.2587  -15.6222   20.0282 H   0  0  0  0  0  0
  -26.7168  -32.5455   23.1104 H   0  0  0  0  0  0
  -25.0036  -33.9721   25.0412 H   0  0  0  0  0  0
  -22.7133  -31.3013   21.3976 H   0  0  0  0  0  0
  -23.3707  -35.9696   23.3437 H   0  0  0  0  0  0
  -24.3544  -36.8793   22.2038 H   0  0  0  0  0  0
  -23.7324  -37.6582   23.6586 H   0  0  0  0  0  0
  -26.0863  -31.5555   20.6005 H   0  0  0  0  0  0
  -26.8401  -30.8458   21.9981 H   0  0  0  0  0  0
  -28.1215  -29.0023   21.1828 H   0  0  0  0  0  0
  -26.0221  -25.9187   19.0206 H   0  0  0  0  0  0
  -23.9813  -27.2896   19.0219 H   0  0  0  0  0  0
  -23.7516  -30.5831   19.4006 H   0  0  0  0  0  0
  -22.7561  -29.2360   19.8616 H   0  0  0  0  0  0
  -25.1323  -36.1972   25.0834 H   0  0  0  0  0  0
  -20.9977  -28.3263   24.1409 H   0  0  0  0  0  0
  -20.5678  -26.2302   23.3612 H   0  0  0  0  0  0
  -21.6644  -26.7442   22.1205 H   0  0  0  0  0  0
  -19.6913  -25.6295   21.1247 H   0  0  0  0  0  0
  -19.6687  -27.3196   20.6745 H   0  0  0  0  0  0
  -17.4201  -26.6672   21.4030 H   0  0  0  0  0  0
  -18.0329  -26.0063   22.9019 H   0  0  0  0  0  0
  -19.7938  -30.7263   24.2275 H   0  0  0  0  0  0
  -17.5018  -31.6271   24.5161 H   0  0  0  0  0  0
  -15.5351  -30.2993   23.7650 H   0  0  0  0  0  0
  -15.8671  -28.0823   22.7069 H   0  0  0  0  0  0
  -24.5881  -30.7089   25.7770 H   0  0  0  0  0  0
  -24.8917  -32.2893   26.4879 H   0  0  0  0  0  0
  -25.8032  -30.8890   27.0213 H   0  0  0  0  0  0
  -26.2902  -29.6764   24.1185 H   0  0  0  0  0  0
  -27.4020  -29.7264   25.4671 H   0  0  0  0  0  0
  -27.8772  -30.4301   23.9393 H   0  0  0  0  0  0
  -27.2645  -33.3614   26.2078 H   0  0  0  0  0  0
  -28.3841  -32.6899   25.0310 H   0  0  0  0  0  0
  -28.0721  -31.8441   26.5391 H   0  0  0  0  0  0
  -28.2713  -38.0003   24.7335 H   0  0  0  0  0  0
  -28.0914  -36.2532   24.6594 H   0  0  0  0  0  0
  -27.2242  -37.1839   25.8891 H   0  0  0  0  0  0
  -20.9364  -29.8753   21.6881 H   0  0  0  0  0  0
  -26.0221  -38.2876   24.1211 H   0  0  0  0  0  0
  -27.5584  -19.7693   20.6550 H   0  0  0  0  0  0
  -27.7239  -17.3772   21.1577 H   0  0  0  0  0  0
  -31.8672  -17.3984   20.0280 H   0  0  0  0  0  0
  -27.6869  -23.4615   22.8546 H   0  0  0  0  0  0
  -29.2148  -23.6551   23.6709 H   0  0  0  0  0  0
  -29.9377  -25.3340   21.9598 H   0  0  0  0  0  0
  -28.4459  -25.8205   22.7328 H   0  0  0  0  0  0
  -29.0389  -21.6058   22.1660 H   0  0  0  0  0  0
  -30.4434  -22.6044   21.8904 H   0  0  0  0  0  0
  -27.1310  -24.9328   20.8807 H   0  0  0  0  0  0
  -28.6062  -21.4134   18.7681 H   0  0  0  0  0  0
  -30.2643  -21.8088   18.9111 H   0  0  0  0  0  0
  -28.9030  -15.3532   21.2061 H   0  0  0  0  0  0
  1 25  1  0  0  0
  1 30  2  0  0  0
  1 85  1  0  0  0
  2  3  1  0  0  0
  2 25  1  0  0  0
  2 90  1  0  0  0
  2 91  1  0  0  0
  3  4  1  0  0  0
  3 92  1  0  0  0
  3 93  1  0  0  0
  4  5  1  0  0  0
  4 94  1  0  0  0
  4 95  1  0  0  0
  5  6  1  0  0  0
  5 26  1  0  0  0
  5 96  1  0  0  0
  6 25  1  0  0  0
  6 97  1  0  0  0
  6 98  1  0  0  0
  7  8  2  0  0  0
  7 26  1  0  0  0
  7 29  1  0  0  0
  8  9  1  0  0  0
  8 22  1  0  0  0
  9 10  1  0  0  0
  9 27  2  0  0  0
 10 11  2  0  0  0
 10 15  1  0  0  0
 11 12  1  0  0  0
 11 99  1  0  0  0
 12 13  2  0  0  0
 12100  1  0  0  0
 13 14  1  0  0  0
 13 31  1  0  0  0
 14 15  2  0  0  0
 14101  1  0  0  0
 15102  1  0  0  0
 16 17  2  0  0  0
 16 21  1  0  0  0
 16 31  1  0  0  0
 17 18  1  0  0  0
 17103  1  0  0  0
 18 19  2  0  0  0
 18104  1  0  0  0
 19 20  1  0  0  0
 19 24  1  0  0  0
 20 21  2  0  0  0
 20105  1  0  0  0
 21 23  1  0  0  0
 22 28  1  0  0  0
 22 32  2  0  0  0
 26 27  1  0  0  0
 28106  1  0  0  0
 28107  1  0  0  0
 29108  1  0  0  0
 29109  1  0  0  0
 33 34  1  0  0  0
 33 66  1  0  0  0
 33 70  2  0  0  0
 34 36  1  0  0  0
 34 59  1  0  0  0
 34110  1  0  0  0
 35 44  2  0  0  0
 35 45  1  0  0  0
 35 68  1  0  0  0
 36 56  1  0  0  0
 36111  1  0  0  0
 37 39  1  0  0  0
 37 47  1  0  0  0
 37 66  1  0  0  0
 37112  1  0  0  0
 38 43  2  0  0  0
 38 46  1  0  0  0
 38 47  1  0  0  0
 39 64  1  0  0  0
 39 67  2  0  0  0
 40 52  1  0  0  0
 40 53  2  0  0  0
 40 58  1  0  0  0
 41113  1  0  0  0
 41114  1  0  0  0
 41115  1  0  0  0
 41 48  1  0  0  0
 42 43  1  0  0  0
 42 66  1  0  0  0
 42116  1  0  0  0
 42117  1  0  0  0
 43 44  1  0  0  0
 44118  1  0  0  0
 45 46  2  0  0  0
 45119  1  0  0  0
 46120  1  0  0  0
 47121  1  0  0  0
 47122  1  0  0  0
 48 56  1  0  0  0
 48 65  1  0  0  0
 48123  1  0  0  0
 49 50  1  0  0  0
 49 53  1  0  0  0
 49 64  1  0  0  0
 49124  1  0  0  0
 50 51  1  0  0  0
 50125  1  0  0  0
 50126  1  0  0  0
 51 52  1  0  0  0
 51127  1  0  0  0
 51128  1  0  0  0
 52129  1  0  0  0
 52130  1  0  0  0
 53 54  1  0  0  0
 54 55  2  0  0  0
 54131  1  0  0  0
 55 57  1  0  0  0
 55132  1  0  0  0
 56 69  2  0  0  0
 57 58  2  0  0  0
 57133  1  0  0  0
 58134  1  0  0  0
 59 60  1  0  0  0
 59 61  1  0  0  0
 59 62  1  0  0  0
 60135  1  0  0  0
 60136  1  0  0  0
 60137  1  0  0  0
 61138  1  0  0  0
 61139  1  0  0  0
 61140  1  0  0  0
 62141  1  0  0  0
 62142  1  0  0  0
 62143  1  0  0  0
 63 65  1  0  0  0
 63144  1  0  0  0
 63145  1  0  0  0
 63146  1  0  0  0
 64147  1  0  0  0
 65148  1  0  0  0
 68 81  1  0  0  0
 71 72  2  0  0  0
 71 74  1  0  0  0
 71149  1  0  0  0
 72 76  1  0  0  0
 72150  1  0  0  0
 73 75  1  0  0  0
 73 76  2  0  0  0
 73151  1  0  0  0
 74 75  2  0  0  0
 74 82  1  0  0  0
 75 83  1  0  0  0
 76 85  1  0  0  0
 77 81  1  0  0  0
 77 84  1  0  0  0
 77 86  2  0  0  0
 78 79  1  0  0  0
 78 80  1  0  0  0
 78152  1  0  0  0
 78153  1  0  0  0
 79 81  1  0  0  0
 79154  1  0  0  0
 79155  1  0  0  0
 80 84  1  0  0  0
 80156  1  0  0  0
 80157  1  0  0  0
 81158  1  0  0  0
 82 84  1  0  0  0
 82159  1  0  0  0
 82160  1  0  0  0
 83 87  1  0  0  0
 83 88  1  0  0  0
 83 89  1  0  0  0
 85161  1  0  0  0
M  ISO  4   1 100  68 101  81 101  85 100
M  END
> <chiral flag>
0

> <version>
0

> <s_m_source_file>
/data/baiqing/PycharmProjects/Reinvent-master-3.2/result/LINK_invent/BTK/process_docking_weight1_custom_product_contain_oxygen_bond_distance_aromatic_linkinvent_7_9_3/rearranged_h_0045.sdf

> <i_m_source_file_index>
68

> <r_mmod_Potential_Energy-OPLS-2005>
160.047149658203

> <r_mmod_Stretch_Energy-OPLS-2005>
88.7124938964844

> <r_mmod_Bend_Energy-OPLS-2005>
145.693939208984

> <r_mmod_Torsional_Energy-OPLS-2005>
260.05615234375

> <r_mmod_Improper_Torsional_Energy-OPLS-2005>
5.88443470001221

> <r_mmod_Van_der_Waal_Energy-OPLS-2005>
149.376068115234

> <r_mmod_Electrostatic_Energy-OPLS-2005>
-312.055847167969

> <r_mmod_Solvation_Energy-OPLS-2005>
-225.818450927734

> <b_mmod_Minimization_Converged-OPLS-2005>
0

> <r_mmod_RMS_Derivative-OPLS-2005>
1.15514469146729

$$$$
68
                    3D
 Structure written by MMmdl.
154162  0  0  1  0            999 V2000
  -30.6283  -14.6441   20.4957 C   0  0  0  0  0  0
  -30.4397  -12.3928   19.4577 C   0  0  0  0  0  0
  -29.5087  -12.5037   18.2299 C   0  0  0  0  0  0
  -28.0332  -12.3373   18.6432 C   0  0  0  0  0  0
  -27.6545  -13.2156   19.8650 C   0  0  2  0  0  0
  -28.6994  -13.0788   20.9963 C   0  0  0  0  0  0
  -25.2560  -13.8165   20.5674 C   0  0  0  0  0  0
  -24.1822  -13.0435   20.9181 C   0  0  0  0  0  0
  -24.6388  -11.6904   20.8742 C   0  0  0  0  0  0
  -23.9053  -10.4289   21.0405 C   0  0  0  0  0  0
  -24.3610   -9.4205   21.9183 C   0  0  0  0  0  0
  -23.6285   -8.2243   22.0755 C   0  0  0  0  0  0
  -22.4269   -8.0279   21.3544 C   0  0  0  0  0  0
  -21.9902   -9.0250   20.4649 C   0  0  0  0  0  0
  -22.7228  -10.2129   20.3056 C   0  0  0  0  0  0
  -21.6851   -6.0730   22.5273 C   0  0  0  0  0  0
  -21.4015   -6.5634   23.8207 C   0  0  0  0  0  0
  -21.3661   -5.6788   24.9169 C   0  0  0  0  0  0
  -21.6046   -4.3050   24.7220 C   0  0  0  0  0  0
  -21.8819   -3.8140   23.4343 C   0  0  0  0  0  0
  -21.9191   -4.6959   22.3399 C   0  0  0  0  0  0
  -22.7845  -13.5236   21.1850 C   0  0  0  0  0  0
  -22.1659   -4.2142   21.0978 F   0  0  0  0  0  0
  -21.5629   -3.4537   25.7735 F   0  0  0  0  0  0
  -30.0163  -13.4181   20.4327 N   0  0  0  0  0  0
  -26.2997  -12.9344   20.3334 N   0  0  0  0  0  0
  -25.9324  -11.6502   20.5778 N   0  0  0  0  0  0
  -22.0487  -12.8230   22.0407 N   0  0  0  0  0  0
  -25.4268  -15.1887   20.4057 N   0  0  0  0  0  0
  -31.7895  -14.7974   20.1060 O   0  0  0  0  0  0
  -21.6640   -6.8874   21.4236 O   0  0  0  0  0  0
  -22.3526  -14.5540   20.6697 O   0  0  0  0  0  0
  -24.6266  -31.8596   23.2032 C   0  0  0  0  0  0
  -25.9114  -32.4775   23.8352 C   0  0  1  0  0  0
  -27.2253  -27.3228   20.1027 C   0  0  0  0  0  0
  -25.5914  -33.8574   24.2266 N   0  0  0  0  0  0
  -23.4190  -30.4859   21.5462 C   0  0  2  0  0  0
  -24.8641  -28.9439   20.1129 C   0  0  0  0  0  0
  -22.7475  -29.4625   22.4932 C   0  0  0  0  0  0
  -18.0284  -28.1376   22.8468 C   0  0  0  0  0  0
  -24.1492  -36.7302   23.2641 C   0  0  0  0  0  0
  -25.9622  -30.7927   21.3743 C   0  0  0  0  0  0
  -26.0364  -29.4214   20.7129 C   0  0  0  0  0  0
  -27.2198  -28.6240   20.6954 C   0  0  0  0  0  0
  -26.0237  -26.8998   19.4841 C   0  0  0  0  0  0
  -24.8600  -27.6886   19.4917 C   0  0  0  0  0  0
  -23.6342  -29.8254   20.1604 C   0  0  0  0  0  0
  -25.4106  -36.3072   24.0327 C   0  0  1  0  0  0
  -20.5886  -28.3681   23.1276 C   0  0  2  0  0  0
  -20.6774  -26.9404   22.5398 C   0  0  0  0  0  0
  -19.5751  -26.6372   21.5198 C   0  0  0  0  0  0
  -18.1929  -26.7910   22.1613 C   0  0  0  0  0  0
  -19.1539  -28.8840   23.2863 C   0  0  0  0  0  0
  -18.9471  -30.1444   23.8873 C   0  0  0  0  0  0
  -17.6475  -30.6576   24.0564 C   0  0  0  0  0  0
  -25.9040  -34.9452   23.5097 C   0  0  0  0  0  0
  -16.5363  -29.9082   23.6324 C   0  0  0  0  0  0
  -16.7274  -28.6508   23.0325 C   0  0  0  0  0  0
  -26.4483  -31.6584   25.0732 C   0  0  0  0  0  0
  -25.3722  -31.3749   26.1477 C   0  0  0  0  0  0
  -27.0321  -30.3000   24.6195 C   0  0  0  0  0  0
  -27.6034  -32.4319   25.7505 C   0  0  0  0  0  0
  -27.5574  -37.1805   24.8458 C   0  0  0  0  0  0
  -21.4186  -29.3051   22.3691 N   0  0  0  0  0  0
  -26.4277  -37.3770   23.9404 N   0  0  0  0  0  0
  -24.6879  -31.0622   22.0977 N   0  0  0  0  0  0
  -23.4206  -28.8147   23.2993 O   0  0  0  0  0  0
  -28.3452  -26.4735   20.1373 O   0  0  0  0  0  0
  -26.5624  -34.8924   22.4673 O   0  0  0  0  0  0
  -23.5424  -32.1391   23.7361 O   0  0  0  0  0  0
  -30.9698  -19.2483   19.8729 C   0  0  0  0  0  0
  -30.9547  -17.8274   19.9900 C   0  0  0  0  0  0
  -28.9325  -17.9943   21.2665 C   0  0  0  0  0  0
  -29.9818  -20.0982   20.4526 C   0  0  0  0  0  0
  -28.9381  -19.4272   21.1663 C   0  0  0  0  0  0
  -29.9333  -17.1524   20.7047 C   0  0  0  0  0  0
  -29.3281  -24.0565   20.1916 C   0  0  0  0  0  0
  -30.2268  -21.6622   20.3774 C   0  0  0  0  0  0
  -28.0942  -25.0165   20.0012 C   0  0  0  0  0  0
  -27.8176  -20.2101   21.8605 C   0  0  0  0  0  0
  -29.8285  -15.6957   20.8679 N   0  0  0  0  0  0
  -29.1457  -22.6977   20.2637 N   0  0  0  0  0  0
  -30.4593  -24.5443   20.2448 O   0  0  0  0  0  0
  -26.8662  -19.4003   22.3319 F   0  0  0  0  0  0
  -27.2146  -21.0441   21.0088 F   0  0  0  0  0  0
  -28.4598  -21.1431   23.2383 Cl  0  0  0  0  0  0
  -31.4804  -12.5160   19.1539 H   0  0  0  0  0  0
  -30.3758  -11.3991   19.9038 H   0  0  0  0  0  0
  -29.7755  -11.7519   17.4861 H   0  0  0  0  0  0
  -29.6471  -13.4733   17.7485 H   0  0  0  0  0  0
  -27.8775  -11.2854   18.8847 H   0  0  0  0  0  0
  -27.3760  -12.5559   17.8008 H   0  0  0  0  0  0
  -27.6713  -14.2493   19.5180 H   0  0  0  0  0  0
  -28.7100  -12.0610   21.3890 H   0  0  0  0  0  0
  -28.4432  -13.7189   21.8424 H   0  0  0  0  0  0
  -25.2752   -9.5682   22.4756 H   0  0  0  0  0  0
  -23.9989   -7.4639   22.7479 H   0  0  0  0  0  0
  -21.0831   -8.8773   19.8957 H   0  0  0  0  0  0
  -22.3686  -10.9671   19.6169 H   0  0  0  0  0  0
  -21.2010   -7.6143   23.9710 H   0  0  0  0  0  0
  -21.1484   -6.0517   25.9072 H   0  0  0  0  0  0
  -22.0599   -2.7601   23.2846 H   0  0  0  0  0  0
  -22.4097  -11.9884   22.4788 H   0  0  0  0  0  0
  -21.1120  -13.1278   22.2646 H   0  0  0  0  0  0
  -24.6556  -15.8400   20.5052 H   0  0  0  0  0  0
  -26.2695  -15.6270   20.0567 H   0  0  0  0  0  0
  -26.7188  -32.5443   23.1100 H   0  0  0  0  0  0
  -25.0036  -33.9713   25.0395 H   0  0  0  0  0  0
  -22.7108  -31.3057   21.4029 H   0  0  0  0  0  0
  -23.3745  -35.9647   23.3286 H   0  0  0  0  0  0
  -24.3578  -36.8938   22.2059 H   0  0  0  0  0  0
  -23.7274  -37.6509   23.6677 H   0  0  0  0  0  0
  -26.0948  -31.5600   20.6103 H   0  0  0  0  0  0
  -26.8424  -30.8365   22.0045 H   0  0  0  0  0  0
  -28.1206  -28.9902   21.1676 H   0  0  0  0  0  0
  -25.9449  -25.9464   18.9860 H   0  0  0  0  0  0
  -23.9617  -27.3178   19.0175 H   0  0  0  0  0  0
  -23.7558  -30.6045   19.4066 H   0  0  0  0  0  0
  -22.7541  -29.2583   19.8513 H   0  0  0  0  0  0
  -25.1287  -36.1911   25.0818 H   0  0  0  0  0  0
  -20.9957  -28.3249   24.1406 H   0  0  0  0  0  0
  -20.5646  -26.2292   23.3596 H   0  0  0  0  0  0
  -21.6644  -26.7412   22.1208 H   0  0  0  0  0  0
  -19.6916  -25.6280   21.1228 H   0  0  0  0  0  0
  -19.6695  -27.3185   20.6730 H   0  0  0  0  0  0
  -17.4190  -26.6641   21.4027 H   0  0  0  0  0  0
  -18.0345  -26.0047   22.9006 H   0  0  0  0  0  0
  -19.7957  -30.7260   24.2222 H   0  0  0  0  0  0
  -17.5041  -31.6251   24.5181 H   0  0  0  0  0  0
  -15.5366  -30.2990   23.7666 H   0  0  0  0  0  0
  -15.8665  -28.0846   22.7029 H   0  0  0  0  0  0
  -24.5877  -30.7096   25.7836 H   0  0  0  0  0  0
  -24.8946  -32.2937   26.4890 H   0  0  0  0  0  0
  -25.8054  -30.8943   27.0259 H   0  0  0  0  0  0
  -26.2907  -29.6759   24.1193 H   0  0  0  0  0  0
  -27.3989  -29.7232   25.4695 H   0  0  0  0  0  0
  -27.8772  -30.4265   23.9429 H   0  0  0  0  0  0
  -27.2628  -33.3617   26.2066 H   0  0  0  0  0  0
  -28.3856  -32.6882   25.0350 H   0  0  0  0  0  0
  -28.0678  -31.8461   26.5445 H   0  0  0  0  0  0
  -28.2580  -38.0116   24.7490 H   0  0  0  0  0  0
  -28.1081  -36.2641   24.6276 H   0  0  0  0  0  0
  -27.2293  -37.1436   25.8866 H   0  0  0  0  0  0
  -20.9360  -29.8819   21.6946 H   0  0  0  0  0  0
  -26.0154  -38.2838   24.1417 H   0  0  0  0  0  0
  -31.7928  -19.6990   19.3353 H   0  0  0  0  0  0
  -31.7513  -17.2684   19.5197 H   0  0  0  0  0  0
  -28.1288  -17.5263   21.8154 H   0  0  0  0  0  0
  -30.8965  -21.8387   19.5336 H   0  0  0  0  0  0
  -30.8165  -21.9178   21.2590 H   0  0  0  0  0  0
  -27.3202  -24.7130   20.7085 H   0  0  0  0  0  0
  -27.7259  -24.8051   18.9983 H   0  0  0  0  0  0
  -28.9448  -15.3813   21.2396 H   0  0  0  0  0  0
  -28.1917  -22.3457   20.2656 H   0  0  0  0  0  0
  1 25  1  0  0  0
  1 30  2  0  0  0
  1 81  1  0  0  0
  2  3  1  0  0  0
  2 25  1  0  0  0
  2 87  1  0  0  0
  2 88  1  0  0  0
  3  4  1  0  0  0
  3 89  1  0  0  0
  3 90  1  0  0  0
  4  5  1  0  0  0
  4 91  1  0  0  0
  4 92  1  0  0  0
  5  6  1  0  0  0
  5 26  1  0  0  0
  5 93  1  0  0  0
  6 25  1  0  0  0
  6 94  1  0  0  0
  6 95  1  0  0  0
  7  8  2  0  0  0
  7 26  1  0  0  0
  7 29  1  0  0  0
  8  9  1  0  0  0
  8 22  1  0  0  0
  9 10  1  0  0  0
  9 27  2  0  0  0
 10 11  2  0  0  0
 10 15  1  0  0  0
 11 12  1  0  0  0
 11 96  1  0  0  0
 12 13  2  0  0  0
 12 97  1  0  0  0
 13 14  1  0  0  0
 13 31  1  0  0  0
 14 15  2  0  0  0
 14 98  1  0  0  0
 15 99  1  0  0  0
 16 17  2  0  0  0
 16 21  1  0  0  0
 16 31  1  0  0  0
 17 18  1  0  0  0
 17100  1  0  0  0
 18 19  2  0  0  0
 18101  1  0  0  0
 19 20  1  0  0  0
 19 24  1  0  0  0
 20 21  2  0  0  0
 20102  1  0  0  0
 21 23  1  0  0  0
 22 28  1  0  0  0
 22 32  2  0  0  0
 26 27  1  0  0  0
 28103  1  0  0  0
 28104  1  0  0  0
 29105  1  0  0  0
 29106  1  0  0  0
 33 34  1  0  0  0
 33 66  1  0  0  0
 33 70  2  0  0  0
 34 36  1  0  0  0
 34 59  1  0  0  0
 34107  1  0  0  0
 35 44  2  0  0  0
 35 45  1  0  0  0
 35 68  1  0  0  0
 36 56  1  0  0  0
 36108  1  0  0  0
 37 39  1  0  0  0
 37 47  1  0  0  0
 37 66  1  0  0  0
 37109  1  0  0  0
 38 43  2  0  0  0
 38 46  1  0  0  0
 38 47  1  0  0  0
 39 64  1  0  0  0
 39 67  2  0  0  0
 40 52  1  0  0  0
 40 53  2  0  0  0
 40 58  1  0  0  0
 41110  1  0  0  0
 41111  1  0  0  0
 41112  1  0  0  0
 41 48  1  0  0  0
 42 43  1  0  0  0
 42 66  1  0  0  0
 42113  1  0  0  0
 42114  1  0  0  0
 43 44  1  0  0  0
 44115  1  0  0  0
 45 46  2  0  0  0
 45116  1  0  0  0
 46117  1  0  0  0
 47118  1  0  0  0
 47119  1  0  0  0
 48 56  1  0  0  0
 48 65  1  0  0  0
 48120  1  0  0  0
 49 50  1  0  0  0
 49 53  1  0  0  0
 49 64  1  0  0  0
 49121  1  0  0  0
 50 51  1  0  0  0
 50122  1  0  0  0
 50123  1  0  0  0
 51 52  1  0  0  0
 51124  1  0  0  0
 51125  1  0  0  0
 52126  1  0  0  0
 52127  1  0  0  0
 53 54  1  0  0  0
 54 55  2  0  0  0
 54128  1  0  0  0
 55 57  1  0  0  0
 55129  1  0  0  0
 56 69  2  0  0  0
 57 58  2  0  0  0
 57130  1  0  0  0
 58131  1  0  0  0
 59 60  1  0  0  0
 59 61  1  0  0  0
 59 62  1  0  0  0
 60132  1  0  0  0
 60133  1  0  0  0
 60134  1  0  0  0
 61135  1  0  0  0
 61136  1  0  0  0
 61137  1  0  0  0
 62138  1  0  0  0
 62139  1  0  0  0
 62140  1  0  0  0
 63 65  1  0  0  0
 63141  1  0  0  0
 63142  1  0  0  0
 63143  1  0  0  0
 64144  1  0  0  0
 65145  1  0  0  0
 68 79  1  0  0  0
 71 72  2  0  0  0
 71 74  1  0  0  0
 71146  1  0  0  0
 72 76  1  0  0  0
 72147  1  0  0  0
 73 75  1  0  0  0
 73 76  2  0  0  0
 73148  1  0  0  0
 74 75  2  0  0  0
 74 78  1  0  0  0
 75 80  1  0  0  0
 76 81  1  0  0  0
 77 79  1  0  0  0
 77 82  1  0  0  0
 77 83  2  0  0  0
 78 82  1  0  0  0
 78149  1  0  0  0
 78150  1  0  0  0
 79151  1  0  0  0
 79152  1  0  0  0
 80 84  1  0  0  0
 80 85  1  0  0  0
 80 86  1  0  0  0
 81153  1  0  0  0
 82154  1  0  0  0
M  ISO  4   1 100  68 101  79 101  81 100
M  END
> <chiral flag>
0

> <version>
0

> <s_m_source_file>
/data/baiqing/PycharmProjects/Reinvent-master-3.2/result/LINK_invent/BTK/process_docking_weight1_custom_product_contain_oxygen_bond_distance_aromatic_linkinvent_7_9_3/rearranged_h_0045.sdf

> <i_m_source_file_index>
69

> <r_mmod_Potential_Energy-OPLS-2005>
14.6152458190918

> <r_mmod_Stretch_Energy-OPLS-2005>
82.5531921386719

> <r_mmod_Bend_Energy-OPLS-2005>
146.94206237793

> <r_mmod_Torsional_Energy-OPLS-2005>
212.681091308594

> <r_mmod_Improper_Torsional_Energy-OPLS-2005>
4.26482343673706

> <r_mmod_Van_der_Waal_Energy-OPLS-2005>
152.724517822266

> <r_mmod_Electrostatic_Energy-OPLS-2005>
-392.589385986328

> <r_mmod_Solvation_Energy-OPLS-2005>
-240.061080932617

> <b_mmod_Minimization_Converged-OPLS-2005>
0

> <r_mmod_RMS_Derivative-OPLS-2005>
1.57324862480164

$$$$
69
                    3D
 Structure written by MMmdl.
154162  0  0  1  0            999 V2000
  -30.6274  -14.7457   20.4667 C   0  0  0  0  0  0
  -30.4283  -12.4555   19.4813 C   0  0  0  0  0  0
  -29.5092  -12.5006   18.2417 C   0  0  0  0  0  0
  -28.0368  -12.3219   18.6577 C   0  0  0  0  0  0
  -27.6399  -13.2323   19.8504 C   0  0  2  0  0  0
  -28.6837  -13.1818   20.9879 C   0  0  0  0  0  0
  -25.2502  -13.8204   20.5696 C   0  0  0  0  0  0
  -24.1792  -13.0447   20.9210 C   0  0  0  0  0  0
  -24.6391  -11.6926   20.8764 C   0  0  0  0  0  0
  -23.9074  -10.4299   21.0417 C   0  0  0  0  0  0
  -24.3621   -9.4212   21.9199 C   0  0  0  0  0  0
  -23.6296   -8.2243   22.0764 C   0  0  0  0  0  0
  -22.4277   -8.0284   21.3551 C   0  0  0  0  0  0
  -21.9917   -9.0257   20.4652 C   0  0  0  0  0  0
  -22.7246  -10.2139   20.3066 C   0  0  0  0  0  0
  -21.6856   -6.0739   22.5282 C   0  0  0  0  0  0
  -21.4008   -6.5645   23.8218 C   0  0  0  0  0  0
  -21.3661   -5.6793   24.9180 C   0  0  0  0  0  0
  -21.6037   -4.3054   24.7226 C   0  0  0  0  0  0
  -21.8823   -3.8151   23.4347 C   0  0  0  0  0  0
  -21.9190   -4.6966   22.3400 C   0  0  0  0  0  0
  -22.7814  -13.5226   21.1871 C   0  0  0  0  0  0
  -22.1660   -4.2149   21.0980 F   0  0  0  0  0  0
  -21.5628   -3.4542   25.7742 F   0  0  0  0  0  0
  -29.9849  -13.5283   20.4043 N   0  0  0  0  0  0
  -26.2927  -12.9412   20.3296 N   0  0  0  0  0  0
  -25.9321  -11.6551   20.5776 N   0  0  0  0  0  0
  -22.0458  -12.8213   22.0426 N   0  0  0  0  0  0
  -25.4203  -15.1929   20.4092 N   0  0  0  0  0  0
  -31.8152  -14.8004   20.1379 O   0  0  0  0  0  0
  -21.6643   -6.8877   21.4240 O   0  0  0  0  0  0
  -22.3501  -14.5530   20.6719 O   0  0  0  0  0  0
  -24.6286  -31.8517   23.1946 C   0  0  0  0  0  0
  -25.9095  -32.4737   23.8310 C   0  0  1  0  0  0
  -27.2301  -27.2583   20.1304 C   0  0  0  0  0  0
  -25.5891  -33.8548   24.2232 N   0  0  0  0  0  0
  -23.4275  -30.4717   21.5372 C   0  0  2  0  0  0
  -24.8772  -28.9151   20.1058 C   0  0  0  0  0  0
  -22.7496  -29.4580   22.4897 C   0  0  0  0  0  0
  -18.0293  -28.1382   22.8489 C   0  0  0  0  0  0
  -24.1482  -36.7287   23.2649 C   0  0  0  0  0  0
  -25.9710  -30.7645   21.3741 C   0  0  0  0  0  0
  -26.0433  -29.3853   20.7192 C   0  0  0  0  0  0
  -27.2161  -28.5664   20.7241 C   0  0  0  0  0  0
  -26.0385  -26.8499   19.4900 C   0  0  0  0  0  0
  -24.8801  -27.6570   19.4805 C   0  0  0  0  0  0
  -23.6451  -29.7995   20.1542 C   0  0  0  0  0  0
  -25.4112  -36.3071   24.0323 C   0  0  1  0  0  0
  -20.5900  -28.3677   23.1277 C   0  0  2  0  0  0
  -20.6770  -26.9395   22.5416 C   0  0  0  0  0  0
  -19.5742  -26.6372   21.5219 C   0  0  0  0  0  0
  -18.1923  -26.7921   22.1632 C   0  0  0  0  0  0
  -19.1553  -28.8852   23.2877 C   0  0  0  0  0  0
  -18.9467  -30.1462   23.8886 C   0  0  0  0  0  0
  -17.6460  -30.6578   24.0568 C   0  0  0  0  0  0
  -25.9049  -34.9437   23.5089 C   0  0  0  0  0  0
  -16.5351  -29.9077   23.6332 C   0  0  0  0  0  0
  -16.7281  -28.6499   23.0347 C   0  0  0  0  0  0
  -26.4478  -31.6577   25.0709 C   0  0  0  0  0  0
  -25.3709  -31.3717   26.1436 C   0  0  0  0  0  0
  -27.0324  -30.3008   24.6170 C   0  0  0  0  0  0
  -27.6027  -32.4334   25.7471 C   0  0  0  0  0  0
  -27.5573  -37.1803   24.8469 C   0  0  0  0  0  0
  -21.4204  -29.3032   22.3665 N   0  0  0  0  0  0
  -26.4286  -37.3768   23.9407 N   0  0  0  0  0  0
  -24.6947  -31.0483   22.0923 N   0  0  0  0  0  0
  -23.4202  -28.8140   23.3003 O   0  0  0  0  0  0
  -28.3555  -26.4069   20.2285 O   0  0  0  0  0  0
  -26.5648  -34.8901   22.4676 O   0  0  0  0  0  0
  -23.5430  -32.1333   23.7245 O   0  0  0  0  0  0
  -31.9998  -19.0845   20.7635 C   0  0  0  0  0  0
  -31.6086  -17.7329   20.7387 C   0  0  0  0  0  0
  -29.3079  -18.4632   20.6258 C   0  0  0  0  0  0
  -31.0691  -20.1478   20.7230 C   0  0  0  0  0  0
  -29.6740  -19.8838   20.6276 C   0  0  0  0  0  0
  -30.2508  -17.3504   20.6691 C   0  0  0  0  0  0
  -28.3399  -23.7338   20.5416 C   0  0  0  0  0  0
  -31.6288  -21.5562   20.8423 C   0  0  0  0  0  0
  -28.4749  -25.0365   19.6136 C   0  0  0  0  0  0
  -28.5893  -21.0775   20.6587 C   0  0  2  0  0  0
  -29.8754  -15.9017   20.6848 N   0  0  0  0  0  0
  -28.8641  -22.5019   20.1532 N   0  0  0  0  0  0
  -27.7078  -23.8525   21.5943 O   0  0  0  0  0  0
  -28.2307  -21.1471   21.9411 F   0  0  0  0  0  0
  -27.1467  -20.5626   19.7391 Cl  0  0  0  0  0  0
  -31.4696  -12.5686   19.1750 H   0  0  0  0  0  0
  -30.3691  -11.4831   19.9722 H   0  0  0  0  0  0
  -29.7938  -11.7224   17.5324 H   0  0  0  0  0  0
  -29.6346  -13.4513   17.7214 H   0  0  0  0  0  0
  -27.9010  -11.2752   18.9347 H   0  0  0  0  0  0
  -27.3762  -12.4994   17.8082 H   0  0  0  0  0  0
  -27.6314  -14.2496   19.4584 H   0  0  0  0  0  0
  -28.7197  -12.1909   21.4426 H   0  0  0  0  0  0
  -28.4162  -13.8773   21.7847 H   0  0  0  0  0  0
  -25.2767   -9.5687   22.4772 H   0  0  0  0  0  0
  -24.0007   -7.4635   22.7487 H   0  0  0  0  0  0
  -21.0852   -8.8778   19.8953 H   0  0  0  0  0  0
  -22.3714  -10.9677   19.6170 H   0  0  0  0  0  0
  -21.2002   -7.6154   23.9721 H   0  0  0  0  0  0
  -21.1474   -6.0525   25.9082 H   0  0  0  0  0  0
  -22.0596   -2.7609   23.2849 H   0  0  0  0  0  0
  -22.4071  -11.9859   22.4786 H   0  0  0  0  0  0
  -21.1079  -13.1239   22.2642 H   0  0  0  0  0  0
  -24.6505  -15.8453   20.5101 H   0  0  0  0  0  0
  -26.2622  -15.6301   20.0583 H   0  0  0  0  0  0
  -26.7149  -32.5380   23.1033 H   0  0  0  0  0  0
  -24.9997  -33.9690   25.0346 H   0  0  0  0  0  0
  -22.7249  -31.2935   21.3861 H   0  0  0  0  0  0
  -23.3737  -35.9631   23.3315 H   0  0  0  0  0  0
  -24.3573  -36.8904   22.2068 H   0  0  0  0  0  0
  -23.7232  -37.6486   23.6672 H   0  0  0  0  0  0
  -26.1061  -31.5208   20.6008 H   0  0  0  0  0  0
  -26.8524  -30.8195   22.0017 H   0  0  0  0  0  0
  -28.1075  -28.9208   21.2215 H   0  0  0  0  0  0
  -25.9629  -25.8813   19.0210 H   0  0  0  0  0  0
  -23.9838  -27.2892   18.9989 H   0  0  0  0  0  0
  -23.7616  -30.5723   19.3931 H   0  0  0  0  0  0
  -22.7667  -29.2251   19.8537 H   0  0  0  0  0  0
  -25.1291  -36.1921   25.0814 H   0  0  0  0  0  0
  -20.9998  -28.3222   24.1393 H   0  0  0  0  0  0
  -20.5653  -26.2285   23.3616 H   0  0  0  0  0  0
  -21.6629  -26.7391   22.1211 H   0  0  0  0  0  0
  -19.6902  -25.6289   21.1232 H   0  0  0  0  0  0
  -19.6675  -27.3195   20.6759 H   0  0  0  0  0  0
  -17.4193  -26.6682   21.4029 H   0  0  0  0  0  0
  -18.0308  -26.0070   22.9033 H   0  0  0  0  0  0
  -19.7948  -30.7295   24.2226 H   0  0  0  0  0  0
  -17.5011  -31.6257   24.5176 H   0  0  0  0  0  0
  -15.5357  -30.2975   23.7666 H   0  0  0  0  0  0
  -15.8674  -28.0826   22.7055 H   0  0  0  0  0  0
  -24.5903  -30.7041   25.7765 H   0  0  0  0  0  0
  -24.8884  -32.2887   26.4839 H   0  0  0  0  0  0
  -25.8033  -30.8918   27.0223 H   0  0  0  0  0  0
  -26.2897  -29.6768   24.1192 H   0  0  0  0  0  0
  -27.4032  -29.7257   25.4660 H   0  0  0  0  0  0
  -27.8751  -30.4309   23.9378 H   0  0  0  0  0  0
  -27.2635  -33.3657   26.1996 H   0  0  0  0  0  0
  -28.3852  -32.6862   25.0303 H   0  0  0  0  0  0
  -28.0673  -31.8496   26.5429 H   0  0  0  0  0  0
  -28.2595  -38.0098   24.7501 H   0  0  0  0  0  0
  -28.1061  -36.2631   24.6303 H   0  0  0  0  0  0
  -27.2293  -37.1434   25.8872 H   0  0  0  0  0  0
  -20.9386  -29.8776   21.6889 H   0  0  0  0  0  0
  -26.0165  -38.2835   24.1417 H   0  0  0  0  0  0
  -33.0567  -19.3006   20.8395 H   0  0  0  0  0  0
  -32.3971  -16.9995   20.8045 H   0  0  0  0  0  0
  -28.2562  -18.2196   20.6062 H   0  0  0  0  0  0
  -32.6848  -21.5444   21.1160 H   0  0  0  0  0  0
  -31.1084  -22.1230   21.6151 H   0  0  0  0  0  0
  -31.5475  -22.0846   19.8934 H   0  0  0  0  0  0
  -27.8237  -24.9192   18.7494 H   0  0  0  0  0  0
  -29.4826  -25.0002   19.2008 H   0  0  0  0  0  0
  -28.8961  -15.7167   20.8368 H   0  0  0  0  0  0
  -29.3989  -22.5230   19.2976 H   0  0  0  0  0  0
  1 25  1  0  0  0
  1 30  2  0  0  0
  1 81  1  0  0  0
  2  3  1  0  0  0
  2 25  1  0  0  0
  2 86  1  0  0  0
  2 87  1  0  0  0
  3  4  1  0  0  0
  3 88  1  0  0  0
  3 89  1  0  0  0
  4  5  1  0  0  0
  4 90  1  0  0  0
  4 91  1  0  0  0
  5  6  1  0  0  0
  5 26  1  0  0  0
  5 92  1  0  0  0
  6 25  1  0  0  0
  6 93  1  0  0  0
  6 94  1  0  0  0
  7  8  2  0  0  0
  7 26  1  0  0  0
  7 29  1  0  0  0
  8  9  1  0  0  0
  8 22  1  0  0  0
  9 10  1  0  0  0
  9 27  2  0  0  0
 10 11  2  0  0  0
 10 15  1  0  0  0
 11 12  1  0  0  0
 11 95  1  0  0  0
 12 13  2  0  0  0
 12 96  1  0  0  0
 13 14  1  0  0  0
 13 31  1  0  0  0
 14 15  2  0  0  0
 14 97  1  0  0  0
 15 98  1  0  0  0
 16 17  2  0  0  0
 16 21  1  0  0  0
 16 31  1  0  0  0
 17 18  1  0  0  0
 17 99  1  0  0  0
 18 19  2  0  0  0
 18100  1  0  0  0
 19 20  1  0  0  0
 19 24  1  0  0  0
 20 21  2  0  0  0
 20101  1  0  0  0
 21 23  1  0  0  0
 22 28  1  0  0  0
 22 32  2  0  0  0
 26 27  1  0  0  0
 28102  1  0  0  0
 28103  1  0  0  0
 29104  1  0  0  0
 29105  1  0  0  0
 33 34  1  0  0  0
 33 66  1  0  0  0
 33 70  2  0  0  0
 34 36  1  0  0  0
 34 59  1  0  0  0
 34106  1  0  0  0
 35 44  2  0  0  0
 35 45  1  0  0  0
 35 68  1  0  0  0
 36 56  1  0  0  0
 36107  1  0  0  0
 37 39  1  0  0  0
 37 47  1  0  0  0
 37 66  1  0  0  0
 37108  1  0  0  0
 38 43  2  0  0  0
 38 46  1  0  0  0
 38 47  1  0  0  0
 39 64  1  0  0  0
 39 67  2  0  0  0
 40 52  1  0  0  0
 40 53  2  0  0  0
 40 58  1  0  0  0
 41109  1  0  0  0
 41110  1  0  0  0
 41111  1  0  0  0
 41 48  1  0  0  0
 42 43  1  0  0  0
 42 66  1  0  0  0
 42112  1  0  0  0
 42113  1  0  0  0
 43 44  1  0  0  0
 44114  1  0  0  0
 45 46  2  0  0  0
 45115  1  0  0  0
 46116  1  0  0  0
 47117  1  0  0  0
 47118  1  0  0  0
 48 56  1  0  0  0
 48 65  1  0  0  0
 48119  1  0  0  0
 49 50  1  0  0  0
 49 53  1  0  0  0
 49 64  1  0  0  0
 49120  1  0  0  0
 50 51  1  0  0  0
 50121  1  0  0  0
 50122  1  0  0  0
 51 52  1  0  0  0
 51123  1  0  0  0
 51124  1  0  0  0
 52125  1  0  0  0
 52126  1  0  0  0
 53 54  1  0  0  0
 54 55  2  0  0  0
 54127  1  0  0  0
 55 57  1  0  0  0
 55128  1  0  0  0
 56 69  2  0  0  0
 57 58  2  0  0  0
 57129  1  0  0  0
 58130  1  0  0  0
 59 60  1  0  0  0
 59 61  1  0  0  0
 59 62  1  0  0  0
 60131  1  0  0  0
 60132  1  0  0  0
 60133  1  0  0  0
 61134  1  0  0  0
 61135  1  0  0  0
 61136  1  0  0  0
 62137  1  0  0  0
 62138  1  0  0  0
 62139  1  0  0  0
 63 65  1  0  0  0
 63140  1  0  0  0
 63141  1  0  0  0
 63142  1  0  0  0
 64143  1  0  0  0
 65144  1  0  0  0
 68 79  1  0  0  0
 71 72  2  0  0  0
 71 74  1  0  0  0
 71145  1  0  0  0
 72 76  1  0  0  0
 72146  1  0  0  0
 73 75  1  0  0  0
 73 76  2  0  0  0
 73147  1  0  0  0
 74 75  2  0  0  0
 74 78  1  0  0  0
 75 80  1  0  0  0
 76 81  1  0  0  0
 77 79  1  0  0  0
 77 82  1  0  0  0
 77 83  2  0  0  0
 78148  1  0  0  0
 78149  1  0  0  0
 78150  1  0  0  0
 79151  1  0  0  0
 79152  1  0  0  0
 80 82  1  0  0  0
 80 84  1  0  0  0
 80 85  1  0  0  0
 81153  1  0  0  0
 82154  1  0  0  0
M  ISO  4   1 100  68 101  79 101  81 100
M  END
> <chiral flag>
0

> <version>
0

> <s_m_source_file>
/data/baiqing/PycharmProjects/Reinvent-master-3.2/result/LINK_invent/BTK/process_docking_weight1_custom_product_contain_oxygen_bond_distance_aromatic_linkinvent_7_9_3/rearranged_h_0045.sdf

> <i_m_source_file_index>
70

> <r_mmod_Potential_Energy-OPLS-2005>
88.8930206298828

> <r_mmod_Stretch_Energy-OPLS-2005>
135.077346801758

> <r_mmod_Bend_Energy-OPLS-2005>
180.730880737305

> <r_mmod_Torsional_Energy-OPLS-2005>
203.768188476562

> <r_mmod_Improper_Torsional_Energy-OPLS-2005>
5.82287454605103

> <r_mmod_Van_der_Waal_Energy-OPLS-2005>
144.250091552734

> <r_mmod_Electrostatic_Energy-OPLS-2005>
-422.496917724609

> <r_mmod_Solvation_Energy-OPLS-2005>
-242.731063842773

> <b_mmod_Minimization_Converged-OPLS-2005>
0

> <r_mmod_RMS_Derivative-OPLS-2005>
2.12407326698303

$$$$
70
                    3D
 Structure written by MMmdl.
164173  0  0  1  0            999 V2000
  -30.5940  -14.6423   20.5007 C   0  0  0  0  0  0
  -30.4433  -12.3960   19.4398 C   0  0  0  0  0  0
  -29.5040  -12.5164   18.2189 C   0  0  0  0  0  0
  -28.0256  -12.3578   18.6313 C   0  0  0  0  0  0
  -27.6568  -13.2130   19.8710 C   0  0  2  0  0  0
  -28.7045  -13.0376   20.9930 C   0  0  0  0  0  0
  -25.2577  -13.8174   20.5692 C   0  0  0  0  0  0
  -24.1840  -13.0433   20.9189 C   0  0  0  0  0  0
  -24.6409  -11.6906   20.8744 C   0  0  0  0  0  0
  -23.9082  -10.4299   21.0427 C   0  0  0  0  0  0
  -24.3638   -9.4208   21.9195 C   0  0  0  0  0  0
  -23.6314   -8.2240   22.0761 C   0  0  0  0  0  0
  -22.4298   -8.0280   21.3548 C   0  0  0  0  0  0
  -21.9932   -9.0255   20.4654 C   0  0  0  0  0  0
  -22.7258  -10.2135   20.3071 C   0  0  0  0  0  0
  -21.6854   -6.0747   22.5288 C   0  0  0  0  0  0
  -21.4015   -6.5652   23.8218 C   0  0  0  0  0  0
  -21.3657   -5.6805   24.9174 C   0  0  0  0  0  0
  -21.6043   -4.3066   24.7231 C   0  0  0  0  0  0
  -21.8823   -3.8155   23.4354 C   0  0  0  0  0  0
  -21.9199   -4.6974   22.3407 C   0  0  0  0  0  0
  -22.7857  -13.5211   21.1842 C   0  0  0  0  0  0
  -22.1661   -4.2158   21.0981 F   0  0  0  0  0  0
  -21.5629   -3.4541   25.7742 F   0  0  0  0  0  0
  -30.0164  -13.4007   20.4335 N   0  0  0  0  0  0
  -26.3010  -12.9341   20.3369 N   0  0  0  0  0  0
  -25.9336  -11.6497   20.5797 N   0  0  0  0  0  0
  -22.0511  -12.8190   22.0404 N   0  0  0  0  0  0
  -25.4324  -15.1886   20.4075 N   0  0  0  0  0  0
  -31.7430  -14.8396   20.0917 O   0  0  0  0  0  0
  -21.6638   -6.8888   21.4255 O   0  0  0  0  0  0
  -22.3532  -14.5515   20.6697 O   0  0  0  0  0  0
  -24.6247  -31.8622   23.2059 C   0  0  0  0  0  0
  -25.9092  -32.4791   23.8388 C   0  0  1  0  0  0
  -27.2147  -27.3171   20.1060 C   0  0  0  0  0  0
  -25.5907  -33.8598   24.2291 N   0  0  0  0  0  0
  -23.4170  -30.4896   21.5488 C   0  0  2  0  0  0
  -24.8585  -28.9472   20.1150 C   0  0  0  0  0  0
  -22.7452  -29.4645   22.4928 C   0  0  0  0  0  0
  -18.0289  -28.1402   22.8497 C   0  0  0  0  0  0
  -24.1484  -36.7308   23.2637 C   0  0  0  0  0  0
  -25.9609  -30.7887   21.3818 C   0  0  0  0  0  0
  -26.0288  -29.4187   20.7198 C   0  0  0  0  0  0
  -27.2051  -28.6136   20.7092 C   0  0  0  0  0  0
  -26.0130  -26.9013   19.4812 C   0  0  0  0  0  0
  -24.8512  -27.6926   19.4930 C   0  0  0  0  0  0
  -23.6314  -29.8305   20.1625 C   0  0  0  0  0  0
  -25.4114  -36.3092   24.0323 C   0  0  1  0  0  0
  -20.5879  -28.3713   23.1281 C   0  0  2  0  0  0
  -20.6774  -26.9437   22.5402 C   0  0  0  0  0  0
  -19.5745  -26.6395   21.5208 C   0  0  0  0  0  0
  -18.1930  -26.7946   22.1628 C   0  0  0  0  0  0
  -19.1541  -28.8874   23.2891 C   0  0  0  0  0  0
  -18.9457  -30.1466   23.8915 C   0  0  0  0  0  0
  -17.6463  -30.6602   24.0578 C   0  0  0  0  0  0
  -25.9044  -34.9458   23.5111 C   0  0  0  0  0  0
  -16.5355  -29.9102   23.6333 C   0  0  0  0  0  0
  -16.7280  -28.6517   23.0367 C   0  0  0  0  0  0
  -26.4466  -31.6629   25.0782 C   0  0  0  0  0  0
  -25.3696  -31.3786   26.1506 C   0  0  0  0  0  0
  -27.0323  -30.3050   24.6280 C   0  0  0  0  0  0
  -27.6003  -32.4403   25.7558 C   0  0  0  0  0  0
  -27.5590  -37.1810   24.8458 C   0  0  0  0  0  0
  -21.4172  -29.3066   22.3671 N   0  0  0  0  0  0
  -26.4295  -37.3790   23.9408 N   0  0  0  0  0  0
  -24.6865  -31.0638   22.1016 N   0  0  0  0  0  0
  -23.4178  -28.8164   23.2993 O   0  0  0  0  0  0
  -28.3614  -26.5051   20.1636 O   0  0  0  0  0  0
  -26.5619  -34.8919   22.4680 O   0  0  0  0  0  0
  -23.5402  -32.1422   23.7375 O   0  0  0  0  0  0
  -28.8042  -19.2858   21.5140 C   0  0  0  0  0  0
  -28.8482  -17.8637   21.5545 C   0  0  0  0  0  0
  -30.6322  -17.8660   19.9532 C   0  0  0  0  0  0
  -29.6786  -20.0567   20.7044 C   0  0  0  0  0  0
  -30.5911  -19.2983   19.8974 C   0  0  0  0  0  0
  -29.7832  -17.1081   20.8022 C   0  0  0  0  0  0
  -28.5305  -23.9892   20.8094 C   0  0  0  0  0  0
  -28.4960  -24.2375   22.1324 C   0  0  0  0  0  0
  -29.6457  -23.4947   18.1352 C   0  0  0  0  0  0
  -29.5099  -24.9367   18.6793 C   0  0  0  0  0  0
  -28.6742  -22.4713   18.7742 C   0  0  0  0  0  0
  -28.3833  -25.0919   19.7091 C   0  0  2  0  0  0
  -31.6048  -19.9664   18.9791 C   0  0  0  0  0  0
  -29.7237  -21.6323   20.8837 C   0  0  0  0  0  0
  -29.7634  -15.6494   20.9200 N   0  0  0  0  0  0
  -28.6705  -22.5350   20.2591 N   0  3  1  0  0  0
  -31.4804  -12.5383   19.1297 H   0  0  0  0  0  0
  -30.3936  -11.3951   19.8711 H   0  0  0  0  0  0
  -29.7641  -11.7710   17.4666 H   0  0  0  0  0  0
  -29.6447  -13.4893   17.7461 H   0  0  0  0  0  0
  -27.8492  -11.3029   18.8435 H   0  0  0  0  0  0
  -27.3735  -12.6122   17.7947 H   0  0  0  0  0  0
  -27.6828  -14.2530   19.5462 H   0  0  0  0  0  0
  -28.7216  -12.0031   21.3385 H   0  0  0  0  0  0
  -28.4521  -13.6351   21.8694 H   0  0  0  0  0  0
  -25.2793   -9.5653   22.4750 H   0  0  0  0  0  0
  -24.0021   -7.4626   22.7472 H   0  0  0  0  0  0
  -21.0866   -8.8784   19.8950 H   0  0  0  0  0  0
  -22.3745  -10.9675   19.6164 H   0  0  0  0  0  0
  -21.2005   -7.6158   23.9722 H   0  0  0  0  0  0
  -21.1469   -6.0531   25.9081 H   0  0  0  0  0  0
  -22.0606   -2.7617   23.2850 H   0  0  0  0  0  0
  -22.4145  -11.9835   22.4745 H   0  0  0  0  0  0
  -21.1129  -13.1197   22.2632 H   0  0  0  0  0  0
  -24.6705  -15.8493   20.5203 H   0  0  0  0  0  0
  -26.2797  -15.6190   20.0579 H   0  0  0  0  0  0
  -26.7158  -32.5448   23.1126 H   0  0  0  0  0  0
  -25.0039  -33.9774   25.0421 H   0  0  0  0  0  0
  -22.7126  -31.3114   21.4081 H   0  0  0  0  0  0
  -23.3754  -35.9632   23.3278 H   0  0  0  0  0  0
  -24.3568  -36.8963   22.2053 H   0  0  0  0  0  0
  -23.7223  -37.6495   23.6689 H   0  0  0  0  0  0
  -26.1022  -31.5544   20.6176 H   0  0  0  0  0  0
  -26.8362  -30.8273   22.0187 H   0  0  0  0  0  0
  -28.1025  -28.9729   21.1928 H   0  0  0  0  0  0
  -25.8995  -25.9619   18.9702 H   0  0  0  0  0  0
  -23.9507  -27.3274   19.0192 H   0  0  0  0  0  0
  -23.7609  -30.6106   19.4122 H   0  0  0  0  0  0
  -22.7497  -29.2682   19.8501 H   0  0  0  0  0  0
  -25.1289  -36.1943   25.0815 H   0  0  0  0  0  0
  -20.9998  -28.3286   24.1391 H   0  0  0  0  0  0
  -20.5678  -26.2326   23.3606 H   0  0  0  0  0  0
  -21.6646  -26.7459   22.1196 H   0  0  0  0  0  0
  -19.6913  -25.6293   21.1265 H   0  0  0  0  0  0
  -19.6690  -27.3180   20.6714 H   0  0  0  0  0  0
  -17.4198  -26.6702   21.4034 H   0  0  0  0  0  0
  -18.0345  -26.0084   22.9020 H   0  0  0  0  0  0
  -19.7931  -30.7290   24.2294 H   0  0  0  0  0  0
  -17.5013  -31.6277   24.5182 H   0  0  0  0  0  0
  -15.5361  -30.3023   23.7637 H   0  0  0  0  0  0
  -15.8672  -28.0834   22.7094 H   0  0  0  0  0  0
  -24.5810  -30.7213   25.7824 H   0  0  0  0  0  0
  -24.8957  -32.2972   26.4989 H   0  0  0  0  0  0
  -25.7992  -30.8897   27.0256 H   0  0  0  0  0  0
  -26.2911  -29.6811   24.1270 H   0  0  0  0  0  0
  -27.3948  -29.7315   25.4823 H   0  0  0  0  0  0
  -27.8816  -30.4328   23.9562 H   0  0  0  0  0  0
  -27.2555  -33.3676   26.2159 H   0  0  0  0  0  0
  -28.3791  -32.7038   25.0387 H   0  0  0  0  0  0
  -28.0708  -31.8549   26.5472 H   0  0  0  0  0  0
  -28.2576  -38.0134   24.7528 H   0  0  0  0  0  0
  -28.1115  -36.2668   24.6245 H   0  0  0  0  0  0
  -27.2321  -37.1407   25.8862 H   0  0  0  0  0  0
  -20.9343  -29.8818   21.6910 H   0  0  0  0  0  0
  -26.0174  -38.2864   24.1425 H   0  0  0  0  0  0
  -28.1033  -19.7887   22.1660 H   0  0  0  0  0  0
  -28.1527  -17.3537   22.2073 H   0  0  0  0  0  0
  -31.3464  -17.3461   19.3298 H   0  0  0  0  0  0
  -28.3819  -25.2479   22.4987 H   0  0  0  0  0  0
  -28.5638  -23.4610   22.8796 H   0  0  0  0  0  0
  -30.6742  -23.1614   18.2675 H   0  0  0  0  0  0
  -29.4806  -23.5029   17.0570 H   0  0  0  0  0  0
  -29.3501  -25.6279   17.8518 H   0  0  0  0  0  0
  -30.4519  -25.2380   19.1395 H   0  0  0  0  0  0
  -28.8881  -21.4601   18.4276 H   0  0  0  0  0  0
  -27.6602  -22.6774   18.4270 H   0  0  0  0  0  0
  -27.4758  -24.8242   19.1878 H   0  0  0  0  0  0
  -32.6123  -19.8033   19.3632 H   0  0  0  0  0  0
  -31.4618  -21.0362   18.8624 H   0  0  0  0  0  0
  -31.5560  -19.5302   17.9801 H   0  0  0  0  0  0
  -30.7061  -22.0208   20.6201 H   0  0  0  0  0  0
  -29.6767  -21.7810   21.9609 H   0  0  0  0  0  0
  -28.9152  -15.2860   21.3279 H   0  0  0  0  0  0
  -27.8135  -22.0606   20.5042 H   0  0  0  0  0  0
  1 25  1  0  0  0
  1 30  2  0  0  0
  1 85  1  0  0  0
  2  3  1  0  0  0
  2 25  1  0  0  0
  2 87  1  0  0  0
  2 88  1  0  0  0
  3  4  1  0  0  0
  3 89  1  0  0  0
  3 90  1  0  0  0
  4  5  1  0  0  0
  4 91  1  0  0  0
  4 92  1  0  0  0
  5  6  1  0  0  0
  5 26  1  0  0  0
  5 93  1  0  0  0
  6 25  1  0  0  0
  6 94  1  0  0  0
  6 95  1  0  0  0
  7  8  2  0  0  0
  7 26  1  0  0  0
  7 29  1  0  0  0
  8  9  1  0  0  0
  8 22  1  0  0  0
  9 10  1  0  0  0
  9 27  2  0  0  0
 10 11  2  0  0  0
 10 15  1  0  0  0
 11 12  1  0  0  0
 11 96  1  0  0  0
 12 13  2  0  0  0
 12 97  1  0  0  0
 13 14  1  0  0  0
 13 31  1  0  0  0
 14 15  2  0  0  0
 14 98  1  0  0  0
 15 99  1  0  0  0
 16 17  2  0  0  0
 16 21  1  0  0  0
 16 31  1  0  0  0
 17 18  1  0  0  0
 17100  1  0  0  0
 18 19  2  0  0  0
 18101  1  0  0  0
 19 20  1  0  0  0
 19 24  1  0  0  0
 20 21  2  0  0  0
 20102  1  0  0  0
 21 23  1  0  0  0
 22 28  1  0  0  0
 22 32  2  0  0  0
 26 27  1  0  0  0
 28103  1  0  0  0
 28104  1  0  0  0
 29105  1  0  0  0
 29106  1  0  0  0
 33 34  1  0  0  0
 33 66  1  0  0  0
 33 70  2  0  0  0
 34 36  1  0  0  0
 34 59  1  0  0  0
 34107  1  0  0  0
 35 44  2  0  0  0
 35 45  1  0  0  0
 35 68  1  0  0  0
 36 56  1  0  0  0
 36108  1  0  0  0
 37 39  1  0  0  0
 37 47  1  0  0  0
 37 66  1  0  0  0
 37109  1  0  0  0
 38 43  2  0  0  0
 38 46  1  0  0  0
 38 47  1  0  0  0
 39 64  1  0  0  0
 39 67  2  0  0  0
 40 52  1  0  0  0
 40 53  2  0  0  0
 40 58  1  0  0  0
 41110  1  0  0  0
 41111  1  0  0  0
 41112  1  0  0  0
 41 48  1  0  0  0
 42 43  1  0  0  0
 42 66  1  0  0  0
 42113  1  0  0  0
 42114  1  0  0  0
 43 44  1  0  0  0
 44115  1  0  0  0
 45 46  2  0  0  0
 45116  1  0  0  0
 46117  1  0  0  0
 47118  1  0  0  0
 47119  1  0  0  0
 48 56  1  0  0  0
 48 65  1  0  0  0
 48120  1  0  0  0
 49 50  1  0  0  0
 49 53  1  0  0  0
 49 64  1  0  0  0
 49121  1  0  0  0
 50 51  1  0  0  0
 50122  1  0  0  0
 50123  1  0  0  0
 51 52  1  0  0  0
 51124  1  0  0  0
 51125  1  0  0  0
 52126  1  0  0  0
 52127  1  0  0  0
 53 54  1  0  0  0
 54 55  2  0  0  0
 54128  1  0  0  0
 55 57  1  0  0  0
 55129  1  0  0  0
 56 69  2  0  0  0
 57 58  2  0  0  0
 57130  1  0  0  0
 58131  1  0  0  0
 59 60  1  0  0  0
 59 61  1  0  0  0
 59 62  1  0  0  0
 60132  1  0  0  0
 60133  1  0  0  0
 60134  1  0  0  0
 61135  1  0  0  0
 61136  1  0  0  0
 61137  1  0  0  0
 62138  1  0  0  0
 62139  1  0  0  0
 62140  1  0  0  0
 63 65  1  0  0  0
 63141  1  0  0  0
 63142  1  0  0  0
 63143  1  0  0  0
 64144  1  0  0  0
 65145  1  0  0  0
 68 82  1  0  0  0
 71 72  2  0  0  0
 71 74  1  0  0  0
 71146  1  0  0  0
 72 76  1  0  0  0
 72147  1  0  0  0
 73 75  1  0  0  0
 73 76  2  0  0  0
 73148  1  0  0  0
 74 75  2  0  0  0
 74 84  1  0  0  0
 75 83  1  0  0  0
 76 85  1  0  0  0
 77 78  2  0  0  0
 77 82  1  0  0  0
 77 86  1  0  0  0
 78149  1  0  0  0
 78150  1  0  0  0
 79 80  1  0  0  0
 79 81  1  0  0  0
 79151  1  0  0  0
 79152  1  0  0  0
 80 82  1  0  0  0
 80153  1  0  0  0
 80154  1  0  0  0
 81 86  1  0  0  0
 81155  1  0  0  0
 81156  1  0  0  0
 82157  1  0  0  0
 83158  1  0  0  0
 83159  1  0  0  0
 83160  1  0  0  0
 84161  1  0  0  0
 84162  1  0  0  0
 84 86  1  0  0  0
 85163  1  0  0  0
 86164  1  0  0  0
M  CHG  1  86   1
M  ISO  4   1 100  68 101  82 101  85 100
M  END
> <chiral flag>
0

> <version>
0

> <s_m_source_file>
/data/baiqing/PycharmProjects/Reinvent-master-3.2/result/LINK_invent/BTK/process_docking_weight1_custom_product_contain_oxygen_bond_distance_aromatic_linkinvent_7_9_3/rearranged_h_0045.sdf

> <i_m_source_file_index>
71

> <r_mmod_Potential_Energy-OPLS-2005>
-13.7547416687012

> <r_mmod_Stretch_Energy-OPLS-2005>
87.1078720092773

> <r_mmod_Bend_Energy-OPLS-2005>
163.65104675293

> <r_mmod_Torsional_Energy-OPLS-2005>
233.132827758789

> <r_mmod_Improper_Torsional_Energy-OPLS-2005>
4.34317350387573

> <r_mmod_Van_der_Waal_Energy-OPLS-2005>
154.072875976562

> <r_mmod_Electrostatic_Energy-OPLS-2005>
-267.409210205078

> <r_mmod_Solvation_Energy-OPLS-2005>
-436.455718994141

> <b_mmod_Minimization_Converged-OPLS-2005>
0

> <r_mmod_RMS_Derivative-OPLS-2005>
2.43721914291382

$$$$
71
                    3D
 Structure written by MMmdl.
170179  0  0  1  0            999 V2000
  -30.6619  -14.7122   20.5361 C   0  0  0  0  0  0
  -30.4251  -12.4548   19.4684 C   0  0  0  0  0  0
  -29.5043  -12.5229   18.2309 C   0  0  0  0  0  0
  -28.0322  -12.3398   18.6420 C   0  0  0  0  0  0
  -27.6419  -13.2307   19.8488 C   0  0  2  0  0  0
  -28.6806  -13.1445   20.9836 C   0  0  0  0  0  0
  -25.2528  -13.8199   20.5694 C   0  0  0  0  0  0
  -24.1803  -13.0447   20.9179 C   0  0  0  0  0  0
  -24.6387  -11.6922   20.8725 C   0  0  0  0  0  0
  -23.9063  -10.4299   21.0393 C   0  0  0  0  0  0
  -24.3614   -9.4219   21.9178 C   0  0  0  0  0  0
  -23.6288   -8.2254   22.0757 C   0  0  0  0  0  0
  -22.4271   -8.0282   21.3547 C   0  0  0  0  0  0
  -21.9905   -9.0252   20.4650 C   0  0  0  0  0  0
  -22.7232  -10.2132   20.3050 C   0  0  0  0  0  0
  -21.6858   -6.0734   22.5278 C   0  0  0  0  0  0
  -21.4016   -6.5637   23.8213 C   0  0  0  0  0  0
  -21.3660   -5.6790   24.9177 C   0  0  0  0  0  0
  -21.6043   -4.3052   24.7229 C   0  0  0  0  0  0
  -21.8816   -3.8142   23.4350 C   0  0  0  0  0  0
  -21.9196   -4.6959   22.3407 C   0  0  0  0  0  0
  -22.7830  -13.5241   21.1848 C   0  0  0  0  0  0
  -22.1666   -4.2148   21.0985 F   0  0  0  0  0  0
  -21.5625   -3.4536   25.7743 F   0  0  0  0  0  0
  -29.9938  -13.5061   20.4231 N   0  0  0  0  0  0
  -26.2936  -12.9397   20.3260 N   0  0  0  0  0  0
  -25.9313  -11.6539   20.5717 N   0  0  0  0  0  0
  -22.0477  -12.8231   22.0402 N   0  0  0  0  0  0
  -25.4255  -15.1924   20.4164 N   0  0  0  0  0  0
  -31.7975  -14.8209   20.0621 O   0  0  0  0  0  0
  -21.6637   -6.8878   21.4240 O   0  0  0  0  0  0
  -22.3520  -14.5553   20.6708 O   0  0  0  0  0  0
  -24.6329  -31.8553   23.1982 C   0  0  0  0  0  0
  -25.9151  -32.4752   23.8320 C   0  0  1  0  0  0
  -27.2104  -27.2495   20.1207 C   0  0  0  0  0  0
  -25.5936  -33.8556   24.2238 N   0  0  0  0  0  0
  -23.4296  -30.4799   21.5421 C   0  0  2  0  0  0
  -24.8765  -28.9349   20.1038 C   0  0  0  0  0  0
  -22.7517  -29.4607   22.4901 C   0  0  0  0  0  0
  -18.0296  -28.1391   22.8478 C   0  0  0  0  0  0
  -24.1502  -36.7286   23.2640 C   0  0  0  0  0  0
  -25.9791  -30.7609   21.3855 C   0  0  0  0  0  0
  -26.0501  -29.3862   20.7225 C   0  0  0  0  0  0
  -27.2189  -28.5541   20.7253 C   0  0  0  0  0  0
  -26.0215  -26.8948   19.4387 C   0  0  0  0  0  0
  -24.8680  -27.6962   19.4535 C   0  0  0  0  0  0
  -23.6481  -29.8206   20.1571 C   0  0  0  0  0  0
  -25.4130  -36.3063   24.0319 C   0  0  1  0  0  0
  -20.5905  -28.3709   23.1258 C   0  0  2  0  0  0
  -20.6791  -26.9426   22.5405 C   0  0  0  0  0  0
  -19.5764  -26.6386   21.5211 C   0  0  0  0  0  0
  -18.1940  -26.7930   22.1619 C   0  0  0  0  0  0
  -19.1552  -28.8864   23.2860 C   0  0  0  0  0  0
  -18.9478  -30.1455   23.8891 C   0  0  0  0  0  0
  -17.6480  -30.6589   24.0561 C   0  0  0  0  0  0
  -25.9074  -34.9438   23.5084 C   0  0  0  0  0  0
  -16.5369  -29.9090   23.6334 C   0  0  0  0  0  0
  -16.7285  -28.6507   23.0352 C   0  0  0  0  0  0
  -26.4506  -31.6581   25.0719 C   0  0  0  0  0  0
  -25.3705  -31.3729   26.1417 C   0  0  0  0  0  0
  -27.0369  -30.2996   24.6231 C   0  0  0  0  0  0
  -27.6055  -32.4332   25.7489 C   0  0  0  0  0  0
  -27.5585  -37.1793   24.8461 C   0  0  0  0  0  0
  -21.4224  -29.3049   22.3643 N   0  0  0  0  0  0
  -26.4300  -37.3765   23.9407 N   0  0  0  0  0  0
  -24.6993  -31.0507   22.0970 N   0  0  0  0  0  0
  -23.4212  -28.8147   23.3005 O   0  0  0  0  0  0
  -28.2702  -26.3059   20.2170 O   0  0  0  0  0  0
  -26.5652  -34.8909   22.4658 O   0  0  0  0  0  0
  -23.5477  -32.1386   23.7271 O   0  0  0  0  0  0
  -28.9240  -18.1275   18.3231 C   0  0  0  0  0  0
  -29.2733  -17.0147   19.1054 C   0  0  0  0  0  0
  -29.0694  -19.4486   18.7897 C   0  0  0  0  0  0
  -29.5532  -19.7080   20.0985 C   0  0  0  0  0  0
  -29.8700  -18.5298   20.9234 C   0  0  0  0  0  0
  -29.7599  -17.1373   20.4253 C   0  0  0  0  0  0
  -29.1038  -23.7309   20.1894 C   0  0  0  0  0  0
  -26.4130  -22.9834   20.9655 C   0  0  0  0  0  0
  -26.8956  -24.4152   21.2309 C   0  0  0  0  0  0
  -27.5582  -21.9581   21.0588 C   0  0  0  0  0  0
  -27.9279  -24.8255   20.1577 C   0  0  1  0  0  0
  -28.7349  -20.5768   17.8235 C   0  0  0  0  0  0
  -31.9109  -18.8485   22.4063 C   0  0  0  0  0  0
  -30.0071  -15.7329   22.5792 C   0  0  0  0  0  0
  -30.3793  -18.8219   22.3350 C   0  0  0  0  0  0
  -29.8683  -21.2473   20.4736 C   0  0  0  0  0  0
  -28.8337  -22.3784   20.4537 N   0  0  0  0  0  0
  -30.0442  -15.8237   21.1148 N   0  0  0  0  0  0
  -30.2500  -24.1083   19.9274 O   0  0  0  0  0  0
  -31.4672  -12.5671   19.1647 H   0  0  0  0  0  0
  -30.3630  -11.4719   19.9378 H   0  0  0  0  0  0
  -29.7861  -11.7581   17.5063 H   0  0  0  0  0  0
  -29.6304  -13.4828   17.7286 H   0  0  0  0  0  0
  -27.8890  -11.2894   18.8964 H   0  0  0  0  0  0
  -27.3735  -12.5393   17.7962 H   0  0  0  0  0  0
  -27.6436  -14.2580   19.4842 H   0  0  0  0  0  0
  -28.7116  -12.1395   21.4067 H   0  0  0  0  0  0
  -28.3740  -13.8027   21.7943 H   0  0  0  0  0  0
  -25.2759   -9.5700   22.4754 H   0  0  0  0  0  0
  -24.0000   -7.4651   22.7483 H   0  0  0  0  0  0
  -21.0839   -8.8765   19.8958 H   0  0  0  0  0  0
  -22.3685  -10.9666   19.6158 H   0  0  0  0  0  0
  -21.2006   -7.6143   23.9720 H   0  0  0  0  0  0
  -21.1486   -6.0518   25.9081 H   0  0  0  0  0  0
  -22.0592   -2.7604   23.2850 H   0  0  0  0  0  0
  -22.4087  -11.9886   22.4777 H   0  0  0  0  0  0
  -21.1103  -13.1270   22.2619 H   0  0  0  0  0  0
  -24.6656  -15.8523   20.5401 H   0  0  0  0  0  0
  -26.2913  -15.6342   20.1319 H   0  0  0  0  0  0
  -26.7212  -32.5394   23.1051 H   0  0  0  0  0  0
  -25.0037  -33.9695   25.0350 H   0  0  0  0  0  0
  -22.7253  -31.3025   21.3976 H   0  0  0  0  0  0
  -23.3767  -35.9616   23.3293 H   0  0  0  0  0  0
  -24.3585  -36.8933   22.2055 H   0  0  0  0  0  0
  -23.7267  -37.6484   23.6684 H   0  0  0  0  0  0
  -26.1284  -31.5223   20.6187 H   0  0  0  0  0  0
  -26.8523  -30.8022   22.0252 H   0  0  0  0  0  0
  -28.1083  -28.8849   21.2435 H   0  0  0  0  0  0
  -25.9290  -25.9592   18.9121 H   0  0  0  0  0  0
  -23.9739  -27.3469   18.9548 H   0  0  0  0  0  0
  -23.7730  -30.5991   19.4037 H   0  0  0  0  0  0
  -22.7667  -29.2557   19.8495 H   0  0  0  0  0  0
  -25.1318  -36.1895   25.0812 H   0  0  0  0  0  0
  -20.9987  -28.3301   24.1383 H   0  0  0  0  0  0
  -20.5712  -26.2326   23.3618 H   0  0  0  0  0  0
  -21.6656  -26.7462   22.1188 H   0  0  0  0  0  0
  -19.6939  -25.6299   21.1241 H   0  0  0  0  0  0
  -19.6700  -27.3194   20.6740 H   0  0  0  0  0  0
  -17.4213  -26.6674   21.4014 H   0  0  0  0  0  0
  -18.0334  -26.0074   22.9019 H   0  0  0  0  0  0
  -19.7956  -30.7259   24.2274 H   0  0  0  0  0  0
  -17.5039  -31.6272   24.5161 H   0  0  0  0  0  0
  -15.5369  -30.2990   23.7671 H   0  0  0  0  0  0
  -15.8683  -28.0826   22.7077 H   0  0  0  0  0  0
  -24.5917  -30.7046   25.7724 H   0  0  0  0  0  0
  -24.8844  -32.2886   26.4788 H   0  0  0  0  0  0
  -25.7989  -30.8940   27.0230 H   0  0  0  0  0  0
  -26.2960  -29.6725   24.1257 H   0  0  0  0  0  0
  -27.4046  -29.7280   25.4764 H   0  0  0  0  0  0
  -27.8837  -30.4269   23.9486 H   0  0  0  0  0  0
  -27.2677  -33.3675   26.1987 H   0  0  0  0  0  0
  -28.3889  -32.6829   25.0320 H   0  0  0  0  0  0
  -28.0683  -31.8501   26.5459 H   0  0  0  0  0  0
  -28.2582  -38.0107   24.7528 H   0  0  0  0  0  0
  -28.1099  -36.2638   24.6265 H   0  0  0  0  0  0
  -27.2294  -37.1412   25.8858 H   0  0  0  0  0  0
  -20.9421  -29.8785   21.6853 H   0  0  0  0  0  0
  -26.0175  -38.2840   24.1401 H   0  0  0  0  0  0
  -28.5573  -17.9504   17.3214 H   0  0  0  0  0  0
  -29.1432  -16.0394   18.6588 H   0  0  0  0  0  0
  -25.9585  -22.9322   19.9748 H   0  0  0  0  0  0
  -25.6236  -22.7198   21.6708 H   0  0  0  0  0  0
  -27.3367  -24.4943   22.2249 H   0  0  0  0  0  0
  -26.0253  -25.0672   21.2407 H   0  0  0  0  0  0
  -27.2269  -21.0164   20.6192 H   0  0  0  0  0  0
  -27.7521  -21.7469   22.1114 H   0  0  0  0  0  0
  -27.5019  -24.6507   19.1716 H   0  0  0  0  0  0
  -28.5221  -20.1980   16.8233 H   0  0  0  0  0  0
  -29.5641  -21.2767   17.7238 H   0  0  0  0  0  0
  -27.8543  -21.1236   18.1585 H   0  0  0  0  0  0
  -32.2490  -19.0488   23.4227 H   0  0  0  0  0  0
  -32.3195  -19.6269   21.7615 H   0  0  0  0  0  0
  -32.3408  -17.8973   22.0921 H   0  0  0  0  0  0
  -29.0997  -16.1896   22.9740 H   0  0  0  0  0  0
  -30.8894  -16.1983   23.0161 H   0  0  0  0  0  0
  -30.0146  -14.7076   22.9531 H   0  0  0  0  0  0
  -29.9626  -18.1469   23.0691 H   0  0  0  0  0  0
  -29.9777  -19.7648   22.6985 H   0  0  0  0  0  0
  -30.6436  -21.5353   19.7631 H   0  0  0  0  0  0
  -30.3923  -21.3309   21.4215 H   0  0  0  0  0  0
  1 25  1  0  0  0
  1 30  2  0  0  0
  1 88  1  0  0  0
  2  3  1  0  0  0
  2 25  1  0  0  0
  2 90  1  0  0  0
  2 91  1  0  0  0
  3  4  1  0  0  0
  3 92  1  0  0  0
  3 93  1  0  0  0
  4  5  1  0  0  0
  4 94  1  0  0  0
  4 95  1  0  0  0
  5  6  1  0  0  0
  5 26  1  0  0  0
  5 96  1  0  0  0
  6 25  1  0  0  0
  6 97  1  0  0  0
  6 98  1  0  0  0
  7  8  2  0  0  0
  7 26  1  0  0  0
  7 29  1  0  0  0
  8  9  1  0  0  0
  8 22  1  0  0  0
  9 10  1  0  0  0
  9 27  2  0  0  0
 10 11  2  0  0  0
 10 15  1  0  0  0
 11 12  1  0  0  0
 11 99  1  0  0  0
 12 13  2  0  0  0
 12100  1  0  0  0
 13 14  1  0  0  0
 13 31  1  0  0  0
 14 15  2  0  0  0
 14101  1  0  0  0
 15102  1  0  0  0
 16 17  2  0  0  0
 16 21  1  0  0  0
 16 31  1  0  0  0
 17 18  1  0  0  0
 17103  1  0  0  0
 18 19  2  0  0  0
 18104  1  0  0  0
 19 20  1  0  0  0
 19 24  1  0  0  0
 20 21  2  0  0  0
 20105  1  0  0  0
 21 23  1  0  0  0
 22 28  1  0  0  0
 22 32  2  0  0  0
 26 27  1  0  0  0
 28106  1  0  0  0
 28107  1  0  0  0
 29108  1  0  0  0
 29109  1  0  0  0
 33 34  1  0  0  0
 33 66  1  0  0  0
 33 70  2  0  0  0
 34 36  1  0  0  0
 34 59  1  0  0  0
 34110  1  0  0  0
 35 44  2  0  0  0
 35 45  1  0  0  0
 35 68  1  0  0  0
 36 56  1  0  0  0
 36111  1  0  0  0
 37 39  1  0  0  0
 37 47  1  0  0  0
 37 66  1  0  0  0
 37112  1  0  0  0
 38 43  2  0  0  0
 38 46  1  0  0  0
 38 47  1  0  0  0
 39 64  1  0  0  0
 39 67  2  0  0  0
 40 52  1  0  0  0
 40 53  2  0  0  0
 40 58  1  0  0  0
 41113  1  0  0  0
 41114  1  0  0  0
 41115  1  0  0  0
 41 48  1  0  0  0
 42 43  1  0  0  0
 42 66  1  0  0  0
 42116  1  0  0  0
 42117  1  0  0  0
 43 44  1  0  0  0
 44118  1  0  0  0
 45 46  2  0  0  0
 45119  1  0  0  0
 46120  1  0  0  0
 47121  1  0  0  0
 47122  1  0  0  0
 48 56  1  0  0  0
 48 65  1  0  0  0
 48123  1  0  0  0
 49 50  1  0  0  0
 49 53  1  0  0  0
 49 64  1  0  0  0
 49124  1  0  0  0
 50 51  1  0  0  0
 50125  1  0  0  0
 50126  1  0  0  0
 51 52  1  0  0  0
 51127  1  0  0  0
 51128  1  0  0  0
 52129  1  0  0  0
 52130  1  0  0  0
 53 54  1  0  0  0
 54 55  2  0  0  0
 54131  1  0  0  0
 55 57  1  0  0  0
 55132  1  0  0  0
 56 69  2  0  0  0
 57 58  2  0  0  0
 57133  1  0  0  0
 58134  1  0  0  0
 59 60  1  0  0  0
 59 61  1  0  0  0
 59 62  1  0  0  0
 60135  1  0  0  0
 60136  1  0  0  0
 60137  1  0  0  0
 61138  1  0  0  0
 61139  1  0  0  0
 61140  1  0  0  0
 62141  1  0  0  0
 62142  1  0  0  0
 62143  1  0  0  0
 63 65  1  0  0  0
 63144  1  0  0  0
 63145  1  0  0  0
 63146  1  0  0  0
 64147  1  0  0  0
 65148  1  0  0  0
 68 81  1  0  0  0
 71 72  2  0  0  0
 71 73  1  0  0  0
 71149  1  0  0  0
 72 76  1  0  0  0
 72150  1  0  0  0
 73 74  2  0  0  0
 73 82  1  0  0  0
 74 75  1  0  0  0
 74 86  1  0  0  0
 75 76  2  0  0  0
 75 85  1  0  0  0
 76 88  1  0  0  0
 77 81  1  0  0  0
 77 87  1  0  0  0
 77 89  2  0  0  0
 78 79  1  0  0  0
 78 80  1  0  0  0
 78151  1  0  0  0
 78152  1  0  0  0
 79 81  1  0  0  0
 79153  1  0  0  0
 79154  1  0  0  0
 80 87  1  0  0  0
 80155  1  0  0  0
 80156  1  0  0  0
 81157  1  0  0  0
 82158  1  0  0  0
 82159  1  0  0  0
 82160  1  0  0  0
 83 85  1  0  0  0
 83161  1  0  0  0
 83162  1  0  0  0
 83163  1  0  0  0
 84 88  1  0  0  0
 84164  1  0  0  0
 84165  1  0  0  0
 84166  1  0  0  0
 85167  1  0  0  0
 85168  1  0  0  0
 86 87  1  0  0  0
 86169  1  0  0  0
 86170  1  0  0  0
M  ISO  4   1 100  68 101  81 101  88 100
M  END
> <chiral flag>
0

> <version>
0

> <s_m_source_file>
/data/baiqing/PycharmProjects/Reinvent-master-3.2/result/LINK_invent/BTK/process_docking_weight1_custom_product_contain_oxygen_bond_distance_aromatic_linkinvent_7_9_3/rearranged_h_0045.sdf

> <i_m_source_file_index>
72

> <r_mmod_Potential_Energy-OPLS-2005>
429.460754394531

> <r_mmod_Stretch_Energy-OPLS-2005>
159.372833251953

> <r_mmod_Bend_Energy-OPLS-2005>
189.001953125

> <r_mmod_Torsional_Energy-OPLS-2005>
311.872406005859

> <r_mmod_Improper_Torsional_Energy-OPLS-2005>
3.99318361282349

> <r_mmod_Van_der_Waal_Energy-OPLS-2005>
163.45295715332

> <r_mmod_Electrostatic_Energy-OPLS-2005>
-271.330841064453

> <r_mmod_Solvation_Energy-OPLS-2005>
-211.667617797852

> <b_mmod_Minimization_Converged-OPLS-2005>
0

> <r_mmod_RMS_Derivative-OPLS-2005>
1.37247622013092

$$$$
72
                    3D
 Structure written by MMmdl.
158166  0  0  1  0            999 V2000
  -29.8764  -14.3551   20.8929 C   0  0  0  0  0  0
  -30.4974  -12.4559   19.3086 C   0  0  0  0  0  0
  -29.5161  -12.4202   18.0816 C   0  0  0  0  0  0
  -28.0189  -12.0310   18.3971 C   0  0  0  0  0  0
  -27.6175  -12.7052   19.6936 C   0  0  2  0  0  0
  -28.7015  -12.2852   20.7847 C   0  0  0  0  0  0
  -24.9425  -14.3901   21.0955 C   0  0  0  0  0  0
  -24.3021  -13.9244   21.1818 C   0  0  0  0  0  0
  -25.2613  -12.0647   20.4560 C   0  0  0  0  0  0
  -24.5104  -10.4042   20.5197 C   0  0  0  0  0  0
  -24.6858   -9.4709   21.6389 C   0  0  0  0  0  0
  -23.8202   -8.3659   22.0016 C   0  0  0  0  0  0
  -22.6196   -8.0910   21.3012 C   0  0  0  0  0  0
  -22.3636   -8.9532   20.2315 C   0  0  0  0  0  0
  -23.3051   -9.9431   19.8252 C   0  0  0  0  0  0
  -21.7569   -6.1466   22.5398 C   0  0  0  0  0  0
  -21.4546   -6.6048   23.8394 C   0  0  0  0  0  0
  -21.3851   -5.6994   24.9193 C   0  0  0  0  0  0
  -21.6057   -4.3258   24.7077 C   0  0  0  0  0  0
  -21.8801   -3.8545   23.4120 C   0  0  0  0  0  0
  -21.9443   -4.7566   22.3316 C   0  0  0  0  0  0
  -22.7664  -14.4216   21.5587 C   0  0  0  0  0  0
  -22.1734   -4.2723   21.0863 F   0  0  0  0  0  0
  -21.5537   -3.4614   25.7495 F   0  0  0  0  0  0
  -29.8373  -13.0737   20.4732 N   0  0  0  0  0  0
  -26.0677  -12.8149   20.2773 N   0  0  0  0  0  0
  -26.2967  -11.6137   20.5771 N   0  0  0  0  0  0
  -21.9377  -13.6680   22.3147 N   0  0  0  0  0  0
  -24.9987  -15.8159   21.3767 N   0  0  0  0  0  0
  -30.9290  -14.9844   20.5945 O   0  0  0  0  0  0
  -21.7473   -7.0141   21.4654 O   0  0  0  0  0  0
  -22.2161  -15.2129   20.8112 O   0  0  0  0  0  0
  -24.6693  -31.8234   23.1765 C   0  0  0  0  0  0
  -25.9385  -32.4572   23.8176 C   0  0  1  0  0  0
  -26.9967  -26.8219   20.1144 C   0  0  0  0  0  0
  -25.6051  -33.8395   24.2071 N   0  0  0  0  0  0
  -23.4686  -30.4595   21.5353 C   0  0  2  0  0  0
  -24.8726  -28.8607   20.0881 C   0  0  0  0  0  0
  -22.7650  -29.4476   22.4775 C   0  0  0  0  0  0
  -18.0320  -28.1412   22.8466 C   0  0  0  0  0  0
  -24.1491  -36.7189   23.2639 C   0  0  0  0  0  0
  -26.0485  -30.5814   21.4232 C   0  0  0  0  0  0
  -26.0715  -29.1753   20.7426 C   0  0  0  0  0  0
  -27.1479  -28.1673   20.7424 C   0  0  0  0  0  0
  -25.8186  -26.7236   19.3688 C   0  0  0  0  0  0
  -24.7790  -27.6636   19.3803 C   0  0  0  0  0  0
  -23.6918  -29.8193   20.1453 C   0  0  0  0  0  0
  -25.4144  -36.2953   24.0281 C   0  0  1  0  0  0
  -20.5940  -28.3750   23.1182 C   0  0  2  0  0  0
  -20.6797  -26.9431   22.5394 C   0  0  0  0  0  0
  -19.5768  -26.6371   21.5213 C   0  0  0  0  0  0
  -18.1953  -26.7946   22.1621 C   0  0  0  0  0  0
  -19.1583  -28.8901   23.2808 C   0  0  0  0  0  0
  -18.9489  -30.1491   23.8841 C   0  0  0  0  0  0
  -17.6480  -30.6594   24.0558 C   0  0  0  0  0  0
  -25.9129  -34.9345   23.4990 C   0  0  0  0  0  0
  -16.5370  -29.9077   23.6348 C   0  0  0  0  0  0
  -16.7299  -28.6502   23.0361 C   0  0  0  0  0  0
  -26.4594  -31.6552   25.0744 C   0  0  0  0  0  0
  -25.3681  -31.3846   26.1378 C   0  0  0  0  0  0
  -27.0503  -30.2902   24.6565 C   0  0  0  0  0  0
  -27.6072  -32.4377   25.7549 C   0  0  0  0  0  0
  -27.5574  -37.1763   24.8464 C   0  0  0  0  0  0
  -21.4319  -29.3060   22.3538 N   0  0  0  0  0  0
  -26.4280  -37.3703   23.9406 N   0  0  0  0  0  0
  -24.7539  -30.9837   22.0956 N   0  0  0  0  0  0
  -23.4230  -28.7992   23.2949 O   0  0  0  0  0  0
  -27.7725  -25.5461   20.1167 O   0  0  0  0  0  0
  -26.5709  -34.8890   22.4571 O   0  0  0  0  0  0
  -23.5771  -32.1267   23.6855 O   0  0  0  0  0  0
  -23.1660  -12.5145   19.9947 C   0  0  0  0  0  0
  -24.4834  -13.8607   18.8579 C   0  0  0  0  0  0
  -23.9833  -12.0800   22.2505 C   0  0  0  0  0  0
  -26.2984  -14.9468   19.4530 C   0  0  0  0  0  0
  -27.1370  -14.4225   21.4200 C   0  0  0  0  0  0
  -25.9344  -13.0347   22.6660 C   0  0  0  0  0  0
  -26.8482  -21.0183   19.7878 C   0  0  0  0  0  0
  -27.5063  -22.3608   19.7824 C   0  0  0  0  0  0
  -27.3058  -19.4777   19.4354 C   0  0  0  0  0  0
  -25.0932  -18.4023   19.7593 C   0  0  0  0  0  0
  -26.7793  -16.5898   18.9535 C   0  0  0  0  0  0
  -27.0500  -24.0231   20.1838 C   0  0  0  0  0  0
  -28.6563  -14.8120   21.5484 N   0  0  0  0  0  0
  -26.5085  -18.1989   19.4597 N   0  0  0  0  0  0
  -28.4789  -19.3291   19.0864 O   0  0  0  0  0  0
  -26.6463  -12.6152   24.1775 Cl  0  0  0  0  0  0
  -31.4060  -12.9993   19.0424 H   0  0  0  0  0  0
  -30.8262  -11.4476   19.5663 H   0  0  0  0  0  0
  -29.9111  -11.7512   17.3153 H   0  0  0  0  0  0
  -29.5203  -13.4108   17.6228 H   0  0  0  0  0  0
  -27.9271  -10.9490   18.4979 H   0  0  0  0  0  0
  -27.3614  -12.3290   17.5784 H   0  0  0  0  0  0
  -27.9889  -13.6293   19.2875 H   0  0  0  0  0  0
  -28.9283  -11.2202   20.6907 H   0  0  0  0  0  0
  -28.4216  -12.3569   21.8348 H   0  0  0  0  0  0
  -25.5162   -9.6673   22.3033 H   0  0  0  0  0  0
  -24.0961   -7.7419   22.8396 H   0  0  0  0  0  0
  -21.4940   -8.7732   19.6159 H   0  0  0  0  0  0
  -23.0507  -10.4122   18.8866 H   0  0  0  0  0  0
  -21.2706   -7.6551   24.0107 H   0  0  0  0  0  0
  -21.1631   -6.0593   25.9131 H   0  0  0  0  0  0
  -22.0334   -2.7996   23.2430 H   0  0  0  0  0  0
  -22.2973  -12.8678   22.8091 H   0  0  0  0  0  0
  -20.9608  -13.9085   22.3885 H   0  0  0  0  0  0
  -24.1718  -16.3676   21.5731 H   0  0  0  0  0  0
  -25.7663  -16.3681   21.0172 H   0  0  0  0  0  0
  -26.7427  -32.5011   23.0840 H   0  0  0  0  0  0
  -25.0172  -33.9475   25.0204 H   0  0  0  0  0  0
  -22.7828  -31.2982   21.3936 H   0  0  0  0  0  0
  -23.3783  -35.9488   23.3267 H   0  0  0  0  0  0
  -24.3557  -36.8885   22.2060 H   0  0  0  0  0  0
  -23.7222  -37.6352   23.6735 H   0  0  0  0  0  0
  -26.2639  -31.3260   20.6548 H   0  0  0  0  0  0
  -26.9005  -30.6070   22.0903 H   0  0  0  0  0  0
  -28.0481  -28.3763   21.3037 H   0  0  0  0  0  0
  -25.6378  -25.8427   18.7748 H   0  0  0  0  0  0
  -23.8777  -27.4404   18.8250 H   0  0  0  0  0  0
  -23.8749  -30.6082   19.4144 H   0  0  0  0  0  0
  -22.7829  -29.3151   19.8093 H   0  0  0  0  0  0
  -25.1345  -36.1733   25.0767 H   0  0  0  0  0  0
  -21.0031  -28.3367   24.1302 H   0  0  0  0  0  0
  -20.5708  -26.2356   23.3632 H   0  0  0  0  0  0
  -21.6656  -26.7431   22.1180 H   0  0  0  0  0  0
  -19.6923  -25.6269   21.1275 H   0  0  0  0  0  0
  -19.6710  -27.3154   20.6725 H   0  0  0  0  0  0
  -17.4221  -26.6680   21.4029 H   0  0  0  0  0  0
  -18.0346  -26.0106   22.9035 H   0  0  0  0  0  0
  -19.7963  -30.7324   24.2186 H   0  0  0  0  0  0
  -17.5031  -31.6275   24.5160 H   0  0  0  0  0  0
  -15.5369  -30.2958   23.7708 H   0  0  0  0  0  0
  -15.8701  -28.0807   22.7099 H   0  0  0  0  0  0
  -24.5844  -30.7227   25.7685 H   0  0  0  0  0  0
  -24.8888  -32.3065   26.4682 H   0  0  0  0  0  0
  -25.7863  -30.9073   27.0245 H   0  0  0  0  0  0
  -26.3182  -29.6550   24.1574 H   0  0  0  0  0  0
  -27.3987  -29.7313   25.5262 H   0  0  0  0  0  0
  -27.9155  -30.4075   24.0036 H   0  0  0  0  0  0
  -27.2633  -33.3720   26.2003 H   0  0  0  0  0  0
  -28.3952  -32.6881   25.0433 H   0  0  0  0  0  0
  -28.0670  -31.8589   26.5572 H   0  0  0  0  0  0
  -28.2559  -38.0091   24.7531 H   0  0  0  0  0  0
  -28.1103  -36.2619   24.6267 H   0  0  0  0  0  0
  -27.2292  -37.1368   25.8866 H   0  0  0  0  0  0
  -20.9547  -29.8791   21.6721 H   0  0  0  0  0  0
  -26.0119  -38.2755   24.1426 H   0  0  0  0  0  0
  -22.1990  -12.1957   19.6275 H   0  0  0  0  0  0
  -24.0619  -14.1795   17.9154 H   0  0  0  0  0  0
  -23.4763  -11.4496   22.9689 H   0  0  0  0  0  0
  -25.8207  -21.0776   20.1123 H   0  0  0  0  0  0
  -28.5414  -22.3186   19.4746 H   0  0  0  0  0  0
  -24.9436  -18.5158   20.8337 H   0  0  0  0  0  0
  -24.4845  -17.5672   19.4097 H   0  0  0  0  0  0
  -24.6951  -19.2914   19.2687 H   0  0  0  0  0  0
  -26.5237  -16.6181   17.8947 H   0  0  0  0  0  0
  -27.8662  -16.5247   18.9493 H   0  0  0  0  0  0
  -26.8728  -23.9342   21.2562 H   0  0  0  0  0  0
  -26.0393  -24.1011   19.7930 H   0  0  0  0  0  0
  -28.7904  -15.7206   21.9674 H   0  0  0  0  0  0
  1 25  1  0  0  0
  1 30  2  0  0  0
  1 83  1  0  0  0
  2  3  1  0  0  0
  2 25  1  0  0  0
  2 87  1  0  0  0
  2 88  1  0  0  0
  3  4  1  0  0  0
  3 89  1  0  0  0
  3 90  1  0  0  0
  4  5  1  0  0  0
  4 91  1  0  0  0
  4 92  1  0  0  0
  5  6  1  0  0  0
  5 26  1  0  0  0
  5 93  1  0  0  0
  6 25  1  0  0  0
  6 94  1  0  0  0
  6 95  1  0  0  0
  7  8  2  0  0  0
  7 26  1  0  0  0
  7 29  1  0  0  0
  8  9  1  0  0  0
  8 22  1  0  0  0
  9 10  1  0  0  0
  9 27  2  0  0  0
 10 11  2  0  0  0
 10 15  1  0  0  0
 11 12  1  0  0  0
 11 96  1  0  0  0
 12 13  2  0  0  0
 12 97  1  0  0  0
 13 14  1  0  0  0
 13 31  1  0  0  0
 14 15  2  0  0  0
 14 98  1  0  0  0
 15 99  1  0  0  0
 16 17  2  0  0  0
 16 21  1  0  0  0
 16 31  1  0  0  0
 17 18  1  0  0  0
 17100  1  0  0  0
 18 19  2  0  0  0
 18101  1  0  0  0
 19 20  1  0  0  0
 19 24  1  0  0  0
 20 21  2  0  0  0
 20102  1  0  0  0
 21 23  1  0  0  0
 22 28  1  0  0  0
 22 32  2  0  0  0
 26 27  1  0  0  0
 28103  1  0  0  0
 28104  1  0  0  0
 29105  1  0  0  0
 29106  1  0  0  0
 33 34  1  0  0  0
 33 66  1  0  0  0
 33 70  2  0  0  0
 34 36  1  0  0  0
 34 59  1  0  0  0
 34107  1  0  0  0
 35 44  2  0  0  0
 35 45  1  0  0  0
 35 68  1  0  0  0
 36 56  1  0  0  0
 36108  1  0  0  0
 37 39  1  0  0  0
 37 47  1  0  0  0
 37 66  1  0  0  0
 37109  1  0  0  0
 38 43  2  0  0  0
 38 46  1  0  0  0
 38 47  1  0  0  0
 39 64  1  0  0  0
 39 67  2  0  0  0
 40 52  1  0  0  0
 40 53  2  0  0  0
 40 58  1  0  0  0
 41110  1  0  0  0
 41111  1  0  0  0
 41112  1  0  0  0
 41 48  1  0  0  0
 42 43  1  0  0  0
 42 66  1  0  0  0
 42113  1  0  0  0
 42114  1  0  0  0
 43 44  1  0  0  0
 44115  1  0  0  0
 45 46  2  0  0  0
 45116  1  0  0  0
 46117  1  0  0  0
 47118  1  0  0  0
 47119  1  0  0  0
 48 56  1  0  0  0
 48 65  1  0  0  0
 48120  1  0  0  0
 49 50  1  0  0  0
 49 53  1  0  0  0
 49 64  1  0  0  0
 49121  1  0  0  0
 50 51  1  0  0  0
 50122  1  0  0  0
 50123  1  0  0  0
 51 52  1  0  0  0
 51124  1  0  0  0
 51125  1  0  0  0
 52126  1  0  0  0
 52127  1  0  0  0
 53 54  1  0  0  0
 54 55  2  0  0  0
 54128  1  0  0  0
 55 57  1  0  0  0
 55129  1  0  0  0
 56 69  2  0  0  0
 57 58  2  0  0  0
 57130  1  0  0  0
 58131  1  0  0  0
 59 60  1  0  0  0
 59 61  1  0  0  0
 59 62  1  0  0  0
 60132  1  0  0  0
 60133  1  0  0  0
 60134  1  0  0  0
 61135  1  0  0  0
 61136  1  0  0  0
 61137  1  0  0  0
 62138  1  0  0  0
 62139  1  0  0  0
 62140  1  0  0  0
 63 65  1  0  0  0
 63141  1  0  0  0
 63142  1  0  0  0
 63143  1  0  0  0
 64144  1  0  0  0
 65145  1  0  0  0
 68 82  1  0  0  0
 71 72  2  0  0  0
 71 73  1  0  0  0
 71146  1  0  0  0
 72 74  1  0  0  0
 72147  1  0  0  0
 73 76  2  0  0  0
 73148  1  0  0  0
 74 75  2  0  0  0
 74 81  1  0  0  0
 75 76  1  0  0  0
 75 83  1  0  0  0
 76 86  1  0  0  0
 77 78  2  0  0  0
 77 79  1  0  0  0
 77149  1  0  0  0
 78 82  1  0  0  0
 78150  1  0  0  0
 79 84  1  0  0  0
 79 85  2  0  0  0
 80 84  1  0  0  0
 80151  1  0  0  0
 80152  1  0  0  0
 80153  1  0  0  0
 81 84  1  0  0  0
 81154  1  0  0  0
 81155  1  0  0  0
 82156  1  0  0  0
 82157  1  0  0  0
 83158  1  0  0  0
M  ISO  4   1 100  68 101  82 101  83 100
M  END
> <chiral flag>
0

> <version>
0

> <s_m_source_file>
/data/baiqing/PycharmProjects/Reinvent-master-3.2/result/LINK_invent/BTK/process_docking_weight1_custom_product_contain_oxygen_bond_distance_aromatic_linkinvent_7_9_3/rearranged_h_0045.sdf

> <i_m_source_file_index>
73

> <r_mmod_Potential_Energy-OPLS-2005>
19821.224609375

> <r_mmod_Stretch_Energy-OPLS-2005>
12554.6904296875

> <r_mmod_Bend_Energy-OPLS-2005>
1242.48974609375

> <r_mmod_Torsional_Energy-OPLS-2005>
483.334564208984

> <r_mmod_Improper_Torsional_Energy-OPLS-2005>
59.7715339660645

> <r_mmod_Van_der_Waal_Energy-OPLS-2005>
4690.8515625

> <r_mmod_Electrostatic_Energy-OPLS-2005>
-423.190307617188

> <r_mmod_Solvation_Energy-OPLS-2005>
-227.493453979492

> <b_mmod_Minimization_Converged-OPLS-2005>
0

> <r_mmod_RMS_Derivative-OPLS-2005>
3.45409107208252

$$$$
73
                    3D
 Structure written by MMmdl.
167176  0  0  1  0            999 V2000
  -30.6276  -14.6429   20.5588 C   0  0  0  0  0  0
  -30.4410  -12.4109   19.4568 C   0  0  0  0  0  0
  -29.5169  -12.5537   18.2255 C   0  0  0  0  0  0
  -28.0349  -12.3937   18.6210 C   0  0  0  0  0  0
  -27.6569  -13.2313   19.8714 C   0  0  2  0  0  0
  -28.6969  -13.0612   21.0028 C   0  0  0  0  0  0
  -25.2507  -13.8194   20.5621 C   0  0  0  0  0  0
  -24.1793  -13.0454   20.9144 C   0  0  0  0  0  0
  -24.6386  -11.6936   20.8693 C   0  0  0  0  0  0
  -23.9064  -10.4328   21.0370 C   0  0  0  0  0  0
  -24.3620   -9.4250   21.9154 C   0  0  0  0  0  0
  -23.6287   -8.2297   22.0747 C   0  0  0  0  0  0
  -22.4256   -8.0326   21.3552 C   0  0  0  0  0  0
  -21.9893   -9.0283   20.4641 C   0  0  0  0  0  0
  -22.7240  -10.2152   20.3021 C   0  0  0  0  0  0
  -21.6867   -6.0745   22.5263 C   0  0  0  0  0  0
  -21.4044   -6.5636   23.8207 C   0  0  0  0  0  0
  -21.3649   -5.6770   24.9151 C   0  0  0  0  0  0
  -21.6040   -4.3041   24.7198 C   0  0  0  0  0  0
  -21.8827   -3.8142   23.4322 C   0  0  0  0  0  0
  -21.9205   -4.6970   22.3380 C   0  0  0  0  0  0
  -22.7818  -13.5247   21.1806 C   0  0  0  0  0  0
  -22.1660   -4.2156   21.0961 F   0  0  0  0  0  0
  -21.5604   -3.4528   25.7716 F   0  0  0  0  0  0
  -30.0213  -13.4142   20.4596 N   0  0  0  0  0  0
  -26.2990  -12.9431   20.3310 N   0  0  0  0  0  0
  -25.9323  -11.6563   20.5705 N   0  0  0  0  0  0
  -22.0439  -12.8262   22.0371 N   0  0  0  0  0  0
  -25.4107  -15.1912   20.3936 N   0  0  0  0  0  0
  -31.7597  -14.8334   20.0979 O   0  0  0  0  0  0
  -21.6642   -6.8903   21.4236 O   0  0  0  0  0  0
  -22.3511  -14.5545   20.6643 O   0  0  0  0  0  0
  -24.6282  -31.8597   23.2011 C   0  0  0  0  0  0
  -25.9126  -32.4772   23.8343 C   0  0  1  0  0  0
  -27.2322  -27.3147   20.1381 C   0  0  0  0  0  0
  -25.5950  -33.8572   24.2296 N   0  0  0  0  0  0
  -23.4247  -30.4801   21.5434 C   0  0  2  0  0  0
  -24.8748  -28.9296   20.1150 C   0  0  0  0  0  0
  -22.7491  -29.4618   22.4941 C   0  0  0  0  0  0
  -18.0300  -28.1366   22.8499 C   0  0  0  0  0  0
  -24.1485  -36.7295   23.2636 C   0  0  0  0  0  0
  -25.9634  -30.7860   21.3769 C   0  0  0  0  0  0
  -26.0403  -29.4095   20.7281 C   0  0  0  0  0  0
  -27.2219  -28.6117   20.7339 C   0  0  0  0  0  0
  -26.0591  -26.8974   19.4758 C   0  0  0  0  0  0
  -24.8864  -27.6772   19.4794 C   0  0  0  0  0  0
  -23.6432  -29.8119   20.1601 C   0  0  0  0  0  0
  -25.4105  -36.3091   24.0345 C   0  0  1  0  0  0
  -20.5907  -28.3692   23.1271 C   0  0  2  0  0  0
  -20.6788  -26.9407   22.5409 C   0  0  0  0  0  0
  -19.5762  -26.6369   21.5206 C   0  0  0  0  0  0
  -18.1938  -26.7925   22.1614 C   0  0  0  0  0  0
  -19.1550  -28.8845   23.2886 C   0  0  0  0  0  0
  -18.9473  -30.1451   23.8891 C   0  0  0  0  0  0
  -17.6468  -30.6572   24.0557 C   0  0  0  0  0  0
  -25.9051  -34.9451   23.5126 C   0  0  0  0  0  0
  -16.5361  -29.9067   23.6327 C   0  0  0  0  0  0
  -16.7285  -28.6485   23.0357 C   0  0  0  0  0  0
  -26.4490  -31.6573   25.0724 C   0  0  0  0  0  0
  -25.3733  -31.3721   26.1474 C   0  0  0  0  0  0
  -27.0340  -30.2993   24.6197 C   0  0  0  0  0  0
  -27.6052  -32.4301   25.7498 C   0  0  0  0  0  0
  -27.5594  -37.1792   24.8453 C   0  0  0  0  0  0
  -21.4209  -29.3054   22.3663 N   0  0  0  0  0  0
  -26.4270  -37.3799   23.9445 N   0  0  0  0  0  0
  -24.6894  -31.0604   22.0959 N   0  0  0  0  0  0
  -23.4185  -28.8168   23.3047 O   0  0  0  0  0  0
  -28.3346  -26.4458   20.1409 O   0  0  0  0  0  0
  -26.5608  -34.8925   22.4681 O   0  0  0  0  0  0
  -23.5432  -32.1405   23.7310 O   0  0  0  0  0  0
  -30.5956  -19.2926   20.0343 C   0  0  0  0  0  0
  -30.7879  -17.8924   20.2766 C   0  0  0  0  0  0
  -28.4569  -19.1968   21.0985 C   0  0  0  0  0  0
  -29.4067  -19.9869   20.4028 C   0  0  0  0  0  0
  -28.6547  -17.8131   21.3843 C   0  0  0  0  0  0
  -29.8020  -17.0979   20.9235 C   0  0  0  0  0  0
  -29.2824  -24.0337   20.6458 C   0  0  0  0  0  0
  -30.6258  -24.1872   20.6087 C   0  0  0  0  0  0
  -27.1021  -23.5609   22.4727 C   0  0  0  0  0  0
  -26.9325  -24.7126   21.4638 C   0  0  0  0  0  0
  -27.7960  -22.3228   21.8566 C   0  0  0  0  0  0
  -28.3142  -25.2348   21.0069 C   0  0  2  0  0  0
  -27.5666  -17.1407   22.2055 C   0  0  0  0  0  0
  -31.7093  -23.1224   20.5309 C   0  0  0  0  0  0
  -29.0913  -21.4407   19.8340 C   0  0  0  0  0  0
  -29.8729  -15.6419   21.1170 N   0  0  0  0  0  0
  -28.5784  -22.6442   20.6369 N   0  3  2  0  0  0
  -31.4853  -12.5310   19.1627 H   0  0  0  0  0  0
  -30.3654  -11.4063   19.8731 H   0  0  0  0  0  0
  -29.7818  -11.8270   17.4564 H   0  0  0  0  0  0
  -29.6680  -13.5355   17.7735 H   0  0  0  0  0  0
  -27.8466  -11.3368   18.8096 H   0  0  0  0  0  0
  -27.3960  -12.6714   17.7821 H   0  0  0  0  0  0
  -27.6807  -14.2755   19.5588 H   0  0  0  0  0  0
  -28.7012  -12.0306   21.3594 H   0  0  0  0  0  0
  -28.4271  -13.6672   21.8687 H   0  0  0  0  0  0
  -25.2762   -9.5731   22.4729 H   0  0  0  0  0  0
  -24.0010   -7.4694   22.7463 H   0  0  0  0  0  0
  -21.0828   -8.8801   19.8938 H   0  0  0  0  0  0
  -22.3704  -10.9679   19.6125 H   0  0  0  0  0  0
  -21.2068   -7.6141   23.9725 H   0  0  0  0  0  0
  -21.1430   -6.0479   25.9053 H   0  0  0  0  0  0
  -22.0609   -2.7604   23.2806 H   0  0  0  0  0  0
  -22.4041  -11.9966   22.4829 H   0  0  0  0  0  0
  -21.1049  -13.1301   22.2507 H   0  0  0  0  0  0
  -24.6184  -15.8224   20.4533 H   0  0  0  0  0  0
  -26.2375  -15.6320   20.0127 H   0  0  0  0  0  0
  -26.7195  -32.5449   23.1086 H   0  0  0  0  0  0
  -25.0138  -33.9692   25.0467 H   0  0  0  0  0  0
  -22.7188  -31.2993   21.3947 H   0  0  0  0  0  0
  -23.3755  -35.9618   23.3250 H   0  0  0  0  0  0
  -24.3586  -36.8965   22.2060 H   0  0  0  0  0  0
  -23.7211  -37.6478   23.6671 H   0  0  0  0  0  0
  -26.0973  -31.5387   20.5985 H   0  0  0  0  0  0
  -26.8401  -30.8333   22.0119 H   0  0  0  0  0  0
  -28.1182  -28.9738   21.2194 H   0  0  0  0  0  0
  -26.0419  -25.9408   18.9723 H   0  0  0  0  0  0
  -24.0006  -27.3051   18.9865 H   0  0  0  0  0  0
  -23.7686  -30.5846   19.4001 H   0  0  0  0  0  0
  -22.7619  -29.2439   19.8603 H   0  0  0  0  0  0
  -25.1248  -36.1953   25.0834 H   0  0  0  0  0  0
  -20.9986  -28.3272   24.1394 H   0  0  0  0  0  0
  -20.5659  -26.2291   23.3612 H   0  0  0  0  0  0
  -21.6657  -26.7423   22.1200 H   0  0  0  0  0  0
  -19.6908  -25.6272   21.1246 H   0  0  0  0  0  0
  -19.6683  -27.3166   20.6724 H   0  0  0  0  0  0
  -17.4205  -26.6700   21.4013 H   0  0  0  0  0  0
  -18.0312  -26.0039   22.8972 H   0  0  0  0  0  0
  -19.7948  -30.7288   24.2215 H   0  0  0  0  0  0
  -17.5022  -31.6251   24.5162 H   0  0  0  0  0  0
  -15.5356  -30.2956   23.7645 H   0  0  0  0  0  0
  -15.8696  -28.0787   22.7067 H   0  0  0  0  0  0
  -24.5892  -30.7069   25.7834 H   0  0  0  0  0  0
  -24.8928  -32.2882   26.4925 H   0  0  0  0  0  0
  -25.8076  -30.8905   27.0249 H   0  0  0  0  0  0
  -26.2926  -29.6736   24.1216 H   0  0  0  0  0  0
  -27.4016  -29.7274   25.4727 H   0  0  0  0  0  0
  -27.8799  -30.4257   23.9437 H   0  0  0  0  0  0
  -27.2669  -33.3616   26.2052 H   0  0  0  0  0  0
  -28.3876  -32.6839   25.0330 H   0  0  0  0  0  0
  -28.0691  -31.8438   26.5446 H   0  0  0  0  0  0
  -28.2551  -38.0147   24.7585 H   0  0  0  0  0  0
  -28.1145  -36.2688   24.6129 H   0  0  0  0  0  0
  -27.2346  -37.1283   25.8860 H   0  0  0  0  0  0
  -20.9385  -29.8768   21.6876 H   0  0  0  0  0  0
  -26.0155  -38.2873   24.1485 H   0  0  0  0  0  0
  -31.3625  -19.8242   19.4862 H   0  0  0  0  0  0
  -31.7024  -17.4311   19.9314 H   0  0  0  0  0  0
  -27.5129  -19.6229   21.3958 H   0  0  0  0  0  0
  -31.0069  -25.1966   20.6670 H   0  0  0  0  0  0
  -26.1276  -23.2778   22.8758 H   0  0  0  0  0  0
  -27.6775  -23.9130   23.3307 H   0  0  0  0  0  0
  -26.3702  -25.5143   21.9436 H   0  0  0  0  0  0
  -26.3439  -24.3754   20.6117 H   0  0  0  0  0  0
  -27.0023  -21.6398   21.5620 H   0  0  0  0  0  0
  -28.4135  -21.8114   22.5971 H   0  0  0  0  0  0
  -28.7587  -25.6222   21.9267 H   0  0  0  0  0  0
  -26.5832  -17.4698   21.8674 H   0  0  0  0  0  0
  -27.6687  -17.4349   23.2516 H   0  0  0  0  0  0
  -27.5826  -16.0543   22.1628 H   0  0  0  0  0  0
  -31.3802  -22.1518   20.9006 H   0  0  0  0  0  0
  -32.5474  -23.4127   21.1669 H   0  0  0  0  0  0
  -32.0923  -23.0140   19.5159 H   0  0  0  0  0  0
  -28.2776  -21.2556   19.1336 H   0  0  0  0  0  0
  -29.8993  -21.7552   19.1773 H   0  0  0  0  0  0
  -29.0592  -15.2631   21.5770 H   0  0  0  0  0  0
  -27.8023  -22.8397   20.0230 H   0  0  0  0  0  0
  1 25  1  0  0  0
  1 30  2  0  0  0
  1 86  1  0  0  0
  2  3  1  0  0  0
  2 25  1  0  0  0
  2 88  1  0  0  0
  2 89  1  0  0  0
  3  4  1  0  0  0
  3 90  1  0  0  0
  3 91  1  0  0  0
  4  5  1  0  0  0
  4 92  1  0  0  0
  4 93  1  0  0  0
  5  6  1  0  0  0
  5 26  1  0  0  0
  5 94  1  0  0  0
  6 25  1  0  0  0
  6 95  1  0  0  0
  6 96  1  0  0  0
  7  8  2  0  0  0
  7 26  1  0  0  0
  7 29  1  0  0  0
  8  9  1  0  0  0
  8 22  1  0  0  0
  9 10  1  0  0  0
  9 27  2  0  0  0
 10 11  2  0  0  0
 10 15  1  0  0  0
 11 12  1  0  0  0
 11 97  1  0  0  0
 12 13  2  0  0  0
 12 98  1  0  0  0
 13 14  1  0  0  0
 13 31  1  0  0  0
 14 15  2  0  0  0
 14 99  1  0  0  0
 15100  1  0  0  0
 16 17  2  0  0  0
 16 21  1  0  0  0
 16 31  1  0  0  0
 17 18  1  0  0  0
 17101  1  0  0  0
 18 19  2  0  0  0
 18102  1  0  0  0
 19 20  1  0  0  0
 19 24  1  0  0  0
 20 21  2  0  0  0
 20103  1  0  0  0
 21 23  1  0  0  0
 22 28  1  0  0  0
 22 32  2  0  0  0
 26 27  1  0  0  0
 28104  1  0  0  0
 28105  1  0  0  0
 29106  1  0  0  0
 29107  1  0  0  0
 33 34  1  0  0  0
 33 66  1  0  0  0
 33 70  2  0  0  0
 34 36  1  0  0  0
 34 59  1  0  0  0
 34108  1  0  0  0
 35 44  2  0  0  0
 35 45  1  0  0  0
 35 68  1  0  0  0
 36 56  1  0  0  0
 36109  1  0  0  0
 37 39  1  0  0  0
 37 47  1  0  0  0
 37 66  1  0  0  0
 37110  1  0  0  0
 38 43  2  0  0  0
 38 46  1  0  0  0
 38 47  1  0  0  0
 39 64  1  0  0  0
 39 67  2  0  0  0
 40 52  1  0  0  0
 40 53  2  0  0  0
 40 58  1  0  0  0
 41111  1  0  0  0
 41112  1  0  0  0
 41113  1  0  0  0
 41 48  1  0  0  0
 42 43  1  0  0  0
 42 66  1  0  0  0
 42114  1  0  0  0
 42115  1  0  0  0
 43 44  1  0  0  0
 44116  1  0  0  0
 45 46  2  0  0  0
 45117  1  0  0  0
 46118  1  0  0  0
 47119  1  0  0  0
 47120  1  0  0  0
 48 56  1  0  0  0
 48 65  1  0  0  0
 48121  1  0  0  0
 49 50  1  0  0  0
 49 53  1  0  0  0
 49 64  1  0  0  0
 49122  1  0  0  0
 50 51  1  0  0  0
 50123  1  0  0  0
 50124  1  0  0  0
 51 52  1  0  0  0
 51125  1  0  0  0
 51126  1  0  0  0
 52127  1  0  0  0
 52128  1  0  0  0
 53 54  1  0  0  0
 54 55  2  0  0  0
 54129  1  0  0  0
 55 57  1  0  0  0
 55130  1  0  0  0
 56 69  2  0  0  0
 57 58  2  0  0  0
 57131  1  0  0  0
 58132  1  0  0  0
 59 60  1  0  0  0
 59 61  1  0  0  0
 59 62  1  0  0  0
 60133  1  0  0  0
 60134  1  0  0  0
 60135  1  0  0  0
 61136  1  0  0  0
 61137  1  0  0  0
 61138  1  0  0  0
 62139  1  0  0  0
 62140  1  0  0  0
 62141  1  0  0  0
 63 65  1  0  0  0
 63142  1  0  0  0
 63143  1  0  0  0
 63144  1  0  0  0
 64145  1  0  0  0
 65146  1  0  0  0
 68 82  1  0  0  0
 71 72  2  0  0  0
 71 74  1  0  0  0
 71147  1  0  0  0
 72 76  1  0  0  0
 72148  1  0  0  0
 73 74  2  0  0  0
 73 75  1  0  0  0
 73149  1  0  0  0
 74 85  1  0  0  0
 75 76  2  0  0  0
 75 83  1  0  0  0
 76 86  1  0  0  0
 77 78  2  0  0  0
 77 82  1  0  0  0
 77 87  1  0  0  0
 78 84  1  0  0  0
 78150  1  0  0  0
 79 80  1  0  0  0
 79 81  1  0  0  0
 79151  1  0  0  0
 79152  1  0  0  0
 80 82  1  0  0  0
 80153  1  0  0  0
 80154  1  0  0  0
 81 87  1  0  0  0
 81155  1  0  0  0
 81156  1  0  0  0
 82157  1  0  0  0
 83158  1  0  0  0
 83159  1  0  0  0
 83160  1  0  0  0
 84161  1  0  0  0
 84162  1  0  0  0
 84163  1  0  0  0
 85164  1  0  0  0
 85165  1  0  0  0
 85 87  1  0  0  0
 86166  1  0  0  0
 87167  1  0  0  0
M  CHG  1  87   1
M  ISO  4   1 100  68 101  82 101  86 100
M  END
> <chiral flag>
0

> <version>
0

> <s_m_source_file>
/data/baiqing/PycharmProjects/Reinvent-master-3.2/result/LINK_invent/BTK/process_docking_weight1_custom_product_contain_oxygen_bond_distance_aromatic_linkinvent_7_9_3/rearranged_h_0045.sdf

> <i_m_source_file_index>
74

> <r_mmod_Potential_Energy-OPLS-2005>
57.2708740234375

> <r_mmod_Stretch_Energy-OPLS-2005>
96.6848526000977

> <r_mmod_Bend_Energy-OPLS-2005>
207.782257080078

> <r_mmod_Torsional_Energy-OPLS-2005>
276.371307373047

> <r_mmod_Improper_Torsional_Energy-OPLS-2005>
5.52724838256836

> <r_mmod_Van_der_Waal_Energy-OPLS-2005>
148.683959960938

> <r_mmod_Electrostatic_Energy-OPLS-2005>
-298.594757080078

> <r_mmod_Solvation_Energy-OPLS-2005>
-428.667572021484

> <b_mmod_Minimization_Converged-OPLS-2005>
0

> <r_mmod_RMS_Derivative-OPLS-2005>
3.61996603012085

$$$$
74
                    3D
 Structure written by MMmdl.
153161  0  0  1  0            999 V2000
  -30.5972  -14.6504   20.5177 C   0  0  0  0  0  0
  -30.4500  -12.4034   19.4493 C   0  0  0  0  0  0
  -29.5124  -12.5135   18.2243 C   0  0  0  0  0  0
  -28.0345  -12.3459   18.6351 C   0  0  0  0  0  0
  -27.6575  -13.2101   19.8673 C   0  0  2  0  0  0
  -28.7020  -13.0447   20.9949 C   0  0  0  0  0  0
  -25.2589  -13.8161   20.5676 C   0  0  0  0  0  0
  -24.1846  -13.0438   20.9190 C   0  0  0  0  0  0
  -24.6402  -11.6904   20.8739 C   0  0  0  0  0  0
  -23.9062  -10.4291   21.0406 C   0  0  0  0  0  0
  -24.3614   -9.4205   21.9181 C   0  0  0  0  0  0
  -23.6291   -8.2242   22.0750 C   0  0  0  0  0  0
  -22.4271   -8.0282   21.3543 C   0  0  0  0  0  0
  -21.9907   -9.0256   20.4643 C   0  0  0  0  0  0
  -22.7236  -10.2135   20.3052 C   0  0  0  0  0  0
  -21.6853   -6.0733   22.5279 C   0  0  0  0  0  0
  -21.4012   -6.5636   23.8213 C   0  0  0  0  0  0
  -21.3659   -5.6789   24.9175 C   0  0  0  0  0  0
  -21.6044   -4.3053   24.7225 C   0  0  0  0  0  0
  -21.8821   -3.8143   23.4348 C   0  0  0  0  0  0
  -21.9192   -4.6960   22.3402 C   0  0  0  0  0  0
  -22.7867  -13.5235   21.1849 C   0  0  0  0  0  0
  -22.1663   -4.2146   21.0981 F   0  0  0  0  0  0
  -21.5628   -3.4537   25.7738 F   0  0  0  0  0  0
  -30.0180  -13.4088   20.4404 N   0  0  0  0  0  0
  -26.3009  -12.9322   20.3321 N   0  0  0  0  0  0
  -25.9327  -11.6486   20.5756 N   0  0  0  0  0  0
  -22.0503  -12.8232   22.0407 N   0  0  0  0  0  0
  -25.4325  -15.1877   20.4063 N   0  0  0  0  0  0
  -31.7406  -14.8568   20.0963 O   0  0  0  0  0  0
  -21.6639   -6.8877   21.4241 O   0  0  0  0  0  0
  -22.3556  -14.5542   20.6694 O   0  0  0  0  0  0
  -24.6259  -31.8593   23.2025 C   0  0  0  0  0  0
  -25.9106  -32.4781   23.8355 C   0  0  1  0  0  0
  -27.2280  -27.3218   20.1164 C   0  0  0  0  0  0
  -25.5916  -33.8581   24.2278 N   0  0  0  0  0  0
  -23.4197  -30.4835   21.5442 C   0  0  2  0  0  0
  -24.8668  -28.9383   20.1108 C   0  0  0  0  0  0
  -22.7474  -29.4621   22.4923 C   0  0  0  0  0  0
  -18.0288  -28.1392   22.8488 C   0  0  0  0  0  0
  -24.1488  -36.7296   23.2641 C   0  0  0  0  0  0
  -25.9604  -30.7919   21.3718 C   0  0  0  0  0  0
  -26.0354  -29.4190   20.7145 C   0  0  0  0  0  0
  -27.2186  -28.6229   20.7070 C   0  0  0  0  0  0
  -26.0348  -26.8918   19.4905 C   0  0  0  0  0  0
  -24.8680  -27.6794   19.4909 C   0  0  0  0  0  0
  -23.6349  -29.8188   20.1592 C   0  0  0  0  0  0
  -25.4112  -36.3086   24.0330 C   0  0  1  0  0  0
  -20.5888  -28.3688   23.1285 C   0  0  2  0  0  0
  -20.6778  -26.9413   22.5413 C   0  0  0  0  0  0
  -19.5755  -26.6389   21.5216 C   0  0  0  0  0  0
  -18.1933  -26.7934   22.1626 C   0  0  0  0  0  0
  -19.1541  -28.8857   23.2883 C   0  0  0  0  0  0
  -18.9462  -30.1457   23.8899 C   0  0  0  0  0  0
  -17.6466  -30.6592   24.0567 C   0  0  0  0  0  0
  -25.9047  -34.9455   23.5108 C   0  0  0  0  0  0
  -16.5355  -29.9094   23.6334 C   0  0  0  0  0  0
  -16.7274  -28.6513   23.0350 C   0  0  0  0  0  0
  -26.4492  -31.6592   25.0727 C   0  0  0  0  0  0
  -25.3732  -31.3726   26.1458 C   0  0  0  0  0  0
  -27.0338  -30.3021   24.6178 C   0  0  0  0  0  0
  -27.6053  -32.4324   25.7497 C   0  0  0  0  0  0
  -27.5576  -37.1804   24.8465 C   0  0  0  0  0  0
  -21.4187  -29.3042   22.3674 N   0  0  0  0  0  0
  -26.4287  -37.3778   23.9409 N   0  0  0  0  0  0
  -24.6876  -31.0616   22.0965 N   0  0  0  0  0  0
  -23.4199  -28.8151   23.2996 O   0  0  0  0  0  0
  -28.3535  -26.4836   20.1675 O   0  0  0  0  0  0
  -26.5626  -34.8923   22.4679 O   0  0  0  0  0  0
  -23.5423  -32.1386   23.7353 O   0  0  0  0  0  0
  -30.4644  -19.3861   20.1732 C   0  0  0  0  0  0
  -30.6023  -17.9550   20.1507 C   0  0  0  0  0  0
  -28.7407  -17.7747   21.6575 C   0  0  0  0  0  0
  -29.4835  -20.0475   20.9696 C   0  0  0  0  0  0
  -29.7475  -17.1069   20.9131 C   0  0  0  0  0  0
  -28.6139  -19.1913   21.6986 C   0  0  0  0  0  0
  -29.4636  -21.5494   21.2082 C   0  0  0  0  0  0
  -29.3544  -24.0709   20.4823 C   0  0  0  0  0  0
  -28.1656  -25.0198   20.0219 C   0  0  0  0  0  0
  -29.7419  -21.9504   22.4485 N   0  0  0  0  0  0
  -29.7699  -15.6412   20.9758 N   0  0  0  0  0  0
  -29.2071  -22.5555   20.3061 N   0  3  0  0  0  0
  -27.6452  -19.7244   22.4830 F   0  0  0  0  0  0
  -31.4876  -12.5492   19.1444 H   0  0  0  0  0  0
  -30.4045  -11.4030   19.8825 H   0  0  0  0  0  0
  -29.7802  -11.7656   17.4768 H   0  0  0  0  0  0
  -29.6489  -13.4841   17.7452 H   0  0  0  0  0  0
  -27.8714  -11.2916   18.8612 H   0  0  0  0  0  0
  -27.3794  -12.5800   17.7950 H   0  0  0  0  0  0
  -27.6815  -14.2483   19.5353 H   0  0  0  0  0  0
  -28.7197  -12.0127   21.3496 H   0  0  0  0  0  0
  -28.4381  -13.6459   21.8659 H   0  0  0  0  0  0
  -25.2764   -9.5680   22.4748 H   0  0  0  0  0  0
  -24.0001   -7.4633   22.7469 H   0  0  0  0  0  0
  -21.0837   -8.8774   19.8950 H   0  0  0  0  0  0
  -22.3699  -10.9670   19.6157 H   0  0  0  0  0  0
  -21.2005   -7.6144   23.9716 H   0  0  0  0  0  0
  -21.1478   -6.0518   25.9078 H   0  0  0  0  0  0
  -22.0601   -2.7605   23.2849 H   0  0  0  0  0  0
  -22.4114  -11.9889   22.4787 H   0  0  0  0  0  0
  -21.1120  -13.1256   22.2605 H   0  0  0  0  0  0
  -24.6599  -15.8386   20.4972 H   0  0  0  0  0  0
  -26.2666  -15.6166   20.0270 H   0  0  0  0  0  0
  -26.7175  -32.5449   23.1104 H   0  0  0  0  0  0
  -25.0055  -33.9722   25.0420 H   0  0  0  0  0  0
  -22.7133  -31.3038   21.4015 H   0  0  0  0  0  0
  -23.3749  -35.9633   23.3311 H   0  0  0  0  0  0
  -24.3578  -36.8911   22.2055 H   0  0  0  0  0  0
  -23.7244  -37.6503   23.6660 H   0  0  0  0  0  0
  -26.0921  -31.5555   20.6036 H   0  0  0  0  0  0
  -26.8399  -30.8406   22.0020 H   0  0  0  0  0  0
  -28.1154  -28.9878   21.1878 H   0  0  0  0  0  0
  -25.9768  -25.9305   19.0020 H   0  0  0  0  0  0
  -23.9713  -27.3053   19.0160 H   0  0  0  0  0  0
  -23.7559  -30.5963   19.4038 H   0  0  0  0  0  0
  -22.7541  -29.2503   19.8553 H   0  0  0  0  0  0
  -25.1295  -36.1939   25.0823 H   0  0  0  0  0  0
  -20.9989  -28.3268   24.1403 H   0  0  0  0  0  0
  -20.5690  -26.2296   23.3610 H   0  0  0  0  0  0
  -21.6645  -26.7451   22.1199 H   0  0  0  0  0  0
  -19.6920  -25.6302   21.1243 H   0  0  0  0  0  0
  -19.6697  -27.3202   20.6749 H   0  0  0  0  0  0
  -17.4203  -26.6681   21.4028 H   0  0  0  0  0  0
  -18.0328  -26.0078   22.9025 H   0  0  0  0  0  0
  -19.7938  -30.7276   24.2264 H   0  0  0  0  0  0
  -17.5022  -31.6272   24.5168 H   0  0  0  0  0  0
  -15.5358  -30.3000   23.7656 H   0  0  0  0  0  0
  -15.8673  -28.0839   22.7056 H   0  0  0  0  0  0
  -24.5904  -30.7071   25.7795 H   0  0  0  0  0  0
  -24.8923  -32.2888   26.4896 H   0  0  0  0  0  0
  -25.8060  -30.8900   27.0228 H   0  0  0  0  0  0
  -26.2911  -29.6776   24.1200 H   0  0  0  0  0  0
  -27.4037  -29.7273   25.4681 H   0  0  0  0  0  0
  -27.8782  -30.4320   23.9402 H   0  0  0  0  0  0
  -27.2663  -33.3617   26.2087 H   0  0  0  0  0  0
  -28.3859  -32.6894   25.0323 H   0  0  0  0  0  0
  -28.0736  -31.8446   26.5404 H   0  0  0  0  0  0
  -28.2596  -38.0098   24.7509 H   0  0  0  0  0  0
  -28.1063  -36.2628   24.6293 H   0  0  0  0  0  0
  -27.2292  -37.1462   25.8868 H   0  0  0  0  0  0
  -20.9358  -29.8771   21.6897 H   0  0  0  0  0  0
  -26.0172  -38.2857   24.1411 H   0  0  0  0  0  0
  -31.1681  -19.9856   19.6130 H   0  0  0  0  0  0
  -31.3849  -17.5174   19.5472 H   0  0  0  0  0  0
  -28.0448  -17.1956   22.2461 H   0  0  0  0  0  0
  -29.5723  -24.3044   21.5240 H   0  0  0  0  0  0
  -30.2503  -24.3684   19.9363 H   0  0  0  0  0  0
  -27.9481  -24.8061   18.9754 H   0  0  0  0  0  0
  -27.2819  -24.7242   20.5898 H   0  0  0  0  0  0
  -29.9485  -21.2597   23.1549 H   0  0  0  0  0  0
  -29.7192  -22.9161   22.7243 H   0  0  0  0  0  0
  -28.9356  -15.2457   21.3797 H   0  0  0  0  0  0
  -29.0022  -22.2492   19.3617 H   0  0  0  0  0  0
  1 25  1  0  0  0
  1 30  2  0  0  0
  1 81  1  0  0  0
  2  3  1  0  0  0
  2 25  1  0  0  0
  2 84  1  0  0  0
  2 85  1  0  0  0
  3  4  1  0  0  0
  3 86  1  0  0  0
  3 87  1  0  0  0
  4  5  1  0  0  0
  4 88  1  0  0  0
  4 89  1  0  0  0
  5  6  1  0  0  0
  5 26  1  0  0  0
  5 90  1  0  0  0
  6 25  1  0  0  0
  6 91  1  0  0  0
  6 92  1  0  0  0
  7  8  2  0  0  0
  7 26  1  0  0  0
  7 29  1  0  0  0
  8  9  1  0  0  0
  8 22  1  0  0  0
  9 10  1  0  0  0
  9 27  2  0  0  0
 10 11  2  0  0  0
 10 15  1  0  0  0
 11 12  1  0  0  0
 11 93  1  0  0  0
 12 13  2  0  0  0
 12 94  1  0  0  0
 13 14  1  0  0  0
 13 31  1  0  0  0
 14 15  2  0  0  0
 14 95  1  0  0  0
 15 96  1  0  0  0
 16 17  2  0  0  0
 16 21  1  0  0  0
 16 31  1  0  0  0
 17 18  1  0  0  0
 17 97  1  0  0  0
 18 19  2  0  0  0
 18 98  1  0  0  0
 19 20  1  0  0  0
 19 24  1  0  0  0
 20 21  2  0  0  0
 20 99  1  0  0  0
 21 23  1  0  0  0
 22 28  1  0  0  0
 22 32  2  0  0  0
 26 27  1  0  0  0
 28100  1  0  0  0
 28101  1  0  0  0
 29102  1  0  0  0
 29103  1  0  0  0
 33 34  1  0  0  0
 33 66  1  0  0  0
 33 70  2  0  0  0
 34 36  1  0  0  0
 34 59  1  0  0  0
 34104  1  0  0  0
 35 44  2  0  0  0
 35 45  1  0  0  0
 35 68  1  0  0  0
 36 56  1  0  0  0
 36105  1  0  0  0
 37 39  1  0  0  0
 37 47  1  0  0  0
 37 66  1  0  0  0
 37106  1  0  0  0
 38 43  2  0  0  0
 38 46  1  0  0  0
 38 47  1  0  0  0
 39 64  1  0  0  0
 39 67  2  0  0  0
 40 52  1  0  0  0
 40 53  2  0  0  0
 40 58  1  0  0  0
 41107  1  0  0  0
 41108  1  0  0  0
 41109  1  0  0  0
 41 48  1  0  0  0
 42 43  1  0  0  0
 42 66  1  0  0  0
 42110  1  0  0  0
 42111  1  0  0  0
 43 44  1  0  0  0
 44112  1  0  0  0
 45 46  2  0  0  0
 45113  1  0  0  0
 46114  1  0  0  0
 47115  1  0  0  0
 47116  1  0  0  0
 48 56  1  0  0  0
 48 65  1  0  0  0
 48117  1  0  0  0
 49 50  1  0  0  0
 49 53  1  0  0  0
 49 64  1  0  0  0
 49118  1  0  0  0
 50 51  1  0  0  0
 50119  1  0  0  0
 50120  1  0  0  0
 51 52  1  0  0  0
 51121  1  0  0  0
 51122  1  0  0  0
 52123  1  0  0  0
 52124  1  0  0  0
 53 54  1  0  0  0
 54 55  2  0  0  0
 54125  1  0  0  0
 55 57  1  0  0  0
 55126  1  0  0  0
 56 69  2  0  0  0
 57 58  2  0  0  0
 57127  1  0  0  0
 58128  1  0  0  0
 59 60  1  0  0  0
 59 61  1  0  0  0
 59 62  1  0  0  0
 60129  1  0  0  0
 60130  1  0  0  0
 60131  1  0  0  0
 61132  1  0  0  0
 61133  1  0  0  0
 61134  1  0  0  0
 62135  1  0  0  0
 62136  1  0  0  0
 62137  1  0  0  0
 63 65  1  0  0  0
 63138  1  0  0  0
 63139  1  0  0  0
 63140  1  0  0  0
 64141  1  0  0  0
 65142  1  0  0  0
 68 79  1  0  0  0
 71 72  2  0  0  0
 71 74  1  0  0  0
 71143  1  0  0  0
 72 75  1  0  0  0
 72144  1  0  0  0
 73 75  2  0  0  0
 73 76  1  0  0  0
 73145  1  0  0  0
 74 76  2  0  0  0
 74 77  1  0  0  0
 75 81  1  0  0  0
 76 83  1  0  0  0
 77 80  1  0  0  0
 77 82  2  0  0  0
 78 79  1  0  0  0
 78 82  1  0  0  0
 78146  1  0  0  0
 78147  1  0  0  0
 79148  1  0  0  0
 79149  1  0  0  0
 80150  1  0  0  0
 80151  1  0  0  0
 81152  1  0  0  0
 82153  1  0  0  0
M  CHG  1  82   1
M  ISO  4   1 100  68 101  79 101  81 100
M  END
> <chiral flag>
0

> <version>
0

> <s_m_source_file>
/data/baiqing/PycharmProjects/Reinvent-master-3.2/result/LINK_invent/BTK/process_docking_weight1_custom_product_contain_oxygen_bond_distance_aromatic_linkinvent_7_9_3/rearranged_h_0045.sdf

> <i_m_source_file_index>
75

> <r_mmod_Potential_Energy-OPLS-2005>
-115.205070495605

> <r_mmod_Stretch_Energy-OPLS-2005>
81.7860870361328

> <r_mmod_Bend_Energy-OPLS-2005>
145.963592529297

> <r_mmod_Torsional_Energy-OPLS-2005>
222.431106567383

> <r_mmod_Improper_Torsional_Energy-OPLS-2005>
4.4931321144104

> <r_mmod_Van_der_Waal_Energy-OPLS-2005>
145.859436035156

> <r_mmod_Electrostatic_Energy-OPLS-2005>
-343.29931640625

> <r_mmod_Solvation_Energy-OPLS-2005>
-422.086303710938

> <b_mmod_Minimization_Converged-OPLS-2005>
0

> <r_mmod_RMS_Derivative-OPLS-2005>
0.86594831943512

$$$$
75
                    3D
 Structure written by MMmdl.
161170  0  0  1  0            999 V2000
  -30.6978  -14.4868   20.5739 C   0  0  0  0  0  0
  -30.4314  -12.3185   19.4191 C   0  0  0  0  0  0
  -29.4994  -12.5152   18.2066 C   0  0  0  0  0  0
  -28.0198  -12.3721   18.6180 C   0  0  0  0  0  0
  -27.6651  -13.2078   19.8770 C   0  0  2  0  0  0
  -28.7091  -12.9842   20.9940 C   0  0  0  0  0  0
  -25.2596  -13.8166   20.5655 C   0  0  0  0  0  0
  -24.1848  -13.0445   20.9168 C   0  0  0  0  0  0
  -24.6411  -11.6908   20.8728 C   0  0  0  0  0  0
  -23.9073  -10.4297   21.0392 C   0  0  0  0  0  0
  -24.3622   -9.4219   21.9176 C   0  0  0  0  0  0
  -23.6303   -8.2252   22.0745 C   0  0  0  0  0  0
  -22.4284   -8.0282   21.3538 C   0  0  0  0  0  0
  -21.9924   -9.0257   20.4638 C   0  0  0  0  0  0
  -22.7242  -10.2143   20.3048 C   0  0  0  0  0  0
  -21.6865   -6.0741   22.5277 C   0  0  0  0  0  0
  -21.4021   -6.5644   23.8215 C   0  0  0  0  0  0
  -21.3668   -5.6786   24.9174 C   0  0  0  0  0  0
  -21.6053   -4.3051   24.7224 C   0  0  0  0  0  0
  -21.8821   -3.8147   23.4343 C   0  0  0  0  0  0
  -21.9201   -4.6965   22.3396 C   0  0  0  0  0  0
  -22.7866  -13.5238   21.1821 C   0  0  0  0  0  0
  -22.1658   -4.2152   21.0964 F   0  0  0  0  0  0
  -21.5635   -3.4535   25.7737 F   0  0  0  0  0  0
  -30.0410  -13.3003   20.4437 N   0  0  0  0  0  0
  -26.3051  -12.9334   20.3386 N   0  0  0  0  0  0
  -25.9341  -11.6488   20.5776 N   0  0  0  0  0  0
  -22.0501  -12.8235   22.0381 N   0  0  0  0  0  0
  -25.4305  -15.1886   20.4033 N   0  0  0  0  0  0
  -31.8220  -14.6762   20.1010 O   0  0  0  0  0  0
  -21.6641   -6.8881   21.4240 O   0  0  0  0  0  0
  -22.3556  -14.5544   20.6676 O   0  0  0  0  0  0
  -24.6173  -31.8668   23.2088 C   0  0  0  0  0  0
  -25.9057  -32.4807   23.8397 C   0  0  1  0  0  0
  -27.2420  -27.4300   20.0944 C   0  0  0  0  0  0
  -25.5894  -33.8604   24.2331 N   0  0  0  0  0  0
  -23.4047  -30.4888   21.5514 C   0  0  2  0  0  0
  -24.8526  -28.9514   20.1176 C   0  0  0  0  0  0
  -22.7413  -29.4670   22.5030 C   0  0  0  0  0  0
  -18.0275  -28.1371   22.8527 C   0  0  0  0  0  0
  -24.1478  -36.7308   23.2645 C   0  0  0  0  0  0
  -25.9350  -30.8288   21.3661 C   0  0  0  0  0  0
  -26.0128  -29.4645   20.7092 C   0  0  0  0  0  0
  -27.2121  -28.7139   20.6892 C   0  0  0  0  0  0
  -26.0622  -26.9317   19.4975 C   0  0  0  0  0  0
  -24.8735  -27.6854   19.5062 C   0  0  0  0  0  0
  -23.6116  -29.8142   20.1690 C   0  0  0  0  0  0
  -25.4105  -36.3105   24.0340 C   0  0  1  0  0  0
  -20.5865  -28.3663   23.1331 C   0  0  2  0  0  0
  -20.6758  -26.9400   22.5425 C   0  0  0  0  0  0
  -19.5730  -26.6389   21.5229 C   0  0  0  0  0  0
  -18.1911  -26.7926   22.1639 C   0  0  0  0  0  0
  -19.1525  -28.8838   23.2918 C   0  0  0  0  0  0
  -18.9440  -30.1453   23.8920 C   0  0  0  0  0  0
  -17.6440  -30.6584   24.0575 C   0  0  0  0  0  0
  -25.9029  -34.9468   23.5132 C   0  0  0  0  0  0
  -16.5338  -29.9082   23.6331 C   0  0  0  0  0  0
  -16.7266  -28.6492   23.0371 C   0  0  0  0  0  0
  -26.4483  -31.6590   25.0744 C   0  0  0  0  0  0
  -25.3749  -31.3665   26.1496 C   0  0  0  0  0  0
  -27.0317  -30.3022   24.6140 C   0  0  0  0  0  0
  -27.6062  -32.4321   25.7496 C   0  0  0  0  0  0
  -27.5583  -37.1804   24.8465 C   0  0  0  0  0  0
  -21.4153  -29.3028   22.3740 N   0  0  0  0  0  0
  -26.4298  -37.3787   23.9411 N   0  0  0  0  0  0
  -24.6702  -31.0762   22.0992 N   0  0  0  0  0  0
  -23.4172  -28.8225   23.3097 O   0  0  0  0  0  0
  -28.4205  -26.7083   20.0870 O   0  0  0  0  0  0
  -26.5601  -34.8927   22.4708 O   0  0  0  0  0  0
  -23.5366  -32.1436   23.7476 O   0  0  0  0  0  0
  -31.3695  -19.0009   20.8444 C   0  0  0  0  0  0
  -31.2423  -17.6038   20.6565 C   0  0  0  0  0  0
  -29.3761  -19.0037   22.2192 C   0  0  0  0  0  0
  -30.4508  -19.7228   21.6434 C   0  0  0  0  0  0
  -30.1864  -16.8816   21.2702 C   0  0  0  0  0  0
  -29.2463  -17.6089   22.0375 C   0  0  0  0  0  0
  -30.0398  -22.2417   20.9631 C   0  0  0  0  0  0
  -30.6809  -23.0594   23.7010 C   0  0  0  0  0  0
  -30.4441  -21.5732   23.4405 C   0  0  0  0  0  0
  -29.7493  -23.8855   22.8116 C   0  0  0  0  0  0
  -30.6887  -21.2215   21.9553 C   0  0  1  0  0  0
  -29.7473  -24.6847   20.4729 C   0  0  0  0  0  0
  -28.3292  -25.2925   20.3307 C   0  0  0  0  0  0
  -29.8277  -23.5218   21.3871 N   0  0  0  0  0  0
  -29.9786  -15.4647   21.1614 N   0  0  0  0  0  0
  -29.8534  -21.9102   19.7878 O   0  0  0  0  0  0
  -27.9217  -16.7876   22.7901 Cl  0  0  0  0  0  0
  -31.4733  -12.4284   19.1123 H   0  0  0  0  0  0
  -30.3411  -11.3047   19.8133 H   0  0  0  0  0  0
  -29.7420  -11.7946   17.4250 H   0  0  0  0  0  0
  -29.6705  -13.5026   17.7745 H   0  0  0  0  0  0
  -27.8294  -11.3159   18.8105 H   0  0  0  0  0  0
  -27.3717  -12.6510   17.7873 H   0  0  0  0  0  0
  -27.7088  -14.2573   19.5831 H   0  0  0  0  0  0
  -28.6899  -11.9446   21.3259 H   0  0  0  0  0  0
  -28.4660  -13.5726   21.8796 H   0  0  0  0  0  0
  -25.2772   -9.5712   22.4742 H   0  0  0  0  0  0
  -24.0028   -7.4657   22.7466 H   0  0  0  0  0  0
  -21.0858   -8.8774   19.8937 H   0  0  0  0  0  0
  -22.3698  -10.9684   19.6153 H   0  0  0  0  0  0
  -21.1995   -7.6154   23.9719 H   0  0  0  0  0  0
  -21.1492   -6.0510   25.9072 H   0  0  0  0  0  0
  -22.0591   -2.7610   23.2835 H   0  0  0  0  0  0
  -22.4116  -11.9933   22.4843 H   0  0  0  0  0  0
  -21.1110  -13.1255   22.2535 H   0  0  0  0  0  0
  -24.6731  -15.8493   20.5311 H   0  0  0  0  0  0
  -26.2952  -15.6327   20.1238 H   0  0  0  0  0  0
  -26.7126  -32.5506   23.1157 H   0  0  0  0  0  0
  -25.0026  -33.9745   25.0465 H   0  0  0  0  0  0
  -22.6950  -31.3057   21.4080 H   0  0  0  0  0  0
  -23.3737  -35.9639   23.3310 H   0  0  0  0  0  0
  -24.3566  -36.8924   22.2056 H   0  0  0  0  0  0
  -23.7225  -37.6514   23.6660 H   0  0  0  0  0  0
  -26.0562  -31.6018   20.6057 H   0  0  0  0  0  0
  -26.8175  -30.8724   21.9928 H   0  0  0  0  0  0
  -28.1110  -29.1122   21.1386 H   0  0  0  0  0  0
  -26.0489  -25.9704   19.0042 H   0  0  0  0  0  0
  -23.9835  -27.2870   19.0390 H   0  0  0  0  0  0
  -23.7090  -30.5830   19.4025 H   0  0  0  0  0  0
  -22.7377  -29.2257   19.8841 H   0  0  0  0  0  0
  -25.1289  -36.1976   25.0831 H   0  0  0  0  0  0
  -20.9954  -28.3226   24.1455 H   0  0  0  0  0  0
  -20.5678  -26.2278   23.3618 H   0  0  0  0  0  0
  -21.6622  -26.7453   22.1205 H   0  0  0  0  0  0
  -19.6882  -25.6302   21.1248 H   0  0  0  0  0  0
  -19.6654  -27.3224   20.6773 H   0  0  0  0  0  0
  -17.4187  -26.6739   21.4022 H   0  0  0  0  0  0
  -18.0273  -26.0046   22.9005 H   0  0  0  0  0  0
  -19.7905  -30.7277   24.2294 H   0  0  0  0  0  0
  -17.4978  -31.6261   24.5170 H   0  0  0  0  0  0
  -15.5334  -30.2979   23.7616 H   0  0  0  0  0  0
  -15.8681  -28.0797   22.7083 H   0  0  0  0  0  0
  -24.5903  -30.7043   25.7808 H   0  0  0  0  0  0
  -24.8972  -32.2806   26.5036 H   0  0  0  0  0  0
  -25.8119  -30.8753   27.0200 H   0  0  0  0  0  0
  -26.2856  -29.6766   24.1224 H   0  0  0  0  0  0
  -27.4087  -29.7288   25.4619 H   0  0  0  0  0  0
  -27.8698  -30.4319   23.9288 H   0  0  0  0  0  0
  -27.2669  -33.3596   26.2119 H   0  0  0  0  0  0
  -28.3836  -32.6918   25.0297 H   0  0  0  0  0  0
  -28.0774  -31.8425   26.5373 H   0  0  0  0  0  0
  -28.2607  -38.0095   24.7517 H   0  0  0  0  0  0
  -28.1070  -36.2628   24.6283 H   0  0  0  0  0  0
  -27.2299  -37.1452   25.8865 H   0  0  0  0  0  0
  -20.9331  -29.8694   21.6903 H   0  0  0  0  0  0
  -26.0193  -38.2874   24.1377 H   0  0  0  0  0  0
  -32.2007  -19.5174   20.3831 H   0  0  0  0  0  0
  -31.9780  -17.1086   20.0425 H   0  0  0  0  0  0
  -28.6465  -19.5055   22.8359 H   0  0  0  0  0  0
  -31.7215  -23.3242   23.5036 H   0  0  0  0  0  0
  -30.4918  -23.2911   24.7505 H   0  0  0  0  0  0
  -29.4257  -21.3308   23.7415 H   0  0  0  0  0  0
  -31.1039  -20.9812   24.0754 H   0  0  0  0  0  0
  -29.9508  -24.9468   22.9681 H   0  0  0  0  0  0
  -28.7185  -23.7262   23.1335 H   0  0  0  0  0  0
  -31.7582  -21.3774   21.8018 H   0  0  0  0  0  0
  -30.4277  -25.4525   20.8437 H   0  0  0  0  0  0
  -30.1391  -24.4349   19.4851 H   0  0  0  0  0  0
  -27.7564  -25.1364   21.2459 H   0  0  0  0  0  0
  -27.8045  -24.7752   19.5280 H   0  0  0  0  0  0
  -29.0965  -15.1521   21.5424 H   0  0  0  0  0  0
  1 25  1  0  0  0
  1 30  2  0  0  0
  1 85  1  0  0  0
  2  3  1  0  0  0
  2 25  1  0  0  0
  2 88  1  0  0  0
  2 89  1  0  0  0
  3  4  1  0  0  0
  3 90  1  0  0  0
  3 91  1  0  0  0
  4  5  1  0  0  0
  4 92  1  0  0  0
  4 93  1  0  0  0
  5  6  1  0  0  0
  5 26  1  0  0  0
  5 94  1  0  0  0
  6 25  1  0  0  0
  6 95  1  0  0  0
  6 96  1  0  0  0
  7  8  2  0  0  0
  7 26  1  0  0  0
  7 29  1  0  0  0
  8  9  1  0  0  0
  8 22  1  0  0  0
  9 10  1  0  0  0
  9 27  2  0  0  0
 10 11  2  0  0  0
 10 15  1  0  0  0
 11 12  1  0  0  0
 11 97  1  0  0  0
 12 13  2  0  0  0
 12 98  1  0  0  0
 13 14  1  0  0  0
 13 31  1  0  0  0
 14 15  2  0  0  0
 14 99  1  0  0  0
 15100  1  0  0  0
 16 17  2  0  0  0
 16 21  1  0  0  0
 16 31  1  0  0  0
 17 18  1  0  0  0
 17101  1  0  0  0
 18 19  2  0  0  0
 18102  1  0  0  0
 19 20  1  0  0  0
 19 24  1  0  0  0
 20 21  2  0  0  0
 20103  1  0  0  0
 21 23  1  0  0  0
 22 28  1  0  0  0
 22 32  2  0  0  0
 26 27  1  0  0  0
 28104  1  0  0  0
 28105  1  0  0  0
 29106  1  0  0  0
 29107  1  0  0  0
 33 34  1  0  0  0
 33 66  1  0  0  0
 33 70  2  0  0  0
 34 36  1  0  0  0
 34 59  1  0  0  0
 34108  1  0  0  0
 35 44  2  0  0  0
 35 45  1  0  0  0
 35 68  1  0  0  0
 36 56  1  0  0  0
 36109  1  0  0  0
 37 39  1  0  0  0
 37 47  1  0  0  0
 37 66  1  0  0  0
 37110  1  0  0  0
 38 43  2  0  0  0
 38 46  1  0  0  0
 38 47  1  0  0  0
 39 64  1  0  0  0
 39 67  2  0  0  0
 40 52  1  0  0  0
 40 53  2  0  0  0
 40 58  1  0  0  0
 41111  1  0  0  0
 41112  1  0  0  0
 41113  1  0  0  0
 41 48  1  0  0  0
 42 43  1  0  0  0
 42 66  1  0  0  0
 42114  1  0  0  0
 42115  1  0  0  0
 43 44  1  0  0  0
 44116  1  0  0  0
 45 46  2  0  0  0
 45117  1  0  0  0
 46118  1  0  0  0
 47119  1  0  0  0
 47120  1  0  0  0
 48 56  1  0  0  0
 48 65  1  0  0  0
 48121  1  0  0  0
 49 50  1  0  0  0
 49 53  1  0  0  0
 49 64  1  0  0  0
 49122  1  0  0  0
 50 51  1  0  0  0
 50123  1  0  0  0
 50124  1  0  0  0
 51 52  1  0  0  0
 51125  1  0  0  0
 51126  1  0  0  0
 52127  1  0  0  0
 52128  1  0  0  0
 53 54  1  0  0  0
 54 55  2  0  0  0
 54129  1  0  0  0
 55 57  1  0  0  0
 55130  1  0  0  0
 56 69  2  0  0  0
 57 58  2  0  0  0
 57131  1  0  0  0
 58132  1  0  0  0
 59 60  1  0  0  0
 59 61  1  0  0  0
 59 62  1  0  0  0
 60133  1  0  0  0
 60134  1  0  0  0
 60135  1  0  0  0
 61136  1  0  0  0
 61137  1  0  0  0
 61138  1  0  0  0
 62139  1  0  0  0
 62140  1  0  0  0
 62141  1  0  0  0
 63 65  1  0  0  0
 63142  1  0  0  0
 63143  1  0  0  0
 63144  1  0  0  0
 64145  1  0  0  0
 65146  1  0  0  0
 68 83  1  0  0  0
 71 72  2  0  0  0
 71 74  1  0  0  0
 71147  1  0  0  0
 72 75  1  0  0  0
 72148  1  0  0  0
 73 74  2  0  0  0
 73 76  1  0  0  0
 73149  1  0  0  0
 74 81  1  0  0  0
 75 76  2  0  0  0
 75 85  1  0  0  0
 76 87  1  0  0  0
 77 81  1  0  0  0
 77 84  1  0  0  0
 77 86  2  0  0  0
 78 79  1  0  0  0
 78 80  1  0  0  0
 78150  1  0  0  0
 78151  1  0  0  0
 79 81  1  0  0  0
 79152  1  0  0  0
 79153  1  0  0  0
 80 84  1  0  0  0
 80154  1  0  0  0
 80155  1  0  0  0
 81156  1  0  0  0
 82 83  1  0  0  0
 82 84  1  0  0  0
 82157  1  0  0  0
 82158  1  0  0  0
 83159  1  0  0  0
 83160  1  0  0  0
 85161  1  0  0  0
M  ISO  4   1 100  68 101  83 101  85 100
M  END
> <chiral flag>
0

> <version>
0

> <s_m_source_file>
/data/baiqing/PycharmProjects/Reinvent-master-3.2/result/LINK_invent/BTK/process_docking_weight1_custom_product_contain_oxygen_bond_distance_aromatic_linkinvent_7_9_3/rearranged_h_0045.sdf

> <i_m_source_file_index>
76

> <r_mmod_Potential_Energy-OPLS-2005>
7.86535310745239

> <r_mmod_Stretch_Energy-OPLS-2005>
45.9610443115234

> <r_mmod_Bend_Energy-OPLS-2005>
113.663558959961

> <r_mmod_Torsional_Energy-OPLS-2005>
256.590240478516

> <r_mmod_Improper_Torsional_Energy-OPLS-2005>
4.33799409866333

> <r_mmod_Van_der_Waal_Energy-OPLS-2005>
162.906127929688

> <r_mmod_Electrostatic_Energy-OPLS-2005>
-366.881011962891

> <r_mmod_Solvation_Energy-OPLS-2005>
-221.631576538086

> <b_mmod_Minimization_Converged-OPLS-2005>
0

> <r_mmod_RMS_Derivative-OPLS-2005>
2.34887528419495

$$$$
76
                    3D
 Structure written by MMmdl.
164173  0  0  1  0            999 V2000
  -30.6101  -14.6945   20.4800 C   0  0  0  0  0  0
  -30.4278  -12.3998   19.5267 C   0  0  0  0  0  0
  -29.5037  -12.4111   18.2851 C   0  0  0  0  0  0
  -28.0130  -12.3414   18.6736 C   0  0  0  0  0  0
  -27.6403  -13.2326   19.8866 C   0  0  2  0  0  0
  -28.6801  -13.1382   21.0240 C   0  0  0  0  0  0
  -25.2443  -13.8239   20.5778 C   0  0  0  0  0  0
  -24.1719  -13.0522   20.9172 C   0  0  0  0  0  0
  -24.6297  -11.6973   20.8748 C   0  0  0  0  0  0
  -23.8991  -10.4349   21.0395 C   0  0  0  0  0  0
  -24.3557   -9.4253   21.9158 C   0  0  0  0  0  0
  -23.6263   -8.2268   22.0691 C   0  0  0  0  0  0
  -22.4248   -8.0278   21.3483 C   0  0  0  0  0  0
  -21.9882   -9.0241   20.4586 C   0  0  0  0  0  0
  -22.7162  -10.2152   20.3038 C   0  0  0  0  0  0
  -21.6878   -6.0728   22.5230 C   0  0  0  0  0  0
  -21.4045   -6.5633   23.8156 C   0  0  0  0  0  0
  -21.3674   -5.6795   24.9115 C   0  0  0  0  0  0
  -21.6051   -4.3050   24.7177 C   0  0  0  0  0  0
  -21.8826   -3.8137   23.4294 C   0  0  0  0  0  0
  -21.9200   -4.6955   22.3350 C   0  0  0  0  0  0
  -22.7737  -13.5227   21.1888 C   0  0  0  0  0  0
  -22.1645   -4.2147   21.0929 F   0  0  0  0  0  0
  -21.5641   -3.4532   25.7683 F   0  0  0  0  0  0
  -29.9929  -13.4667   20.4550 N   0  0  0  0  0  0
  -26.2897  -12.9451   20.3530 N   0  0  0  0  0  0
  -25.9254  -11.6598   20.5957 N   0  0  0  0  0  0
  -22.0538  -12.8133   22.0457 N   0  0  0  0  0  0
  -25.4276  -15.1983   20.4183 N   0  0  0  0  0  0
  -31.7710  -14.8178   20.0833 O   0  0  0  0  0  0
  -21.6643   -6.8851   21.4185 O   0  0  0  0  0  0
  -22.3372  -14.5553   20.6760 O   0  0  0  0  0  0
  -24.6295  -31.8657   23.2057 C   0  0  0  0  0  0
  -25.9155  -32.4794   23.8358 C   0  0  1  0  0  0
  -27.1444  -27.2978   20.1581 C   0  0  0  0  0  0
  -25.5971  -33.8589   24.2289 N   0  0  0  0  0  0
  -23.4107  -30.4999   21.5579 C   0  0  2  0  0  0
  -24.8294  -28.9615   20.0991 C   0  0  0  0  0  0
  -22.7454  -29.4708   22.5026 C   0  0  0  0  0  0
  -18.0294  -28.1406   22.8513 C   0  0  0  0  0  0
  -24.1485  -36.7302   23.2646 C   0  0  0  0  0  0
  -25.9528  -30.7907   21.3723 C   0  0  0  0  0  0
  -26.0037  -29.4240   20.7080 C   0  0  0  0  0  0
  -27.1675  -28.6069   20.7180 C   0  0  0  0  0  0
  -25.9520  -26.8832   19.5173 C   0  0  0  0  0  0
  -24.8105  -27.7038   19.4789 C   0  0  0  0  0  0
  -23.6040  -29.8516   20.1638 C   0  0  0  0  0  0
  -25.4118  -36.3107   24.0352 C   0  0  1  0  0  0
  -20.5880  -28.3713   23.1321 C   0  0  2  0  0  0
  -20.6797  -26.9442   22.5442 C   0  0  0  0  0  0
  -19.5759  -26.6401   21.5256 C   0  0  0  0  0  0
  -18.1925  -26.7965   22.1636 C   0  0  0  0  0  0
  -19.1533  -28.8878   23.2912 C   0  0  0  0  0  0
  -18.9446  -30.1475   23.8928 C   0  0  0  0  0  0
  -17.6444  -30.6608   24.0568 C   0  0  0  0  0  0
  -25.9068  -34.9480   23.5125 C   0  0  0  0  0  0
  -16.5341  -29.9105   23.6328 C   0  0  0  0  0  0
  -16.7272  -28.6511   23.0370 C   0  0  0  0  0  0
  -26.4494  -31.6621   25.0755 C   0  0  0  0  0  0
  -25.3698  -31.3752   26.1458 C   0  0  0  0  0  0
  -27.0328  -30.3042   24.6225 C   0  0  0  0  0  0
  -27.6052  -32.4361   25.7529 C   0  0  0  0  0  0
  -27.5594  -37.1806   24.8454 C   0  0  0  0  0  0
  -21.4188  -29.3077   22.3744 N   0  0  0  0  0  0
  -26.4286  -37.3811   23.9426 N   0  0  0  0  0  0
  -24.6855  -31.0681   22.1015 N   0  0  0  0  0  0
  -23.4204  -28.8268   23.3104 O   0  0  0  0  0  0
  -28.2491  -26.4516   20.2875 O   0  0  0  0  0  0
  -26.5631  -34.8942   22.4691 O   0  0  0  0  0  0
  -23.5471  -32.1472   23.7406 O   0  0  0  0  0  0
  -29.4750  -19.8021   19.1122 C   0  0  0  0  0  0
  -29.5819  -18.6655   18.2935 C   0  0  0  0  0  0
  -29.6921  -18.3406   21.0552 C   0  0  0  0  0  0
  -29.5718  -19.6774   20.5095 C   0  0  0  0  0  0
  -29.7883  -17.3757   18.8247 C   0  0  0  0  0  0
  -29.8047  -17.1542   20.2373 C   0  0  0  0  0  0
  -30.0118  -23.5302   21.0520 C   0  0  0  0  0  0
  -30.9427  -23.9375   21.9308 C   0  0  0  0  0  0
  -29.5436  -24.3611   19.8413 C   0  0  0  0  0  0
  -27.3618  -24.0733   21.0396 C   0  0  0  0  0  0
  -27.7591  -22.5539   20.7887 C   0  0  0  0  0  0
  -28.1388  -25.0001   20.0404 C   0  0  1  0  0  0
  -30.0321  -16.2864   17.7992 C   0  0  0  0  0  0
  -29.8763  -20.9668   21.3445 C   0  0  0  0  0  0
  -29.8490  -15.7957   20.8206 N   0  0  0  0  0  0
  -29.1434  -22.3173   21.3197 N   0  3  2  0  0  0
  -31.4621  -12.5352   19.2099 H   0  0  0  0  0  0
  -30.3966  -11.4360   20.0402 H   0  0  0  0  0  0
  -29.7430  -11.5609   17.6443 H   0  0  0  0  0  0
  -29.6999  -13.2876   17.6767 H   0  0  0  0  0  0
  -27.7879  -11.3001   18.9049 H   0  0  0  0  0  0
  -27.3759  -12.5943   17.8237 H   0  0  0  0  0  0
  -27.6480  -14.2621   19.5303 H   0  0  0  0  0  0
  -28.6965  -12.1415   21.4673 H   0  0  0  0  0  0
  -28.4167  -13.8179   21.8391 H   0  0  0  0  0  0
  -25.2686   -9.5724   22.4759 H   0  0  0  0  0  0
  -23.9991   -7.4642   22.7379 H   0  0  0  0  0  0
  -21.0826   -8.8694   19.8868 H   0  0  0  0  0  0
  -22.3557  -10.9676   19.6162 H   0  0  0  0  0  0
  -21.2077   -7.6155   23.9630 H   0  0  0  0  0  0
  -21.1483   -6.0532   25.9005 H   0  0  0  0  0  0
  -22.0607   -2.7611   23.2764 H   0  0  0  0  0  0
  -22.4285  -11.9741   22.4646 H   0  0  0  0  0  0
  -21.1208  -13.1030   22.2983 H   0  0  0  0  0  0
  -24.6819  -15.8748   20.5353 H   0  0  0  0  0  0
  -26.2938  -15.6188   20.1042 H   0  0  0  0  0  0
  -26.7233  -32.5377   23.1098 H   0  0  0  0  0  0
  -25.0084  -33.9737   25.0411 H   0  0  0  0  0  0
  -22.7101  -31.3291   21.4357 H   0  0  0  0  0  0
  -23.3781  -35.9593   23.3278 H   0  0  0  0  0  0
  -24.3593  -36.8943   22.2062 H   0  0  0  0  0  0
  -23.7159  -37.6476   23.6666 H   0  0  0  0  0  0
  -26.0996  -31.5537   20.6077 H   0  0  0  0  0  0
  -26.8373  -30.8145   21.9970 H   0  0  0  0  0  0
  -28.0714  -28.9476   21.2045 H   0  0  0  0  0  0
  -25.8400  -25.9088   19.0691 H   0  0  0  0  0  0
  -23.9113  -27.3547   18.9871 H   0  0  0  0  0  0
  -23.7219  -30.6417   19.4212 H   0  0  0  0  0  0
  -22.7089  -29.3019   19.8593 H   0  0  0  0  0  0
  -25.1289  -36.1986   25.0844 H   0  0  0  0  0  0
  -20.9952  -28.3268   24.1444 H   0  0  0  0  0  0
  -20.5718  -26.2329   23.3652 H   0  0  0  0  0  0
  -21.6663  -26.7516   22.1194 H   0  0  0  0  0  0
  -19.6919  -25.6298   21.1297 H   0  0  0  0  0  0
  -19.6688  -27.3208   20.6779 H   0  0  0  0  0  0
  -17.4213  -26.6756   21.4010 H   0  0  0  0  0  0
  -18.0273  -26.0099   22.8996 H   0  0  0  0  0  0
  -19.7923  -30.7288   24.2320 H   0  0  0  0  0  0
  -17.4989  -31.6292   24.5174 H   0  0  0  0  0  0
  -15.5335  -30.2994   23.7666 H   0  0  0  0  0  0
  -15.8667  -28.0817   22.7105 H   0  0  0  0  0  0
  -24.5872  -30.7121   25.7752 H   0  0  0  0  0  0
  -24.8883  -32.2897   26.4921 H   0  0  0  0  0  0
  -25.7980  -30.8872   27.0215 H   0  0  0  0  0  0
  -26.2896  -29.6807   24.1226 H   0  0  0  0  0  0
  -27.3982  -29.7297   25.4747 H   0  0  0  0  0  0
  -27.8788  -30.4350   23.9477 H   0  0  0  0  0  0
  -27.2689  -33.3683   26.2085 H   0  0  0  0  0  0
  -28.3862  -32.6888   25.0349 H   0  0  0  0  0  0
  -28.0710  -31.8487   26.5449 H   0  0  0  0  0  0
  -28.2570  -38.0147   24.7594 H   0  0  0  0  0  0
  -28.1142  -36.2691   24.6170 H   0  0  0  0  0  0
  -27.2344  -37.1315   25.8861 H   0  0  0  0  0  0
  -20.9393  -29.8758   21.6904 H   0  0  0  0  0  0
  -26.0189  -38.2892   24.1440 H   0  0  0  0  0  0
  -29.4203  -20.7721   18.6409 H   0  0  0  0  0  0
  -29.5693  -18.8034   17.2205 H   0  0  0  0  0  0
  -29.7824  -18.2274   22.1293 H   0  0  0  0  0  0
  -31.4478  -24.8748   21.7624 H   0  0  0  0  0  0
  -31.1746  -23.3971   22.8362 H   0  0  0  0  0  0
  -29.4930  -23.6932   18.9788 H   0  0  0  0  0  0
  -30.2818  -25.1082   19.5674 H   0  0  0  0  0  0
  -27.6002  -24.3359   22.0788 H   0  0  0  0  0  0
  -26.2878  -24.2326   20.9366 H   0  0  0  0  0  0
  -27.7611  -22.3710   19.7128 H   0  0  0  0  0  0
  -27.0203  -21.8793   21.2111 H   0  0  0  0  0  0
  -27.6460  -24.8910   19.0795 H   0  0  0  0  0  0
  -29.6797  -16.5873   16.8122 H   0  0  0  0  0  0
  -29.5114  -15.3748   18.0674 H   0  0  0  0  0  0
  -31.1046  -16.0999   17.7036 H   0  0  0  0  0  0
  -30.8808  -21.2122   20.9902 H   0  0  0  0  0  0
  -30.0460  -20.6834   22.3864 H   0  0  0  0  0  0
  -29.0805  -15.5841   21.4421 H   0  0  0  0  0  0
  -28.9452  -22.3655   22.3090 H   0  0  0  0  0  0
  1 25  1  0  0  0
  1 30  2  0  0  0
  1 85  1  0  0  0
  2  3  1  0  0  0
  2 25  1  0  0  0
  2 87  1  0  0  0
  2 88  1  0  0  0
  3  4  1  0  0  0
  3 89  1  0  0  0
  3 90  1  0  0  0
  4  5  1  0  0  0
  4 91  1  0  0  0
  4 92  1  0  0  0
  5  6  1  0  0  0
  5 26  1  0  0  0
  5 93  1  0  0  0
  6 25  1  0  0  0
  6 94  1  0  0  0
  6 95  1  0  0  0
  7  8  2  0  0  0
  7 26  1  0  0  0
  7 29  1  0  0  0
  8  9  1  0  0  0
  8 22  1  0  0  0
  9 10  1  0  0  0
  9 27  2  0  0  0
 10 11  2  0  0  0
 10 15  1  0  0  0
 11 12  1  0  0  0
 11 96  1  0  0  0
 12 13  2  0  0  0
 12 97  1  0  0  0
 13 14  1  0  0  0
 13 31  1  0  0  0
 14 15  2  0  0  0
 14 98  1  0  0  0
 15 99  1  0  0  0
 16 17  2  0  0  0
 16 21  1  0  0  0
 16 31  1  0  0  0
 17 18  1  0  0  0
 17100  1  0  0  0
 18 19  2  0  0  0
 18101  1  0  0  0
 19 20  1  0  0  0
 19 24  1  0  0  0
 20 21  2  0  0  0
 20102  1  0  0  0
 21 23  1  0  0  0
 22 28  1  0  0  0
 22 32  2  0  0  0
 26 27  1  0  0  0
 28103  1  0  0  0
 28104  1  0  0  0
 29105  1  0  0  0
 29106  1  0  0  0
 33 34  1  0  0  0
 33 66  1  0  0  0
 33 70  2  0  0  0
 34 36  1  0  0  0
 34 59  1  0  0  0
 34107  1  0  0  0
 35 44  2  0  0  0
 35 45  1  0  0  0
 35 68  1  0  0  0
 36 56  1  0  0  0
 36108  1  0  0  0
 37 39  1  0  0  0
 37 47  1  0  0  0
 37 66  1  0  0  0
 37109  1  0  0  0
 38 43  2  0  0  0
 38 46  1  0  0  0
 38 47  1  0  0  0
 39 64  1  0  0  0
 39 67  2  0  0  0
 40 52  1  0  0  0
 40 53  2  0  0  0
 40 58  1  0  0  0
 41110  1  0  0  0
 41111  1  0  0  0
 41112  1  0  0  0
 41 48  1  0  0  0
 42 43  1  0  0  0
 42 66  1  0  0  0
 42113  1  0  0  0
 42114  1  0  0  0
 43 44  1  0  0  0
 44115  1  0  0  0
 45 46  2  0  0  0
 45116  1  0  0  0
 46117  1  0  0  0
 47118  1  0  0  0
 47119  1  0  0  0
 48 56  1  0  0  0
 48 65  1  0  0  0
 48120  1  0  0  0
 49 50  1  0  0  0
 49 53  1  0  0  0
 49 64  1  0  0  0
 49121  1  0  0  0
 50 51  1  0  0  0
 50122  1  0  0  0
 50123  1  0  0  0
 51 52  1  0  0  0
 51124  1  0  0  0
 51125  1  0  0  0
 52126  1  0  0  0
 52127  1  0  0  0
 53 54  1  0  0  0
 54 55  2  0  0  0
 54128  1  0  0  0
 55 57  1  0  0  0
 55129  1  0  0  0
 56 69  2  0  0  0
 57 58  2  0  0  0
 57130  1  0  0  0
 58131  1  0  0  0
 59 60  1  0  0  0
 59 61  1  0  0  0
 59 62  1  0  0  0
 60132  1  0  0  0
 60133  1  0  0  0
 60134  1  0  0  0
 61135  1  0  0  0
 61136  1  0  0  0
 61137  1  0  0  0
 62138  1  0  0  0
 62139  1  0  0  0
 62140  1  0  0  0
 63 65  1  0  0  0
 63141  1  0  0  0
 63142  1  0  0  0
 63143  1  0  0  0
 64144  1  0  0  0
 65145  1  0  0  0
 68 82  1  0  0  0
 71 72  2  0  0  0
 71 74  1  0  0  0
 71146  1  0  0  0
 72 75  1  0  0  0
 72147  1  0  0  0
 73 74  2  0  0  0
 73 76  1  0  0  0
 73148  1  0  0  0
 74 84  1  0  0  0
 75 76  2  0  0  0
 75 83  1  0  0  0
 76 85  1  0  0  0
 77 78  2  0  0  0
 77 79  1  0  0  0
 77 86  1  0  0  0
 78149  1  0  0  0
 78150  1  0  0  0
 79 82  1  0  0  0
 79151  1  0  0  0
 79152  1  0  0  0
 80 81  1  0  0  0
 80 82  1  0  0  0
 80153  1  0  0  0
 80154  1  0  0  0
 81 86  1  0  0  0
 81155  1  0  0  0
 81156  1  0  0  0
 82157  1  0  0  0
 83158  1  0  0  0
 83159  1  0  0  0
 83160  1  0  0  0
 84161  1  0  0  0
 84162  1  0  0  0
 84 86  1  0  0  0
 85163  1  0  0  0
 86164  1  0  0  0
M  CHG  1  86   1
M  ISO  4   1 100  68 101  82 101  85 100
M  END
> <chiral flag>
0

> <version>
0

> <s_m_source_file>
/data/baiqing/PycharmProjects/Reinvent-master-3.2/result/LINK_invent/BTK/process_docking_weight1_custom_product_contain_oxygen_bond_distance_aromatic_linkinvent_7_9_3/rearranged_h_0045.sdf

> <i_m_source_file_index>
77

> <r_mmod_Potential_Energy-OPLS-2005>
78.6202774047852

> <r_mmod_Stretch_Energy-OPLS-2005>
87.7997131347656

> <r_mmod_Bend_Energy-OPLS-2005>
202.590713500977

> <r_mmod_Torsional_Energy-OPLS-2005>
283.922882080078

> <r_mmod_Improper_Torsional_Energy-OPLS-2005>
6.59039211273193

> <r_mmod_Van_der_Waal_Energy-OPLS-2005>
161.952667236328

> <r_mmod_Electrostatic_Energy-OPLS-2005>
-288.139526367188

> <r_mmod_Solvation_Energy-OPLS-2005>
-451.531616210938

> <b_mmod_Minimization_Converged-OPLS-2005>
0

> <r_mmod_RMS_Derivative-OPLS-2005>
9.011061668396

$$$$
77
                    3D
 Structure written by MMmdl.
162171  0  0  1  0            999 V2000
  -30.7088  -14.4811   20.5530 C   0  0  0  0  0  0
  -30.4169  -12.3042   19.4291 C   0  0  0  0  0  0
  -29.4941  -12.5097   18.2094 C   0  0  0  0  0  0
  -28.0116  -12.3826   18.6107 C   0  0  0  0  0  0
  -27.6578  -13.2182   19.8689 C   0  0  2  0  0  0
  -28.6978  -13.0172   20.9921 C   0  0  0  0  0  0
  -25.2583  -13.8165   20.5740 C   0  0  0  0  0  0
  -24.1820  -13.0422   20.9140 C   0  0  0  0  0  0
  -24.6372  -11.6901   20.8661 C   0  0  0  0  0  0
  -23.9018  -10.4305   21.0359 C   0  0  0  0  0  0
  -24.3585   -9.4235   21.9144 C   0  0  0  0  0  0
  -23.6292   -8.2249   22.0706 C   0  0  0  0  0  0
  -22.4269   -8.0262   21.3508 C   0  0  0  0  0  0
  -21.9894   -9.0216   20.4597 C   0  0  0  0  0  0
  -22.7185  -10.2118   20.3017 C   0  0  0  0  0  0
  -21.6825   -6.0737   22.5273 C   0  0  0  0  0  0
  -21.4000   -6.5629   23.8221 C   0  0  0  0  0  0
  -21.3681   -5.6767   24.9175 C   0  0  0  0  0  0
  -21.6053   -4.3034   24.7202 C   0  0  0  0  0  0
  -21.8825   -3.8130   23.4322 C   0  0  0  0  0  0
  -21.9182   -4.6962   22.3391 C   0  0  0  0  0  0
  -22.7854  -13.5203   21.1835 C   0  0  0  0  0  0
  -22.1653   -4.2158   21.0965 F   0  0  0  0  0  0
  -21.5655   -3.4513   25.7719 F   0  0  0  0  0  0
  -30.0328  -13.3041   20.4424 N   0  0  0  0  0  0
  -26.3007  -12.9368   20.3337 N   0  0  0  0  0  0
  -25.9291  -11.6503   20.5641 N   0  0  0  0  0  0
  -22.0502  -12.8217   22.0411 N   0  0  0  0  0  0
  -25.4328  -15.1903   20.4388 N   0  0  0  0  0  0
  -31.8596  -14.5817   20.1153 O   0  0  0  0  0  0
  -21.6612   -6.8867   21.4229 O   0  0  0  0  0  0
  -22.3560  -14.5500   20.6659 O   0  0  0  0  0  0
  -24.6168  -31.8688   23.2098 C   0  0  0  0  0  0
  -25.9050  -32.4816   23.8411 C   0  0  1  0  0  0
  -27.2206  -27.4150   20.1080 C   0  0  0  0  0  0
  -25.5901  -33.8608   24.2322 N   0  0  0  0  0  0
  -23.4050  -30.4940   21.5494 C   0  0  2  0  0  0
  -24.8515  -28.9625   20.1097 C   0  0  0  0  0  0
  -22.7424  -29.4673   22.4961 C   0  0  0  0  0  0
  -18.0278  -28.1396   22.8497 C   0  0  0  0  0  0
  -24.1476  -36.7312   23.2628 C   0  0  0  0  0  0
  -25.9369  -30.8285   21.3672 C   0  0  0  0  0  0
  -26.0130  -29.4634   20.7108 C   0  0  0  0  0  0
  -27.2058  -28.6975   20.7072 C   0  0  0  0  0  0
  -26.0500  -26.9478   19.4725 C   0  0  0  0  0  0
  -24.8661  -27.7067   19.4826 C   0  0  0  0  0  0
  -23.6118  -29.8287   20.1638 C   0  0  0  0  0  0
  -25.4093  -36.3098   24.0344 C   0  0  1  0  0  0
  -20.5876  -28.3680   23.1326 C   0  0  2  0  0  0
  -20.6761  -26.9409   22.5430 C   0  0  0  0  0  0
  -19.5736  -26.6396   21.5231 C   0  0  0  0  0  0
  -18.1919  -26.7947   22.1635 C   0  0  0  0  0  0
  -19.1526  -28.8863   23.2903 C   0  0  0  0  0  0
  -18.9445  -30.1471   23.8890 C   0  0  0  0  0  0
  -17.6447  -30.6588   24.0589 C   0  0  0  0  0  0
  -25.9050  -34.9478   23.5143 C   0  0  0  0  0  0
  -16.5342  -29.9089   23.6354 C   0  0  0  0  0  0
  -16.7263  -28.6525   23.0340 C   0  0  0  0  0  0
  -26.4471  -31.6598   25.0739 C   0  0  0  0  0  0
  -25.3733  -31.3760   26.1500 C   0  0  0  0  0  0
  -27.0297  -30.3026   24.6139 C   0  0  0  0  0  0
  -27.6064  -32.4334   25.7472 C   0  0  0  0  0  0
  -27.5629  -37.1739   24.8404 C   0  0  0  0  0  0
  -21.4138  -29.3038   22.3711 N   0  0  0  0  0  0
  -26.4234  -37.3828   23.9496 N   0  0  0  0  0  0
  -24.6704  -31.0790   22.0998 N   0  0  0  0  0  0
  -23.4194  -28.8223   23.3007 O   0  0  0  0  0  0
  -28.3442  -26.6105   20.1422 O   0  0  0  0  0  0
  -26.5605  -34.8938   22.4693 O   0  0  0  0  0  0
  -23.5349  -32.1440   23.7484 O   0  0  0  0  0  0
  -27.5781  -19.1845   21.6320 C   0  0  0  0  0  0
  -28.3108  -18.0018   21.4433 C   0  0  0  0  0  0
  -28.1283  -20.4215   21.2507 C   0  0  0  0  0  0
  -29.5908  -18.0288   20.8456 C   0  0  0  0  0  0
  -29.4367  -20.5118   20.7232 C   0  0  0  0  0  0
  -30.1702  -19.2980   20.5070 C   0  0  0  0  0  0
  -28.9735  -24.1759   20.1578 C   0  0  0  0  0  0
  -30.2703  -16.7236   20.5634 C   0  0  0  0  0  0
  -28.3315  -24.1294   23.0025 C   0  0  0  0  0  0
  -28.3929  -25.4894   22.3079 C   0  0  0  0  0  0
  -29.3934  -23.1953   22.4063 C   0  0  0  0  0  0
  -28.1434  -25.3289   20.7993 C   0  0  1  0  0  0
  -31.5850  -19.3363   19.9074 C   0  0  0  0  0  0
  -30.0339  -21.9057   20.3913 C   0  0  0  0  0  0
  -29.9433  -15.5611   21.0121 N   0  0  0  0  0  0
  -29.3524  -23.1126   20.9332 N   0  0  0  0  0  0
  -29.2060  -24.2276   18.9438 O   0  0  0  0  0  0
  -31.4623  -12.3814   19.1244 H   0  0  0  0  0  0
  -30.3049  -11.2961   19.8325 H   0  0  0  0  0  0
  -29.7303  -11.7825   17.4310 H   0  0  0  0  0  0
  -29.6659  -13.4971   17.7738 H   0  0  0  0  0  0
  -27.8017  -11.3271   18.7867 H   0  0  0  0  0  0
  -27.3708  -12.6864   17.7812 H   0  0  0  0  0  0
  -27.6943  -14.2652   19.5664 H   0  0  0  0  0  0
  -28.6704  -11.9928   21.3665 H   0  0  0  0  0  0
  -28.4573  -13.6541   21.8449 H   0  0  0  0  0  0
  -25.2749   -9.5712   22.4715 H   0  0  0  0  0  0
  -24.0006   -7.4638   22.7431 H   0  0  0  0  0  0
  -21.0821   -8.8695   19.8929 H   0  0  0  0  0  0
  -22.3602  -10.9631   19.6122 H   0  0  0  0  0  0
  -21.1976   -7.6141   23.9728 H   0  0  0  0  0  0
  -21.1509   -6.0489   25.9081 H   0  0  0  0  0  0
  -22.0586   -2.7598   23.2784 H   0  0  0  0  0  0
  -22.4091  -11.9896   22.4864 H   0  0  0  0  0  0
  -21.1112  -13.1253   22.2565 H   0  0  0  0  0  0
  -24.6828  -15.8513   20.6082 H   0  0  0  0  0  0
  -26.3183  -15.6365   20.2297 H   0  0  0  0  0  0
  -26.7132  -32.5520   23.1182 H   0  0  0  0  0  0
  -24.9998  -33.9777   25.0439 H   0  0  0  0  0  0
  -22.6951  -31.3132   21.4105 H   0  0  0  0  0  0
  -23.3793  -35.9577   23.3102 H   0  0  0  0  0  0
  -24.3625  -36.9113   22.2087 H   0  0  0  0  0  0
  -23.7124  -37.6419   23.6753 H   0  0  0  0  0  0
  -26.0561  -31.5972   20.6032 H   0  0  0  0  0  0
  -26.8253  -30.8768   21.9867 H   0  0  0  0  0  0
  -28.0970  -29.0735   21.1912 H   0  0  0  0  0  0
  -26.0498  -25.9904   18.9740 H   0  0  0  0  0  0
  -23.9779  -27.3224   19.0019 H   0  0  0  0  0  0
  -23.7176  -30.6049   19.4042 H   0  0  0  0  0  0
  -22.7373  -29.2469   19.8665 H   0  0  0  0  0  0
  -25.1239  -36.1924   25.0822 H   0  0  0  0  0  0
  -20.9984  -28.3223   24.1444 H   0  0  0  0  0  0
  -20.5685  -26.2275   23.3614 H   0  0  0  0  0  0
  -21.6618  -26.7447   22.1211 H   0  0  0  0  0  0
  -19.6884  -25.6305   21.1260 H   0  0  0  0  0  0
  -19.6695  -27.3227   20.6778 H   0  0  0  0  0  0
  -17.4205  -26.6730   21.4005 H   0  0  0  0  0  0
  -18.0282  -26.0076   22.9025 H   0  0  0  0  0  0
  -19.7920  -30.7305   24.2222 H   0  0  0  0  0  0
  -17.5004  -31.6266   24.5201 H   0  0  0  0  0  0
  -15.5349  -30.2995   23.7670 H   0  0  0  0  0  0
  -15.8665  -28.0879   22.7001 H   0  0  0  0  0  0
  -24.5753  -30.7296   25.7812 H   0  0  0  0  0  0
  -24.9109  -32.2959   26.5088 H   0  0  0  0  0  0
  -25.8043  -30.8751   27.0172 H   0  0  0  0  0  0
  -26.2843  -29.6774   24.1190 H   0  0  0  0  0  0
  -27.4042  -29.7274   25.4619 H   0  0  0  0  0  0
  -27.8700  -30.4326   23.9311 H   0  0  0  0  0  0
  -27.2674  -33.3598   26.2125 H   0  0  0  0  0  0
  -28.3798  -32.6963   25.0241 H   0  0  0  0  0  0
  -28.0811  -31.8414   26.5306 H   0  0  0  0  0  0
  -28.2423  -38.0256   24.7800 H   0  0  0  0  0  0
  -28.1346  -36.2833   24.5749 H   0  0  0  0  0  0
  -27.2435  -37.0783   25.8795 H   0  0  0  0  0  0
  -20.9300  -29.8772   21.6947 H   0  0  0  0  0  0
  -26.0108  -38.2845   24.1709 H   0  0  0  0  0  0
  -26.5888  -19.1408   22.0690 H   0  0  0  0  0  0
  -27.8662  -17.0631   21.7434 H   0  0  0  0  0  0
  -27.5286  -21.3071   21.4031 H   0  0  0  0  0  0
  -31.1111  -16.8261   19.8716 H   0  0  0  0  0  0
  -27.3377  -23.6954   22.8817 H   0  0  0  0  0  0
  -28.4902  -24.2383   24.0764 H   0  0  0  0  0  0
  -29.3627  -25.9604   22.4767 H   0  0  0  0  0  0
  -27.6422  -26.1512   22.7414 H   0  0  0  0  0  0
  -29.2921  -22.2100   22.8607 H   0  0  0  0  0  0
  -30.3847  -23.5513   22.6888 H   0  0  0  0  0  0
  -27.1140  -24.9877   20.6888 H   0  0  0  0  0  0
  -32.2682  -18.7360   20.5107 H   0  0  0  0  0  0
  -32.0431  -20.3228   19.8463 H   0  0  0  0  0  0
  -31.5866  -18.9272   18.8941 H   0  0  0  0  0  0
  -30.1619  -21.9677   19.3090 H   0  0  0  0  0  0
  -31.0400  -21.9477   20.8053 H   0  0  0  0  0  0
  1 25  1  0  0  0
  1 30  2  0  0  0
  1 85  1  0  0  0
  2  3  1  0  0  0
  2 25  1  0  0  0
  2 88  1  0  0  0
  2 89  1  0  0  0
  3  4  1  0  0  0
  3 90  1  0  0  0
  3 91  1  0  0  0
  4  5  1  0  0  0
  4 92  1  0  0  0
  4 93  1  0  0  0
  5  6  1  0  0  0
  5 26  1  0  0  0
  5 94  1  0  0  0
  6 25  1  0  0  0
  6 95  1  0  0  0
  6 96  1  0  0  0
  7  8  2  0  0  0
  7 26  1  0  0  0
  7 29  1  0  0  0
  8  9  1  0  0  0
  8 22  1  0  0  0
  9 10  1  0  0  0
  9 27  2  0  0  0
 10 11  2  0  0  0
 10 15  1  0  0  0
 11 12  1  0  0  0
 11 97  1  0  0  0
 12 13  2  0  0  0
 12 98  1  0  0  0
 13 14  1  0  0  0
 13 31  1  0  0  0
 14 15  2  0  0  0
 14 99  1  0  0  0
 15100  1  0  0  0
 16 17  2  0  0  0
 16 21  1  0  0  0
 16 31  1  0  0  0
 17 18  1  0  0  0
 17101  1  0  0  0
 18 19  2  0  0  0
 18102  1  0  0  0
 19 20  1  0  0  0
 19 24  1  0  0  0
 20 21  2  0  0  0
 20103  1  0  0  0
 21 23  1  0  0  0
 22 28  1  0  0  0
 22 32  2  0  0  0
 26 27  1  0  0  0
 28104  1  0  0  0
 28105  1  0  0  0
 29106  1  0  0  0
 29107  1  0  0  0
 33 34  1  0  0  0
 33 66  1  0  0  0
 33 70  2  0  0  0
 34 36  1  0  0  0
 34 59  1  0  0  0
 34108  1  0  0  0
 35 44  2  0  0  0
 35 45  1  0  0  0
 35 68  1  0  0  0
 36 56  1  0  0  0
 36109  1  0  0  0
 37 39  1  0  0  0
 37 47  1  0  0  0
 37 66  1  0  0  0
 37110  1  0  0  0
 38 43  2  0  0  0
 38 46  1  0  0  0
 38 47  1  0  0  0
 39 64  1  0  0  0
 39 67  2  0  0  0
 40 52  1  0  0  0
 40 53  2  0  0  0
 40 58  1  0  0  0
 41111  1  0  0  0
 41112  1  0  0  0
 41113  1  0  0  0
 41 48  1  0  0  0
 42 43  1  0  0  0
 42 66  1  0  0  0
 42114  1  0  0  0
 42115  1  0  0  0
 43 44  1  0  0  0
 44116  1  0  0  0
 45 46  2  0  0  0
 45117  1  0  0  0
 46118  1  0  0  0
 47119  1  0  0  0
 47120  1  0  0  0
 48 56  1  0  0  0
 48 65  1  0  0  0
 48121  1  0  0  0
 49 50  1  0  0  0
 49 53  1  0  0  0
 49 64  1  0  0  0
 49122  1  0  0  0
 50 51  1  0  0  0
 50123  1  0  0  0
 50124  1  0  0  0
 51 52  1  0  0  0
 51125  1  0  0  0
 51126  1  0  0  0
 52127  1  0  0  0
 52128  1  0  0  0
 53 54  1  0  0  0
 54 55  2  0  0  0
 54129  1  0  0  0
 55 57  1  0  0  0
 55130  1  0  0  0
 56 69  2  0  0  0
 57 58  2  0  0  0
 57131  1  0  0  0
 58132  1  0  0  0
 59 60  1  0  0  0
 59 61  1  0  0  0
 59 62  1  0  0  0
 60133  1  0  0  0
 60134  1  0  0  0
 60135  1  0  0  0
 61136  1  0  0  0
 61137  1  0  0  0
 61138  1  0  0  0
 62139  1  0  0  0
 62140  1  0  0  0
 62141  1  0  0  0
 63 65  1  0  0  0
 63142  1  0  0  0
 63143  1  0  0  0
 63144  1  0  0  0
 64145  1  0  0  0
 65146  1  0  0  0
 68 82  1  0  0  0
 71 72  2  0  0  0
 71 73  1  0  0  0
 71147  1  0  0  0
 72 74  1  0  0  0
 72148  1  0  0  0
 73 75  2  0  0  0
 73149  1  0  0  0
 74 76  2  0  0  0
 74 78  1  0  0  0
 75 76  1  0  0  0
 75 84  1  0  0  0
 76 83  1  0  0  0
 77 82  1  0  0  0
 77 86  1  0  0  0
 77 87  2  0  0  0
 78 85  2  0  0  0
 78150  1  0  0  0
 79 80  1  0  0  0
 79 81  1  0  0  0
 79151  1  0  0  0
 79152  1  0  0  0
 80 82  1  0  0  0
 80153  1  0  0  0
 80154  1  0  0  0
 81 86  1  0  0  0
 81155  1  0  0  0
 81156  1  0  0  0
 82157  1  0  0  0
 83158  1  0  0  0
 83159  1  0  0  0
 83160  1  0  0  0
 84 86  1  0  0  0
 84161  1  0  0  0
 84162  1  0  0  0
M  ISO  4   1 100  68 101  82 101  85 100
M  END
> <chiral flag>
0

> <version>
0

> <s_m_source_file>
/data/baiqing/PycharmProjects/Reinvent-master-3.2/result/LINK_invent/BTK/process_docking_weight1_custom_product_contain_oxygen_bond_distance_aromatic_linkinvent_7_9_3/rearranged_h_0045.sdf

> <i_m_source_file_index>
78

> <r_mmod_Potential_Energy-OPLS-2005>
66.3376770019531

> <r_mmod_Stretch_Energy-OPLS-2005>
54.4465751647949

> <r_mmod_Bend_Energy-OPLS-2005>
103.440101623535

> <r_mmod_Torsional_Energy-OPLS-2005>
202.704666137695

> <r_mmod_Improper_Torsional_Energy-OPLS-2005>
4.84762763977051

> <r_mmod_Van_der_Waal_Energy-OPLS-2005>
185.156799316406

> <r_mmod_Electrostatic_Energy-OPLS-2005>
-299.094573974609

> <r_mmod_Solvation_Energy-OPLS-2005>
-204.010177612305

> <b_mmod_Minimization_Converged-OPLS-2005>
0

> <r_mmod_RMS_Derivative-OPLS-2005>
4.19749402999878

$$$$
78
                    3D
 Structure written by MMmdl.
164173  0  0  1  0            999 V2000
  -30.5935  -14.7510   20.4508 C   0  0  0  0  0  0
  -30.4331  -12.4563   19.4669 C   0  0  0  0  0  0
  -29.5092  -12.5017   18.2305 C   0  0  0  0  0  0
  -28.0355  -12.3230   18.6462 C   0  0  0  0  0  0
  -27.6379  -13.2258   19.8442 C   0  0  2  0  0  0
  -28.6821  -13.1635   20.9789 C   0  0  0  0  0  0
  -25.2494  -13.8166   20.5674 C   0  0  0  0  0  0
  -24.1797  -13.0423   20.9224 C   0  0  0  0  0  0
  -24.6388  -11.6903   20.8757 C   0  0  0  0  0  0
  -23.9072  -10.4285   21.0422 C   0  0  0  0  0  0
  -24.3623   -9.4199   21.9194 C   0  0  0  0  0  0
  -23.6298   -8.2238   22.0761 C   0  0  0  0  0  0
  -22.4277   -8.0280   21.3557 C   0  0  0  0  0  0
  -21.9915   -9.0252   20.4649 C   0  0  0  0  0  0
  -22.7248  -10.2131   20.3059 C   0  0  0  0  0  0
  -21.6848   -6.0740   22.5285 C   0  0  0  0  0  0
  -21.4007   -6.5644   23.8220 C   0  0  0  0  0  0
  -21.3656   -5.6794   24.9182 C   0  0  0  0  0  0
  -21.6042   -4.3057   24.7227 C   0  0  0  0  0  0
  -21.8819   -3.8153   23.4346 C   0  0  0  0  0  0
  -21.9192   -4.6969   22.3403 C   0  0  0  0  0  0
  -22.7822  -13.5218   21.1876 C   0  0  0  0  0  0
  -22.1663   -4.2159   21.0975 F   0  0  0  0  0  0
  -21.5627   -3.4533   25.7738 F   0  0  0  0  0  0
  -29.9801  -13.5197   20.3930 N   0  0  0  0  0  0
  -26.2910  -12.9364   20.3236 N   0  0  0  0  0  0
  -25.9309  -11.6521   20.5744 N   0  0  0  0  0  0
  -22.0457  -12.8208   22.0416 N   0  0  0  0  0  0
  -25.4146  -15.1875   20.4064 N   0  0  0  0  0  0
  -31.7899  -14.8421   20.1583 O   0  0  0  0  0  0
  -21.6634   -6.8882   21.4249 O   0  0  0  0  0  0
  -22.3519  -14.5533   20.6723 O   0  0  0  0  0  0
  -24.6294  -31.8543   23.1948 C   0  0  0  0  0  0
  -25.9120  -32.4751   23.8305 C   0  0  1  0  0  0
  -27.2222  -27.2552   20.1289 C   0  0  0  0  0  0
  -25.5922  -33.8562   24.2236 N   0  0  0  0  0  0
  -23.4266  -30.4724   21.5386 C   0  0  2  0  0  0
  -24.8721  -28.9133   20.1071 C   0  0  0  0  0  0
  -22.7497  -29.4589   22.4925 C   0  0  0  0  0  0
  -18.0291  -28.1376   22.8513 C   0  0  0  0  0  0
  -24.1485  -36.7264   23.2641 C   0  0  0  0  0  0
  -25.9708  -30.7631   21.3740 C   0  0  0  0  0  0
  -26.0408  -29.3840   20.7177 C   0  0  0  0  0  0
  -27.2118  -28.5637   20.7216 C   0  0  0  0  0  0
  -26.0285  -26.8466   19.4936 C   0  0  0  0  0  0
  -24.8701  -27.6536   19.4873 C   0  0  0  0  0  0
  -23.6424  -29.8000   20.1553 C   0  0  0  0  0  0
  -25.4116  -36.3077   24.0333 C   0  0  1  0  0  0
  -20.5896  -28.3680   23.1281 C   0  0  2  0  0  0
  -20.6786  -26.9399   22.5412 C   0  0  0  0  0  0
  -19.5761  -26.6378   21.5214 C   0  0  0  0  0  0
  -18.1935  -26.7938   22.1622 C   0  0  0  0  0  0
  -19.1544  -28.8850   23.2891 C   0  0  0  0  0  0
  -18.9477  -30.1465   23.8889 C   0  0  0  0  0  0
  -17.6471  -30.6585   24.0566 C   0  0  0  0  0  0
  -25.9066  -34.9446   23.5087 C   0  0  0  0  0  0
  -16.5359  -29.9089   23.6339 C   0  0  0  0  0  0
  -16.7277  -28.6496   23.0375 C   0  0  0  0  0  0
  -26.4495  -31.6587   25.0698 C   0  0  0  0  0  0
  -25.3719  -31.3737   26.1415 C   0  0  0  0  0  0
  -27.0360  -30.3036   24.6163 C   0  0  0  0  0  0
  -27.6050  -32.4334   25.7466 C   0  0  0  0  0  0
  -27.5584  -37.1793   24.8469 C   0  0  0  0  0  0
  -21.4203  -29.3035   22.3683 N   0  0  0  0  0  0
  -26.4291  -37.3777   23.9421 N   0  0  0  0  0  0
  -24.6943  -31.0505   22.0916 N   0  0  0  0  0  0
  -23.4195  -28.8142   23.3032 O   0  0  0  0  0  0
  -28.3401  -26.3969   20.2419 O   0  0  0  0  0  0
  -26.5635  -34.8923   22.4665 O   0  0  0  0  0  0
  -23.5450  -32.1348   23.7261 O   0  0  0  0  0  0
  -30.7601  -20.1400   20.9378 C   0  0  0  0  0  0
  -31.3685  -17.7597   21.0703 C   0  0  0  0  0  0
  -31.7000  -19.1249   21.2132 C   0  0  0  0  0  0
  -29.4501  -19.8379   20.5185 C   0  0  0  0  0  0
  -29.1261  -18.4145   20.3829 C   0  0  0  0  0  0
  -30.0845  -17.3396   20.6525 C   0  0  0  0  0  0
  -28.2665  -23.6962   20.3756 C   0  0  0  0  0  0
  -30.6977  -23.7610   18.9172 C   0  0  0  0  0  0
  -29.9494  -25.1111   18.9656 C   0  0  0  0  0  0
  -29.7376  -22.5677   18.7809 C   0  0  0  0  0  0
  -28.5159  -25.0658   19.5576 C   0  0  2  0  0  0
  -33.0864  -19.5104   21.6911 C   0  0  0  0  0  0
  -27.7182  -18.0470   19.9390 C   0  0  0  0  0  0
  -28.4244  -21.0586   20.3301 C   0  0  0  0  0  0
  -28.8294  -22.4906   19.9315 N   0  0  0  0  0  0
  -29.7835  -15.8773   20.5887 N   0  0  0  0  0  0
  -27.5194  -23.7285   21.3583 O   0  0  0  0  0  0
  -31.4722  -12.5868   19.1623 H   0  0  0  0  0  0
  -30.3836  -11.4805   19.9536 H   0  0  0  0  0  0
  -29.7950  -11.7267   17.5181 H   0  0  0  0  0  0
  -29.6317  -13.4540   17.7129 H   0  0  0  0  0  0
  -27.8955  -11.2736   18.9123 H   0  0  0  0  0  0
  -27.3775  -12.5076   17.7956 H   0  0  0  0  0  0
  -27.6304  -14.2445   19.4579 H   0  0  0  0  0  0
  -28.7201  -12.1662   21.4195 H   0  0  0  0  0  0
  -28.4150  -13.8457   21.7869 H   0  0  0  0  0  0
  -25.2771   -9.5670   22.4765 H   0  0  0  0  0  0
  -24.0006   -7.4622   22.7473 H   0  0  0  0  0  0
  -21.0853   -8.8774   19.8941 H   0  0  0  0  0  0
  -22.3722  -10.9671   19.6160 H   0  0  0  0  0  0
  -21.1991   -7.6154   23.9730 H   0  0  0  0  0  0
  -21.1474   -6.0518   25.9086 H   0  0  0  0  0  0
  -22.0595   -2.7615   23.2838 H   0  0  0  0  0  0
  -22.4065  -11.9864   22.4794 H   0  0  0  0  0  0
  -21.1070  -13.1235   22.2617 H   0  0  0  0  0  0
  -24.6377  -15.8315   20.5067 H   0  0  0  0  0  0
  -26.2409  -15.6218   20.0208 H   0  0  0  0  0  0
  -26.7182  -32.5400   23.1035 H   0  0  0  0  0  0
  -25.0128  -33.9709   25.0424 H   0  0  0  0  0  0
  -22.7258  -31.2958   21.3924 H   0  0  0  0  0  0
  -23.3777  -35.9565   23.3287 H   0  0  0  0  0  0
  -24.3585  -36.8892   22.2056 H   0  0  0  0  0  0
  -23.7200  -37.6448   23.6674 H   0  0  0  0  0  0
  -26.1143  -31.5221   20.6040 H   0  0  0  0  0  0
  -26.8468  -30.8099   22.0095 H   0  0  0  0  0  0
  -28.1040  -28.9154   21.2220 H   0  0  0  0  0  0
  -25.9481  -25.8719   19.0380 H   0  0  0  0  0  0
  -23.9686  -27.2851   19.0157 H   0  0  0  0  0  0
  -23.7630  -30.5713   19.3933 H   0  0  0  0  0  0
  -22.7602  -29.2297   19.8588 H   0  0  0  0  0  0
  -25.1305  -36.1908   25.0825 H   0  0  0  0  0  0
  -20.9996  -28.3224   24.1393 H   0  0  0  0  0  0
  -20.5688  -26.2275   23.3614 H   0  0  0  0  0  0
  -21.6659  -26.7431   22.1201 H   0  0  0  0  0  0
  -19.6908  -25.6282   21.1250 H   0  0  0  0  0  0
  -19.6693  -27.3202   20.6754 H   0  0  0  0  0  0
  -17.4222  -26.6721   21.3996 H   0  0  0  0  0  0
  -18.0298  -26.0058   22.8987 H   0  0  0  0  0  0
  -19.7945  -30.7304   24.2224 H   0  0  0  0  0  0
  -17.5020  -31.6267   24.5180 H   0  0  0  0  0  0
  -15.5357  -30.2991   23.7673 H   0  0  0  0  0  0
  -15.8677  -28.0810   22.7097 H   0  0  0  0  0  0
  -24.5921  -30.7042   25.7763 H   0  0  0  0  0  0
  -24.8860  -32.2897   26.4794 H   0  0  0  0  0  0
  -25.8029  -30.8969   27.0222 H   0  0  0  0  0  0
  -26.2936  -29.6782   24.1201 H   0  0  0  0  0  0
  -27.4104  -29.7295   25.4643 H   0  0  0  0  0  0
  -27.8772  -30.4370   23.9365 H   0  0  0  0  0  0
  -27.2682  -33.3673   26.1983 H   0  0  0  0  0  0
  -28.3889  -32.6827   25.0301 H   0  0  0  0  0  0
  -28.0691  -31.8491   26.5426 H   0  0  0  0  0  0
  -28.2603  -38.0098   24.7573 H   0  0  0  0  0  0
  -28.1084  -36.2643   24.6231 H   0  0  0  0  0  0
  -27.2321  -37.1352   25.8877 H   0  0  0  0  0  0
  -20.9380  -29.8739   21.6880 H   0  0  0  0  0  0
  -26.0159  -38.2842   24.1446 H   0  0  0  0  0  0
  -31.0439  -21.1741   21.0759 H   0  0  0  0  0  0
  -32.1224  -17.0264   21.3188 H   0  0  0  0  0  0
  -31.2811  -23.6397   19.8321 H   0  0  0  0  0  0
  -31.4226  -23.7628   18.1027 H   0  0  0  0  0  0
  -29.8840  -25.5164   17.9556 H   0  0  0  0  0  0
  -30.5630  -25.8230   19.5215 H   0  0  0  0  0  0
  -30.3149  -21.6493   18.6778 H   0  0  0  0  0  0
  -29.1513  -22.6571   17.8644 H   0  0  0  0  0  0
  -27.8439  -25.0076   18.7031 H   0  0  0  0  0  0
  -33.0709  -20.4663   22.2167 H   0  0  0  0  0  0
  -33.7676  -19.6000   20.8453 H   0  0  0  0  0  0
  -33.4856  -18.7633   22.3783 H   0  0  0  0  0  0
  -26.9831  -18.4009   20.6620 H   0  0  0  0  0  0
  -27.5790  -16.9746   19.8231 H   0  0  0  0  0  0
  -27.4946  -18.4981   18.9722 H   0  0  0  0  0  0
  -27.8641  -21.1161   21.2637 H   0  0  0  0  0  0
  -27.6897  -20.7524   19.5871 H   0  0  0  0  0  0
  -28.8039  -15.6473   20.6400 H   0  0  0  0  0  0
  1 25  1  0  0  0
  1 30  2  0  0  0
  1 86  1  0  0  0
  2  3  1  0  0  0
  2 25  1  0  0  0
  2 88  1  0  0  0
  2 89  1  0  0  0
  3  4  1  0  0  0
  3 90  1  0  0  0
  3 91  1  0  0  0
  4  5  1  0  0  0
  4 92  1  0  0  0
  4 93  1  0  0  0
  5  6  1  0  0  0
  5 26  1  0  0  0
  5 94  1  0  0  0
  6 25  1  0  0  0
  6 95  1  0  0  0
  6 96  1  0  0  0
  7  8  2  0  0  0
  7 26  1  0  0  0
  7 29  1  0  0  0
  8  9  1  0  0  0
  8 22  1  0  0  0
  9 10  1  0  0  0
  9 27  2  0  0  0
 10 11  2  0  0  0
 10 15  1  0  0  0
 11 12  1  0  0  0
 11 97  1  0  0  0
 12 13  2  0  0  0
 12 98  1  0  0  0
 13 14  1  0  0  0
 13 31  1  0  0  0
 14 15  2  0  0  0
 14 99  1  0  0  0
 15100  1  0  0  0
 16 17  2  0  0  0
 16 21  1  0  0  0
 16 31  1  0  0  0
 17 18  1  0  0  0
 17101  1  0  0  0
 18 19  2  0  0  0
 18102  1  0  0  0
 19 20  1  0  0  0
 19 24  1  0  0  0
 20 21  2  0  0  0
 20103  1  0  0  0
 21 23  1  0  0  0
 22 28  1  0  0  0
 22 32  2  0  0  0
 26 27  1  0  0  0
 28104  1  0  0  0
 28105  1  0  0  0
 29106  1  0  0  0
 29107  1  0  0  0
 33 34  1  0  0  0
 33 66  1  0  0  0
 33 70  2  0  0  0
 34 36  1  0  0  0
 34 59  1  0  0  0
 34108  1  0  0  0
 35 44  2  0  0  0
 35 45  1  0  0  0
 35 68  1  0  0  0
 36 56  1  0  0  0
 36109  1  0  0  0
 37 39  1  0  0  0
 37 47  1  0  0  0
 37 66  1  0  0  0
 37110  1  0  0  0
 38 43  2  0  0  0
 38 46  1  0  0  0
 38 47  1  0  0  0
 39 64  1  0  0  0
 39 67  2  0  0  0
 40 52  1  0  0  0
 40 53  2  0  0  0
 40 58  1  0  0  0
 41111  1  0  0  0
 41112  1  0  0  0
 41113  1  0  0  0
 41 48  1  0  0  0
 42 43  1  0  0  0
 42 66  1  0  0  0
 42114  1  0  0  0
 42115  1  0  0  0
 43 44  1  0  0  0
 44116  1  0  0  0
 45 46  2  0  0  0
 45117  1  0  0  0
 46118  1  0  0  0
 47119  1  0  0  0
 47120  1  0  0  0
 48 56  1  0  0  0
 48 65  1  0  0  0
 48121  1  0  0  0
 49 50  1  0  0  0
 49 53  1  0  0  0
 49 64  1  0  0  0
 49122  1  0  0  0
 50 51  1  0  0  0
 50123  1  0  0  0
 50124  1  0  0  0
 51 52  1  0  0  0
 51125  1  0  0  0
 51126  1  0  0  0
 52127  1  0  0  0
 52128  1  0  0  0
 53 54  1  0  0  0
 54 55  2  0  0  0
 54129  1  0  0  0
 55 57  1  0  0  0
 55130  1  0  0  0
 56 69  2  0  0  0
 57 58  2  0  0  0
 57131  1  0  0  0
 58132  1  0  0  0
 59 60  1  0  0  0
 59 61  1  0  0  0
 59 62  1  0  0  0
 60133  1  0  0  0
 60134  1  0  0  0
 60135  1  0  0  0
 61136  1  0  0  0
 61137  1  0  0  0
 61138  1  0  0  0
 62139  1  0  0  0
 62140  1  0  0  0
 62141  1  0  0  0
 63 65  1  0  0  0
 63142  1  0  0  0
 63143  1  0  0  0
 63144  1  0  0  0
 64145  1  0  0  0
 65146  1  0  0  0
 68 81  1  0  0  0
 71 73  2  0  0  0
 71 74  1  0  0  0
 71147  1  0  0  0
 72 73  1  0  0  0
 72 76  2  0  0  0
 72148  1  0  0  0
 73 82  1  0  0  0
 74 75  2  0  0  0
 74 84  1  0  0  0
 75 76  1  0  0  0
 75 83  1  0  0  0
 76 86  1  0  0  0
 77 81  1  0  0  0
 77 85  1  0  0  0
 77 87  2  0  0  0
 78 79  1  0  0  0
 78 80  1  0  0  0
 78149  1  0  0  0
 78150  1  0  0  0
 79 81  1  0  0  0
 79151  1  0  0  0
 79152  1  0  0  0
 80 85  1  0  0  0
 80153  1  0  0  0
 80154  1  0  0  0
 81155  1  0  0  0
 82156  1  0  0  0
 82157  1  0  0  0
 82158  1  0  0  0
 83159  1  0  0  0
 83160  1  0  0  0
 83161  1  0  0  0
 84 85  1  0  0  0
 84162  1  0  0  0
 84163  1  0  0  0
 86164  1  0  0  0
M  ISO  4   1 100  68 101  81 101  86 100
M  END
> <chiral flag>
0

> <version>
0

> <s_m_source_file>
/data/baiqing/PycharmProjects/Reinvent-master-3.2/result/LINK_invent/BTK/process_docking_weight1_custom_product_contain_oxygen_bond_distance_aromatic_linkinvent_7_9_3/rearranged_h_0045.sdf

> <i_m_source_file_index>
79

> <r_mmod_Potential_Energy-OPLS-2005>
223.066864013672

> <r_mmod_Stretch_Energy-OPLS-2005>
138.927810668945

> <r_mmod_Bend_Energy-OPLS-2005>
178.305847167969

> <r_mmod_Torsional_Energy-OPLS-2005>
244.098785400391

> <r_mmod_Improper_Torsional_Energy-OPLS-2005>
7.17205715179443

> <r_mmod_Van_der_Waal_Energy-OPLS-2005>
145.731216430664

> <r_mmod_Electrostatic_Energy-OPLS-2005>
-346.040466308594

> <r_mmod_Solvation_Energy-OPLS-2005>
-233.608840942383

> <b_mmod_Minimization_Converged-OPLS-2005>
0

> <r_mmod_RMS_Derivative-OPLS-2005>
2.28498148918152

$$$$
79
                    3D
 Structure written by MMmdl.
155163  0  0  1  0            999 V2000
  -30.6143  -14.6149   20.4810 C   0  0  0  0  0  0
  -30.4186  -12.3772   19.4063 C   0  0  0  0  0  0
  -29.4871  -12.5061   18.1846 C   0  0  0  0  0  0
  -28.0072  -12.3693   18.6029 C   0  0  0  0  0  0
  -27.6417  -13.2232   19.8498 C   0  0  2  0  0  0
  -28.6905  -13.0665   20.9679 C   0  0  0  0  0  0
  -25.2486  -13.8167   20.5636 C   0  0  0  0  0  0
  -24.1792  -13.0449   20.9223 C   0  0  0  0  0  0
  -24.6391  -11.6908   20.8767 C   0  0  0  0  0  0
  -23.9086  -10.4292   21.0417 C   0  0  0  0  0  0
  -24.3634   -9.4201   21.9202 C   0  0  0  0  0  0
  -23.6295   -8.2248   22.0765 C   0  0  0  0  0  0
  -22.4276   -8.0300   21.3554 C   0  0  0  0  0  0
  -21.9928   -9.0276   20.4648 C   0  0  0  0  0  0
  -22.7268  -10.2146   20.3059 C   0  0  0  0  0  0
  -21.6845   -6.0752   22.5279 C   0  0  0  0  0  0
  -21.4017   -6.5640   23.8227 C   0  0  0  0  0  0
  -21.3640   -5.6774   24.9180 C   0  0  0  0  0  0
  -21.6043   -4.3039   24.7207 C   0  0  0  0  0  0
  -21.8824   -3.8149   23.4315 C   0  0  0  0  0  0
  -21.9198   -4.6984   22.3388 C   0  0  0  0  0  0
  -22.7815  -13.5225   21.1824 C   0  0  0  0  0  0
  -22.1669   -4.2177   21.0966 F   0  0  0  0  0  0
  -21.5617   -3.4514   25.7710 F   0  0  0  0  0  0
  -29.9875  -13.4054   20.3751 N   0  0  0  0  0  0
  -26.2919  -12.9378   20.3235 N   0  0  0  0  0  0
  -25.9307  -11.6528   20.5704 N   0  0  0  0  0  0
  -22.0432  -12.8282   22.0388 N   0  0  0  0  0  0
  -25.4130  -15.1911   20.3967 N   0  0  0  0  0  0
  -31.7969  -14.7455   20.1518 O   0  0  0  0  0  0
  -21.6629   -6.8907   21.4249 O   0  0  0  0  0  0
  -22.3513  -14.5538   20.6620 O   0  0  0  0  0  0
  -24.6202  -31.8628   23.2002 C   0  0  0  0  0  0
  -25.9092  -32.4786   23.8335 C   0  0  1  0  0  0
  -27.2378  -27.3699   20.0998 C   0  0  0  0  0  0
  -25.5915  -33.8584   24.2259 N   0  0  0  0  0  0
  -23.4123  -30.4788   21.5474 C   0  0  2  0  0  0
  -24.8571  -28.9261   20.1274 C   0  0  0  0  0  0
  -22.7471  -29.4607   22.4991 C   0  0  0  0  0  0
  -18.0335  -28.1321   22.8440 C   0  0  0  0  0  0
  -24.1502  -36.7329   23.2643 C   0  0  0  0  0  0
  -25.9456  -30.8062   21.3615 C   0  0  0  0  0  0
  -26.0236  -29.4329   20.7147 C   0  0  0  0  0  0
  -27.2186  -28.6632   20.6948 C   0  0  0  0  0  0
  -26.0505  -26.8903   19.5104 C   0  0  0  0  0  0
  -24.8655  -27.6531   19.5300 C   0  0  0  0  0  0
  -23.6246  -29.8051   20.1650 C   0  0  0  0  0  0
  -25.4126  -36.3082   24.0312 C   0  0  1  0  0  0
  -20.5928  -28.3572   23.1267 C   0  0  2  0  0  0
  -20.6821  -26.9309   22.5346 C   0  0  0  0  0  0
  -19.5767  -26.6304   21.5152 C   0  0  0  0  0  0
  -18.1954  -26.7852   22.1579 C   0  0  0  0  0  0
  -19.1591  -28.8758   23.2867 C   0  0  0  0  0  0
  -18.9578  -30.1385   23.8846 C   0  0  0  0  0  0
  -17.6606  -30.6591   24.0399 C   0  0  0  0  0  0
  -25.9030  -34.9451   23.5074 C   0  0  0  0  0  0
  -16.5482  -29.9116   23.6175 C   0  0  0  0  0  0
  -16.7347  -28.6500   23.0261 C   0  0  0  0  0  0
  -26.4481  -31.6592   25.0702 C   0  0  0  0  0  0
  -25.3742  -31.3719   26.1443 C   0  0  0  0  0  0
  -27.0310  -30.3034   24.6085 C   0  0  0  0  0  0
  -27.6011  -32.4335   25.7509 C   0  0  0  0  0  0
  -27.5570  -37.1817   24.8451 C   0  0  0  0  0  0
  -21.4195  -29.2971   22.3701 N   0  0  0  0  0  0
  -26.4305  -37.3755   23.9365 N   0  0  0  0  0  0
  -24.6774  -31.0645   22.0949 N   0  0  0  0  0  0
  -23.4216  -28.8154   23.3055 O   0  0  0  0  0  0
  -28.3892  -26.5907   20.0321 O   0  0  0  0  0  0
  -26.5603  -34.8915   22.4640 O   0  0  0  0  0  0
  -23.5384  -32.1428   23.7361 O   0  0  0  0  0  0
  -31.2587  -18.6003   23.5656 C   0  0  0  0  0  0
  -31.2742  -17.2259   23.8165 C   0  0  0  0  0  0
  -30.6526  -19.0878   22.4020 C   0  0  0  0  0  0
  -30.7761  -16.3481   22.8498 C   0  0  0  0  0  0
  -30.0304  -18.2375   21.4501 C   0  0  0  0  0  0
  -30.2075  -16.7986   21.6293 C   0  0  0  0  0  0
  -28.9547  -22.8275   20.5034 C   0  0  0  0  0  0
  -28.3588  -23.9938   20.0887 C   0  0  0  0  0  0
  -28.8884  -21.5274   19.7966 C   0  0  0  0  0  0
  -29.2437  -18.9902   20.3284 C   0  0  0  0  0  0
  -28.4329  -25.3655   20.8259 C   0  0  0  0  0  0
  -29.8352  -15.7201   20.7385 N   0  0  0  0  0  0
  -28.9662  -20.4425   20.6157 N   0  0  0  0  0  0
  -28.8396  -21.4085   18.5741 O   0  0  0  0  0  0
  -31.4604  -12.4994   19.1025 H   0  0  0  0  0  0
  -30.3423  -11.3747   19.8361 H   0  0  0  0  0  0
  -29.7303  -11.7511   17.4364 H   0  0  0  0  0  0
  -29.6480  -13.4692   17.6975 H   0  0  0  0  0  0
  -27.8246  -11.3127   18.8078 H   0  0  0  0  0  0
  -27.3544  -12.6306   17.7668 H   0  0  0  0  0  0
  -27.6590  -14.2633   19.5244 H   0  0  0  0  0  0
  -28.6979  -12.0427   21.3442 H   0  0  0  0  0  0
  -28.4524  -13.7056   21.8180 H   0  0  0  0  0  0
  -25.2796   -9.5649   22.4764 H   0  0  0  0  0  0
  -23.9990   -7.4632   22.7480 H   0  0  0  0  0  0
  -21.0867   -8.8800   19.8950 H   0  0  0  0  0  0
  -22.3759  -10.9683   19.6135 H   0  0  0  0  0  0
  -21.2025   -7.6150   23.9740 H   0  0  0  0  0  0
  -21.1446   -6.0495   25.9081 H   0  0  0  0  0  0
  -22.0625   -2.7615   23.2796 H   0  0  0  0  0  0
  -22.3996  -11.9984   22.4874 H   0  0  0  0  0  0
  -21.1015  -13.1298   22.2464 H   0  0  0  0  0  0
  -24.6194  -15.8205   20.4631 H   0  0  0  0  0  0
  -26.2220  -15.6238   19.9713 H   0  0  0  0  0  0
  -26.7159  -32.5449   23.1083 H   0  0  0  0  0  0
  -25.0056  -33.9718   25.0402 H   0  0  0  0  0  0
  -22.7005  -31.2955   21.4048 H   0  0  0  0  0  0
  -23.3722  -35.9697   23.3324 H   0  0  0  0  0  0
  -24.3580  -36.8938   22.2047 H   0  0  0  0  0  0
  -23.7305  -37.6557   23.6666 H   0  0  0  0  0  0
  -26.0518  -31.5661   20.5892 H   0  0  0  0  0  0
  -26.8350  -30.8681   21.9737 H   0  0  0  0  0  0
  -28.1190  -29.0523   21.1434 H   0  0  0  0  0  0
  -26.0474  -25.9237   19.0291 H   0  0  0  0  0  0
  -23.9641  -27.2534   19.0862 H   0  0  0  0  0  0
  -23.7478  -30.5812   19.4054 H   0  0  0  0  0  0
  -22.7446  -29.2335   19.8627 H   0  0  0  0  0  0
  -25.1308  -36.1932   25.0798 H   0  0  0  0  0  0
  -21.0034  -28.3072   24.1364 H   0  0  0  0  0  0
  -20.5807  -26.2132   23.3501 H   0  0  0  0  0  0
  -21.6676  -26.7381   22.1131 H   0  0  0  0  0  0
  -19.6902  -25.6226   21.1166 H   0  0  0  0  0  0
  -19.6790  -27.3138   20.6704 H   0  0  0  0  0  0
  -17.4188  -26.6591   21.3999 H   0  0  0  0  0  0
  -18.0394  -25.9931   22.8934 H   0  0  0  0  0  0
  -19.8111  -30.7133   24.2197 H   0  0  0  0  0  0
  -17.5196  -31.6360   24.4841 H   0  0  0  0  0  0
  -15.5506  -30.3060   23.7418 H   0  0  0  0  0  0
  -15.8727  -28.0842   22.6999 H   0  0  0  0  0  0
  -24.5897  -30.7084   25.7783 H   0  0  0  0  0  0
  -24.8980  -32.2901   26.4896 H   0  0  0  0  0  0
  -25.8106  -30.8881   27.0192 H   0  0  0  0  0  0
  -26.2850  -29.6817   24.1123 H   0  0  0  0  0  0
  -27.4066  -29.7234   25.4521 H   0  0  0  0  0  0
  -27.8685  -30.4360   23.9235 H   0  0  0  0  0  0
  -27.2562  -33.3604   26.2109 H   0  0  0  0  0  0
  -28.3836  -32.6958   25.0381 H   0  0  0  0  0  0
  -28.0667  -31.8467   26.5430 H   0  0  0  0  0  0
  -28.2587  -38.0103   24.7425 H   0  0  0  0  0  0
  -28.1060  -36.2619   24.6380 H   0  0  0  0  0  0
  -27.2255  -37.1578   25.8844 H   0  0  0  0  0  0
  -20.9379  -29.8713   21.6924 H   0  0  0  0  0  0
  -26.0194  -38.2823   24.1354 H   0  0  0  0  0  0
  -31.6893  -19.2967   24.2696 H   0  0  0  0  0  0
  -31.6982  -16.8389   24.7301 H   0  0  0  0  0  0
  -30.6756  -20.1606   22.2773 H   0  0  0  0  0  0
  -30.8405  -15.2915   23.0701 H   0  0  0  0  0  0
  -29.5453  -22.8611   21.4062 H   0  0  0  0  0  0
  -27.7440  -23.9834   19.1992 H   0  0  0  0  0  0
  -28.2788  -18.5011   20.1650 H   0  0  0  0  0  0
  -29.8169  -18.8986   19.4103 H   0  0  0  0  0  0
  -29.3801  -25.4019   21.3679 H   0  0  0  0  0  0
  -27.6526  -25.3923   21.5858 H   0  0  0  0  0  0
  -28.8437  -15.6014   20.5964 H   0  0  0  0  0  0
  -28.8312  -20.6510   21.5935 H   0  0  0  0  0  0
  1 25  1  0  0  0
  1 30  2  0  0  0
  1 82  1  0  0  0
  2  3  1  0  0  0
  2 25  1  0  0  0
  2 85  1  0  0  0
  2 86  1  0  0  0
  3  4  1  0  0  0
  3 87  1  0  0  0
  3 88  1  0  0  0
  4  5  1  0  0  0
  4 89  1  0  0  0
  4 90  1  0  0  0
  5  6  1  0  0  0
  5 26  1  0  0  0
  5 91  1  0  0  0
  6 25  1  0  0  0
  6 92  1  0  0  0
  6 93  1  0  0  0
  7  8  2  0  0  0
  7 26  1  0  0  0
  7 29  1  0  0  0
  8  9  1  0  0  0
  8 22  1  0  0  0
  9 10  1  0  0  0
  9 27  2  0  0  0
 10 11  2  0  0  0
 10 15  1  0  0  0
 11 12  1  0  0  0
 11 94  1  0  0  0
 12 13  2  0  0  0
 12 95  1  0  0  0
 13 14  1  0  0  0
 13 31  1  0  0  0
 14 15  2  0  0  0
 14 96  1  0  0  0
 15 97  1  0  0  0
 16 17  2  0  0  0
 16 21  1  0  0  0
 16 31  1  0  0  0
 17 18  1  0  0  0
 17 98  1  0  0  0
 18 19  2  0  0  0
 18 99  1  0  0  0
 19 20  1  0  0  0
 19 24  1  0  0  0
 20 21  2  0  0  0
 20100  1  0  0  0
 21 23  1  0  0  0
 22 28  1  0  0  0
 22 32  2  0  0  0
 26 27  1  0  0  0
 28101  1  0  0  0
 28102  1  0  0  0
 29103  1  0  0  0
 29104  1  0  0  0
 33 34  1  0  0  0
 33 66  1  0  0  0
 33 70  2  0  0  0
 34 36  1  0  0  0
 34 59  1  0  0  0
 34105  1  0  0  0
 35 44  2  0  0  0
 35 45  1  0  0  0
 35 68  1  0  0  0
 36 56  1  0  0  0
 36106  1  0  0  0
 37 39  1  0  0  0
 37 47  1  0  0  0
 37 66  1  0  0  0
 37107  1  0  0  0
 38 43  2  0  0  0
 38 46  1  0  0  0
 38 47  1  0  0  0
 39 64  1  0  0  0
 39 67  2  0  0  0
 40 52  1  0  0  0
 40 53  2  0  0  0
 40 58  1  0  0  0
 41108  1  0  0  0
 41109  1  0  0  0
 41110  1  0  0  0
 41 48  1  0  0  0
 42 43  1  0  0  0
 42 66  1  0  0  0
 42111  1  0  0  0
 42112  1  0  0  0
 43 44  1  0  0  0
 44113  1  0  0  0
 45 46  2  0  0  0
 45114  1  0  0  0
 46115  1  0  0  0
 47116  1  0  0  0
 47117  1  0  0  0
 48 56  1  0  0  0
 48 65  1  0  0  0
 48118  1  0  0  0
 49 50  1  0  0  0
 49 53  1  0  0  0
 49 64  1  0  0  0
 49119  1  0  0  0
 50 51  1  0  0  0
 50120  1  0  0  0
 50121  1  0  0  0
 51 52  1  0  0  0
 51122  1  0  0  0
 51123  1  0  0  0
 52124  1  0  0  0
 52125  1  0  0  0
 53 54  1  0  0  0
 54 55  2  0  0  0
 54126  1  0  0  0
 55 57  1  0  0  0
 55127  1  0  0  0
 56 69  2  0  0  0
 57 58  2  0  0  0
 57128  1  0  0  0
 58129  1  0  0  0
 59 60  1  0  0  0
 59 61  1  0  0  0
 59 62  1  0  0  0
 60130  1  0  0  0
 60131  1  0  0  0
 60132  1  0  0  0
 61133  1  0  0  0
 61134  1  0  0  0
 61135  1  0  0  0
 62136  1  0  0  0
 62137  1  0  0  0
 62138  1  0  0  0
 63 65  1  0  0  0
 63139  1  0  0  0
 63140  1  0  0  0
 63141  1  0  0  0
 64142  1  0  0  0
 65143  1  0  0  0
 68 81  1  0  0  0
 71 72  2  0  0  0
 71 73  1  0  0  0
 71144  1  0  0  0
 72 74  1  0  0  0
 72145  1  0  0  0
 73 75  2  0  0  0
 73146  1  0  0  0
 74 76  2  0  0  0
 74147  1  0  0  0
 75 76  1  0  0  0
 75 80  1  0  0  0
 76 82  1  0  0  0
 77 78  2  0  0  0
 77 79  1  0  0  0
 77148  1  0  0  0
 78 81  1  0  0  0
 78149  1  0  0  0
 79 83  1  0  0  0
 79 84  2  0  0  0
 80 83  1  0  0  0
 80150  1  0  0  0
 80151  1  0  0  0
 81152  1  0  0  0
 81153  1  0  0  0
 82154  1  0  0  0
 83155  1  0  0  0
M  ISO  4   1 100  68 101  81 101  82 100
M  END
> <chiral flag>
0

> <version>
0

> <s_m_source_file>
/data/baiqing/PycharmProjects/Reinvent-master-3.2/result/LINK_invent/BTK/process_docking_weight1_custom_product_contain_oxygen_bond_distance_aromatic_linkinvent_7_9_3/rearranged_h_0045.sdf

> <i_m_source_file_index>
80

> <r_mmod_Potential_Energy-OPLS-2005>
-9.36625671386719

> <r_mmod_Stretch_Energy-OPLS-2005>
69.9874572753906

> <r_mmod_Bend_Energy-OPLS-2005>
135.390029907227

> <r_mmod_Torsional_Energy-OPLS-2005>
277.172241210938

> <r_mmod_Improper_Torsional_Energy-OPLS-2005>
7.93713140487671

> <r_mmod_Van_der_Waal_Energy-OPLS-2005>
148.375549316406

> <r_mmod_Electrostatic_Energy-OPLS-2005>
-443.021820068359

> <r_mmod_Solvation_Energy-OPLS-2005>
-240.826675415039

> <b_mmod_Minimization_Converged-OPLS-2005>
0

> <r_mmod_RMS_Derivative-OPLS-2005>
6.07129192352295

$$$$
80
                    3D
 Structure written by MMmdl.
162171  0  0  1  0            999 V2000
  -30.5714  -14.7670   20.4407 C   0  0  0  0  0  0
  -30.4480  -12.4613   19.4622 C   0  0  0  0  0  0
  -29.5140  -12.4910   18.2311 C   0  0  0  0  0  0
  -28.0390  -12.3145   18.6521 C   0  0  0  0  0  0
  -27.6399  -13.2236   19.8437 C   0  0  2  0  0  0
  -28.6917  -13.1609   20.9722 C   0  0  0  0  0  0
  -25.2511  -13.8179   20.5714 C   0  0  0  0  0  0
  -24.1799  -13.0441   20.9227 C   0  0  0  0  0  0
  -24.6387  -11.6916   20.8768 C   0  0  0  0  0  0
  -23.9069  -10.4292   21.0421 C   0  0  0  0  0  0
  -24.3613   -9.4200   21.9194 C   0  0  0  0  0  0
  -23.6286   -8.2236   22.0756 C   0  0  0  0  0  0
  -22.4267   -8.0285   21.3543 C   0  0  0  0  0  0
  -21.9902   -9.0267   20.4644 C   0  0  0  0  0  0
  -22.7241  -10.2145   20.3063 C   0  0  0  0  0  0
  -21.6843   -6.0740   22.5280 C   0  0  0  0  0  0
  -21.4009   -6.5637   23.8219 C   0  0  0  0  0  0
  -21.3662   -5.6784   24.9175 C   0  0  0  0  0  0
  -21.6049   -4.3051   24.7217 C   0  0  0  0  0  0
  -21.8818   -3.8150   23.4334 C   0  0  0  0  0  0
  -21.9183   -4.6966   22.3395 C   0  0  0  0  0  0
  -22.7812  -13.5221   21.1887 C   0  0  0  0  0  0
  -22.1658   -4.2159   21.0972 F   0  0  0  0  0  0
  -21.5634   -3.4528   25.7729 F   0  0  0  0  0  0
  -29.9859  -13.5226   20.3785 N   0  0  0  0  0  0
  -26.2933  -12.9374   20.3272 N   0  0  0  0  0  0
  -25.9311  -11.6530   20.5759 N   0  0  0  0  0  0
  -22.0448  -12.8225   22.0442 N   0  0  0  0  0  0
  -25.4183  -15.1915   20.4148 N   0  0  0  0  0  0
  -31.7842  -14.8982   20.2518 O   0  0  0  0  0  0
  -21.6626   -6.8889   21.4244 O   0  0  0  0  0  0
  -22.3482  -14.5520   20.6714 O   0  0  0  0  0  0
  -24.6349  -31.8554   23.1995 C   0  0  0  0  0  0
  -25.9166  -32.4757   23.8344 C   0  0  1  0  0  0
  -27.2135  -27.2463   20.1030 C   0  0  0  0  0  0
  -25.5953  -33.8555   24.2268 N   0  0  0  0  0  0
  -23.4295  -30.4841   21.5423 C   0  0  2  0  0  0
  -24.8718  -28.9344   20.1106 C   0  0  0  0  0  0
  -22.7505  -29.4628   22.4883 C   0  0  0  0  0  0
  -18.0293  -28.1389   22.8476 C   0  0  0  0  0  0
  -24.1466  -36.7269   23.2639 C   0  0  0  0  0  0
  -25.9806  -30.7631   21.3804 C   0  0  0  0  0  0
  -26.0512  -29.3863   20.7165 C   0  0  0  0  0  0
  -27.2242  -28.5586   20.6983 C   0  0  0  0  0  0
  -25.9917  -26.8662   19.4950 C   0  0  0  0  0  0
  -24.8476  -27.6803   19.4918 C   0  0  0  0  0  0
  -23.6463  -29.8241   20.1572 C   0  0  0  0  0  0
  -25.4097  -36.3072   24.0329 C   0  0  1  0  0  0
  -20.5901  -28.3708   23.1236 C   0  0  2  0  0  0
  -20.6761  -26.9415   22.5388 C   0  0  0  0  0  0
  -19.5733  -26.6387   21.5186 C   0  0  0  0  0  0
  -18.1927  -26.7927   22.1621 C   0  0  0  0  0  0
  -19.1554  -28.8858   23.2862 C   0  0  0  0  0  0
  -18.9478  -30.1449   23.8890 C   0  0  0  0  0  0
  -17.6483  -30.6589   24.0559 C   0  0  0  0  0  0
  -25.9045  -34.9445   23.5102 C   0  0  0  0  0  0
  -16.5368  -29.9091   23.6329 C   0  0  0  0  0  0
  -16.7285  -28.6508   23.0355 C   0  0  0  0  0  0
  -26.4521  -31.6589   25.0743 C   0  0  0  0  0  0
  -25.3737  -31.3761   26.1461 C   0  0  0  0  0  0
  -27.0351  -30.2990   24.6264 C   0  0  0  0  0  0
  -27.6064  -32.4327   25.7533 C   0  0  0  0  0  0
  -27.5559  -37.1793   24.8476 C   0  0  0  0  0  0
  -21.4208  -29.3074   22.3638 N   0  0  0  0  0  0
  -26.4265  -37.3780   23.9429 N   0  0  0  0  0  0
  -24.7009  -31.0514   22.0966 N   0  0  0  0  0  0
  -23.4200  -28.8153   23.2985 O   0  0  0  0  0  0
  -28.3060  -26.3317   20.1366 O   0  0  0  0  0  0
  -26.5617  -34.8922   22.4670 O   0  0  0  0  0  0
  -23.5496  -32.1394   23.7276 O   0  0  0  0  0  0
  -28.3916  -18.4702   22.6059 C   0  0  0  0  0  0
  -28.8579  -17.2509   22.0806 C   0  0  0  0  0  0
  -29.8193  -18.4813   20.2256 C   0  0  0  0  0  0
  -28.6502  -19.7178   21.9886 C   0  0  0  0  0  0
  -29.3852  -19.7703   20.7721 C   0  0  0  0  0  0
  -29.5706  -17.1937   20.8684 C   0  0  0  0  0  0
  -29.0540  -23.7364   20.3806 C   0  0  0  0  0  0
  -28.1243  -20.9346   22.6331 C   0  0  0  0  0  0
  -26.9550  -21.0242   23.2896 C   0  0  0  0  0  0
  -27.6219  -23.1614   17.9251 C   0  0  0  0  0  0
  -28.0432  -24.6136   18.2789 C   0  0  0  0  0  0
  -27.6996  -22.1592   19.1124 C   0  0  0  0  0  0
  -28.0662  -24.8677   19.8076 C   0  0  2  0  0  0
  -29.7905  -21.1960   20.1490 C   0  0  0  0  0  0
  -28.8492  -22.4059   19.9942 N   0  0  0  0  0  0
  -29.6972  -15.8349   20.2902 N   0  0  0  0  0  0
  -29.9979  -24.0684   21.1047 O   0  0  0  0  0  0
  -26.4402  -22.4826   24.0551 Cl  0  0  0  0  0  0
  -31.4878  -12.6089   19.1638 H   0  0  0  0  0  0
  -30.4106  -11.4905   19.9581 H   0  0  0  0  0  0
  -29.7953  -11.7085   17.5262 H   0  0  0  0  0  0
  -29.6342  -13.4363   17.6996 H   0  0  0  0  0  0
  -27.9032  -11.2699   18.9342 H   0  0  0  0  0  0
  -27.3742  -12.4872   17.8047 H   0  0  0  0  0  0
  -27.6239  -14.2393   19.4493 H   0  0  0  0  0  0
  -28.7347  -12.1613   21.4068 H   0  0  0  0  0  0
  -28.4323  -13.8364   21.7891 H   0  0  0  0  0  0
  -25.2765   -9.5656   22.4761 H   0  0  0  0  0  0
  -23.9998   -7.4609   22.7460 H   0  0  0  0  0  0
  -21.0839   -8.8794   19.8932 H   0  0  0  0  0  0
  -22.3722  -10.9690   19.6159 H   0  0  0  0  0  0
  -21.2011   -7.6146   23.9726 H   0  0  0  0  0  0
  -21.1483   -6.0512   25.9080 H   0  0  0  0  0  0
  -22.0591   -2.7614   23.2825 H   0  0  0  0  0  0
  -22.4053  -11.9894   22.4859 H   0  0  0  0  0  0
  -21.1069  -13.1253   22.2654 H   0  0  0  0  0  0
  -24.6510  -15.8424   20.5484 H   0  0  0  0  0  0
  -26.2636  -15.6445   20.0948 H   0  0  0  0  0  0
  -26.7229  -32.5407   23.1082 H   0  0  0  0  0  0
  -25.0119  -33.9679   25.0429 H   0  0  0  0  0  0
  -22.7297  -31.3104   21.3983 H   0  0  0  0  0  0
  -23.3730  -35.9594   23.3311 H   0  0  0  0  0  0
  -24.3560  -36.8876   22.2050 H   0  0  0  0  0  0
  -23.7188  -37.6468   23.6643 H   0  0  0  0  0  0
  -26.1230  -31.5215   20.6095 H   0  0  0  0  0  0
  -26.8568  -30.8100   22.0160 H   0  0  0  0  0  0
  -28.1276  -28.9038   21.1816 H   0  0  0  0  0  0
  -25.8569  -25.9053   19.0284 H   0  0  0  0  0  0
  -23.9401  -27.3227   19.0243 H   0  0  0  0  0  0
  -23.7732  -30.5999   19.4008 H   0  0  0  0  0  0
  -22.7631  -29.2603   19.8519 H   0  0  0  0  0  0
  -25.1266  -36.1927   25.0814 H   0  0  0  0  0  0
  -21.0003  -28.3278   24.1353 H   0  0  0  0  0  0
  -20.5587  -26.2337   23.3612 H   0  0  0  0  0  0
  -21.6640  -26.7385   22.1232 H   0  0  0  0  0  0
  -19.6881  -25.6293   21.1229 H   0  0  0  0  0  0
  -19.6653  -27.3180   20.6702 H   0  0  0  0  0  0
  -17.4181  -26.6654   21.4045 H   0  0  0  0  0  0
  -18.0354  -26.0070   22.9028 H   0  0  0  0  0  0
  -19.7959  -30.7255   24.2268 H   0  0  0  0  0  0
  -17.5048  -31.6268   24.5165 H   0  0  0  0  0  0
  -15.5371  -30.3006   23.7644 H   0  0  0  0  0  0
  -15.8685  -28.0820   22.7086 H   0  0  0  0  0  0
  -24.5926  -30.7084   25.7824 H   0  0  0  0  0  0
  -24.8910  -32.2929   26.4851 H   0  0  0  0  0  0
  -25.8061  -30.8996   27.0268 H   0  0  0  0  0  0
  -26.2948  -29.6765   24.1227 H   0  0  0  0  0  0
  -27.3930  -29.7246   25.4821 H   0  0  0  0  0  0
  -27.8882  -30.4243   23.9589 H   0  0  0  0  0  0
  -27.2673  -33.3638   26.2096 H   0  0  0  0  0  0
  -28.3910  -32.6870   25.0391 H   0  0  0  0  0  0
  -28.0697  -31.8459   26.5480 H   0  0  0  0  0  0
  -28.2606  -38.0067   24.7517 H   0  0  0  0  0  0
  -28.1022  -36.2600   24.6301 H   0  0  0  0  0  0
  -27.2291  -37.1460   25.8886 H   0  0  0  0  0  0
  -20.9382  -29.8862   21.6904 H   0  0  0  0  0  0
  -26.0141  -38.2850   24.1453 H   0  0  0  0  0  0
  -27.8269  -18.4335   23.5280 H   0  0  0  0  0  0
  -28.6068  -16.3411   22.6090 H   0  0  0  0  0  0
  -30.3386  -18.4826   19.2777 H   0  0  0  0  0  0
  -28.7521  -21.8125   22.6006 H   0  0  0  0  0  0
  -26.2628  -20.1963   23.3746 H   0  0  0  0  0  0
  -28.2475  -22.8054   17.1047 H   0  0  0  0  0  0
  -26.6056  -23.1638   17.5281 H   0  0  0  0  0  0
  -27.4120  -25.3169   17.7394 H   0  0  0  0  0  0
  -29.0454  -24.7956   17.8874 H   0  0  0  0  0  0
  -27.7061  -21.1353   18.7380 H   0  0  0  0  0  0
  -26.7947  -22.2411   19.7185 H   0  0  0  0  0  0
  -27.1024  -24.6035   20.2437 H   0  0  0  0  0  0
  -30.1945  -21.0029   19.1543 H   0  0  0  0  0  0
  -30.6533  -21.5341   20.7266 H   0  0  0  0  0  0
  -28.7871  -15.4433   20.1097 H   0  0  0  0  0  0
  1 25  1  0  0  0
  1 30  2  0  0  0
  1 86  1  0  0  0
  2  3  1  0  0  0
  2 25  1  0  0  0
  2 89  1  0  0  0
  2 90  1  0  0  0
  3  4  1  0  0  0
  3 91  1  0  0  0
  3 92  1  0  0  0
  4  5  1  0  0  0
  4 93  1  0  0  0
  4 94  1  0  0  0
  5  6  1  0  0  0
  5 26  1  0  0  0
  5 95  1  0  0  0
  6 25  1  0  0  0
  6 96  1  0  0  0
  6 97  1  0  0  0
  7  8  2  0  0  0
  7 26  1  0  0  0
  7 29  1  0  0  0
  8  9  1  0  0  0
  8 22  1  0  0  0
  9 10  1  0  0  0
  9 27  2  0  0  0
 10 11  2  0  0  0
 10 15  1  0  0  0
 11 12  1  0  0  0
 11 98  1  0  0  0
 12 13  2  0  0  0
 12 99  1  0  0  0
 13 14  1  0  0  0
 13 31  1  0  0  0
 14 15  2  0  0  0
 14100  1  0  0  0
 15101  1  0  0  0
 16 17  2  0  0  0
 16 21  1  0  0  0
 16 31  1  0  0  0
 17 18  1  0  0  0
 17102  1  0  0  0
 18 19  2  0  0  0
 18103  1  0  0  0
 19 20  1  0  0  0
 19 24  1  0  0  0
 20 21  2  0  0  0
 20104  1  0  0  0
 21 23  1  0  0  0
 22 28  1  0  0  0
 22 32  2  0  0  0
 26 27  1  0  0  0
 28105  1  0  0  0
 28106  1  0  0  0
 29107  1  0  0  0
 29108  1  0  0  0
 33 34  1  0  0  0
 33 66  1  0  0  0
 33 70  2  0  0  0
 34 36  1  0  0  0
 34 59  1  0  0  0
 34109  1  0  0  0
 35 44  2  0  0  0
 35 45  1  0  0  0
 35 68  1  0  0  0
 36 56  1  0  0  0
 36110  1  0  0  0
 37 39  1  0  0  0
 37 47  1  0  0  0
 37 66  1  0  0  0
 37111  1  0  0  0
 38 43  2  0  0  0
 38 46  1  0  0  0
 38 47  1  0  0  0
 39 64  1  0  0  0
 39 67  2  0  0  0
 40 52  1  0  0  0
 40 53  2  0  0  0
 40 58  1  0  0  0
 41112  1  0  0  0
 41113  1  0  0  0
 41114  1  0  0  0
 41 48  1  0  0  0
 42 43  1  0  0  0
 42 66  1  0  0  0
 42115  1  0  0  0
 42116  1  0  0  0
 43 44  1  0  0  0
 44117  1  0  0  0
 45 46  2  0  0  0
 45118  1  0  0  0
 46119  1  0  0  0
 47120  1  0  0  0
 47121  1  0  0  0
 48 56  1  0  0  0
 48 65  1  0  0  0
 48122  1  0  0  0
 49 50  1  0  0  0
 49 53  1  0  0  0
 49 64  1  0  0  0
 49123  1  0  0  0
 50 51  1  0  0  0
 50124  1  0  0  0
 50125  1  0  0  0
 51 52  1  0  0  0
 51126  1  0  0  0
 51127  1  0  0  0
 52128  1  0  0  0
 52129  1  0  0  0
 53 54  1  0  0  0
 54 55  2  0  0  0
 54130  1  0  0  0
 55 57  1  0  0  0
 55131  1  0  0  0
 56 69  2  0  0  0
 57 58  2  0  0  0
 57132  1  0  0  0
 58133  1  0  0  0
 59 60  1  0  0  0
 59 61  1  0  0  0
 59 62  1  0  0  0
 60134  1  0  0  0
 60135  1  0  0  0
 60136  1  0  0  0
 61137  1  0  0  0
 61138  1  0  0  0
 61139  1  0  0  0
 62140  1  0  0  0
 62141  1  0  0  0
 62142  1  0  0  0
 63 65  1  0  0  0
 63143  1  0  0  0
 63144  1  0  0  0
 63145  1  0  0  0
 64146  1  0  0  0
 65147  1  0  0  0
 68 83  1  0  0  0
 71 72  2  0  0  0
 71 74  1  0  0  0
 71148  1  0  0  0
 72 76  1  0  0  0
 72149  1  0  0  0
 73 75  1  0  0  0
 73 76  2  0  0  0
 73150  1  0  0  0
 74 75  2  0  0  0
 74 78  1  0  0  0
 75 84  1  0  0  0
 76 86  1  0  0  0
 77 83  1  0  0  0
 77 85  1  0  0  0
 77 87  2  0  0  0
 78 79  2  0  0  0
 78151  1  0  0  0
 79 88  1  0  0  0
 79152  1  0  0  0
 80 81  1  0  0  0
 80 82  1  0  0  0
 80153  1  0  0  0
 80154  1  0  0  0
 81 83  1  0  0  0
 81155  1  0  0  0
 81156  1  0  0  0
 82 85  1  0  0  0
 82157  1  0  0  0
 82158  1  0  0  0
 83159  1  0  0  0
 84 85  1  0  0  0
 84160  1  0  0  0
 84161  1  0  0  0
 86162  1  0  0  0
M  ISO  4   1 100  68 101  83 101  86 100
M  END
> <chiral flag>
0

> <version>
0

> <s_m_source_file>
/data/baiqing/PycharmProjects/Reinvent-master-3.2/result/LINK_invent/BTK/process_docking_weight1_custom_product_contain_oxygen_bond_distance_aromatic_linkinvent_7_9_3/rearranged_h_0045.sdf

> <i_m_source_file_index>
81

> <r_mmod_Potential_Energy-OPLS-2005>
325.552368164062

> <r_mmod_Stretch_Energy-OPLS-2005>
140.591735839844

> <r_mmod_Bend_Energy-OPLS-2005>
189.934936523438

> <r_mmod_Torsional_Energy-OPLS-2005>
299.249847412109

> <r_mmod_Improper_Torsional_Energy-OPLS-2005>
17.8143119812012

> <r_mmod_Van_der_Waal_Energy-OPLS-2005>
146.965072631836

> <r_mmod_Electrostatic_Energy-OPLS-2005>
-333.549072265625

> <r_mmod_Solvation_Energy-OPLS-2005>
-235.329696655273

> <b_mmod_Minimization_Converged-OPLS-2005>
0

> <r_mmod_RMS_Derivative-OPLS-2005>
2.43047666549683

$$$$
81
                    3D
 Structure written by MMmdl.
156164  0  0  1  0            999 V2000
  -30.7040  -14.5070   20.5508 C   0  0  0  0  0  0
  -30.4204  -12.3223   19.4336 C   0  0  0  0  0  0
  -29.4953  -12.4948   18.2115 C   0  0  0  0  0  0
  -28.0175  -12.3536   18.6256 C   0  0  0  0  0  0
  -27.6568  -13.2108   19.8690 C   0  0  2  0  0  0
  -28.7004  -13.0310   20.9946 C   0  0  0  0  0  0
  -25.2567  -13.8165   20.5682 C   0  0  0  0  0  0
  -24.1826  -13.0438   20.9181 C   0  0  0  0  0  0
  -24.6384  -11.6906   20.8733 C   0  0  0  0  0  0
  -23.9045  -10.4293   21.0397 C   0  0  0  0  0  0
  -24.3604   -9.4211   21.9173 C   0  0  0  0  0  0
  -23.6284   -8.2244   22.0751 C   0  0  0  0  0  0
  -22.4265   -8.0275   21.3545 C   0  0  0  0  0  0
  -21.9898   -9.0243   20.4642 C   0  0  0  0  0  0
  -22.7221  -10.2125   20.3046 C   0  0  0  0  0  0
  -21.6855   -6.0727   22.5277 C   0  0  0  0  0  0
  -21.4016   -6.5630   23.8209 C   0  0  0  0  0  0
  -21.3661   -5.6782   24.9172 C   0  0  0  0  0  0
  -21.6047   -4.3045   24.7220 C   0  0  0  0  0  0
  -21.8822   -3.8139   23.4342 C   0  0  0  0  0  0
  -21.9194   -4.6955   22.3397 C   0  0  0  0  0  0
  -22.7849  -13.5233   21.1841 C   0  0  0  0  0  0
  -22.1662   -4.2138   21.0975 F   0  0  0  0  0  0
  -21.5634   -3.4531   25.7737 F   0  0  0  0  0  0
  -30.0251  -13.3313   20.4306 N   0  0  0  0  0  0
  -26.3002  -12.9340   20.3352 N   0  0  0  0  0  0
  -25.9313  -11.6495   20.5764 N   0  0  0  0  0  0
  -22.0484  -12.8223   22.0392 N   0  0  0  0  0  0
  -25.4279  -15.1881   20.4080 N   0  0  0  0  0  0
  -31.8547  -14.6409   20.1252 O   0  0  0  0  0  0
  -21.6642   -6.8867   21.4236 O   0  0  0  0  0  0
  -22.3535  -14.5540   20.6691 O   0  0  0  0  0  0
  -24.6175  -31.8661   23.2082 C   0  0  0  0  0  0
  -25.9058  -32.4808   23.8387 C   0  0  1  0  0  0
  -27.2354  -27.4069   20.0938 C   0  0  0  0  0  0
  -25.5903  -33.8608   24.2320 N   0  0  0  0  0  0
  -23.4064  -30.4892   21.5499 C   0  0  2  0  0  0
  -24.8519  -28.9525   20.1131 C   0  0  0  0  0  0
  -22.7424  -29.4653   22.4989 C   0  0  0  0  0  0
  -18.0272  -28.1379   22.8494 C   0  0  0  0  0  0
  -24.1489  -36.7313   23.2637 C   0  0  0  0  0  0
  -25.9381  -30.8222   21.3658 C   0  0  0  0  0  0
  -26.0139  -29.4548   20.7118 C   0  0  0  0  0  0
  -27.2053  -28.6884   20.7008 C   0  0  0  0  0  0
  -26.0487  -26.9283   19.4878 C   0  0  0  0  0  0
  -24.8654  -27.6895   19.4990 C   0  0  0  0  0  0
  -23.6150  -29.8214   20.1647 C   0  0  0  0  0  0
  -25.4110  -36.3107   24.0337 C   0  0  1  0  0  0
  -20.5865  -28.3673   23.1316 C   0  0  2  0  0  0
  -20.6764  -26.9409   22.5418 C   0  0  0  0  0  0
  -19.5742  -26.6391   21.5214 C   0  0  0  0  0  0
  -18.1920  -26.7928   22.1621 C   0  0  0  0  0  0
  -19.1521  -28.8843   23.2902 C   0  0  0  0  0  0
  -18.9446  -30.1448   23.8915 C   0  0  0  0  0  0
  -17.6447  -30.6584   24.0569 C   0  0  0  0  0  0
  -25.9039  -34.9468   23.5128 C   0  0  0  0  0  0
  -16.5340  -29.9087   23.6326 C   0  0  0  0  0  0
  -16.7261  -28.6502   23.0350 C   0  0  0  0  0  0
  -26.4474  -31.6587   25.0722 C   0  0  0  0  0  0
  -25.3735  -31.3691   26.1467 C   0  0  0  0  0  0
  -27.0304  -30.3026   24.6111 C   0  0  0  0  0  0
  -27.6058  -32.4299   25.7483 C   0  0  0  0  0  0
  -27.5581  -37.1815   24.8463 C   0  0  0  0  0  0
  -21.4149  -29.3039   22.3726 N   0  0  0  0  0  0
  -26.4296  -37.3789   23.9402 N   0  0  0  0  0  0
  -24.6724  -31.0740   22.0995 N   0  0  0  0  0  0
  -23.4183  -28.8200   23.3043 O   0  0  0  0  0  0
  -28.3992  -26.6518   20.1323 O   0  0  0  0  0  0
  -26.5606  -34.8923   22.4692 O   0  0  0  0  0  0
  -23.5361  -32.1427   23.7459 O   0  0  0  0  0  0
  -32.1486  -18.5635   21.7108 C   0  0  0  0  0  0
  -31.6904  -17.2366   21.6557 C   0  0  0  0  0  0
  -29.6355  -18.0139   20.6170 C   0  0  0  0  0  0
  -31.3767  -19.6270   21.1956 C   0  0  0  0  0  0
  -30.0813  -19.3716   20.6574 C   0  0  0  0  0  0
  -30.4398  -16.9352   21.0786 C   0  0  0  0  0  0
  -28.5153  -24.2433   20.3957 C   0  0  0  0  0  0
  -28.3989  -25.3599   19.6381 C   0  0  0  0  0  0
  -32.0061  -21.0111   21.2121 C   0  0  0  0  0  0
  -28.4701  -22.8129   19.8394 C   0  0  0  0  0  0
  -29.1979  -20.4776   20.0126 C   0  0  0  0  0  0
  -29.9873  -15.5730   20.9844 N   0  0  0  0  0  0
  -29.2226  -21.8177   20.6235 N   0  0  0  0  0  0
  -29.6113  -20.5782   18.7489 F   0  0  0  0  0  0
  -27.9293  -20.0668   20.0010 F   0  0  0  0  0  0
  -31.4658  -12.4137   19.1327 H   0  0  0  0  0  0
  -30.3210  -11.3203   19.8543 H   0  0  0  0  0  0
  -29.7399  -11.7561   17.4472 H   0  0  0  0  0  0
  -29.6607  -13.4727   17.7559 H   0  0  0  0  0  0
  -27.8362  -11.2996   18.8392 H   0  0  0  0  0  0
  -27.3657  -12.6089   17.7895 H   0  0  0  0  0  0
  -27.6889  -14.2526   19.5497 H   0  0  0  0  0  0
  -28.6850  -12.0071   21.3712 H   0  0  0  0  0  0
  -28.4667  -13.6645   21.8518 H   0  0  0  0  0  0
  -25.2751   -9.5692   22.4745 H   0  0  0  0  0  0
  -23.9995   -7.4640   22.7474 H   0  0  0  0  0  0
  -21.0832   -8.8751   19.8947 H   0  0  0  0  0  0
  -22.3673  -10.9656   19.6153 H   0  0  0  0  0  0
  -21.2009   -7.6138   23.9704 H   0  0  0  0  0  0
  -21.1482   -6.0517   25.9071 H   0  0  0  0  0  0
  -22.0603   -2.7600   23.2847 H   0  0  0  0  0  0
  -22.4089  -11.9876   22.4772 H   0  0  0  0  0  0
  -21.1101  -13.1251   22.2589 H   0  0  0  0  0  0
  -24.6605  -15.8425   20.5148 H   0  0  0  0  0  0
  -26.2740  -15.6253   20.0664 H   0  0  0  0  0  0
  -26.7131  -32.5508   23.1151 H   0  0  0  0  0  0
  -25.0048  -33.9768   25.0462 H   0  0  0  0  0  0
  -22.6966  -31.3070   21.4095 H   0  0  0  0  0  0
  -23.3742  -35.9655   23.3312 H   0  0  0  0  0  0
  -24.3583  -36.8915   22.2048 H   0  0  0  0  0  0
  -23.7250  -37.6527   23.6643 H   0  0  0  0  0  0
  -26.0544  -31.5871   20.5966 H   0  0  0  0  0  0
  -26.8249  -30.8750   21.9859 H   0  0  0  0  0  0
  -28.1017  -29.0702   21.1692 H   0  0  0  0  0  0
  -26.0143  -25.9597   19.0112 H   0  0  0  0  0  0
  -23.9715  -27.2959   19.0349 H   0  0  0  0  0  0
  -23.7233  -30.5953   19.4040 H   0  0  0  0  0  0
  -22.7385  -29.2411   19.8702 H   0  0  0  0  0  0
  -25.1287  -36.1974   25.0831 H   0  0  0  0  0  0
  -20.9952  -28.3235   24.1438 H   0  0  0  0  0  0
  -20.5671  -26.2282   23.3607 H   0  0  0  0  0  0
  -21.6636  -26.7456   22.1207 H   0  0  0  0  0  0
  -19.6907  -25.6307   21.1233 H   0  0  0  0  0  0
  -19.6681  -27.3213   20.6754 H   0  0  0  0  0  0
  -17.4196  -26.6688   21.4016 H   0  0  0  0  0  0
  -18.0312  -26.0062   22.9006 H   0  0  0  0  0  0
  -19.7921  -30.7260   24.2294 H   0  0  0  0  0  0
  -17.5000  -31.6266   24.5167 H   0  0  0  0  0  0
  -15.5341  -30.2993   23.7640 H   0  0  0  0  0  0
  -15.8661  -28.0825   22.7059 H   0  0  0  0  0  0
  -24.5901  -30.7054   25.7789 H   0  0  0  0  0  0
  -24.8935  -32.2844   26.4941 H   0  0  0  0  0  0
  -25.8080  -30.8829   27.0210 H   0  0  0  0  0  0
  -26.2851  -29.6788   24.1163 H   0  0  0  0  0  0
  -27.4060  -29.7263   25.4577 H   0  0  0  0  0  0
  -27.8693  -30.4338   23.9274 H   0  0  0  0  0  0
  -27.2691  -33.3591   26.2091 H   0  0  0  0  0  0
  -28.3850  -32.6865   25.0293 H   0  0  0  0  0  0
  -28.0745  -31.8397   26.5369 H   0  0  0  0  0  0
  -28.2607  -38.0105   24.7498 H   0  0  0  0  0  0
  -28.1069  -36.2636   24.6300 H   0  0  0  0  0  0
  -27.2302  -37.1483   25.8868 H   0  0  0  0  0  0
  -20.9317  -29.8762   21.6947 H   0  0  0  0  0  0
  -26.0186  -38.2872   24.1382 H   0  0  0  0  0  0
  -33.1256  -18.7566   22.1331 H   0  0  0  0  0  0
  -32.3219  -16.4502   22.0449 H   0  0  0  0  0  0
  -28.6733  -17.7923   20.1775 H   0  0  0  0  0  0
  -28.6135  -24.3467   21.4670 H   0  0  0  0  0  0
  -28.2905  -25.3390   18.5621 H   0  0  0  0  0  0
  -33.0783  -20.9610   21.4045 H   0  0  0  0  0  0
  -31.5610  -21.6284   21.9927 H   0  0  0  0  0  0
  -31.8774  -21.5121   20.2525 H   0  0  0  0  0  0
  -28.8288  -22.8367   18.8095 H   0  0  0  0  0  0
  -27.4239  -22.5051   19.7988 H   0  0  0  0  0  0
  -29.0075  -15.4023   21.1520 H   0  0  0  0  0  0
  -28.7560  -21.7118   21.5163 H   0  0  0  0  0  0
  1 25  1  0  0  0
  1 30  2  0  0  0
  1 82  1  0  0  0
  2  3  1  0  0  0
  2 25  1  0  0  0
  2 86  1  0  0  0
  2 87  1  0  0  0
  3  4  1  0  0  0
  3 88  1  0  0  0
  3 89  1  0  0  0
  4  5  1  0  0  0
  4 90  1  0  0  0
  4 91  1  0  0  0
  5  6  1  0  0  0
  5 26  1  0  0  0
  5 92  1  0  0  0
  6 25  1  0  0  0
  6 93  1  0  0  0
  6 94  1  0  0  0
  7  8  2  0  0  0
  7 26  1  0  0  0
  7 29  1  0  0  0
  8  9  1  0  0  0
  8 22  1  0  0  0
  9 10  1  0  0  0
  9 27  2  0  0  0
 10 11  2  0  0  0
 10 15  1  0  0  0
 11 12  1  0  0  0
 11 95  1  0  0  0
 12 13  2  0  0  0
 12 96  1  0  0  0
 13 14  1  0  0  0
 13 31  1  0  0  0
 14 15  2  0  0  0
 14 97  1  0  0  0
 15 98  1  0  0  0
 16 17  2  0  0  0
 16 21  1  0  0  0
 16 31  1  0  0  0
 17 18  1  0  0  0
 17 99  1  0  0  0
 18 19  2  0  0  0
 18100  1  0  0  0
 19 20  1  0  0  0
 19 24  1  0  0  0
 20 21  2  0  0  0
 20101  1  0  0  0
 21 23  1  0  0  0
 22 28  1  0  0  0
 22 32  2  0  0  0
 26 27  1  0  0  0
 28102  1  0  0  0
 28103  1  0  0  0
 29104  1  0  0  0
 29105  1  0  0  0
 33 34  1  0  0  0
 33 66  1  0  0  0
 33 70  2  0  0  0
 34 36  1  0  0  0
 34 59  1  0  0  0
 34106  1  0  0  0
 35 44  2  0  0  0
 35 45  1  0  0  0
 35 68  1  0  0  0
 36 56  1  0  0  0
 36107  1  0  0  0
 37 39  1  0  0  0
 37 47  1  0  0  0
 37 66  1  0  0  0
 37108  1  0  0  0
 38 43  2  0  0  0
 38 46  1  0  0  0
 38 47  1  0  0  0
 39 64  1  0  0  0
 39 67  2  0  0  0
 40 52  1  0  0  0
 40 53  2  0  0  0
 40 58  1  0  0  0
 41109  1  0  0  0
 41110  1  0  0  0
 41111  1  0  0  0
 41 48  1  0  0  0
 42 43  1  0  0  0
 42 66  1  0  0  0
 42112  1  0  0  0
 42113  1  0  0  0
 43 44  1  0  0  0
 44114  1  0  0  0
 45 46  2  0  0  0
 45115  1  0  0  0
 46116  1  0  0  0
 47117  1  0  0  0
 47118  1  0  0  0
 48 56  1  0  0  0
 48 65  1  0  0  0
 48119  1  0  0  0
 49 50  1  0  0  0
 49 53  1  0  0  0
 49 64  1  0  0  0
 49120  1  0  0  0
 50 51  1  0  0  0
 50121  1  0  0  0
 50122  1  0  0  0
 51 52  1  0  0  0
 51123  1  0  0  0
 51124  1  0  0  0
 52125  1  0  0  0
 52126  1  0  0  0
 53 54  1  0  0  0
 54 55  2  0  0  0
 54127  1  0  0  0
 55 57  1  0  0  0
 55128  1  0  0  0
 56 69  2  0  0  0
 57 58  2  0  0  0
 57129  1  0  0  0
 58130  1  0  0  0
 59 60  1  0  0  0
 59 61  1  0  0  0
 59 62  1  0  0  0
 60131  1  0  0  0
 60132  1  0  0  0
 60133  1  0  0  0
 61134  1  0  0  0
 61135  1  0  0  0
 61136  1  0  0  0
 62137  1  0  0  0
 62138  1  0  0  0
 62139  1  0  0  0
 63 65  1  0  0  0
 63140  1  0  0  0
 63141  1  0  0  0
 63142  1  0  0  0
 64143  1  0  0  0
 65144  1  0  0  0
 68 78  1  0  0  0
 71 72  2  0  0  0
 71 74  1  0  0  0
 71145  1  0  0  0
 72 76  1  0  0  0
 72146  1  0  0  0
 73 75  1  0  0  0
 73 76  2  0  0  0
 73147  1  0  0  0
 74 75  2  0  0  0
 74 79  1  0  0  0
 75 81  1  0  0  0
 76 82  1  0  0  0
 77 78  2  0  0  0
 77 80  1  0  0  0
 77148  1  0  0  0
 78149  1  0  0  0
 79150  1  0  0  0
 79151  1  0  0  0
 79152  1  0  0  0
 80 83  1  0  0  0
 80153  1  0  0  0
 80154  1  0  0  0
 81 83  1  0  0  0
 81 84  1  0  0  0
 81 85  1  0  0  0
 82155  1  0  0  0
 83156  1  0  0  0
M  ISO  4   1 100  68 101  78 101  82 100
M  END
> <chiral flag>
0

> <version>
0

> <s_m_source_file>
/data/baiqing/PycharmProjects/Reinvent-master-3.2/result/LINK_invent/BTK/process_docking_weight1_custom_product_contain_oxygen_bond_distance_aromatic_linkinvent_7_9_3/rearranged_h_0045.sdf

> <i_m_source_file_index>
82

> <r_mmod_Potential_Energy-OPLS-2005>
-38.7622756958008

> <r_mmod_Stretch_Energy-OPLS-2005>
45.6918754577637

> <r_mmod_Bend_Energy-OPLS-2005>
101.752998352051

> <r_mmod_Torsional_Energy-OPLS-2005>
230.849487304688

> <r_mmod_Improper_Torsional_Energy-OPLS-2005>
4.72904348373413

> <r_mmod_Van_der_Waal_Energy-OPLS-2005>
163.867797851562

> <r_mmod_Electrostatic_Energy-OPLS-2005>
-402.543914794922

> <r_mmod_Solvation_Energy-OPLS-2005>
-201.992782592773

> <b_mmod_Minimization_Converged-OPLS-2005>
0

> <r_mmod_RMS_Derivative-OPLS-2005>
0.802285492420197

$$$$
82
                    3D
 Structure written by MMmdl.
164173  0  0  1  0            999 V2000
  -30.6025  -14.7367   20.4994 C   0  0  0  0  0  0
  -30.4399  -12.4486   19.4844 C   0  0  0  0  0  0
  -29.5227  -12.5226   18.2424 C   0  0  0  0  0  0
  -28.0438  -12.3624   18.6405 C   0  0  0  0  0  0
  -27.6498  -13.2285   19.8664 C   0  0  2  0  0  0
  -28.6932  -13.1275   21.0036 C   0  0  0  0  0  0
  -25.2558  -13.8182   20.5722 C   0  0  0  0  0  0
  -24.1832  -13.0422   20.9205 C   0  0  0  0  0  0
  -24.6403  -11.6909   20.8730 C   0  0  0  0  0  0
  -23.9076  -10.4302   21.0393 C   0  0  0  0  0  0
  -24.3644   -9.4222   21.9177 C   0  0  0  0  0  0
  -23.6330   -8.2258   22.0736 C   0  0  0  0  0  0
  -22.4310   -8.0303   21.3538 C   0  0  0  0  0  0
  -21.9944   -9.0262   20.4646 C   0  0  0  0  0  0
  -22.7255  -10.2141   20.3050 C   0  0  0  0  0  0
  -21.6869   -6.0752   22.5299 C   0  0  0  0  0  0
  -21.4012   -6.5639   23.8225 C   0  0  0  0  0  0
  -21.3674   -5.6790   24.9188 C   0  0  0  0  0  0
  -21.6050   -4.3043   24.7233 C   0  0  0  0  0  0
  -21.8830   -3.8152   23.4338 C   0  0  0  0  0  0
  -21.9199   -4.6984   22.3409 C   0  0  0  0  0  0
  -22.7863  -13.5228   21.1881 C   0  0  0  0  0  0
  -22.1676   -4.2178   21.0980 F   0  0  0  0  0  0
  -21.5645   -3.4519   25.7725 F   0  0  0  0  0  0
  -30.0034  -13.4928   20.4482 N   0  0  0  0  0  0
  -26.2981  -12.9367   20.3335 N   0  0  0  0  0  0
  -25.9334  -11.6515   20.5735 N   0  0  0  0  0  0
  -22.0511  -12.8211   22.0433 N   0  0  0  0  0  0
  -25.4228  -15.1898   20.4224 N   0  0  0  0  0  0
  -31.7395  -14.8863   20.0395 O   0  0  0  0  0  0
  -21.6662   -6.8888   21.4257 O   0  0  0  0  0  0
  -22.3580  -14.5558   20.6739 O   0  0  0  0  0  0
  -24.6329  -31.8545   23.2005 C   0  0  0  0  0  0
  -25.9153  -32.4733   23.8347 C   0  0  1  0  0  0
  -27.2123  -27.2429   20.1503 C   0  0  0  0  0  0
  -25.5946  -33.8540   24.2263 N   0  0  0  0  0  0
  -23.4304  -30.4773   21.5427 C   0  0  2  0  0  0
  -24.8800  -28.9310   20.1065 C   0  0  0  0  0  0
  -22.7513  -29.4595   22.4904 C   0  0  0  0  0  0
  -18.0293  -28.1400   22.8480 C   0  0  0  0  0  0
  -24.1481  -36.7272   23.2639 C   0  0  0  0  0  0
  -25.9799  -30.7599   21.3892 C   0  0  0  0  0  0
  -26.0517  -29.3854   20.7260 C   0  0  0  0  0  0
  -27.2212  -28.5546   20.7380 C   0  0  0  0  0  0
  -26.0274  -26.8792   19.4675 C   0  0  0  0  0  0
  -24.8768  -27.6879   19.4594 C   0  0  0  0  0  0
  -23.6509  -29.8180   20.1565 C   0  0  0  0  0  0
  -25.4111  -36.3050   24.0323 C   0  0  1  0  0  0
  -20.5894  -28.3716   23.1247 C   0  0  2  0  0  0
  -20.6787  -26.9430   22.5397 C   0  0  0  0  0  0
  -19.5760  -26.6392   21.5210 C   0  0  0  0  0  0
  -18.1936  -26.7943   22.1620 C   0  0  0  0  0  0
  -19.1549  -28.8880   23.2858 C   0  0  0  0  0  0
  -18.9468  -30.1486   23.8872 C   0  0  0  0  0  0
  -17.6465  -30.6590   24.0565 C   0  0  0  0  0  0
  -25.9064  -34.9422   23.5098 C   0  0  0  0  0  0
  -16.5362  -29.9087   23.6341 C   0  0  0  0  0  0
  -16.7279  -28.6512   23.0358 C   0  0  0  0  0  0
  -26.4509  -31.6580   25.0762 C   0  0  0  0  0  0
  -25.3729  -31.3740   26.1485 C   0  0  0  0  0  0
  -27.0397  -30.2987   24.6326 C   0  0  0  0  0  0
  -27.6052  -32.4350   25.7540 C   0  0  0  0  0  0
  -27.5574  -37.1785   24.8456 C   0  0  0  0  0  0
  -21.4218  -29.3050   22.3632 N   0  0  0  0  0  0
  -26.4273  -37.3759   23.9414 N   0  0  0  0  0  0
  -24.6996  -31.0487   22.0999 N   0  0  0  0  0  0
  -23.4202  -28.8137   23.3018 O   0  0  0  0  0  0
  -28.2663  -26.2959   20.2651 O   0  0  0  0  0  0
  -26.5629  -34.8895   22.4663 O   0  0  0  0  0  0
  -23.5468  -32.1382   23.7278 O   0  0  0  0  0  0
  -28.7587  -17.0964   19.2680 C   0  0  0  0  0  0
  -29.8131  -18.4623   20.9645 C   0  0  0  0  0  0
  -28.2160  -18.2613   18.6868 C   0  0  0  0  0  0
  -29.3055  -19.7042   20.3731 C   0  0  0  0  0  0
  -28.5089  -19.5564   19.2019 C   0  0  0  0  0  0
  -29.5673  -17.1318   20.4172 C   0  0  0  0  0  0
  -29.0151  -23.6870   20.4315 C   0  0  0  0  0  0
  -26.5562  -23.2363   21.9011 C   0  0  0  0  0  0
  -27.0521  -24.6783   21.7570 C   0  0  0  0  0  0
  -27.7230  -22.2359   21.9781 C   0  0  0  0  0  0
  -27.8857  -24.8383   20.4709 C   0  0  1  0  0  0
  -27.2965  -18.0677   17.4879 C   0  0  0  0  0  0
  -27.9837  -20.7891   18.4743 C   0  0  0  0  0  0
  -29.6995  -21.1706   20.9119 C   0  0  0  0  0  0
  -28.7659  -22.4015   20.9487 N   0  0  0  0  0  0
  -29.8956  -15.8114   21.0225 N   0  0  0  0  0  0
  -30.0823  -23.9471   19.8680 O   0  0  0  0  0  0
  -31.4870  -12.5660   19.1920 H   0  0  0  0  0  0
  -30.3776  -11.4595   19.9433 H   0  0  0  0  0  0
  -29.8028  -11.7497   17.5232 H   0  0  0  0  0  0
  -29.6705  -13.4777   17.7342 H   0  0  0  0  0  0
  -27.8764  -11.3074   18.8608 H   0  0  0  0  0  0
  -27.3990  -12.6039   17.7949 H   0  0  0  0  0  0
  -27.6455  -14.2554   19.5132 H   0  0  0  0  0  0
  -28.7240  -12.1140   21.4034 H   0  0  0  0  0  0
  -28.4183  -13.7646   21.8451 H   0  0  0  0  0  0
  -25.2811   -9.5705   22.4723 H   0  0  0  0  0  0
  -24.0073   -7.4639   22.7426 H   0  0  0  0  0  0
  -21.0882   -8.8758   19.8953 H   0  0  0  0  0  0
  -22.3719  -10.9668   19.6142 H   0  0  0  0  0  0
  -21.1976   -7.6148   23.9733 H   0  0  0  0  0  0
  -21.1495   -6.0510   25.9088 H   0  0  0  0  0  0
  -22.0591   -2.7626   23.2815 H   0  0  0  0  0  0
  -22.4180  -11.9877   22.4797 H   0  0  0  0  0  0
  -21.1110  -13.1201   22.2632 H   0  0  0  0  0  0
  -24.6505  -15.8370   20.5400 H   0  0  0  0  0  0
  -26.2764  -15.6472   20.1298 H   0  0  0  0  0  0
  -26.7224  -32.5366   23.1084 H   0  0  0  0  0  0
  -25.0077  -33.9672   25.0393 H   0  0  0  0  0  0
  -22.7275  -31.3004   21.3985 H   0  0  0  0  0  0
  -23.3749  -35.9595   23.3272 H   0  0  0  0  0  0
  -24.3575  -36.8937   22.2061 H   0  0  0  0  0  0
  -23.7227  -37.6457   23.6697 H   0  0  0  0  0  0
  -26.1331  -31.5232   20.6240 H   0  0  0  0  0  0
  -26.8500  -30.7965   22.0334 H   0  0  0  0  0  0
  -28.1069  -28.8921   21.2586 H   0  0  0  0  0  0
  -25.9445  -25.9381   18.9489 H   0  0  0  0  0  0
  -23.9875  -27.3400   18.9531 H   0  0  0  0  0  0
  -23.7712  -30.5985   19.4037 H   0  0  0  0  0  0
  -22.7702  -29.2491   19.8527 H   0  0  0  0  0  0
  -25.1289  -36.1882   25.0814 H   0  0  0  0  0  0
  -20.9979  -28.3306   24.1376 H   0  0  0  0  0  0
  -20.5704  -26.2328   23.3612 H   0  0  0  0  0  0
  -21.6654  -26.7467   22.1184 H   0  0  0  0  0  0
  -19.6923  -25.6304   21.1254 H   0  0  0  0  0  0
  -19.6696  -27.3190   20.6734 H   0  0  0  0  0  0
  -17.4208  -26.6687   21.4024 H   0  0  0  0  0  0
  -18.0340  -26.0095   22.9030 H   0  0  0  0  0  0
  -19.7949  -30.7318   24.2216 H   0  0  0  0  0  0
  -17.5019  -31.6267   24.5189 H   0  0  0  0  0  0
  -15.5360  -30.2982   23.7691 H   0  0  0  0  0  0
  -15.8681  -28.0826   22.7084 H   0  0  0  0  0  0
  -24.5866  -30.7142   25.7796 H   0  0  0  0  0  0
  -24.8972  -32.2927   26.4940 H   0  0  0  0  0  0
  -25.8029  -30.8873   27.0250 H   0  0  0  0  0  0
  -26.3035  -29.6703   24.1304 H   0  0  0  0  0  0
  -27.3995  -29.7280   25.4897 H   0  0  0  0  0  0
  -27.8935  -30.4239   23.9663 H   0  0  0  0  0  0
  -27.2630  -33.3633   26.2125 H   0  0  0  0  0  0
  -28.3850  -32.6956   25.0374 H   0  0  0  0  0  0
  -28.0748  -31.8501   26.5454 H   0  0  0  0  0  0
  -28.2556  -38.0114   24.7543 H   0  0  0  0  0  0
  -28.1107  -36.2651   24.6230 H   0  0  0  0  0  0
  -27.2302  -37.1364   25.8858 H   0  0  0  0  0  0
  -20.9420  -29.8745   21.6799 H   0  0  0  0  0  0
  -26.0142  -38.2819   24.1450 H   0  0  0  0  0  0
  -28.5237  -16.1414   18.8241 H   0  0  0  0  0  0
  -30.4105  -18.5378   21.8616 H   0  0  0  0  0  0
  -25.9104  -22.9849   21.0578 H   0  0  0  0  0  0
  -25.9320  -23.1423   22.7908 H   0  0  0  0  0  0
  -27.6459  -24.9692   22.6244 H   0  0  0  0  0  0
  -26.1834  -25.3382   21.7441 H   0  0  0  0  0  0
  -27.3203  -21.2218   21.9576 H   0  0  0  0  0  0
  -28.2150  -22.3499   22.9458 H   0  0  0  0  0  0
  -27.2677  -24.5349   19.6288 H   0  0  0  0  0  0
  -26.8986  -17.0520   17.4522 H   0  0  0  0  0  0
  -27.8372  -18.2438   16.5608 H   0  0  0  0  0  0
  -26.4325  -18.7341   17.5322 H   0  0  0  0  0  0
  -27.7018  -20.5944   17.4418 H   0  0  0  0  0  0
  -28.7492  -21.5627   18.4191 H   0  0  0  0  0  0
  -27.1104  -21.1874   18.9914 H   0  0  0  0  0  0
  -30.5892  -21.4518   20.3480 H   0  0  0  0  0  0
  -30.0662  -21.0381   21.9320 H   0  0  0  0  0  0
  -29.1530  -15.4785   21.6206 H   0  0  0  0  0  0
  1 25  1  0  0  0
  1 30  2  0  0  0
  1 86  1  0  0  0
  2  3  1  0  0  0
  2 25  1  0  0  0
  2 88  1  0  0  0
  2 89  1  0  0  0
  3  4  1  0  0  0
  3 90  1  0  0  0
  3 91  1  0  0  0
  4  5  1  0  0  0
  4 92  1  0  0  0
  4 93  1  0  0  0
  5  6  1  0  0  0
  5 26  1  0  0  0
  5 94  1  0  0  0
  6 25  1  0  0  0
  6 95  1  0  0  0
  6 96  1  0  0  0
  7  8  2  0  0  0
  7 26  1  0  0  0
  7 29  1  0  0  0
  8  9  1  0  0  0
  8 22  1  0  0  0
  9 10  1  0  0  0
  9 27  2  0  0  0
 10 11  2  0  0  0
 10 15  1  0  0  0
 11 12  1  0  0  0
 11 97  1  0  0  0
 12 13  2  0  0  0
 12 98  1  0  0  0
 13 14  1  0  0  0
 13 31  1  0  0  0
 14 15  2  0  0  0
 14 99  1  0  0  0
 15100  1  0  0  0
 16 17  2  0  0  0
 16 21  1  0  0  0
 16 31  1  0  0  0
 17 18  1  0  0  0
 17101  1  0  0  0
 18 19  2  0  0  0
 18102  1  0  0  0
 19 20  1  0  0  0
 19 24  1  0  0  0
 20 21  2  0  0  0
 20103  1  0  0  0
 21 23  1  0  0  0
 22 28  1  0  0  0
 22 32  2  0  0  0
 26 27  1  0  0  0
 28104  1  0  0  0
 28105  1  0  0  0
 29106  1  0  0  0
 29107  1  0  0  0
 33 34  1  0  0  0
 33 66  1  0  0  0
 33 70  2  0  0  0
 34 36  1  0  0  0
 34 59  1  0  0  0
 34108  1  0  0  0
 35 44  2  0  0  0
 35 45  1  0  0  0
 35 68  1  0  0  0
 36 56  1  0  0  0
 36109  1  0  0  0
 37 39  1  0  0  0
 37 47  1  0  0  0
 37 66  1  0  0  0
 37110  1  0  0  0
 38 43  2  0  0  0
 38 46  1  0  0  0
 38 47  1  0  0  0
 39 64  1  0  0  0
 39 67  2  0  0  0
 40 52  1  0  0  0
 40 53  2  0  0  0
 40 58  1  0  0  0
 41111  1  0  0  0
 41112  1  0  0  0
 41113  1  0  0  0
 41 48  1  0  0  0
 42 43  1  0  0  0
 42 66  1  0  0  0
 42114  1  0  0  0
 42115  1  0  0  0
 43 44  1  0  0  0
 44116  1  0  0  0
 45 46  2  0  0  0
 45117  1  0  0  0
 46118  1  0  0  0
 47119  1  0  0  0
 47120  1  0  0  0
 48 56  1  0  0  0
 48 65  1  0  0  0
 48121  1  0  0  0
 49 50  1  0  0  0
 49 53  1  0  0  0
 49 64  1  0  0  0
 49122  1  0  0  0
 50 51  1  0  0  0
 50123  1  0  0  0
 50124  1  0  0  0
 51 52  1  0  0  0
 51125  1  0  0  0
 51126  1  0  0  0
 52127  1  0  0  0
 52128  1  0  0  0
 53 54  1  0  0  0
 54 55  2  0  0  0
 54129  1  0  0  0
 55 57  1  0  0  0
 55130  1  0  0  0
 56 69  2  0  0  0
 57 58  2  0  0  0
 57131  1  0  0  0
 58132  1  0  0  0
 59 60  1  0  0  0
 59 61  1  0  0  0
 59 62  1  0  0  0
 60133  1  0  0  0
 60134  1  0  0  0
 60135  1  0  0  0
 61136  1  0  0  0
 61137  1  0  0  0
 61138  1  0  0  0
 62139  1  0  0  0
 62140  1  0  0  0
 62141  1  0  0  0
 63 65  1  0  0  0
 63142  1  0  0  0
 63143  1  0  0  0
 63144  1  0  0  0
 64145  1  0  0  0
 65146  1  0  0  0
 68 81  1  0  0  0
 71 73  2  0  0  0
 71 76  1  0  0  0
 71147  1  0  0  0
 72 74  1  0  0  0
 72 76  2  0  0  0
 72148  1  0  0  0
 73 75  1  0  0  0
 73 82  1  0  0  0
 74 75  2  0  0  0
 74 84  1  0  0  0
 75 83  1  0  0  0
 76 86  1  0  0  0
 77 81  1  0  0  0
 77 85  1  0  0  0
 77 87  2  0  0  0
 78 79  1  0  0  0
 78 80  1  0  0  0
 78149  1  0  0  0
 78150  1  0  0  0
 79 81  1  0  0  0
 79151  1  0  0  0
 79152  1  0  0  0
 80 85  1  0  0  0
 80153  1  0  0  0
 80154  1  0  0  0
 81155  1  0  0  0
 82156  1  0  0  0
 82157  1  0  0  0
 82158  1  0  0  0
 83159  1  0  0  0
 83160  1  0  0  0
 83161  1  0  0  0
 84 85  1  0  0  0
 84162  1  0  0  0
 84163  1  0  0  0
 86164  1  0  0  0
M  ISO  4   1 100  68 101  81 101  86 100
M  END
> <chiral flag>
0

> <version>
0

> <s_m_source_file>
/data/baiqing/PycharmProjects/Reinvent-master-3.2/result/LINK_invent/BTK/process_docking_weight1_custom_product_contain_oxygen_bond_distance_aromatic_linkinvent_7_9_3/rearranged_h_0045.sdf

> <i_m_source_file_index>
83

> <r_mmod_Potential_Energy-OPLS-2005>
277.243682861328

> <r_mmod_Stretch_Energy-OPLS-2005>
147.767684936523

> <r_mmod_Bend_Energy-OPLS-2005>
178.92463684082

> <r_mmod_Torsional_Energy-OPLS-2005>
279.871124267578

> <r_mmod_Improper_Torsional_Energy-OPLS-2005>
7.52315902709961

> <r_mmod_Van_der_Waal_Energy-OPLS-2005>
146.163803100586

> <r_mmod_Electrostatic_Energy-OPLS-2005>
-344.910766601562

> <r_mmod_Solvation_Energy-OPLS-2005>
-231.772521972656

> <b_mmod_Minimization_Converged-OPLS-2005>
0

> <r_mmod_RMS_Derivative-OPLS-2005>
3.60487508773804

$$$$
83
                    3D
 Structure written by MMmdl.
160168  0  0  1  0            999 V2000
  -30.6978  -14.5441   20.6069 C   0  0  0  0  0  0
  -30.4409  -12.3543   19.4477 C   0  0  0  0  0  0
  -29.5172  -12.5294   18.2229 C   0  0  0  0  0  0
  -28.0357  -12.3718   18.6227 C   0  0  0  0  0  0
  -27.6676  -13.2141   19.8744 C   0  0  2  0  0  0
  -28.7116  -13.0111   20.9997 C   0  0  0  0  0  0
  -25.2491  -13.8103   20.5502 C   0  0  0  0  0  0
  -24.1831  -13.0387   20.9165 C   0  0  0  0  0  0
  -24.6417  -11.6870   20.8717 C   0  0  0  0  0  0
  -23.9078  -10.4265   21.0376 C   0  0  0  0  0  0
  -24.3614   -9.4184   21.9162 C   0  0  0  0  0  0
  -23.6283   -8.2223   22.0749 C   0  0  0  0  0  0
  -22.4262   -8.0263   21.3547 C   0  0  0  0  0  0
  -21.9900   -9.0238   20.4654 C   0  0  0  0  0  0
  -22.7240  -10.2110   20.3033 C   0  0  0  0  0  0
  -21.6852   -6.0715   22.5279 C   0  0  0  0  0  0
  -21.4023   -6.5614   23.8224 C   0  0  0  0  0  0
  -21.3665   -5.6764   24.9177 C   0  0  0  0  0  0
  -21.6048   -4.3029   24.7220 C   0  0  0  0  0  0
  -21.8820   -3.8121   23.4340 C   0  0  0  0  0  0
  -21.9195   -4.6938   22.3401 C   0  0  0  0  0  0
  -22.7847  -13.5194   21.1821 C   0  0  0  0  0  0
  -22.1655   -4.2117   21.0975 F   0  0  0  0  0  0
  -21.5633   -3.4512   25.7736 F   0  0  0  0  0  0
  -30.0492  -13.3434   20.4729 N   0  0  0  0  0  0
  -26.3045  -12.9342   20.3313 N   0  0  0  0  0  0
  -25.9368  -11.6493   20.5792 N   0  0  0  0  0  0
  -22.0455  -12.8239   22.0402 N   0  0  0  0  0  0
  -25.3844  -15.1784   20.3573 N   0  0  0  0  0  0
  -31.7377  -14.7981   19.9955 O   0  0  0  0  0  0
  -21.6625   -6.8852   21.4247 O   0  0  0  0  0  0
  -22.3541  -14.5474   20.6623 O   0  0  0  0  0  0
  -24.6162  -31.8664   23.2060 C   0  0  0  0  0  0
  -25.9029  -32.4817   23.8387 C   0  0  1  0  0  0
  -27.2555  -27.4007   20.1024 C   0  0  0  0  0  0
  -25.5860  -33.8620   24.2301 N   0  0  0  0  0  0
  -23.4099  -30.4808   21.5500 C   0  0  2  0  0  0
  -24.8613  -28.9307   20.1266 C   0  0  0  0  0  0
  -22.7434  -29.4618   22.5018 C   0  0  0  0  0  0
  -18.0259  -28.1352   22.8518 C   0  0  0  0  0  0
  -24.1471  -36.7309   23.2650 C   0  0  0  0  0  0
  -25.9427  -30.8106   21.3736 C   0  0  0  0  0  0
  -26.0236  -29.4436   20.7172 C   0  0  0  0  0  0
  -27.2253  -28.6903   20.6927 C   0  0  0  0  0  0
  -26.0727  -26.9002   19.5207 C   0  0  0  0  0  0
  -24.8816  -27.6578   19.5267 C   0  0  0  0  0  0
  -23.6222  -29.8008   20.1709 C   0  0  0  0  0  0
  -25.4102  -36.3117   24.0343 C   0  0  1  0  0  0
  -20.5860  -28.3643   23.1327 C   0  0  2  0  0  0
  -20.6739  -26.9377   22.5417 C   0  0  0  0  0  0
  -19.5716  -26.6362   21.5216 C   0  0  0  0  0  0
  -18.1903  -26.7903   22.1637 C   0  0  0  0  0  0
  -19.1519  -28.8808   23.2914 C   0  0  0  0  0  0
  -18.9455  -30.1415   23.8913 C   0  0  0  0  0  0
  -17.6464  -30.6569   24.0558 C   0  0  0  0  0  0
  -25.9032  -34.9484   23.5135 C   0  0  0  0  0  0
  -16.5347  -29.9068   23.6336 C   0  0  0  0  0  0
  -16.7253  -28.6472   23.0382 C   0  0  0  0  0  0
  -26.4427  -31.6642   25.0771 C   0  0  0  0  0  0
  -25.3635  -31.3856   26.1498 C   0  0  0  0  0  0
  -27.0297  -30.3062   24.6262 C   0  0  0  0  0  0
  -27.5988  -32.4411   25.7507 C   0  0  0  0  0  0
  -27.5592  -37.1803   24.8459 C   0  0  0  0  0  0
  -21.4153  -29.3004   22.3735 N   0  0  0  0  0  0
  -26.4299  -37.3807   23.9407 N   0  0  0  0  0  0
  -24.6734  -31.0700   22.0989 N   0  0  0  0  0  0
  -23.4187  -28.8178   23.3095 O   0  0  0  0  0  0
  -28.4303  -26.6712   20.0112 O   0  0  0  0  0  0
  -26.5634  -34.8945   22.4721 O   0  0  0  0  0  0
  -23.5345  -32.1443   23.7413 O   0  0  0  0  0  0
  -27.3398  -17.7736   21.2290 C   0  0  0  0  0  0
  -28.1287  -16.6188   21.3041 C   0  0  0  0  0  0
  -30.1338  -17.9739   21.1492 C   0  0  0  0  0  0
  -29.3449  -19.1818   21.1025 C   0  0  0  0  0  0
  -27.9213  -19.0505   21.1509 C   0  0  0  0  0  0
  -29.5274  -16.6780   21.2514 C   0  0  0  0  0  0
  -30.0125  -20.5579   21.1857 C   0  0  0  0  0  0
  -26.9525  -20.2294   21.2102 C   0  0  0  0  0  0
  -29.9295  -24.3507   18.8982 C   0  0  0  0  0  0
  -29.4979  -23.0284   21.0351 C   0  0  0  0  0  0
  -28.5556  -25.4619   20.8011 C   0  0  0  0  0  0
  -28.9361  -24.1227   20.0524 C   0  0  1  0  0  0
  -30.1877  -15.4180   21.5098 N   0  0  0  0  0  0
  -29.4250  -21.6168   20.5716 N   0  0  0  0  0  0
  -31.0404  -20.6930   21.8511 O   0  0  0  0  0  0
  -27.8101  -23.6418   19.5203 F   0  0  0  0  0  0
  -31.4869  -12.4520   19.1526 H   0  0  0  0  0  0
  -30.3444  -11.3446   19.8492 H   0  0  0  0  0  0
  -29.7780  -11.8057   17.4494 H   0  0  0  0  0  0
  -29.6814  -13.5136   17.7813 H   0  0  0  0  0  0
  -27.8567  -11.3153   18.8238 H   0  0  0  0  0  0
  -27.3910  -12.6342   17.7818 H   0  0  0  0  0  0
  -27.7054  -14.2583   19.5633 H   0  0  0  0  0  0
  -28.7023  -11.9759   21.3414 H   0  0  0  0  0  0
  -28.4517  -13.6003   21.8775 H   0  0  0  0  0  0
  -25.2752   -9.5657   22.4744 H   0  0  0  0  0  0
  -23.9980   -7.4627   22.7488 H   0  0  0  0  0  0
  -21.0824   -8.8772   19.8970 H   0  0  0  0  0  0
  -22.3710  -10.9644   19.6133 H   0  0  0  0  0  0
  -21.2008   -7.6127   23.9727 H   0  0  0  0  0  0
  -21.1498   -6.0483   25.9090 H   0  0  0  0  0  0
  -22.0589   -2.7582   23.2844 H   0  0  0  0  0  0
  -22.4049  -11.9944   22.4890 H   0  0  0  0  0  0
  -21.1061  -13.1308   22.2511 H   0  0  0  0  0  0
  -24.5801  -15.7913   20.4303 H   0  0  0  0  0  0
  -26.1915  -15.6324   19.9495 H   0  0  0  0  0  0
  -26.7108  -32.5518   23.1158 H   0  0  0  0  0  0
  -24.9935  -33.9774   25.0395 H   0  0  0  0  0  0
  -22.7008  -31.2986   21.4041 H   0  0  0  0  0  0
  -23.3756  -35.9624   23.3322 H   0  0  0  0  0  0
  -24.3558  -36.8916   22.2063 H   0  0  0  0  0  0
  -23.7193  -37.6505   23.6655 H   0  0  0  0  0  0
  -26.0834  -31.5789   20.6125 H   0  0  0  0  0  0
  -26.8192  -30.8493   22.0094 H   0  0  0  0  0  0
  -28.1295  -29.0982   21.1229 H   0  0  0  0  0  0
  -26.0818  -25.9284   19.0466 H   0  0  0  0  0  0
  -23.9870  -27.2545   19.0711 H   0  0  0  0  0  0
  -23.7304  -30.5705   19.4058 H   0  0  0  0  0  0
  -22.7464  -29.2157   19.8830 H   0  0  0  0  0  0
  -25.1280  -36.1999   25.0845 H   0  0  0  0  0  0
  -20.9955  -28.3175   24.1450 H   0  0  0  0  0  0
  -20.5623  -26.2250   23.3605 H   0  0  0  0  0  0
  -21.6610  -26.7383   22.1221 H   0  0  0  0  0  0
  -19.6870  -25.6280   21.1225 H   0  0  0  0  0  0
  -19.6646  -27.3192   20.6768 H   0  0  0  0  0  0
  -17.4177  -26.6676   21.4030 H   0  0  0  0  0  0
  -18.0284  -26.0011   22.9000 H   0  0  0  0  0  0
  -19.7938  -30.7210   24.2302 H   0  0  0  0  0  0
  -17.5027  -31.6267   24.5141 H   0  0  0  0  0  0
  -15.5357  -30.2984   23.7628 H   0  0  0  0  0  0
  -15.8652  -28.0772   22.7130 H   0  0  0  0  0  0
  -24.5701  -30.7342   25.7818 H   0  0  0  0  0  0
  -24.8950  -32.3082   26.4949 H   0  0  0  0  0  0
  -25.7884  -30.8967   27.0270 H   0  0  0  0  0  0
  -26.2933  -29.6831   24.1177 H   0  0  0  0  0  0
  -27.3867  -29.7315   25.4820 H   0  0  0  0  0  0
  -27.8840  -30.4368   23.9613 H   0  0  0  0  0  0
  -27.2562  -33.3674   26.2140 H   0  0  0  0  0  0
  -28.3726  -32.7061   25.0288 H   0  0  0  0  0  0
  -28.0742  -31.8535   26.5368 H   0  0  0  0  0  0
  -28.2612  -38.0102   24.7539 H   0  0  0  0  0  0
  -28.1086  -36.2642   24.6237 H   0  0  0  0  0  0
  -27.2324  -37.1398   25.8867 H   0  0  0  0  0  0
  -20.9321  -29.8727   21.6950 H   0  0  0  0  0  0
  -26.0202  -38.2901   24.1392 H   0  0  0  0  0  0
  -26.2655  -17.6708   21.2967 H   0  0  0  0  0  0
  -27.6347  -15.6740   21.4559 H   0  0  0  0  0  0
  -31.2113  -18.0533   21.1744 H   0  0  0  0  0  0
  -25.9245  -19.9001   21.3669 H   0  0  0  0  0  0
  -26.9569  -20.8031   20.2839 H   0  0  0  0  0  0
  -27.1970  -20.8922   22.0395 H   0  0  0  0  0  0
  -30.8950  -24.6973   19.2692 H   0  0  0  0  0  0
  -29.5633  -25.0933   18.1893 H   0  0  0  0  0  0
  -30.1058  -23.4268   18.3451 H   0  0  0  0  0  0
  -28.9262  -23.0755   21.9619 H   0  0  0  0  0  0
  -30.5228  -23.2809   21.3118 H   0  0  0  0  0  0
  -29.3472  -25.6794   21.5185 H   0  0  0  0  0  0
  -27.6602  -25.2995   21.4056 H   0  0  0  0  0  0
  -29.6636  -14.8807   22.1829 H   0  0  0  0  0  0
  -28.6435  -21.4005   19.9721 H   0  0  0  0  0  0
  1 25  1  0  0  0
  1 30  2  0  0  0
  1 83  1  0  0  0
  2  3  1  0  0  0
  2 25  1  0  0  0
  2 87  1  0  0  0
  2 88  1  0  0  0
  3  4  1  0  0  0
  3 89  1  0  0  0
  3 90  1  0  0  0
  4  5  1  0  0  0
  4 91  1  0  0  0
  4 92  1  0  0  0
  5  6  1  0  0  0
  5 26  1  0  0  0
  5 93  1  0  0  0
  6 25  1  0  0  0
  6 94  1  0  0  0
  6 95  1  0  0  0
  7  8  2  0  0  0
  7 26  1  0  0  0
  7 29  1  0  0  0
  8  9  1  0  0  0
  8 22  1  0  0  0
  9 10  1  0  0  0
  9 27  2  0  0  0
 10 11  2  0  0  0
 10 15  1  0  0  0
 11 12  1  0  0  0
 11 96  1  0  0  0
 12 13  2  0  0  0
 12 97  1  0  0  0
 13 14  1  0  0  0
 13 31  1  0  0  0
 14 15  2  0  0  0
 14 98  1  0  0  0
 15 99  1  0  0  0
 16 17  2  0  0  0
 16 21  1  0  0  0
 16 31  1  0  0  0
 17 18  1  0  0  0
 17100  1  0  0  0
 18 19  2  0  0  0
 18101  1  0  0  0
 19 20  1  0  0  0
 19 24  1  0  0  0
 20 21  2  0  0  0
 20102  1  0  0  0
 21 23  1  0  0  0
 22 28  1  0  0  0
 22 32  2  0  0  0
 26 27  1  0  0  0
 28103  1  0  0  0
 28104  1  0  0  0
 29105  1  0  0  0
 29106  1  0  0  0
 33 34  1  0  0  0
 33 66  1  0  0  0
 33 70  2  0  0  0
 34 36  1  0  0  0
 34 59  1  0  0  0
 34107  1  0  0  0
 35 44  2  0  0  0
 35 45  1  0  0  0
 35 68  1  0  0  0
 36 56  1  0  0  0
 36108  1  0  0  0
 37 39  1  0  0  0
 37 47  1  0  0  0
 37 66  1  0  0  0
 37109  1  0  0  0
 38 43  2  0  0  0
 38 46  1  0  0  0
 38 47  1  0  0  0
 39 64  1  0  0  0
 39 67  2  0  0  0
 40 52  1  0  0  0
 40 53  2  0  0  0
 40 58  1  0  0  0
 41110  1  0  0  0
 41111  1  0  0  0
 41112  1  0  0  0
 41 48  1  0  0  0
 42 43  1  0  0  0
 42 66  1  0  0  0
 42113  1  0  0  0
 42114  1  0  0  0
 43 44  1  0  0  0
 44115  1  0  0  0
 45 46  2  0  0  0
 45116  1  0  0  0
 46117  1  0  0  0
 47118  1  0  0  0
 47119  1  0  0  0
 48 56  1  0  0  0
 48 65  1  0  0  0
 48120  1  0  0  0
 49 50  1  0  0  0
 49 53  1  0  0  0
 49 64  1  0  0  0
 49121  1  0  0  0
 50 51  1  0  0  0
 50122  1  0  0  0
 50123  1  0  0  0
 51 52  1  0  0  0
 51124  1  0  0  0
 51125  1  0  0  0
 52126  1  0  0  0
 52127  1  0  0  0
 53 54  1  0  0  0
 54 55  2  0  0  0
 54128  1  0  0  0
 55 57  1  0  0  0
 55129  1  0  0  0
 56 69  2  0  0  0
 57 58  2  0  0  0
 57130  1  0  0  0
 58131  1  0  0  0
 59 60  1  0  0  0
 59 61  1  0  0  0
 59 62  1  0  0  0
 60132  1  0  0  0
 60133  1  0  0  0
 60134  1  0  0  0
 61135  1  0  0  0
 61136  1  0  0  0
 61137  1  0  0  0
 62138  1  0  0  0
 62139  1  0  0  0
 62140  1  0  0  0
 63 65  1  0  0  0
 63141  1  0  0  0
 63142  1  0  0  0
 63143  1  0  0  0
 64144  1  0  0  0
 65145  1  0  0  0
 68 81  1  0  0  0
 71 72  2  0  0  0
 71 75  1  0  0  0
 71146  1  0  0  0
 72 76  1  0  0  0
 72147  1  0  0  0
 73 74  1  0  0  0
 73 76  2  0  0  0
 73148  1  0  0  0
 74 75  2  0  0  0
 74 77  1  0  0  0
 75 78  1  0  0  0
 76 83  1  0  0  0
 77 84  1  0  0  0
 77 85  2  0  0  0
 78149  1  0  0  0
 78150  1  0  0  0
 78151  1  0  0  0
 79152  1  0  0  0
 79153  1  0  0  0
 79154  1  0  0  0
 79 82  1  0  0  0
 80 82  1  0  0  0
 80 84  1  0  0  0
 80155  1  0  0  0
 80156  1  0  0  0
 81 82  1  0  0  0
 81157  1  0  0  0
 81158  1  0  0  0
 82 86  1  0  0  0
 83159  1  0  0  0
 84160  1  0  0  0
M  ISO  4   1 100  68 101  81 101  83 100
M  END
> <chiral flag>
0

> <version>
0

> <s_m_source_file>
/data/baiqing/PycharmProjects/Reinvent-master-3.2/result/LINK_invent/BTK/process_docking_weight1_custom_product_contain_oxygen_bond_distance_aromatic_linkinvent_7_9_3/rearranged_h_0045.sdf

> <i_m_source_file_index>
84

> <r_mmod_Potential_Energy-OPLS-2005>
-5.31754493713379

> <r_mmod_Stretch_Energy-OPLS-2005>
59.2680435180664

> <r_mmod_Bend_Energy-OPLS-2005>
128.666244506836

> <r_mmod_Torsional_Energy-OPLS-2005>
308.370391845703

> <r_mmod_Improper_Torsional_Energy-OPLS-2005>
10.7034921646118

> <r_mmod_Van_der_Waal_Energy-OPLS-2005>
142.853393554688

> <r_mmod_Electrostatic_Energy-OPLS-2005>
-455.066284179688

> <r_mmod_Solvation_Energy-OPLS-2005>
-221.272827148438

> <b_mmod_Minimization_Converged-OPLS-2005>
0

> <r_mmod_RMS_Derivative-OPLS-2005>
3.3768048286438

$$$$
84
                    3D
 Structure written by MMmdl.
161170  0  0  1  0            999 V2000
  -29.9133  -16.7541   20.2788 C   0  0  0  0  0  0
  -30.2773  -13.9410   19.5140 C   0  0  0  0  0  0
  -29.5653  -13.0207   18.4297 C   0  0  0  0  0  0
  -28.2585  -12.4158   18.9369 C   0  0  0  0  0  0
  -27.5729  -13.4608   19.8251 C   0  0  2  0  0  0
  -28.4954  -14.2435   20.8487 C   0  0  0  0  0  0
  -25.2135  -13.8549   20.5992 C   0  0  0  0  0  0
  -24.1671  -13.0488   20.9357 C   0  0  0  0  0  0
  -24.6585  -11.7069   20.8741 C   0  0  0  0  0  0
  -23.9302  -10.4337   21.0324 C   0  0  0  0  0  0
  -24.3767   -9.4239   21.9140 C   0  0  0  0  0  0
  -23.6381   -8.2298   22.0744 C   0  0  0  0  0  0
  -22.4354   -8.0338   21.3544 C   0  0  0  0  0  0
  -22.0040   -9.0320   20.4629 C   0  0  0  0  0  0
  -22.7432  -10.2170   20.3009 C   0  0  0  0  0  0
  -21.6884   -6.0773   22.5277 C   0  0  0  0  0  0
  -21.4037   -6.5662   23.8215 C   0  0  0  0  0  0
  -21.3666   -5.6805   24.9170 C   0  0  0  0  0  0
  -21.6043   -4.3067   24.7214 C   0  0  0  0  0  0
  -21.8816   -3.8169   23.4332 C   0  0  0  0  0  0
  -21.9200   -4.6994   22.3393 C   0  0  0  0  0  0
  -22.7633  -13.5080   21.1940 C   0  0  0  0  0  0
  -22.1663   -4.2178   21.0970 F   0  0  0  0  0  0
  -21.5623   -3.4545   25.7722 F   0  0  0  0  0  0
  -29.4632  -15.2088   20.1258 N   0  0  0  0  0  0
  -26.2832  -13.0219   20.3568 N   0  0  0  0  0  0
  -25.9611  -11.7102   20.5688 N   0  0  0  0  0  0
  -22.0340  -12.8016   22.0487 N   0  0  0  0  0  0
  -25.3438  -15.2314   20.4390 N   0  0  0  0  0  0
  -31.1408  -16.3970   20.2185 O   0  0  0  0  0  0
  -21.6686   -6.8943   21.4251 O   0  0  0  0  0  0
  -22.3253  -14.5356   20.6770 O   0  0  0  0  0  0
  -24.7566  -31.7050   23.0872 C   0  0  0  0  0  0
  -25.9761  -32.4018   23.7710 C   0  0  1  0  0  0
  -27.2687  -25.9335   20.2720 C   0  0  0  0  0  0
  -25.6012  -33.7889   24.1509 N   0  0  0  0  0  0
  -23.6164  -30.2682   21.4606 C   0  0  2  0  0  0
  -25.0790  -28.4404   20.1426 C   0  0  0  0  0  0
  -22.8086  -29.3802   22.4523 C   0  0  0  0  0  0
  -18.0382  -28.1459   22.8415 C   0  0  0  0  0  0
  -24.1495  -36.6962   23.2675 C   0  0  0  0  0  0
  -26.2181  -30.1809   21.4674 C   0  0  0  0  0  0
  -26.2764  -28.6581   20.8311 C   0  0  0  0  0  0
  -27.3130  -27.4620   20.8420 C   0  0  0  0  0  0
  -26.0342  -26.1200   19.5180 C   0  0  0  0  0  0
  -25.0421  -27.2007   19.4606 C   0  0  0  0  0  0
  -23.9096  -29.4867   20.1324 C   0  0  0  0  0  0
  -25.4172  -36.2636   24.0230 C   0  0  1  0  0  0
  -20.6050  -28.3841   23.1012 C   0  0  2  0  0  0
  -20.6803  -26.9430   22.5423 C   0  0  0  0  0  0
  -19.5797  -26.6340   21.5225 C   0  0  0  0  0  0
  -18.1979  -26.7971   22.1603 C   0  0  0  0  0  0
  -19.1667  -28.8993   23.2669 C   0  0  0  0  0  0
  -18.9562  -30.1558   23.8744 C   0  0  0  0  0  0
  -17.6544  -30.6620   24.0533 C   0  0  0  0  0  0
  -25.9194  -34.9047   23.4771 C   0  0  0  0  0  0
  -16.5428  -29.9088   23.6370 C   0  0  0  0  0  0
  -16.7358  -28.6516   23.0379 C   0  0  0  0  0  0
  -26.4708  -31.6392   25.0643 C   0  0  0  0  0  0
  -25.3584  -31.3913   26.1121 C   0  0  0  0  0  0
  -27.0767  -30.2665   24.7077 C   0  0  0  0  0  0
  -27.6007  -32.4442   25.7497 C   0  0  0  0  0  0
  -27.5539  -37.1629   24.8466 C   0  0  0  0  0  0
  -21.4669  -29.2927   22.3250 N   0  0  0  0  0  0
  -26.4234  -37.3480   23.9412 N   0  0  0  0  0  0
  -24.8977  -30.7706   22.0569 N   0  0  0  0  0  0
  -23.4166  -28.7550   23.3229 O   0  0  0  0  0  0
  -28.1676  -24.3911   20.3359 O   0  0  0  0  0  0
  -26.5952  -34.8780   22.4471 O   0  0  0  0  0  0
  -23.6428  -32.0479   23.5334 O   0  0  0  0  0  0
  -30.9980  -23.2879   21.4835 C   0  0  0  0  0  0
  -31.9109  -23.8354   20.5323 C   0  0  0  0  0  0
  -32.5054  -21.5180   21.7056 C   0  0  0  0  0  0
  -31.1513  -21.9091   21.7942 C   0  0  0  0  0  0
  -32.8852  -21.6161   20.3615 C   0  0  0  0  0  0
  -32.7988  -22.9425   19.8620 C   0  0  0  0  0  0
  -29.9118  -21.2401   19.3133 C   0  0  0  0  0  0
  -28.9011  -19.0401   22.5019 C   0  0  0  0  0  0
  -27.6852  -20.4841   21.2988 C   0  0  0  0  0  0
  -31.0980  -19.0027   21.6276 C   0  0  0  0  0  0
  -28.3734  -22.2230   20.2032 C   0  0  2  0  0  0
  -32.4225  -20.4510   19.4844 C   0  0  0  0  0  0
  -29.9002  -20.8628   21.7281 C   0  0  0  0  0  0
  -31.0484  -20.1173   19.8928 N   0  0  0  0  0  0
  -29.3329  -18.5247   20.3427 N   0  0  0  0  0  0
  -30.0942  -21.6293   18.1561 O   0  0  0  0  0  0
  -33.5151  -23.3898   18.3571 Cl  0  0  0  0  0  0
  -31.1596  -14.3317   19.0061 H   0  0  0  0  0  0
  -30.7067  -13.3272   20.3085 H   0  0  0  0  0  0
  -30.2403  -12.2326   18.0935 H   0  0  0  0  0  0
  -29.3522  -13.6311   17.5511 H   0  0  0  0  0  0
  -28.4828  -11.5279   19.5295 H   0  0  0  0  0  0
  -27.6190  -12.0996   18.1117 H   0  0  0  0  0  0
  -27.2980  -14.2244   19.0950 H   0  0  0  0  0  0
  -28.9828  -13.5693   21.5556 H   0  0  0  0  0  0
  -27.8689  -14.8754   21.4784 H   0  0  0  0  0  0
  -25.2896   -9.5699   22.4744 H   0  0  0  0  0  0
  -24.0058   -7.4702   22.7493 H   0  0  0  0  0  0
  -21.0964   -8.8873   19.8940 H   0  0  0  0  0  0
  -22.3892  -10.9707   19.6116 H   0  0  0  0  0  0
  -21.2040   -7.6171   23.9729 H   0  0  0  0  0  0
  -21.1485   -6.0529   25.9075 H   0  0  0  0  0  0
  -22.0584   -2.7630   23.2822 H   0  0  0  0  0  0
  -22.4038  -11.9731   22.4905 H   0  0  0  0  0  0
  -21.0919  -13.0940   22.2659 H   0  0  0  0  0  0
  -24.5593  -15.8650   20.5460 H   0  0  0  0  0  0
  -26.1879  -15.6911   20.1238 H   0  0  0  0  0  0
  -26.7948  -32.4361   23.0507 H   0  0  0  0  0  0
  -24.9934  -33.8793   24.9515 H   0  0  0  0  0  0
  -22.9875  -31.1227   21.2020 H   0  0  0  0  0  0
  -23.3793  -35.9250   23.3215 H   0  0  0  0  0  0
  -24.3538  -36.8795   22.2115 H   0  0  0  0  0  0
  -23.7227  -37.6065   23.6897 H   0  0  0  0  0  0
  -26.4982  -30.8529   20.6552 H   0  0  0  0  0  0
  -27.0442  -30.2687   22.1585 H   0  0  0  0  0  0
  -28.1988  -27.6724   21.4247 H   0  0  0  0  0  0
  -25.7496  -25.2479   18.9466 H   0  0  0  0  0  0
  -24.1639  -27.0036   18.8614 H   0  0  0  0  0  0
  -24.1429  -30.2104   19.3508 H   0  0  0  0  0  0
  -23.0005  -28.9876   19.7936 H   0  0  0  0  0  0
  -25.1419  -36.1285   25.0714 H   0  0  0  0  0  0
  -21.0098  -28.3520   24.1154 H   0  0  0  0  0  0
  -20.5590  -26.2486   23.3751 H   0  0  0  0  0  0
  -21.6659  -26.7248   22.1294 H   0  0  0  0  0  0
  -19.6937  -25.6213   21.1348 H   0  0  0  0  0  0
  -19.6770  -27.3072   20.6698 H   0  0  0  0  0  0
  -17.4256  -26.6725   21.3996 H   0  0  0  0  0  0
  -18.0331  -26.0147   22.9025 H   0  0  0  0  0  0
  -19.8040  -30.7405   24.2053 H   0  0  0  0  0  0
  -17.5094  -31.6286   24.5166 H   0  0  0  0  0  0
  -15.5424  -30.2946   23.7781 H   0  0  0  0  0  0
  -15.8758  -28.0786   22.7181 H   0  0  0  0  0  0
  -24.5842  -30.7195   25.7396 H   0  0  0  0  0  0
  -24.8706  -32.3195   26.4105 H   0  0  0  0  0  0
  -25.7594  -30.9360   27.0187 H   0  0  0  0  0  0
  -26.3601  -29.6022   24.2244 H   0  0  0  0  0  0
  -27.4077  -29.7441   25.6064 H   0  0  0  0  0  0
  -27.9617  -30.3647   24.0792 H   0  0  0  0  0  0
  -27.2448  -33.3907   26.1581 H   0  0  0  0  0  0
  -28.4055  -32.6744   25.0504 H   0  0  0  0  0  0
  -28.0412  -31.8922   26.5810 H   0  0  0  0  0  0
  -28.2473  -37.9996   24.7519 H   0  0  0  0  0  0
  -28.1113  -36.2507   24.6284 H   0  0  0  0  0  0
  -27.2253  -37.1234   25.8867 H   0  0  0  0  0  0
  -21.0163  -29.8453   21.6090 H   0  0  0  0  0  0
  -25.9992  -38.2491   24.1445 H   0  0  0  0  0  0
  -30.0970  -23.8341   21.7190 H   0  0  0  0  0  0
  -31.7677  -24.8397   20.1603 H   0  0  0  0  0  0
  -33.1166  -22.2146   22.2671 H   0  0  0  0  0  0
  -28.4283  -18.0542   22.5417 H   0  0  0  0  0  0
  -28.9070  -19.3210   23.5591 H   0  0  0  0  0  0
  -26.8796  -20.8266   21.9490 H   0  0  0  0  0  0
  -27.1459  -19.8920   20.5592 H   0  0  0  0  0  0
  -31.6230  -18.0650   21.5916 H   0  0  0  0  0  0
  -31.7799  -19.3722   22.3919 H   0  0  0  0  0  0
  -27.6512  -22.1699   19.3887 H   0  0  0  0  0  0
  -33.0696  -19.5903   19.6512 H   0  0  0  0  0  0
  -32.4797  -20.6952   18.4231 H   0  0  0  0  0  0
  -29.2371  -21.5622   22.2620 H   0  0  0  0  0  0
  -30.2537  -20.7390   22.7723 H   0  0  0  0  0  0
  -28.3577  -18.5310   20.0799 H   0  0  0  0  0  0
  1 25  1  0  0  0
  1 30  2  0  0  0
  1 85  1  0  0  0
  2  3  1  0  0  0
  2 25  1  0  0  0
  2 88  1  0  0  0
  2 89  1  0  0  0
  3  4  1  0  0  0
  3 90  1  0  0  0
  3 91  1  0  0  0
  4  5  1  0  0  0
  4 92  1  0  0  0
  4 93  1  0  0  0
  5  6  1  0  0  0
  5 26  1  0  0  0
  5 94  1  0  0  0
  6 25  1  0  0  0
  6 95  1  0  0  0
  6 96  1  0  0  0
  7  8  2  0  0  0
  7 26  1  0  0  0
  7 29  1  0  0  0
  8  9  1  0  0  0
  8 22  1  0  0  0
  9 10  1  0  0  0
  9 27  2  0  0  0
 10 11  2  0  0  0
 10 15  1  0  0  0
 11 12  1  0  0  0
 11 97  1  0  0  0
 12 13  2  0  0  0
 12 98  1  0  0  0
 13 14  1  0  0  0
 13 31  1  0  0  0
 14 15  2  0  0  0
 14 99  1  0  0  0
 15100  1  0  0  0
 16 17  2  0  0  0
 16 21  1  0  0  0
 16 31  1  0  0  0
 17 18  1  0  0  0
 17101  1  0  0  0
 18 19  2  0  0  0
 18102  1  0  0  0
 19 20  1  0  0  0
 19 24  1  0  0  0
 20 21  2  0  0  0
 20103  1  0  0  0
 21 23  1  0  0  0
 22 28  1  0  0  0
 22 32  2  0  0  0
 26 27  1  0  0  0
 28104  1  0  0  0
 28105  1  0  0  0
 29106  1  0  0  0
 29107  1  0  0  0
 33 34  1  0  0  0
 33 66  1  0  0  0
 33 70  2  0  0  0
 34 36  1  0  0  0
 34 59  1  0  0  0
 34108  1  0  0  0
 35 44  2  0  0  0
 35 45  1  0  0  0
 35 68  1  0  0  0
 36 56  1  0  0  0
 36109  1  0  0  0
 37 39  1  0  0  0
 37 47  1  0  0  0
 37 66  1  0  0  0
 37110  1  0  0  0
 38 43  2  0  0  0
 38 46  1  0  0  0
 38 47  1  0  0  0
 39 64  1  0  0  0
 39 67  2  0  0  0
 40 52  1  0  0  0
 40 53  2  0  0  0
 40 58  1  0  0  0
 41111  1  0  0  0
 41112  1  0  0  0
 41113  1  0  0  0
 41 48  1  0  0  0
 42 43  1  0  0  0
 42 66  1  0  0  0
 42114  1  0  0  0
 42115  1  0  0  0
 43 44  1  0  0  0
 44116  1  0  0  0
 45 46  2  0  0  0
 45117  1  0  0  0
 46118  1  0  0  0
 47119  1  0  0  0
 47120  1  0  0  0
 48 56  1  0  0  0
 48 65  1  0  0  0
 48121  1  0  0  0
 49 50  1  0  0  0
 49 53  1  0  0  0
 49 64  1  0  0  0
 49122  1  0  0  0
 50 51  1  0  0  0
 50123  1  0  0  0
 50124  1  0  0  0
 51 52  1  0  0  0
 51125  1  0  0  0
 51126  1  0  0  0
 52127  1  0  0  0
 52128  1  0  0  0
 53 54  1  0  0  0
 54 55  2  0  0  0
 54129  1  0  0  0
 55 57  1  0  0  0
 55130  1  0  0  0
 56 69  2  0  0  0
 57 58  2  0  0  0
 57131  1  0  0  0
 58132  1  0  0  0
 59 60  1  0  0  0
 59 61  1  0  0  0
 59 62  1  0  0  0
 60133  1  0  0  0
 60134  1  0  0  0
 60135  1  0  0  0
 61136  1  0  0  0
 61137  1  0  0  0
 61138  1  0  0  0
 62139  1  0  0  0
 62140  1  0  0  0
 62141  1  0  0  0
 63 65  1  0  0  0
 63142  1  0  0  0
 63143  1  0  0  0
 63144  1  0  0  0
 64145  1  0  0  0
 65146  1  0  0  0
 68 81  1  0  0  0
 71 72  2  0  0  0
 71 74  1  0  0  0
 71147  1  0  0  0
 72 76  1  0  0  0
 72148  1  0  0  0
 73 74  2  0  0  0
 73 75  1  0  0  0
 73149  1  0  0  0
 74 83  1  0  0  0
 75 76  2  0  0  0
 75 82  1  0  0  0
 76 87  1  0  0  0
 77 81  1  0  0  0
 77 84  1  0  0  0
 77 86  2  0  0  0
 78 79  1  0  0  0
 78 80  1  0  0  0
 78150  1  0  0  0
 78151  1  0  0  0
 79 81  1  0  0  0
 79152  1  0  0  0
 79153  1  0  0  0
 80 84  1  0  0  0
 80154  1  0  0  0
 80155  1  0  0  0
 81156  1  0  0  0
 82 84  1  0  0  0
 82157  1  0  0  0
 82158  1  0  0  0
 83 85  1  0  0  0
 83159  1  0  0  0
 83160  1  0  0  0
 85161  1  0  0  0
M  ISO  4   1 100  68 101  81 101  85 100
M  END
> <chiral flag>
0

> <version>
0

> <s_m_source_file>
/data/baiqing/PycharmProjects/Reinvent-master-3.2/result/LINK_invent/BTK/process_docking_weight1_custom_product_contain_oxygen_bond_distance_aromatic_linkinvent_7_9_3/rearranged_h_0045.sdf

> <i_m_source_file_index>
85

> <r_mmod_Potential_Energy-OPLS-2005>
14195.4755859375

> <r_mmod_Stretch_Energy-OPLS-2005>
7678.6591796875

> <r_mmod_Bend_Energy-OPLS-2005>
1256.63500976562

> <r_mmod_Torsional_Energy-OPLS-2005>
557.688537597656

> <r_mmod_Improper_Torsional_Energy-OPLS-2005>
40.7043533325195

> <r_mmod_Van_der_Waal_Energy-OPLS-2005>
1944.22485351562

> <r_mmod_Electrostatic_Energy-OPLS-2005>
-349.113189697266

> <r_mmod_Solvation_Energy-OPLS-2005>
-239.088668823242

> <b_mmod_Minimization_Converged-OPLS-2005>
0

> <r_mmod_RMS_Derivative-OPLS-2005>
0.716240704059601

$$$$
