0
                    3D
 Structure written by MMmdl.
160169  0  0  1  0            999 V2000
  -30.5954  -14.6910   20.4713 C   0  0  0  0  0  0
  -30.4408  -12.4176   19.4521 C   0  0  0  0  0  0
  -29.5036  -12.4970   18.2249 C   0  0  0  0  0  0
  -28.0292  -12.3318   18.6440 C   0  0  0  0  0  0
  -27.6492  -13.2171   19.8600 C   0  0  2  0  0  0
  -28.6996  -13.0896   20.9889 C   0  0  0  0  0  0
  -25.2538  -13.8162   20.5678 C   0  0  0  0  0  0
  -24.1816  -13.0441   20.9183 C   0  0  0  0  0  0
  -24.6384  -11.6906   20.8757 C   0  0  0  0  0  0
  -23.9056  -10.4291   21.0407 C   0  0  0  0  0  0
  -24.3606   -9.4203   21.9184 C   0  0  0  0  0  0
  -23.6281   -8.2240   22.0746 C   0  0  0  0  0  0
  -22.4267   -8.0269   21.3533 C   0  0  0  0  0  0
  -21.9901   -9.0247   20.4646 C   0  0  0  0  0  0
  -22.7226  -10.2129   20.3056 C   0  0  0  0  0  0
  -21.6838   -6.0730   22.5280 C   0  0  0  0  0  0
  -21.4012   -6.5643   23.8215 C   0  0  0  0  0  0
  -21.3656   -5.6800   24.9184 C   0  0  0  0  0  0
  -21.6036   -4.3060   24.7232 C   0  0  0  0  0  0
  -21.8822   -3.8145   23.4360 C   0  0  0  0  0  0
  -21.9203   -4.6962   22.3416 C   0  0  0  0  0  0
  -22.7843  -13.5223   21.1855 C   0  0  0  0  0  0
  -22.1663   -4.2141   21.0989 F   0  0  0  0  0  0
  -21.5631   -3.4547   25.7750 F   0  0  0  0  0  0
  -30.0070  -13.4494   20.4196 N   0  0  0  0  0  0
  -26.2974  -12.9347   20.3336 N   0  0  0  0  0  0
  -25.9314  -11.6504   20.5776 N   0  0  0  0  0  0
  -22.0494  -12.8230   22.0419 N   0  0  0  0  0  0
  -25.4269  -15.1898   20.4054 N   0  0  0  0  0  0
  -31.7592  -14.8559   20.0901 O   0  0  0  0  0  0
  -21.6640   -6.8864   21.4230 O   0  0  0  0  0  0
  -22.3527  -14.5527   20.6689 O   0  0  0  0  0  0
  -24.6249  -31.8589   23.2035 C   0  0  0  0  0  0
  -25.9114  -32.4775   23.8340 C   0  0  1  0  0  0
  -27.2231  -27.3186   20.1220 C   0  0  0  0  0  0
  -25.5947  -33.8582   24.2284 N   0  0  0  0  0  0
  -23.4183  -30.4803   21.5473 C   0  0  2  0  0  0
  -24.8689  -28.9328   20.1145 C   0  0  0  0  0  0
  -22.7461  -29.4608   22.4965 C   0  0  0  0  0  0
  -18.0275  -28.1390   22.8489 C   0  0  0  0  0  0
  -24.1513  -36.7295   23.2640 C   0  0  0  0  0  0
  -25.9594  -30.7888   21.3747 C   0  0  0  0  0  0
  -26.0366  -29.4150   20.7214 C   0  0  0  0  0  0
  -27.2208  -28.6192   20.7164 C   0  0  0  0  0  0
  -26.0369  -26.8802   19.5032 C   0  0  0  0  0  0
  -24.8720  -27.6716   19.4966 C   0  0  0  0  0  0
  -23.6338  -29.8110   20.1639 C   0  0  0  0  0  0
  -25.4141  -36.3079   24.0313 C   0  0  1  0  0  0
  -20.5875  -28.3675   23.1314 C   0  0  2  0  0  0
  -20.6798  -26.9404   22.5432 C   0  0  0  0  0  0
  -19.5776  -26.6392   21.5231 C   0  0  0  0  0  0
  -18.1944  -26.7936   22.1628 C   0  0  0  0  0  0
  -19.1530  -28.8854   23.2897 C   0  0  0  0  0  0
  -18.9448  -30.1468   23.8894 C   0  0  0  0  0  0
  -17.6447  -30.6591   24.0561 C   0  0  0  0  0  0
  -25.9066  -34.9445   23.5089 C   0  0  0  0  0  0
  -16.5338  -29.9082   23.6339 C   0  0  0  0  0  0
  -16.7264  -28.6512   23.0338 C   0  0  0  0  0  0
  -26.4492  -31.6581   25.0706 C   0  0  0  0  0  0
  -25.3732  -31.3696   26.1421 C   0  0  0  0  0  0
  -27.0343  -30.3015   24.6153 C   0  0  0  0  0  0
  -27.6057  -32.4304   25.7476 C   0  0  0  0  0  0
  -27.5573  -37.1830   24.8468 C   0  0  0  0  0  0
  -21.4179  -29.3006   22.3703 N   0  0  0  0  0  0
  -26.4320  -37.3759   23.9362 N   0  0  0  0  0  0
  -24.6859  -31.0586   22.0998 N   0  0  0  0  0  0
  -23.4188  -28.8168   23.3049 O   0  0  0  0  0  0
  -28.3329  -26.4656   20.0938 O   0  0  0  0  0  0
  -26.5618  -34.8904   22.4646 O   0  0  0  0  0  0
  -23.5428  -32.1393   23.7388 O   0  0  0  0  0  0
  -29.9131  -19.5831   21.2086 C   0  0  0  0  0  0
  -29.1862  -19.0476   18.9908 C   0  0  0  0  0  0
  -30.0739  -18.1841   21.4840 C   0  0  0  0  0  0
  -29.3459  -17.6546   19.2612 C   0  0  0  0  0  0
  -29.4703  -20.0693   19.9468 C   0  0  0  0  0  0
  -29.8101  -17.1737   20.5113 C   0  0  0  0  0  0
  -28.6130  -24.0189   19.8411 C   0  0  0  0  0  0
  -28.2319  -25.1326   20.5634 C   0  0  0  0  0  0
  -29.0440  -24.1845   18.3932 C   0  0  0  0  0  0
  -28.5728  -22.5065   20.3375 C   0  0  0  0  0  0
  -30.1696  -23.2233   18.0132 C   0  0  0  0  0  0
  -29.7237  -21.7706   18.2101 C   0  0  0  0  0  0
  -27.7162  -25.0636   21.9894 C   0  0  0  0  0  0
  -29.4060  -21.4782   19.6111 N   0  0  0  0  0  0
  -29.7854  -15.7401   20.8390 N   0  0  0  0  0  0
  -31.4763  -12.5565   19.1376 H   0  0  0  0  0  0
  -30.3960  -11.4265   19.9070 H   0  0  0  0  0  0
  -29.7680  -11.7299   17.4955 H   0  0  0  0  0  0
  -29.6364  -13.4546   17.7186 H   0  0  0  0  0  0
  -27.8759  -11.2810   18.8955 H   0  0  0  0  0  0
  -27.3671  -12.5387   17.8008 H   0  0  0  0  0  0
  -27.6624  -14.2461   19.5017 H   0  0  0  0  0  0
  -28.7274  -12.0683   21.3748 H   0  0  0  0  0  0
  -28.4412  -13.7210   21.8397 H   0  0  0  0  0  0
  -25.2741   -9.5699   22.4762 H   0  0  0  0  0  0
  -24.0001   -7.4635   22.7463 H   0  0  0  0  0  0
  -21.0829   -8.8754   19.8947 H   0  0  0  0  0  0
  -22.3659  -10.9670   19.6173 H   0  0  0  0  0  0
  -21.1984   -7.6146   23.9712 H   0  0  0  0  0  0
  -21.1469   -6.0533   25.9085 H   0  0  0  0  0  0
  -22.0599   -2.7601   23.2871 H   0  0  0  0  0  0
  -22.4123  -11.9909   22.4840 H   0  0  0  0  0  0
  -21.1098  -13.1241   22.2605 H   0  0  0  0  0  0
  -24.6541  -15.8400   20.4889 H   0  0  0  0  0  0
  -26.2759  -15.6256   20.0666 H   0  0  0  0  0  0
  -26.7174  -32.5452   23.1082 H   0  0  0  0  0  0
  -25.0098  -33.9720   25.0428 H   0  0  0  0  0  0
  -22.7127  -31.3022   21.4085 H   0  0  0  0  0  0
  -23.3756  -35.9648   23.3321 H   0  0  0  0  0  0
  -24.3594  -36.8909   22.2049 H   0  0  0  0  0  0
  -23.7304  -37.6520   23.6660 H   0  0  0  0  0  0
  -26.0889  -31.5523   20.6059 H   0  0  0  0  0  0
  -26.8403  -30.8416   22.0028 H   0  0  0  0  0  0
  -28.1210  -28.9859   21.1928 H   0  0  0  0  0  0
  -26.0107  -25.9045   19.0375 H   0  0  0  0  0  0
  -23.9784  -27.2945   19.0203 H   0  0  0  0  0  0
  -23.7497  -30.5906   19.4094 H   0  0  0  0  0  0
  -22.7538  -29.2400   19.8617 H   0  0  0  0  0  0
  -25.1342  -36.1924   25.0811 H   0  0  0  0  0  0
  -20.9951  -28.3252   24.1444 H   0  0  0  0  0  0
  -20.5779  -26.2244   23.3604 H   0  0  0  0  0  0
  -21.6658  -26.7510   22.1179 H   0  0  0  0  0  0
  -19.6947  -25.6311   21.1257 H   0  0  0  0  0  0
  -19.6751  -27.3206   20.6768 H   0  0  0  0  0  0
  -17.4231  -26.6679   21.4014 H   0  0  0  0  0  0
  -18.0345  -26.0080   22.9031 H   0  0  0  0  0  0
  -19.7916  -30.7303   24.2253 H   0  0  0  0  0  0
  -17.4985  -31.6269   24.5163 H   0  0  0  0  0  0
  -15.5338  -30.2971   23.7678 H   0  0  0  0  0  0
  -15.8669  -28.0845   22.7023 H   0  0  0  0  0  0
  -24.5913  -30.7045   25.7719 H   0  0  0  0  0  0
  -24.8909  -32.2859   26.4846 H   0  0  0  0  0  0
  -25.8047  -30.8858   27.0191 H   0  0  0  0  0  0
  -26.2915  -29.6756   24.1191 H   0  0  0  0  0  0
  -27.4063  -29.7264   25.4640 H   0  0  0  0  0  0
  -27.8767  -30.4291   23.9348 H   0  0  0  0  0  0
  -27.2671  -33.3592   26.2055 H   0  0  0  0  0  0
  -28.3860  -32.6876   25.0310 H   0  0  0  0  0  0
  -28.0721  -31.8430   26.5387 H   0  0  0  0  0  0
  -28.2647  -38.0067   24.7419 H   0  0  0  0  0  0
  -28.1017  -36.2596   24.6441 H   0  0  0  0  0  0
  -27.2253  -37.1639   25.8863 H   0  0  0  0  0  0
  -20.9357  -29.8668   21.6870 H   0  0  0  0  0  0
  -26.0199  -38.2851   24.1301 H   0  0  0  0  0  0
  -30.1583  -20.2916   21.9875 H   0  0  0  0  0  0
  -28.8271  -19.3117   18.0060 H   0  0  0  0  0  0
  -30.3975  -17.8976   22.4752 H   0  0  0  0  0  0
  -29.0744  -16.9502   18.4862 H   0  0  0  0  0  0
  -29.3462  -25.2104   18.1876 H   0  0  0  0  0  0
  -28.1752  -23.9888   17.7633 H   0  0  0  0  0  0
  -27.5343  -22.1818   20.2492 H   0  0  0  0  0  0
  -28.8012  -22.4699   21.4035 H   0  0  0  0  0  0
  -31.0708  -23.4469   18.5882 H   0  0  0  0  0  0
  -30.4172  -23.3695   16.9599 H   0  0  0  0  0  0
  -30.5201  -21.1134   17.8541 H   0  0  0  0  0  0
  -28.8475  -21.5706   17.5895 H   0  0  0  0  0  0
  -28.2352  -24.2906   22.5553 H   0  0  0  0  0  0
  -26.6470  -24.8472   21.9998 H   0  0  0  0  0  0
  -27.8626  -26.0126   22.5083 H   0  0  0  0  0  0
  -28.8995  -15.4222   21.2016 H   0  0  0  0  0  0
  1 25  1  0  0  0
  1 30  2  0  0  0
  1 85  1  0  0  0
  2  3  1  0  0  0
  2 25  1  0  0  0
  2 86  1  0  0  0
  2 87  1  0  0  0
  3  4  1  0  0  0
  3 88  1  0  0  0
  3 89  1  0  0  0
  4  5  1  0  0  0
  4 90  1  0  0  0
  4 91  1  0  0  0
  5  6  1  0  0  0
  5 26  1  0  0  0
  5 92  1  0  0  0
  6 25  1  0  0  0
  6 93  1  0  0  0
  6 94  1  0  0  0
  7  8  2  0  0  0
  7 26  1  0  0  0
  7 29  1  0  0  0
  8  9  1  0  0  0
  8 22  1  0  0  0
  9 10  1  0  0  0
  9 27  2  0  0  0
 10 11  2  0  0  0
 10 15  1  0  0  0
 11 12  1  0  0  0
 11 95  1  0  0  0
 12 13  2  0  0  0
 12 96  1  0  0  0
 13 14  1  0  0  0
 13 31  1  0  0  0
 14 15  2  0  0  0
 14 97  1  0  0  0
 15 98  1  0  0  0
 16 17  2  0  0  0
 16 21  1  0  0  0
 16 31  1  0  0  0
 17 18  1  0  0  0
 17 99  1  0  0  0
 18 19  2  0  0  0
 18100  1  0  0  0
 19 20  1  0  0  0
 19 24  1  0  0  0
 20 21  2  0  0  0
 20101  1  0  0  0
 21 23  1  0  0  0
 22 28  1  0  0  0
 22 32  2  0  0  0
 26 27  1  0  0  0
 28102  1  0  0  0
 28103  1  0  0  0
 29104  1  0  0  0
 29105  1  0  0  0
 33 34  1  0  0  0
 33 66  1  0  0  0
 33 70  2  0  0  0
 34 36  1  0  0  0
 34 59  1  0  0  0
 34106  1  0  0  0
 35 44  2  0  0  0
 35 45  1  0  0  0
 35 68  1  0  0  0
 36 56  1  0  0  0
 36107  1  0  0  0
 37 39  1  0  0  0
 37 47  1  0  0  0
 37 66  1  0  0  0
 37108  1  0  0  0
 38 43  2  0  0  0
 38 46  1  0  0  0
 38 47  1  0  0  0
 39 64  1  0  0  0
 39 67  2  0  0  0
 40 52  1  0  0  0
 40 53  2  0  0  0
 40 58  1  0  0  0
 41109  1  0  0  0
 41110  1  0  0  0
 41111  1  0  0  0
 41 48  1  0  0  0
 42 43  1  0  0  0
 42 66  1  0  0  0
 42112  1  0  0  0
 42113  1  0  0  0
 43 44  1  0  0  0
 44114  1  0  0  0
 45 46  2  0  0  0
 45115  1  0  0  0
 46116  1  0  0  0
 47117  1  0  0  0
 47118  1  0  0  0
 48 56  1  0  0  0
 48 65  1  0  0  0
 48119  1  0  0  0
 49 50  1  0  0  0
 49 53  1  0  0  0
 49 64  1  0  0  0
 49120  1  0  0  0
 50 51  1  0  0  0
 50121  1  0  0  0
 50122  1  0  0  0
 51 52  1  0  0  0
 51123  1  0  0  0
 51124  1  0  0  0
 52125  1  0  0  0
 52126  1  0  0  0
 53 54  1  0  0  0
 54 55  2  0  0  0
 54127  1  0  0  0
 55 57  1  0  0  0
 55128  1  0  0  0
 56 69  2  0  0  0
 57 58  2  0  0  0
 57129  1  0  0  0
 58130  1  0  0  0
 59 60  1  0  0  0
 59 61  1  0  0  0
 59 62  1  0  0  0
 60131  1  0  0  0
 60132  1  0  0  0
 60133  1  0  0  0
 61134  1  0  0  0
 61135  1  0  0  0
 61136  1  0  0  0
 62137  1  0  0  0
 62138  1  0  0  0
 62139  1  0  0  0
 63 65  1  0  0  0
 63140  1  0  0  0
 63141  1  0  0  0
 63142  1  0  0  0
 64143  1  0  0  0
 65144  1  0  0  0
 68 78  1  0  0  0
 71 73  2  0  0  0
 71 75  1  0  0  0
 71145  1  0  0  0
 72 74  1  0  0  0
 72 75  2  0  0  0
 72146  1  0  0  0
 73 76  1  0  0  0
 73147  1  0  0  0
 74 76  2  0  0  0
 74148  1  0  0  0
 75 84  1  0  0  0
 76 85  1  0  0  0
 77 78  2  0  0  0
 77 79  1  0  0  0
 77 80  1  0  0  0
 78 83  1  0  0  0
 79 81  1  0  0  0
 79149  1  0  0  0
 79150  1  0  0  0
 80 84  1  0  0  0
 80151  1  0  0  0
 80152  1  0  0  0
 81 82  1  0  0  0
 81153  1  0  0  0
 81154  1  0  0  0
 82 84  1  0  0  0
 82155  1  0  0  0
 82156  1  0  0  0
 83157  1  0  0  0
 83158  1  0  0  0
 83159  1  0  0  0
 85160  1  0  0  0
M  ISO  4   1 100  68 101  78 101  85 100
M  END
> <chiral flag>
0

> <version>
0

> <s_m_source_file>
/data/baiqing/PycharmProjects/Reinvent-master-3.2/result/LINK_invent/BTK/process_docking_weight1_custom_product_contain_oxygen_bond_distance_aromatic_linkinvent_7_9_3/rearranged_h_0079.sdf

> <i_m_source_file_index>
1

> <r_mmod_Potential_Energy-OPLS-2005>
115.709144592285

> <r_mmod_Stretch_Energy-OPLS-2005>
88.4112548828125

> <r_mmod_Bend_Energy-OPLS-2005>
138.355651855469

> <r_mmod_Torsional_Energy-OPLS-2005>
277.162933349609

> <r_mmod_Improper_Torsional_Energy-OPLS-2005>
7.00419473648071

> <r_mmod_Van_der_Waal_Energy-OPLS-2005>
144.091369628906

> <r_mmod_Electrostatic_Energy-OPLS-2005>
-378.955810546875

> <r_mmod_Solvation_Energy-OPLS-2005>
-217.489654541016

> <b_mmod_Minimization_Converged-OPLS-2005>
0

> <r_mmod_RMS_Derivative-OPLS-2005>
3.60974907875061

$$$$
1
                    3D
 Structure written by MMmdl.
172182  0  0  1  0            999 V2000
  -30.8246  -14.2883   20.6926 C   0  0  0  0  0  0
  -30.4096  -12.2636   19.3668 C   0  0  0  0  0  0
  -29.4736  -12.5225   18.1754 C   0  0  0  0  0  0
  -28.0034  -12.3755   18.6005 C   0  0  0  0  0  0
  -27.6693  -13.1985   19.8728 C   0  0  2  0  0  0
  -28.7115  -12.9417   20.9857 C   0  0  0  0  0  0
  -25.2649  -13.8159   20.5656 C   0  0  0  0  0  0
  -24.1867  -13.0436   20.9177 C   0  0  0  0  0  0
  -24.6417  -11.6917   20.8744 C   0  0  0  0  0  0
  -23.9080  -10.4308   21.0421 C   0  0  0  0  0  0
  -24.3625   -9.4213   21.9192 C   0  0  0  0  0  0
  -23.6296   -8.2249   22.0760 C   0  0  0  0  0  0
  -22.4279   -8.0305   21.3544 C   0  0  0  0  0  0
  -21.9922   -9.0289   20.4651 C   0  0  0  0  0  0
  -22.7262  -10.2162   20.3066 C   0  0  0  0  0  0
  -21.6856   -6.0761   22.5280 C   0  0  0  0  0  0
  -21.4007   -6.5644   23.8219 C   0  0  0  0  0  0
  -21.3664   -5.6788   24.9178 C   0  0  0  0  0  0
  -21.6040   -4.3054   24.7213 C   0  0  0  0  0  0
  -21.8820   -3.8155   23.4336 C   0  0  0  0  0  0
  -21.9187   -4.6986   22.3397 C   0  0  0  0  0  0
  -22.7886  -13.5268   21.1817 C   0  0  0  0  0  0
  -22.1652   -4.2171   21.0974 F   0  0  0  0  0  0
  -21.5643   -3.4536   25.7727 F   0  0  0  0  0  0
  -30.0608  -13.1972   20.4441 N   0  0  0  0  0  0
  -26.3082  -12.9306   20.3367 N   0  0  0  0  0  0
  -25.9336  -11.6478   20.5761 N   0  0  0  0  0  0
  -22.0496  -12.8278   22.0381 N   0  0  0  0  0  0
  -25.4326  -15.1882   20.4071 N   0  0  0  0  0  0
  -31.7631  -14.6479   19.9739 O   0  0  0  0  0  0
  -21.6638   -6.8912   21.4243 O   0  0  0  0  0  0
  -22.3573  -14.5570   20.6682 O   0  0  0  0  0  0
  -24.6127  -31.8644   23.2093 C   0  0  0  0  0  0
  -25.9023  -32.4831   23.8351 C   0  0  1  0  0  0
  -27.2455  -27.4881   20.0925 C   0  0  0  0  0  0
  -25.5853  -33.8604   24.2275 N   0  0  0  0  0  0
  -23.3989  -30.4863   21.5504 C   0  0  2  0  0  0
  -24.8443  -28.9601   20.1105 C   0  0  0  0  0  0
  -22.7405  -29.4563   22.4968 C   0  0  0  0  0  0
  -18.0257  -28.1397   22.8532 C   0  0  0  0  0  0
  -24.1477  -36.7351   23.2626 C   0  0  0  0  0  0
  -25.9152  -30.8560   21.3428 C   0  0  0  0  0  0
  -25.9999  -29.4933   20.6932 C   0  0  0  0  0  0
  -27.2047  -28.7657   20.6794 C   0  0  0  0  0  0
  -26.0812  -26.9585   19.4954 C   0  0  0  0  0  0
  -24.8760  -27.6905   19.5045 C   0  0  0  0  0  0
  -23.6031  -29.8170   20.1636 C   0  0  0  0  0  0
  -25.4096  -36.3120   24.0320 C   0  0  1  0  0  0
  -20.5861  -28.3635   23.1310 C   0  0  2  0  0  0
  -20.6797  -26.9415   22.5303 C   0  0  0  0  0  0
  -19.5728  -26.6468   21.5163 C   0  0  0  0  0  0
  -18.1930  -26.7919   22.1688 C   0  0  0  0  0  0
  -19.1520  -28.8833   23.2933 C   0  0  0  0  0  0
  -18.9461  -30.1471   23.8893 C   0  0  0  0  0  0
  -17.6473  -30.6619   24.0582 C   0  0  0  0  0  0
  -25.9008  -34.9475   23.5109 C   0  0  0  0  0  0
  -16.5358  -29.9133   23.6370 C   0  0  0  0  0  0
  -16.7249  -28.6564   23.0366 C   0  0  0  0  0  0
  -26.4469  -31.6590   25.0671 C   0  0  0  0  0  0
  -25.3754  -31.3694   26.1458 C   0  0  0  0  0  0
  -27.0323  -30.3051   24.6047 C   0  0  0  0  0  0
  -27.6068  -32.4296   25.7406 C   0  0  0  0  0  0
  -27.5594  -37.1829   24.8436 C   0  0  0  0  0  0
  -21.4109  -29.3052   22.3761 N   0  0  0  0  0  0
  -26.4290  -37.3804   23.9391 N   0  0  0  0  0  0
  -24.6611  -31.0806   22.0942 N   0  0  0  0  0  0
  -23.4188  -28.7969   23.2908 O   0  0  0  0  0  0
  -28.4072  -26.7587   20.1390 O   0  0  0  0  0  0
  -26.5593  -34.8911   22.4690 O   0  0  0  0  0  0
  -23.5342  -32.1320   23.7554 O   0  0  0  0  0  0
  -31.7794  -23.6854   23.6398 C   0  0  0  0  0  0
  -30.5305  -24.2718   23.9005 C   0  0  0  0  0  0
  -29.4483  -22.1320   23.4951 C   0  0  0  0  0  0
  -33.2860  -17.4257   23.8353 C   0  0  0  0  0  0
  -31.3695  -17.1280   22.3652 C   0  0  0  0  0  0
  -32.5322  -15.1831   23.2837 C   0  0  0  0  0  0
  -31.8726  -22.3180   23.3082 C   0  0  0  0  0  0
  -30.7098  -21.5155   23.2901 C   0  0  0  0  0  0
  -32.2225  -18.0017   23.0845 C   0  0  0  0  0  0
  -29.3502  -23.5142   23.7620 C   0  0  0  0  0  0
  -33.4588  -16.0305   23.9154 C   0  0  0  0  0  0
  -31.4966  -15.7322   22.5035 C   0  0  0  0  0  0
  -33.1540  -21.6971   22.9965 C   0  0  0  0  0  0
  -30.7974  -20.0199   23.0719 C   0  0  0  0  0  0
  -34.2105  -22.3780   22.5183 C   0  0  0  0  0  0
  -27.5221  -25.1827   23.4388 C   0  0  0  0  0  0
  -33.2409  -20.2391   23.3830 C   0  0  0  0  0  0
  -28.3103  -26.1391   22.5341 C   0  0  0  0  0  0
  -28.3451  -25.6659   21.0584 C   0  0  0  0  0  0
  -32.0390  -19.4354   23.0831 N   0  0  0  0  0  0
  -34.5456  -15.5024   24.6146 N   0  0  0  0  0  0
  -28.0656  -24.0742   23.9718 N   0  0  0  0  0  0
  -30.5809  -14.8739   21.8651 N   0  0  0  0  0  0
  -29.7374  -19.3970   22.9341 O   0  0  0  0  0  0
  -26.3342  -25.4267   23.6472 O   0  0  0  0  0  0
  -31.4520  -12.3544   19.0539 H   0  0  0  0  0  0
  -30.3016  -11.2378   19.7241 H   0  0  0  0  0  0
  -29.7045  -11.8330   17.3622 H   0  0  0  0  0  0
  -29.6442  -13.5262   17.7842 H   0  0  0  0  0  0
  -27.8108  -11.3161   18.7754 H   0  0  0  0  0  0
  -27.3494  -12.6688   17.7798 H   0  0  0  0  0  0
  -27.7314  -14.2525   19.5996 H   0  0  0  0  0  0
  -28.6578  -11.9046   21.3188 H   0  0  0  0  0  0
  -28.4688  -13.5456   21.8606 H   0  0  0  0  0  0
  -25.2784   -9.5680   22.4756 H   0  0  0  0  0  0
  -24.0016   -7.4634   22.7462 H   0  0  0  0  0  0
  -21.0865   -8.8823   19.8938 H   0  0  0  0  0  0
  -22.3750  -10.9707   19.6171 H   0  0  0  0  0  0
  -21.1985   -7.6147   23.9735 H   0  0  0  0  0  0
  -21.1487   -6.0514   25.9088 H   0  0  0  0  0  0
  -22.0592   -2.7621   23.2824 H   0  0  0  0  0  0
  -22.4101  -11.9961   22.4794 H   0  0  0  0  0  0
  -21.1110  -13.1311   22.2542 H   0  0  0  0  0  0
  -24.6636  -15.8425   20.5160 H   0  0  0  0  0  0
  -26.2910  -15.6316   20.1005 H   0  0  0  0  0  0
  -26.7113  -32.5578   23.1126 H   0  0  0  0  0  0
  -25.0013  -33.9716   25.0450 H   0  0  0  0  0  0
  -22.6889  -31.3038   21.4076 H   0  0  0  0  0  0
  -23.3716  -35.9703   23.3288 H   0  0  0  0  0  0
  -24.3551  -36.9002   22.2040 H   0  0  0  0  0  0
  -23.7246  -37.6558   23.6662 H   0  0  0  0  0  0
  -26.0067  -31.6197   20.5675 H   0  0  0  0  0  0
  -26.8030  -30.9126   21.9594 H   0  0  0  0  0  0
  -28.0979  -29.1712   21.1348 H   0  0  0  0  0  0
  -26.1149  -25.9812   19.0354 H   0  0  0  0  0  0
  -23.9863  -27.2874   19.0379 H   0  0  0  0  0  0
  -23.7115  -30.5859   19.3959 H   0  0  0  0  0  0
  -22.7246  -29.2334   19.8778 H   0  0  0  0  0  0
  -25.1291  -36.1945   25.0807 H   0  0  0  0  0  0
  -21.0007  -28.3195   24.1425 H   0  0  0  0  0  0
  -20.5799  -26.2251   23.3481 H   0  0  0  0  0  0
  -21.6630  -26.7539   22.0971 H   0  0  0  0  0  0
  -19.6901  -25.6425   21.1089 H   0  0  0  0  0  0
  -19.6635  -27.3379   20.6775 H   0  0  0  0  0  0
  -17.4177  -26.6544   21.4144 H   0  0  0  0  0  0
  -18.0461  -26.0036   22.9084 H   0  0  0  0  0  0
  -19.7929  -30.7318   24.2218 H   0  0  0  0  0  0
  -17.4999  -31.6294   24.5171 H   0  0  0  0  0  0
  -15.5359  -30.3060   23.7685 H   0  0  0  0  0  0
  -15.8593  -28.0967   22.7072 H   0  0  0  0  0  0
  -24.5903  -30.7061   25.7802 H   0  0  0  0  0  0
  -24.8989  -32.2872   26.4956 H   0  0  0  0  0  0
  -25.8168  -30.8832   27.0192 H   0  0  0  0  0  0
  -26.2881  -29.6725   24.1243 H   0  0  0  0  0  0
  -27.4220  -29.7379   25.4511 H   0  0  0  0  0  0
  -27.8623  -30.4316   23.9095 H   0  0  0  0  0  0
  -27.2714  -33.3537   26.2107 H   0  0  0  0  0  0
  -28.3857  -32.6954   25.0242 H   0  0  0  0  0  0
  -28.0788  -31.8326   26.5243 H   0  0  0  0  0  0
  -28.2650  -38.0103   24.7567 H   0  0  0  0  0  0
  -28.1062  -36.2684   24.6179 H   0  0  0  0  0  0
  -27.2330  -37.1426   25.8834 H   0  0  0  0  0  0
  -20.9241  -29.8890   21.7092 H   0  0  0  0  0  0
  -26.0201  -38.2860   24.1461 H   0  0  0  0  0  0
  -32.6731  -24.2860   23.7250 H   0  0  0  0  0  0
  -30.5051  -25.3037   24.2132 H   0  0  0  0  0  0
  -28.5442  -21.5408   23.4458 H   0  0  0  0  0  0
  -33.9820  -18.0480   24.3769 H   0  0  0  0  0  0
  -30.5948  -17.5121   21.7148 H   0  0  0  0  0  0
  -32.6232  -14.1099   23.3558 H   0  0  0  0  0  0
  -34.1523  -23.4269   22.2631 H   0  0  0  0  0  0
  -35.1595  -21.8871   22.3663 H   0  0  0  0  0  0
  -33.3702  -20.2039   24.4629 H   0  0  0  0  0  0
  -34.1265  -19.7959   22.9287 H   0  0  0  0  0  0
  -29.3019  -26.3855   22.8984 H   0  0  0  0  0  0
  -27.7715  -27.0803   22.6135 H   0  0  0  0  0  0
  -27.4797  -25.0445   20.8213 H   0  0  0  0  0  0
  -29.2211  -25.0354   20.9106 H   0  0  0  0  0  0
  -35.3452  -16.1175   24.7473 H   0  0  0  0  0  0
  -34.8372  -14.5634   24.3599 H   0  0  0  0  0  0
  -27.3979  -23.4856   24.4519 H   0  0  0  0  0  0
  -29.8660  -14.4440   22.4317 H   0  0  0  0  0  0
  1 25  1  0  0  0
  1 30  2  0  0  0
  1 93  1  0  0  0
  2  3  1  0  0  0
  2 25  1  0  0  0
  2 96  1  0  0  0
  2 97  1  0  0  0
  3  4  1  0  0  0
  3 98  1  0  0  0
  3 99  1  0  0  0
  4  5  1  0  0  0
  4100  1  0  0  0
  4101  1  0  0  0
  5  6  1  0  0  0
  5 26  1  0  0  0
  5102  1  0  0  0
  6 25  1  0  0  0
  6103  1  0  0  0
  6104  1  0  0  0
  7  8  2  0  0  0
  7 26  1  0  0  0
  7 29  1  0  0  0
  8  9  1  0  0  0
  8 22  1  0  0  0
  9 10  1  0  0  0
  9 27  2  0  0  0
 10 11  2  0  0  0
 10 15  1  0  0  0
 11 12  1  0  0  0
 11105  1  0  0  0
 12 13  2  0  0  0
 12106  1  0  0  0
 13 14  1  0  0  0
 13 31  1  0  0  0
 14 15  2  0  0  0
 14107  1  0  0  0
 15108  1  0  0  0
 16 17  2  0  0  0
 16 21  1  0  0  0
 16 31  1  0  0  0
 17 18  1  0  0  0
 17109  1  0  0  0
 18 19  2  0  0  0
 18110  1  0  0  0
 19 20  1  0  0  0
 19 24  1  0  0  0
 20 21  2  0  0  0
 20111  1  0  0  0
 21 23  1  0  0  0
 22 28  1  0  0  0
 22 32  2  0  0  0
 26 27  1  0  0  0
 28112  1  0  0  0
 28113  1  0  0  0
 29114  1  0  0  0
 29115  1  0  0  0
 33 34  1  0  0  0
 33 66  1  0  0  0
 33 70  2  0  0  0
 34 36  1  0  0  0
 34 59  1  0  0  0
 34116  1  0  0  0
 35 44  2  0  0  0
 35 45  1  0  0  0
 35 68  1  0  0  0
 36 56  1  0  0  0
 36117  1  0  0  0
 37 39  1  0  0  0
 37 47  1  0  0  0
 37 66  1  0  0  0
 37118  1  0  0  0
 38 43  2  0  0  0
 38 46  1  0  0  0
 38 47  1  0  0  0
 39 64  1  0  0  0
 39 67  2  0  0  0
 40 52  1  0  0  0
 40 53  2  0  0  0
 40 58  1  0  0  0
 41119  1  0  0  0
 41120  1  0  0  0
 41121  1  0  0  0
 41 48  1  0  0  0
 42 43  1  0  0  0
 42 66  1  0  0  0
 42122  1  0  0  0
 42123  1  0  0  0
 43 44  1  0  0  0
 44124  1  0  0  0
 45 46  2  0  0  0
 45125  1  0  0  0
 46126  1  0  0  0
 47127  1  0  0  0
 47128  1  0  0  0
 48 56  1  0  0  0
 48 65  1  0  0  0
 48129  1  0  0  0
 49 50  1  0  0  0
 49 53  1  0  0  0
 49 64  1  0  0  0
 49130  1  0  0  0
 50 51  1  0  0  0
 50131  1  0  0  0
 50132  1  0  0  0
 51 52  1  0  0  0
 51133  1  0  0  0
 51134  1  0  0  0
 52135  1  0  0  0
 52136  1  0  0  0
 53 54  1  0  0  0
 54 55  2  0  0  0
 54137  1  0  0  0
 55 57  1  0  0  0
 55138  1  0  0  0
 56 69  2  0  0  0
 57 58  2  0  0  0
 57139  1  0  0  0
 58140  1  0  0  0
 59 60  1  0  0  0
 59 61  1  0  0  0
 59 62  1  0  0  0
 60141  1  0  0  0
 60142  1  0  0  0
 60143  1  0  0  0
 61144  1  0  0  0
 61145  1  0  0  0
 61146  1  0  0  0
 62147  1  0  0  0
 62148  1  0  0  0
 62149  1  0  0  0
 63 65  1  0  0  0
 63150  1  0  0  0
 63151  1  0  0  0
 63152  1  0  0  0
 64153  1  0  0  0
 65154  1  0  0  0
 68 89  1  0  0  0
 71 72  2  0  0  0
 71 77  1  0  0  0
 71155  1  0  0  0
 72 80  1  0  0  0
 72156  1  0  0  0
 73 78  1  0  0  0
 73 80  2  0  0  0
 73157  1  0  0  0
 74 79  2  0  0  0
 74 81  1  0  0  0
 74158  1  0  0  0
 75 79  1  0  0  0
 75 82  2  0  0  0
 75159  1  0  0  0
 76 81  2  0  0  0
 76 82  1  0  0  0
 76160  1  0  0  0
 77 78  2  0  0  0
 77 83  1  0  0  0
 78 84  1  0  0  0
 79 90  1  0  0  0
 80 92  1  0  0  0
 81 91  1  0  0  0
 82 93  1  0  0  0
 83 85  2  0  0  0
 83 87  1  0  0  0
 84 90  1  0  0  0
 84 94  2  0  0  0
 85161  1  0  0  0
 85162  1  0  0  0
 86 88  1  0  0  0
 86 92  1  0  0  0
 86 95  2  0  0  0
 87 90  1  0  0  0
 87163  1  0  0  0
 87164  1  0  0  0
 88 89  1  0  0  0
 88165  1  0  0  0
 88166  1  0  0  0
 89167  1  0  0  0
 89168  1  0  0  0
 91169  1  0  0  0
 91170  1  0  0  0
 92171  1  0  0  0
 93172  1  0  0  0
M  ISO  4   1 100  68 101  89 101  93 100
M  END
> <chiral flag>
0

> <version>
0

> <s_m_source_file>
/data/baiqing/PycharmProjects/Reinvent-master-3.2/result/LINK_invent/BTK/process_docking_weight1_custom_product_contain_oxygen_bond_distance_aromatic_linkinvent_7_9_3/rearranged_h_0079.sdf

> <i_m_source_file_index>
2

> <r_mmod_Potential_Energy-OPLS-2005>
87.4831619262695

> <r_mmod_Stretch_Energy-OPLS-2005>
41.4840202331543

> <r_mmod_Bend_Energy-OPLS-2005>
107.880897521973

> <r_mmod_Torsional_Energy-OPLS-2005>
348.737670898438

> <r_mmod_Improper_Torsional_Energy-OPLS-2005>
9.48817920684814

> <r_mmod_Van_der_Waal_Energy-OPLS-2005>
210.360549926758

> <r_mmod_Electrostatic_Energy-OPLS-2005>
-386.901763916016

> <r_mmod_Solvation_Energy-OPLS-2005>
-252.884979248047

> <b_mmod_Minimization_Converged-OPLS-2005>
0

> <r_mmod_RMS_Derivative-OPLS-2005>
6.07739734649658

$$$$
2
                    3D
 Structure written by MMmdl.
156165  0  0  1  0            999 V2000
  -30.6637  -14.6308   20.4953 C   0  0  0  0  0  0
  -30.4242  -12.3915   19.4458 C   0  0  0  0  0  0
  -29.4984  -12.4974   18.2167 C   0  0  0  0  0  0
  -28.0241  -12.3353   18.6356 C   0  0  0  0  0  0
  -27.6447  -13.2219   19.8522 C   0  0  2  0  0  0
  -28.6919  -13.1164   20.9823 C   0  0  0  0  0  0
  -25.2525  -13.8183   20.5683 C   0  0  0  0  0  0
  -24.1813  -13.0431   20.9202 C   0  0  0  0  0  0
  -24.6398  -11.6910   20.8744 C   0  0  0  0  0  0
  -23.9076  -10.4288   21.0400 C   0  0  0  0  0  0
  -24.3629   -9.4206   21.9178 C   0  0  0  0  0  0
  -23.6304   -8.2242   22.0747 C   0  0  0  0  0  0
  -22.4282   -8.0281   21.3542 C   0  0  0  0  0  0
  -21.9921   -9.0252   20.4637 C   0  0  0  0  0  0
  -22.7249  -10.2132   20.3049 C   0  0  0  0  0  0
  -21.6860   -6.0734   22.5278 C   0  0  0  0  0  0
  -21.4011   -6.5638   23.8208 C   0  0  0  0  0  0
  -21.3662   -5.6796   24.9176 C   0  0  0  0  0  0
  -21.6048   -4.3057   24.7228 C   0  0  0  0  0  0
  -21.8819   -3.8145   23.4348 C   0  0  0  0  0  0
  -21.9189   -4.6961   22.3402 C   0  0  0  0  0  0
  -22.7835  -13.5220   21.1880 C   0  0  0  0  0  0
  -22.1661   -4.2149   21.0981 F   0  0  0  0  0  0
  -21.5645   -3.4538   25.7740 F   0  0  0  0  0  0
  -30.0000  -13.4371   20.3978 N   0  0  0  0  0  0
  -26.2950  -12.9377   20.3282 N   0  0  0  0  0  0
  -25.9323  -11.6527   20.5746 N   0  0  0  0  0  0
  -22.0481  -12.8191   22.0420 N   0  0  0  0  0  0
  -25.4179  -15.1914   20.4105 N   0  0  0  0  0  0
  -31.8631  -14.6927   20.2111 O   0  0  0  0  0  0
  -21.6645   -6.8877   21.4238 O   0  0  0  0  0  0
  -22.3509  -14.5521   20.6735 O   0  0  0  0  0  0
  -24.6213  -31.8633   23.2046 C   0  0  0  0  0  0
  -25.9079  -32.4799   23.8364 C   0  0  1  0  0  0
  -27.2205  -27.3541   20.1268 C   0  0  0  0  0  0
  -25.5902  -33.8598   24.2292 N   0  0  0  0  0  0
  -23.4139  -30.4866   21.5455 C   0  0  2  0  0  0
  -24.8633  -28.9423   20.1154 C   0  0  0  0  0  0
  -22.7440  -29.4645   22.4944 C   0  0  0  0  0  0
  -18.0288  -28.1360   22.8506 C   0  0  0  0  0  0
  -24.1490  -36.7310   23.2642 C   0  0  0  0  0  0
  -25.9517  -30.8043   21.3715 C   0  0  0  0  0  0
  -26.0280  -29.4303   20.7248 C   0  0  0  0  0  0
  -27.2134  -28.6430   20.7312 C   0  0  0  0  0  0
  -26.0444  -26.9037   19.4998 C   0  0  0  0  0  0
  -24.8699  -27.6800   19.4979 C   0  0  0  0  0  0
  -23.6299  -29.8198   20.1611 C   0  0  0  0  0  0
  -25.4113  -36.3095   24.0334 C   0  0  1  0  0  0
  -20.5889  -28.3675   23.1278 C   0  0  2  0  0  0
  -20.6792  -26.9404   22.5396 C   0  0  0  0  0  0
  -19.5750  -26.6366   21.5219 C   0  0  0  0  0  0
  -18.1932  -26.7908   22.1647 C   0  0  0  0  0  0
  -19.1544  -28.8831   23.2887 C   0  0  0  0  0  0
  -18.9468  -30.1436   23.8899 C   0  0  0  0  0  0
  -17.6471  -30.6579   24.0552 C   0  0  0  0  0  0
  -25.9040  -34.9464   23.5113 C   0  0  0  0  0  0
  -16.5360  -29.9084   23.6318 C   0  0  0  0  0  0
  -16.7279  -28.6490   23.0363 C   0  0  0  0  0  0
  -26.4480  -31.6593   25.0725 C   0  0  0  0  0  0
  -25.3726  -31.3724   26.1462 C   0  0  0  0  0  0
  -27.0317  -30.3021   24.6144 C   0  0  0  0  0  0
  -27.6040  -32.4323   25.7505 C   0  0  0  0  0  0
  -27.5581  -37.1811   24.8466 C   0  0  0  0  0  0
  -21.4162  -29.3045   22.3677 N   0  0  0  0  0  0
  -26.4295  -37.3784   23.9405 N   0  0  0  0  0  0
  -24.6812  -31.0676   22.0983 N   0  0  0  0  0  0
  -23.4179  -28.8176   23.3002 O   0  0  0  0  0  0
  -28.3091  -26.4909   20.1027 O   0  0  0  0  0  0
  -26.5610  -34.8926   22.4679 O   0  0  0  0  0  0
  -23.5384  -32.1411   23.7399 O   0  0  0  0  0  0
  -27.6351  -19.1000   18.8995 C   0  0  0  0  0  0
  -28.4019  -18.0206   19.3829 C   0  0  0  0  0  0
  -27.8421  -20.4128   19.3683 C   0  0  0  0  0  0
  -29.5796  -19.5709   20.8446 C   0  0  0  0  0  0
  -29.3981  -18.2227   20.3641 C   0  0  0  0  0  0
  -28.8121  -20.6915   20.3587 C   0  0  0  0  0  0
  -28.7056  -24.3368   21.3403 C   0  0  0  0  0  0
  -29.0067  -23.6603   22.5781 C   0  0  0  0  0  0
  -28.6610  -23.2737   20.3135 C   0  0  0  0  0  0
  -28.9817  -24.2031   23.8103 C   0  0  0  0  0  0
  -28.5176  -25.6970   21.2246 C   0  0  0  0  0  0
  -30.3269  -17.0609   20.7640 C   0  0  0  0  0  0
  -29.3063  -22.2135   22.3090 C   0  0  0  0  0  0
  -28.9394  -22.0495   20.9040 N   0  0  0  0  0  0
  -29.8979  -15.7617   20.6454 N   0  0  0  0  0  0
  -28.4195  -23.4395   19.1130 O   0  0  0  0  0  0
  -31.4486  -17.3567   21.1937 O   0  0  0  0  0  0
  -31.4670  -12.4992   19.1419 H   0  0  0  0  0  0
  -30.3472  -11.4050   19.9053 H   0  0  0  0  0  0
  -29.7642  -11.7410   17.4778 H   0  0  0  0  0  0
  -29.6410  -13.4627   17.7285 H   0  0  0  0  0  0
  -27.8680  -11.2843   18.8816 H   0  0  0  0  0  0
  -27.3676  -12.5479   17.7912 H   0  0  0  0  0  0
  -27.6494  -14.2498   19.4905 H   0  0  0  0  0  0
  -28.7057  -12.1123   21.4088 H   0  0  0  0  0  0
  -28.4470  -13.7921   21.8034 H   0  0  0  0  0  0
  -25.2772   -9.5694   22.4749 H   0  0  0  0  0  0
  -24.0015   -7.4637   22.7468 H   0  0  0  0  0  0
  -21.0854   -8.8778   19.8938 H   0  0  0  0  0  0
  -22.3708  -10.9678   19.6163 H   0  0  0  0  0  0
  -21.1990   -7.6143   23.9715 H   0  0  0  0  0  0
  -21.1495   -6.0522   25.9083 H   0  0  0  0  0  0
  -22.0589   -2.7602   23.2849 H   0  0  0  0  0  0
  -22.4116  -11.9858   22.4809 H   0  0  0  0  0  0
  -21.1094  -13.1193   22.2624 H   0  0  0  0  0  0
  -24.6419  -15.8365   20.5172 H   0  0  0  0  0  0
  -26.2542  -15.6402   20.0635 H   0  0  0  0  0  0
  -26.7149  -32.5494   23.1120 H   0  0  0  0  0  0
  -25.0049  -33.9742   25.0434 H   0  0  0  0  0  0
  -22.7063  -31.3058   21.4020 H   0  0  0  0  0  0
  -23.3743  -35.9651   23.3305 H   0  0  0  0  0  0
  -24.3583  -36.8931   22.2057 H   0  0  0  0  0  0
  -23.7250  -37.6521   23.6655 H   0  0  0  0  0  0
  -26.0737  -31.5636   20.5978 H   0  0  0  0  0  0
  -26.8360  -30.8596   21.9940 H   0  0  0  0  0  0
  -28.1089  -29.0113   21.2111 H   0  0  0  0  0  0
  -26.0373  -25.9311   19.0280 H   0  0  0  0  0  0
  -23.9774  -27.2973   19.0217 H   0  0  0  0  0  0
  -23.7477  -30.5961   19.4044 H   0  0  0  0  0  0
  -22.7501  -29.2483   19.8597 H   0  0  0  0  0  0
  -25.1287  -36.1957   25.0826 H   0  0  0  0  0  0
  -20.9988  -28.3249   24.1400 H   0  0  0  0  0  0
  -20.5712  -26.2282   23.3595 H   0  0  0  0  0  0
  -21.6653  -26.7453   22.1164 H   0  0  0  0  0  0
  -19.6898  -25.6272   21.1246 H   0  0  0  0  0  0
  -19.6666  -27.3179   20.6746 H   0  0  0  0  0  0
  -17.4191  -26.6637   21.4061 H   0  0  0  0  0  0
  -18.0341  -26.0049   22.9049 H   0  0  0  0  0  0
  -19.7945  -30.7253   24.2264 H   0  0  0  0  0  0
  -17.5038  -31.6273   24.5132 H   0  0  0  0  0  0
  -15.5361  -30.2994   23.7635 H   0  0  0  0  0  0
  -15.8681  -28.0799   22.7086 H   0  0  0  0  0  0
  -24.5884  -30.7090   25.7798 H   0  0  0  0  0  0
  -24.8945  -32.2899   26.4904 H   0  0  0  0  0  0
  -25.8068  -30.8892   27.0223 H   0  0  0  0  0  0
  -26.2884  -29.6788   24.1164 H   0  0  0  0  0  0
  -27.4026  -29.7253   25.4625 H   0  0  0  0  0  0
  -27.8740  -30.4321   23.9347 H   0  0  0  0  0  0
  -27.2629  -33.3602   26.2101 H   0  0  0  0  0  0
  -28.3845  -32.6916   25.0343 H   0  0  0  0  0  0
  -28.0702  -31.8440   26.5415 H   0  0  0  0  0  0
  -28.2599  -38.0108   24.7498 H   0  0  0  0  0  0
  -28.1070  -36.2635   24.6293 H   0  0  0  0  0  0
  -27.2296  -37.1469   25.8869 H   0  0  0  0  0  0
  -20.9317  -29.8773   21.6914 H   0  0  0  0  0  0
  -26.0180  -38.2863   24.1388 H   0  0  0  0  0  0
  -26.8759  -18.9178   18.1514 H   0  0  0  0  0  0
  -28.2330  -17.0383   18.9646 H   0  0  0  0  0  0
  -27.2158  -21.2000   18.9715 H   0  0  0  0  0  0
  -30.3466  -19.7463   21.5867 H   0  0  0  0  0  0
  -29.2052  -23.6029   24.6807 H   0  0  0  0  0  0
  -28.7399  -25.2410   23.9881 H   0  0  0  0  0  0
  -28.5795  -26.3309   22.0972 H   0  0  0  0  0  0
  -28.7163  -21.5585   22.9516 H   0  0  0  0  0  0
  -30.3668  -22.0112   22.4617 H   0  0  0  0  0  0
  -28.9054  -15.6321   20.5613 H   0  0  0  0  0  0
  1 25  1  0  0  0
  1 30  2  0  0  0
  1 85  1  0  0  0
  2  3  1  0  0  0
  2 25  1  0  0  0
  2 88  1  0  0  0
  2 89  1  0  0  0
  3  4  1  0  0  0
  3 90  1  0  0  0
  3 91  1  0  0  0
  4  5  1  0  0  0
  4 92  1  0  0  0
  4 93  1  0  0  0
  5  6  1  0  0  0
  5 26  1  0  0  0
  5 94  1  0  0  0
  6 25  1  0  0  0
  6 95  1  0  0  0
  6 96  1  0  0  0
  7  8  2  0  0  0
  7 26  1  0  0  0
  7 29  1  0  0  0
  8  9  1  0  0  0
  8 22  1  0  0  0
  9 10  1  0  0  0
  9 27  2  0  0  0
 10 11  2  0  0  0
 10 15  1  0  0  0
 11 12  1  0  0  0
 11 97  1  0  0  0
 12 13  2  0  0  0
 12 98  1  0  0  0
 13 14  1  0  0  0
 13 31  1  0  0  0
 14 15  2  0  0  0
 14 99  1  0  0  0
 15100  1  0  0  0
 16 17  2  0  0  0
 16 21  1  0  0  0
 16 31  1  0  0  0
 17 18  1  0  0  0
 17101  1  0  0  0
 18 19  2  0  0  0
 18102  1  0  0  0
 19 20  1  0  0  0
 19 24  1  0  0  0
 20 21  2  0  0  0
 20103  1  0  0  0
 21 23  1  0  0  0
 22 28  1  0  0  0
 22 32  2  0  0  0
 26 27  1  0  0  0
 28104  1  0  0  0
 28105  1  0  0  0
 29106  1  0  0  0
 29107  1  0  0  0
 33 34  1  0  0  0
 33 66  1  0  0  0
 33 70  2  0  0  0
 34 36  1  0  0  0
 34 59  1  0  0  0
 34108  1  0  0  0
 35 44  2  0  0  0
 35 45  1  0  0  0
 35 68  1  0  0  0
 36 56  1  0  0  0
 36109  1  0  0  0
 37 39  1  0  0  0
 37 47  1  0  0  0
 37 66  1  0  0  0
 37110  1  0  0  0
 38 43  2  0  0  0
 38 46  1  0  0  0
 38 47  1  0  0  0
 39 64  1  0  0  0
 39 67  2  0  0  0
 40 52  1  0  0  0
 40 53  2  0  0  0
 40 58  1  0  0  0
 41111  1  0  0  0
 41112  1  0  0  0
 41113  1  0  0  0
 41 48  1  0  0  0
 42 43  1  0  0  0
 42 66  1  0  0  0
 42114  1  0  0  0
 42115  1  0  0  0
 43 44  1  0  0  0
 44116  1  0  0  0
 45 46  2  0  0  0
 45117  1  0  0  0
 46118  1  0  0  0
 47119  1  0  0  0
 47120  1  0  0  0
 48 56  1  0  0  0
 48 65  1  0  0  0
 48121  1  0  0  0
 49 50  1  0  0  0
 49 53  1  0  0  0
 49 64  1  0  0  0
 49122  1  0  0  0
 50 51  1  0  0  0
 50123  1  0  0  0
 50124  1  0  0  0
 51 52  1  0  0  0
 51125  1  0  0  0
 51126  1  0  0  0
 52127  1  0  0  0
 52128  1  0  0  0
 53 54  1  0  0  0
 54 55  2  0  0  0
 54129  1  0  0  0
 55 57  1  0  0  0
 55130  1  0  0  0
 56 69  2  0  0  0
 57 58  2  0  0  0
 57131  1  0  0  0
 58132  1  0  0  0
 59 60  1  0  0  0
 59 61  1  0  0  0
 59 62  1  0  0  0
 60133  1  0  0  0
 60134  1  0  0  0
 60135  1  0  0  0
 61136  1  0  0  0
 61137  1  0  0  0
 61138  1  0  0  0
 62139  1  0  0  0
 62140  1  0  0  0
 62141  1  0  0  0
 63 65  1  0  0  0
 63142  1  0  0  0
 63143  1  0  0  0
 63144  1  0  0  0
 64145  1  0  0  0
 65146  1  0  0  0
 68 81  1  0  0  0
 71 72  2  0  0  0
 71 73  1  0  0  0
 71147  1  0  0  0
 72 75  1  0  0  0
 72148  1  0  0  0
 73 76  2  0  0  0
 73149  1  0  0  0
 74 75  2  0  0  0
 74 76  1  0  0  0
 74150  1  0  0  0
 75 82  1  0  0  0
 76 84  1  0  0  0
 77 78  1  0  0  0
 77 79  1  0  0  0
 77 81  2  0  0  0
 78 80  2  0  0  0
 78 83  1  0  0  0
 79 84  1  0  0  0
 79 86  2  0  0  0
 80151  1  0  0  0
 80152  1  0  0  0
 81153  1  0  0  0
 82 85  1  0  0  0
 82 87  2  0  0  0
 83 84  1  0  0  0
 83154  1  0  0  0
 83155  1  0  0  0
 85156  1  0  0  0
M  ISO  4   1 100  68 101  81 101  85 100
M  END
> <chiral flag>
0

> <version>
0

> <s_m_source_file>
/data/baiqing/PycharmProjects/Reinvent-master-3.2/result/LINK_invent/BTK/process_docking_weight1_custom_product_contain_oxygen_bond_distance_aromatic_linkinvent_7_9_3/rearranged_h_0079.sdf

> <i_m_source_file_index>
3

> <r_mmod_Potential_Energy-OPLS-2005>
138.477096557617

> <r_mmod_Stretch_Energy-OPLS-2005>
71.7891006469727

> <r_mmod_Bend_Energy-OPLS-2005>
178.136917114258

> <r_mmod_Torsional_Energy-OPLS-2005>
292.836151123047

> <r_mmod_Improper_Torsional_Energy-OPLS-2005>
7.13942623138428

> <r_mmod_Van_der_Waal_Energy-OPLS-2005>
141.674560546875

> <r_mmod_Electrostatic_Energy-OPLS-2005>
-366.961975097656

> <r_mmod_Solvation_Energy-OPLS-2005>
-231.754653930664

> <b_mmod_Minimization_Converged-OPLS-2005>
0

> <r_mmod_RMS_Derivative-OPLS-2005>
1.84472501277924

$$$$
3
                    3D
 Structure written by MMmdl.
158166  0  0  1  0            999 V2000
  -30.6742  -14.5781   20.4747 C   0  0  0  0  0  0
  -30.4195  -12.3411   19.4671 C   0  0  0  0  0  0
  -29.5044  -12.4824   18.2322 C   0  0  0  0  0  0
  -28.0281  -12.3320   18.6448 C   0  0  0  0  0  0
  -27.6518  -13.2170   19.8632 C   0  0  2  0  0  0
  -28.6916  -13.0912   20.9993 C   0  0  0  0  0  0
  -25.2552  -13.8184   20.5692 C   0  0  0  0  0  0
  -24.1816  -13.0447   20.9186 C   0  0  0  0  0  0
  -24.6377  -11.6914   20.8736 C   0  0  0  0  0  0
  -23.9046  -10.4298   21.0402 C   0  0  0  0  0  0
  -24.3602   -9.4211   21.9177 C   0  0  0  0  0  0
  -23.6272   -8.2252   22.0753 C   0  0  0  0  0  0
  -22.4258   -8.0288   21.3541 C   0  0  0  0  0  0
  -21.9890   -9.0263   20.4652 C   0  0  0  0  0  0
  -22.7218  -10.2140   20.3056 C   0  0  0  0  0  0
  -21.6855   -6.0739   22.5281 C   0  0  0  0  0  0
  -21.4019   -6.5639   23.8215 C   0  0  0  0  0  0
  -21.3661   -5.6790   24.9175 C   0  0  0  0  0  0
  -21.6037   -4.3052   24.7225 C   0  0  0  0  0  0
  -21.8813   -3.8147   23.4341 C   0  0  0  0  0  0
  -21.9188   -4.6965   22.3398 C   0  0  0  0  0  0
  -22.7844  -13.5238   21.1859 C   0  0  0  0  0  0
  -22.1660   -4.2150   21.0976 F   0  0  0  0  0  0
  -21.5625   -3.4533   25.7734 F   0  0  0  0  0  0
  -30.0171  -13.3810   20.4340 N   0  0  0  0  0  0
  -26.2970  -12.9360   20.3313 N   0  0  0  0  0  0
  -25.9302  -11.6511   20.5749 N   0  0  0  0  0  0
  -22.0498  -12.8239   22.0433 N   0  0  0  0  0  0
  -25.4273  -15.1904   20.4112 N   0  0  0  0  0  0
  -31.8541  -14.6727   20.1262 O   0  0  0  0  0  0
  -21.6630   -6.8879   21.4239 O   0  0  0  0  0  0
  -22.3527  -14.5540   20.6706 O   0  0  0  0  0  0
  -24.6204  -31.8623   23.2068 C   0  0  0  0  0  0
  -25.9077  -32.4787   23.8370 C   0  0  1  0  0  0
  -27.2332  -27.3748   20.1016 C   0  0  0  0  0  0
  -25.5905  -33.8589   24.2296 N   0  0  0  0  0  0
  -23.4127  -30.4876   21.5467 C   0  0  2  0  0  0
  -24.8617  -28.9517   20.1080 C   0  0  0  0  0  0
  -22.7447  -29.4632   22.4942 C   0  0  0  0  0  0
  -18.0275  -28.1390   22.8491 C   0  0  0  0  0  0
  -24.1488  -36.7294   23.2642 C   0  0  0  0  0  0
  -25.9487  -30.8119   21.3686 C   0  0  0  0  0  0
  -26.0268  -29.4439   20.7100 C   0  0  0  0  0  0
  -27.2152  -28.6631   20.7046 C   0  0  0  0  0  0
  -26.0413  -26.9108   19.5003 C   0  0  0  0  0  0
  -24.8668  -27.6870   19.4983 C   0  0  0  0  0  0
  -23.6258  -29.8249   20.1597 C   0  0  0  0  0  0
  -25.4106  -36.3080   24.0330 C   0  0  1  0  0  0
  -20.5874  -28.3673   23.1301 C   0  0  2  0  0  0
  -20.6761  -26.9398   22.5415 C   0  0  0  0  0  0
  -19.5736  -26.6387   21.5212 C   0  0  0  0  0  0
  -18.1919  -26.7932   22.1630 C   0  0  0  0  0  0
  -19.1533  -28.8845   23.2896 C   0  0  0  0  0  0
  -18.9458  -30.1452   23.8906 C   0  0  0  0  0  0
  -17.6460  -30.6590   24.0568 C   0  0  0  0  0  0
  -25.9041  -34.9451   23.5109 C   0  0  0  0  0  0
  -16.5348  -29.9097   23.6329 C   0  0  0  0  0  0
  -16.7265  -28.6516   23.0341 C   0  0  0  0  0  0
  -26.4489  -31.6593   25.0724 C   0  0  0  0  0  0
  -25.3750  -31.3716   26.1473 C   0  0  0  0  0  0
  -27.0323  -30.3026   24.6140 C   0  0  0  0  0  0
  -27.6058  -32.4329   25.7476 C   0  0  0  0  0  0
  -27.5571  -37.1797   24.8464 C   0  0  0  0  0  0
  -21.4163  -29.3026   22.3691 N   0  0  0  0  0  0
  -26.4282  -37.3771   23.9409 N   0  0  0  0  0  0
  -24.6793  -31.0683   22.0989 N   0  0  0  0  0  0
  -23.4189  -28.8174   23.3012 O   0  0  0  0  0  0
  -28.3512  -26.5448   20.1629 O   0  0  0  0  0  0
  -26.5610  -34.8909   22.4680 O   0  0  0  0  0  0
  -23.5385  -32.1390   23.7439 O   0  0  0  0  0  0
  -30.8547  -18.3931   18.2395 C   0  0  0  0  0  0
  -30.3932  -19.5635   18.8655 C   0  0  0  0  0  0
  -30.7073  -17.1404   18.8588 C   0  0  0  0  0  0
  -29.6134  -18.2195   20.7466 C   0  0  0  0  0  0
  -29.7550  -19.5118   20.1281 C   0  0  0  0  0  0
  -30.1009  -17.0156   20.1335 C   0  0  0  0  0  0
  -28.5703  -25.6459   19.1299 C   0  0  0  0  0  0
  -29.2653  -20.8092   20.7855 C   0  0  0  0  0  0
  -28.8434  -24.3031   19.1705 C   0  0  0  0  0  0
  -29.0451  -23.5976   17.8343 C   0  0  0  0  0  0
  -30.0036  -23.9343   21.4116 C   0  0  0  0  0  0
  -28.9768  -23.3695   20.4139 C   0  0  2  0  0  0
  -29.9319  -15.6962   20.7290 N   0  0  0  0  0  0
  -29.3315  -21.9578   20.0592 N   0  0  0  0  0  0
  -28.8252  -20.7914   21.9372 O   0  0  0  0  0  0
  -31.4675  -12.4211   19.1715 H   0  0  0  0  0  0
  -30.3146  -11.3505   19.9152 H   0  0  0  0  0  0
  -29.7611  -11.7332   17.4816 H   0  0  0  0  0  0
  -29.6630  -13.4550   17.7640 H   0  0  0  0  0  0
  -27.8657  -11.2818   18.8912 H   0  0  0  0  0  0
  -27.3728  -12.5510   17.8016 H   0  0  0  0  0  0
  -27.6679  -14.2477   19.5096 H   0  0  0  0  0  0
  -28.6774  -12.0870   21.4257 H   0  0  0  0  0  0
  -28.4513  -13.7702   21.8198 H   0  0  0  0  0  0
  -25.2756   -9.5675   22.4736 H   0  0  0  0  0  0
  -23.9990   -7.4635   22.7456 H   0  0  0  0  0  0
  -21.0835   -8.8769   19.8950 H   0  0  0  0  0  0
  -22.3677  -10.9673   19.6162 H   0  0  0  0  0  0
  -21.2022   -7.6151   23.9714 H   0  0  0  0  0  0
  -21.1490   -6.0527   25.9075 H   0  0  0  0  0  0
  -22.0588   -2.7608   23.2843 H   0  0  0  0  0  0
  -22.4123  -11.9906   22.4829 H   0  0  0  0  0  0
  -21.1114  -13.1263   22.2641 H   0  0  0  0  0  0
  -24.6608  -15.8455   20.5212 H   0  0  0  0  0  0
  -26.2751  -15.6295   20.0747 H   0  0  0  0  0  0
  -26.7150  -32.5484   23.1129 H   0  0  0  0  0  0
  -25.0011  -33.9736   25.0411 H   0  0  0  0  0  0
  -22.7042  -31.3068   21.4086 H   0  0  0  0  0  0
  -23.3737  -35.9643   23.3318 H   0  0  0  0  0  0
  -24.3573  -36.8905   22.2053 H   0  0  0  0  0  0
  -23.7266  -37.6510   23.6661 H   0  0  0  0  0  0
  -26.0716  -31.5808   20.6043 H   0  0  0  0  0  0
  -26.8308  -30.8612   21.9948 H   0  0  0  0  0  0
  -28.1105  -29.0344   21.1842 H   0  0  0  0  0  0
  -25.9988  -25.9275   19.0532 H   0  0  0  0  0  0
  -23.9691  -27.2988   19.0373 H   0  0  0  0  0  0
  -23.7383  -30.6044   19.4051 H   0  0  0  0  0  0
  -22.7480  -29.2505   19.8585 H   0  0  0  0  0  0
  -25.1298  -36.1925   25.0823 H   0  0  0  0  0  0
  -20.9969  -28.3236   24.1418 H   0  0  0  0  0  0
  -20.5651  -26.2270   23.3603 H   0  0  0  0  0  0
  -21.6634  -26.7417   22.1213 H   0  0  0  0  0  0
  -19.6891  -25.6303   21.1226 H   0  0  0  0  0  0
  -19.6686  -27.3209   20.6753 H   0  0  0  0  0  0
  -17.4183  -26.6669   21.4042 H   0  0  0  0  0  0
  -18.0333  -26.0081   22.9035 H   0  0  0  0  0  0
  -19.7931  -30.7275   24.2273 H   0  0  0  0  0  0
  -17.5009  -31.6271   24.5178 H   0  0  0  0  0  0
  -15.5351  -30.3002   23.7651 H   0  0  0  0  0  0
  -15.8661  -28.0850   22.7031 H   0  0  0  0  0  0
  -24.5914  -30.7070   25.7821 H   0  0  0  0  0  0
  -24.8945  -32.2873   26.4929 H   0  0  0  0  0  0
  -25.8096  -30.8880   27.0229 H   0  0  0  0  0  0
  -26.2872  -29.6779   24.1192 H   0  0  0  0  0  0
  -27.4077  -29.7284   25.4623 H   0  0  0  0  0  0
  -27.8724  -30.4338   23.9313 H   0  0  0  0  0  0
  -27.2671  -33.3624   26.2066 H   0  0  0  0  0  0
  -28.3841  -32.6900   25.0279 H   0  0  0  0  0  0
  -28.0753  -31.8446   26.5369 H   0  0  0  0  0  0
  -28.2601  -38.0083   24.7487 H   0  0  0  0  0  0
  -28.1051  -36.2609   24.6315 H   0  0  0  0  0  0
  -27.2279  -37.1484   25.8866 H   0  0  0  0  0  0
  -20.9326  -29.8753   21.6916 H   0  0  0  0  0  0
  -26.0159  -38.2842   24.1432 H   0  0  0  0  0  0
  -31.3303  -18.4566   17.2707 H   0  0  0  0  0  0
  -30.5378  -20.5008   18.3484 H   0  0  0  0  0  0
  -31.0638  -16.2728   18.3211 H   0  0  0  0  0  0
  -29.1270  -18.1610   21.7104 H   0  0  0  0  0  0
  -28.5017  -26.1638   18.1829 H   0  0  0  0  0  0
  -28.9110  -24.2773   16.9908 H   0  0  0  0  0  0
  -28.3234  -22.7898   17.7102 H   0  0  0  0  0  0
  -30.0531  -23.1864   17.7619 H   0  0  0  0  0  0
  -29.7460  -24.9498   21.7128 H   0  0  0  0  0  0
  -31.0018  -23.9661   20.9733 H   0  0  0  0  0  0
  -30.0545  -23.3342   22.3204 H   0  0  0  0  0  0
  -27.9983  -23.3472   20.8974 H   0  0  0  0  0  0
  -29.0651  -15.5384   21.2222 H   0  0  0  0  0  0
  -29.6715  -21.8382   19.1165 H   0  0  0  0  0  0
  1 25  1  0  0  0
  1 30  2  0  0  0
  1 83  1  0  0  0
  2  3  1  0  0  0
  2 25  1  0  0  0
  2 86  1  0  0  0
  2 87  1  0  0  0
  3  4  1  0  0  0
  3 88  1  0  0  0
  3 89  1  0  0  0
  4  5  1  0  0  0
  4 90  1  0  0  0
  4 91  1  0  0  0
  5  6  1  0  0  0
  5 26  1  0  0  0
  5 92  1  0  0  0
  6 25  1  0  0  0
  6 93  1  0  0  0
  6 94  1  0  0  0
  7  8  2  0  0  0
  7 26  1  0  0  0
  7 29  1  0  0  0
  8  9  1  0  0  0
  8 22  1  0  0  0
  9 10  1  0  0  0
  9 27  2  0  0  0
 10 11  2  0  0  0
 10 15  1  0  0  0
 11 12  1  0  0  0
 11 95  1  0  0  0
 12 13  2  0  0  0
 12 96  1  0  0  0
 13 14  1  0  0  0
 13 31  1  0  0  0
 14 15  2  0  0  0
 14 97  1  0  0  0
 15 98  1  0  0  0
 16 17  2  0  0  0
 16 21  1  0  0  0
 16 31  1  0  0  0
 17 18  1  0  0  0
 17 99  1  0  0  0
 18 19  2  0  0  0
 18100  1  0  0  0
 19 20  1  0  0  0
 19 24  1  0  0  0
 20 21  2  0  0  0
 20101  1  0  0  0
 21 23  1  0  0  0
 22 28  1  0  0  0
 22 32  2  0  0  0
 26 27  1  0  0  0
 28102  1  0  0  0
 28103  1  0  0  0
 29104  1  0  0  0
 29105  1  0  0  0
 33 34  1  0  0  0
 33 66  1  0  0  0
 33 70  2  0  0  0
 34 36  1  0  0  0
 34 59  1  0  0  0
 34106  1  0  0  0
 35 44  2  0  0  0
 35 45  1  0  0  0
 35 68  1  0  0  0
 36 56  1  0  0  0
 36107  1  0  0  0
 37 39  1  0  0  0
 37 47  1  0  0  0
 37 66  1  0  0  0
 37108  1  0  0  0
 38 43  2  0  0  0
 38 46  1  0  0  0
 38 47  1  0  0  0
 39 64  1  0  0  0
 39 67  2  0  0  0
 40 52  1  0  0  0
 40 53  2  0  0  0
 40 58  1  0  0  0
 41109  1  0  0  0
 41110  1  0  0  0
 41111  1  0  0  0
 41 48  1  0  0  0
 42 43  1  0  0  0
 42 66  1  0  0  0
 42112  1  0  0  0
 42113  1  0  0  0
 43 44  1  0  0  0
 44114  1  0  0  0
 45 46  2  0  0  0
 45115  1  0  0  0
 46116  1  0  0  0
 47117  1  0  0  0
 47118  1  0  0  0
 48 56  1  0  0  0
 48 65  1  0  0  0
 48119  1  0  0  0
 49 50  1  0  0  0
 49 53  1  0  0  0
 49 64  1  0  0  0
 49120  1  0  0  0
 50 51  1  0  0  0
 50121  1  0  0  0
 50122  1  0  0  0
 51 52  1  0  0  0
 51123  1  0  0  0
 51124  1  0  0  0
 52125  1  0  0  0
 52126  1  0  0  0
 53 54  1  0  0  0
 54 55  2  0  0  0
 54127  1  0  0  0
 55 57  1  0  0  0
 55128  1  0  0  0
 56 69  2  0  0  0
 57 58  2  0  0  0
 57129  1  0  0  0
 58130  1  0  0  0
 59 60  1  0  0  0
 59 61  1  0  0  0
 59 62  1  0  0  0
 60131  1  0  0  0
 60132  1  0  0  0
 60133  1  0  0  0
 61134  1  0  0  0
 61135  1  0  0  0
 61136  1  0  0  0
 62137  1  0  0  0
 62138  1  0  0  0
 62139  1  0  0  0
 63 65  1  0  0  0
 63140  1  0  0  0
 63141  1  0  0  0
 63142  1  0  0  0
 64143  1  0  0  0
 65144  1  0  0  0
 68 77  1  0  0  0
 71 72  2  0  0  0
 71 73  1  0  0  0
 71145  1  0  0  0
 72 75  1  0  0  0
 72146  1  0  0  0
 73 76  2  0  0  0
 73147  1  0  0  0
 74 75  2  0  0  0
 74 76  1  0  0  0
 74148  1  0  0  0
 75 78  1  0  0  0
 76 83  1  0  0  0
 77 79  2  0  0  0
 77149  1  0  0  0
 78 84  1  0  0  0
 78 85  2  0  0  0
 79 80  1  0  0  0
 79 82  1  0  0  0
 80150  1  0  0  0
 80151  1  0  0  0
 80152  1  0  0  0
 81153  1  0  0  0
 81154  1  0  0  0
 81155  1  0  0  0
 81 82  1  0  0  0
 82 84  1  0  0  0
 82156  1  0  0  0
 83157  1  0  0  0
 84158  1  0  0  0
M  ISO  4   1 100  68 101  77 101  83 100
M  END
> <chiral flag>
0

> <version>
0

> <s_m_source_file>
/data/baiqing/PycharmProjects/Reinvent-master-3.2/result/LINK_invent/BTK/process_docking_weight1_custom_product_contain_oxygen_bond_distance_aromatic_linkinvent_7_9_3/rearranged_h_0079.sdf

> <i_m_source_file_index>
4

> <r_mmod_Potential_Energy-OPLS-2005>
-45.3748550415039

> <r_mmod_Stretch_Energy-OPLS-2005>
61.959056854248

> <r_mmod_Bend_Energy-OPLS-2005>
119.913330078125

> <r_mmod_Torsional_Energy-OPLS-2005>
236.880935668945

> <r_mmod_Improper_Torsional_Energy-OPLS-2005>
5.05838489532471

> <r_mmod_Van_der_Waal_Energy-OPLS-2005>
157.316375732422

> <r_mmod_Electrostatic_Energy-OPLS-2005>
-442.006042480469

> <r_mmod_Solvation_Energy-OPLS-2005>
-219.043670654297

> <b_mmod_Minimization_Converged-OPLS-2005>
0

> <r_mmod_RMS_Derivative-OPLS-2005>
2.11992144584656

$$$$
4
                    3D
 Structure written by MMmdl.
156164  0  0  1  0            999 V2000
  -30.6675  -14.5231   20.5372 C   0  0  0  0  0  0
  -30.4293  -12.3243   19.4337 C   0  0  0  0  0  0
  -29.5009  -12.5007   18.2125 C   0  0  0  0  0  0
  -28.0206  -12.3600   18.6220 C   0  0  0  0  0  0
  -27.6610  -13.2057   19.8725 C   0  0  2  0  0  0
  -28.7031  -13.0020   20.9959 C   0  0  0  0  0  0
  -25.2593  -13.8163   20.5669 C   0  0  0  0  0  0
  -24.1845  -13.0445   20.9179 C   0  0  0  0  0  0
  -24.6389  -11.6907   20.8729 C   0  0  0  0  0  0
  -23.9051  -10.4296   21.0403 C   0  0  0  0  0  0
  -24.3609   -9.4214   21.9180 C   0  0  0  0  0  0
  -23.6287   -8.2249   22.0752 C   0  0  0  0  0  0
  -22.4273   -8.0282   21.3537 C   0  0  0  0  0  0
  -21.9894   -9.0258   20.4646 C   0  0  0  0  0  0
  -22.7219  -10.2140   20.3058 C   0  0  0  0  0  0
  -21.6856   -6.0731   22.5277 C   0  0  0  0  0  0
  -21.4022   -6.5637   23.8208 C   0  0  0  0  0  0
  -21.3656   -5.6787   24.9169 C   0  0  0  0  0  0
  -21.6045   -4.3051   24.7221 C   0  0  0  0  0  0
  -21.8820   -3.8140   23.4342 C   0  0  0  0  0  0
  -21.9196   -4.6959   22.3398 C   0  0  0  0  0  0
  -22.7868  -13.5249   21.1841 C   0  0  0  0  0  0
  -22.1660   -4.2145   21.0975 F   0  0  0  0  0  0
  -21.5624   -3.4536   25.7731 F   0  0  0  0  0  0
  -30.0319  -13.3188   20.4446 N   0  0  0  0  0  0
  -26.3018  -12.9321   20.3343 N   0  0  0  0  0  0
  -25.9316  -11.6489   20.5764 N   0  0  0  0  0  0
  -22.0499  -12.8252   22.0399 N   0  0  0  0  0  0
  -25.4336  -15.1884   20.4081 N   0  0  0  0  0  0
  -31.8090  -14.6947   20.1001 O   0  0  0  0  0  0
  -21.6640   -6.8876   21.4239 O   0  0  0  0  0  0
  -22.3554  -14.5549   20.6679 O   0  0  0  0  0  0
  -24.6158  -31.8655   23.2083 C   0  0  0  0  0  0
  -25.9044  -32.4806   23.8393 C   0  0  1  0  0  0
  -27.2344  -27.4115   20.1074 C   0  0  0  0  0  0
  -25.5891  -33.8608   24.2321 N   0  0  0  0  0  0
  -23.4072  -30.4880   21.5468 C   0  0  2  0  0  0
  -24.8591  -28.9528   20.1114 C   0  0  0  0  0  0
  -22.7424  -29.4641   22.4952 C   0  0  0  0  0  0
  -18.0277  -28.1383   22.8486 C   0  0  0  0  0  0
  -24.1488  -36.7318   23.2644 C   0  0  0  0  0  0
  -25.9384  -30.8251   21.3665 C   0  0  0  0  0  0
  -26.0194  -29.4575   20.7139 C   0  0  0  0  0  0
  -27.2129  -28.6932   20.7128 C   0  0  0  0  0  0
  -26.0621  -26.9286   19.4942 C   0  0  0  0  0  0
  -24.8758  -27.6878   19.4973 C   0  0  0  0  0  0
  -23.6202  -29.8210   20.1612 C   0  0  0  0  0  0
  -25.4107  -36.3102   24.0337 C   0  0  1  0  0  0
  -20.5870  -28.3675   23.1302 C   0  0  2  0  0  0
  -20.6766  -26.9404   22.5415 C   0  0  0  0  0  0
  -19.5745  -26.6382   21.5212 C   0  0  0  0  0  0
  -18.1924  -26.7926   22.1624 C   0  0  0  0  0  0
  -19.1526  -28.8845   23.2892 C   0  0  0  0  0  0
  -18.9456  -30.1445   23.8905 C   0  0  0  0  0  0
  -17.6459  -30.6587   24.0567 C   0  0  0  0  0  0
  -25.9027  -34.9461   23.5132 C   0  0  0  0  0  0
  -16.5348  -29.9091   23.6328 C   0  0  0  0  0  0
  -16.7267  -28.6510   23.0347 C   0  0  0  0  0  0
  -26.4468  -31.6594   25.0726 C   0  0  0  0  0  0
  -25.3736  -31.3727   26.1484 C   0  0  0  0  0  0
  -27.0301  -30.3030   24.6122 C   0  0  0  0  0  0
  -27.6048  -32.4317   25.7472 C   0  0  0  0  0  0
  -27.5570  -37.1823   24.8470 C   0  0  0  0  0  0
  -21.4145  -29.3034   22.3699 N   0  0  0  0  0  0
  -26.4300  -37.3775   23.9386 N   0  0  0  0  0  0
  -24.6718  -31.0742   22.0988 N   0  0  0  0  0  0
  -23.4180  -28.8184   23.3008 O   0  0  0  0  0  0
  -28.3414  -26.5866   20.1279 O   0  0  0  0  0  0
  -26.5595  -34.8912   22.4692 O   0  0  0  0  0  0
  -23.5345  -32.1415   23.7461 O   0  0  0  0  0  0
  -28.7527  -19.1239   20.8730 C   0  0  0  0  0  0
  -30.8875  -18.9965   19.7396 C   0  0  0  0  0  0
  -28.8425  -17.7401   21.1768 C   0  0  0  0  0  0
  -30.9797  -17.6153   20.0481 C   0  0  0  0  0  0
  -29.7639  -19.7706   20.1247 C   0  0  0  0  0  0
  -29.9417  -16.9505   20.7509 C   0  0  0  0  0  0
  -28.4449  -25.7895   21.2517 C   0  0  0  0  0  0
  -29.6287  -21.1824   19.6629 C   0  0  0  0  0  0
  -28.7595  -24.4648   21.3446 C   0  0  0  0  0  0
  -29.0624  -23.6146   20.1781 C   0  0  0  0  0  0
  -28.8027  -23.8217   22.7271 C   0  0  0  0  0  0
  -29.9106  -15.5343   21.0284 N   0  0  0  0  0  0
  -29.2701  -22.2024   20.4911 N   0  0  0  0  0  0
  -29.8753  -21.4031   18.3666 N   0  3  0  0  0  0
  -29.1541  -24.0126   19.0103 O   0  0  0  0  0  0
  -31.4730  -12.4304   19.1322 H   0  0  0  0  0  0
  -30.3398  -11.3160   19.8420 H   0  0  0  0  0  0
  -29.7445  -11.7642   17.4453 H   0  0  0  0  0  0
  -29.6679  -13.4793   17.7607 H   0  0  0  0  0  0
  -27.8326  -11.3051   18.8237 H   0  0  0  0  0  0
  -27.3731  -12.6281   17.7865 H   0  0  0  0  0  0
  -27.6991  -14.2506   19.5656 H   0  0  0  0  0  0
  -28.6869  -11.9676   21.3432 H   0  0  0  0  0  0
  -28.4598  -13.6050   21.8717 H   0  0  0  0  0  0
  -25.2762   -9.5691   22.4743 H   0  0  0  0  0  0
  -23.9997   -7.4646   22.7470 H   0  0  0  0  0  0
  -21.0819   -8.8781   19.8958 H   0  0  0  0  0  0
  -22.3676  -10.9680   19.6169 H   0  0  0  0  0  0
  -21.2020   -7.6148   23.9710 H   0  0  0  0  0  0
  -21.1471   -6.0519   25.9070 H   0  0  0  0  0  0
  -22.0601   -2.7604   23.2848 H   0  0  0  0  0  0
  -22.4108  -11.9922   22.4809 H   0  0  0  0  0  0
  -21.1120  -13.1293   22.2588 H   0  0  0  0  0  0
  -24.6655  -15.8433   20.5070 H   0  0  0  0  0  0
  -26.2737  -15.6186   20.0423 H   0  0  0  0  0  0
  -26.7114  -32.5520   23.1159 H   0  0  0  0  0  0
  -25.0024  -33.9764   25.0457 H   0  0  0  0  0  0
  -22.6965  -31.3047   21.4053 H   0  0  0  0  0  0
  -23.3710  -35.9698   23.3367 H   0  0  0  0  0  0
  -24.3571  -36.8868   22.2047 H   0  0  0  0  0  0
  -23.7296  -37.6565   23.6616 H   0  0  0  0  0  0
  -26.0546  -31.5904   20.5978 H   0  0  0  0  0  0
  -26.8239  -30.8790   21.9882 H   0  0  0  0  0  0
  -28.1058  -29.0704   21.1913 H   0  0  0  0  0  0
  -26.0669  -25.9513   19.0323 H   0  0  0  0  0  0
  -23.9841  -27.2916   19.0309 H   0  0  0  0  0  0
  -23.7304  -30.5975   19.4029 H   0  0  0  0  0  0
  -22.7443  -29.2427   19.8617 H   0  0  0  0  0  0
  -25.1292  -36.1975   25.0833 H   0  0  0  0  0  0
  -20.9962  -28.3253   24.1423 H   0  0  0  0  0  0
  -20.5661  -26.2288   23.3610 H   0  0  0  0  0  0
  -21.6638  -26.7438   22.1216 H   0  0  0  0  0  0
  -19.6906  -25.6293   21.1239 H   0  0  0  0  0  0
  -19.6685  -27.3195   20.6746 H   0  0  0  0  0  0
  -17.4191  -26.6666   21.4031 H   0  0  0  0  0  0
  -18.0329  -26.0072   22.9023 H   0  0  0  0  0  0
  -19.7931  -30.7259   24.2279 H   0  0  0  0  0  0
  -17.5017  -31.6266   24.5170 H   0  0  0  0  0  0
  -15.5351  -30.3002   23.7642 H   0  0  0  0  0  0
  -15.8666  -28.0833   22.7060 H   0  0  0  0  0  0
  -24.5871  -30.7114   25.7828 H   0  0  0  0  0  0
  -24.8982  -32.2903   26.4963 H   0  0  0  0  0  0
  -25.8088  -30.8860   27.0223 H   0  0  0  0  0  0
  -26.2858  -29.6783   24.1168 H   0  0  0  0  0  0
  -27.4054  -29.7276   25.4594 H   0  0  0  0  0  0
  -27.8701  -30.4341   23.9296 H   0  0  0  0  0  0
  -27.2668  -33.3600   26.2088 H   0  0  0  0  0  0
  -28.3829  -32.6901   25.0276 H   0  0  0  0  0  0
  -28.0748  -31.8422   26.5353 H   0  0  0  0  0  0
  -28.2639  -38.0065   24.7423 H   0  0  0  0  0  0
  -28.1010  -36.2592   24.6407 H   0  0  0  0  0  0
  -27.2276  -37.1615   25.8874 H   0  0  0  0  0  0
  -20.9306  -29.8771   21.6933 H   0  0  0  0  0  0
  -26.0190  -38.2866   24.1332 H   0  0  0  0  0  0
  -27.8704  -19.6706   21.1760 H   0  0  0  0  0  0
  -31.6886  -19.4571   19.1771 H   0  0  0  0  0  0
  -28.0282  -17.2805   21.7191 H   0  0  0  0  0  0
  -31.8552  -17.0829   19.7078 H   0  0  0  0  0  0
  -28.2298  -26.3657   22.1421 H   0  0  0  0  0  0
  -28.5629  -24.5452   23.5073 H   0  0  0  0  0  0
  -29.7985  -23.4339   22.9462 H   0  0  0  0  0  0
  -28.0770  -23.0113   22.8110 H   0  0  0  0  0  0
  -29.0581  -15.2095   21.4564 H   0  0  0  0  0  0
  -29.1827  -21.8868   21.4435 H   0  0  0  0  0  0
  -30.0783  -20.6332   17.7481 H   0  0  0  0  0  0
  -29.7523  -22.3357   17.9930 H   0  0  0  0  0  0
  1 25  1  0  0  0
  1 30  2  0  0  0
  1 82  1  0  0  0
  2  3  1  0  0  0
  2 25  1  0  0  0
  2 86  1  0  0  0
  2 87  1  0  0  0
  3  4  1  0  0  0
  3 88  1  0  0  0
  3 89  1  0  0  0
  4  5  1  0  0  0
  4 90  1  0  0  0
  4 91  1  0  0  0
  5  6  1  0  0  0
  5 26  1  0  0  0
  5 92  1  0  0  0
  6 25  1  0  0  0
  6 93  1  0  0  0
  6 94  1  0  0  0
  7  8  2  0  0  0
  7 26  1  0  0  0
  7 29  1  0  0  0
  8  9  1  0  0  0
  8 22  1  0  0  0
  9 10  1  0  0  0
  9 27  2  0  0  0
 10 11  2  0  0  0
 10 15  1  0  0  0
 11 12  1  0  0  0
 11 95  1  0  0  0
 12 13  2  0  0  0
 12 96  1  0  0  0
 13 14  1  0  0  0
 13 31  1  0  0  0
 14 15  2  0  0  0
 14 97  1  0  0  0
 15 98  1  0  0  0
 16 17  2  0  0  0
 16 21  1  0  0  0
 16 31  1  0  0  0
 17 18  1  0  0  0
 17 99  1  0  0  0
 18 19  2  0  0  0
 18100  1  0  0  0
 19 20  1  0  0  0
 19 24  1  0  0  0
 20 21  2  0  0  0
 20101  1  0  0  0
 21 23  1  0  0  0
 22 28  1  0  0  0
 22 32  2  0  0  0
 26 27  1  0  0  0
 28102  1  0  0  0
 28103  1  0  0  0
 29104  1  0  0  0
 29105  1  0  0  0
 33 34  1  0  0  0
 33 66  1  0  0  0
 33 70  2  0  0  0
 34 36  1  0  0  0
 34 59  1  0  0  0
 34106  1  0  0  0
 35 44  2  0  0  0
 35 45  1  0  0  0
 35 68  1  0  0  0
 36 56  1  0  0  0
 36107  1  0  0  0
 37 39  1  0  0  0
 37 47  1  0  0  0
 37 66  1  0  0  0
 37108  1  0  0  0
 38 43  2  0  0  0
 38 46  1  0  0  0
 38 47  1  0  0  0
 39 64  1  0  0  0
 39 67  2  0  0  0
 40 52  1  0  0  0
 40 53  2  0  0  0
 40 58  1  0  0  0
 41109  1  0  0  0
 41110  1  0  0  0
 41111  1  0  0  0
 41 48  1  0  0  0
 42 43  1  0  0  0
 42 66  1  0  0  0
 42112  1  0  0  0
 42113  1  0  0  0
 43 44  1  0  0  0
 44114  1  0  0  0
 45 46  2  0  0  0
 45115  1  0  0  0
 46116  1  0  0  0
 47117  1  0  0  0
 47118  1  0  0  0
 48 56  1  0  0  0
 48 65  1  0  0  0
 48119  1  0  0  0
 49 50  1  0  0  0
 49 53  1  0  0  0
 49 64  1  0  0  0
 49120  1  0  0  0
 50 51  1  0  0  0
 50121  1  0  0  0
 50122  1  0  0  0
 51 52  1  0  0  0
 51123  1  0  0  0
 51124  1  0  0  0
 52125  1  0  0  0
 52126  1  0  0  0
 53 54  1  0  0  0
 54 55  2  0  0  0
 54127  1  0  0  0
 55 57  1  0  0  0
 55128  1  0  0  0
 56 69  2  0  0  0
 57 58  2  0  0  0
 57129  1  0  0  0
 58130  1  0  0  0
 59 60  1  0  0  0
 59 61  1  0  0  0
 59 62  1  0  0  0
 60131  1  0  0  0
 60132  1  0  0  0
 60133  1  0  0  0
 61134  1  0  0  0
 61135  1  0  0  0
 61136  1  0  0  0
 62137  1  0  0  0
 62138  1  0  0  0
 62139  1  0  0  0
 63 65  1  0  0  0
 63140  1  0  0  0
 63141  1  0  0  0
 63142  1  0  0  0
 64143  1  0  0  0
 65144  1  0  0  0
 68 77  1  0  0  0
 71 73  2  0  0  0
 71 75  1  0  0  0
 71145  1  0  0  0
 72 74  1  0  0  0
 72 75  2  0  0  0
 72146  1  0  0  0
 73 76  1  0  0  0
 73147  1  0  0  0
 74 76  2  0  0  0
 74148  1  0  0  0
 75 78  1  0  0  0
 76 82  1  0  0  0
 77 79  2  0  0  0
 77149  1  0  0  0
 78 83  1  0  0  0
 78 84  2  0  0  0
 79 80  1  0  0  0
 79 81  1  0  0  0
 80 83  1  0  0  0
 80 85  2  0  0  0
 81150  1  0  0  0
 81151  1  0  0  0
 81152  1  0  0  0
 82153  1  0  0  0
 83154  1  0  0  0
 84155  1  0  0  0
 84156  1  0  0  0
M  CHG  1  84   1
M  ISO  4   1 100  68 101  77 101  82 100
M  END
> <chiral flag>
0

> <version>
0

> <s_m_source_file>
/data/baiqing/PycharmProjects/Reinvent-master-3.2/result/LINK_invent/BTK/process_docking_weight1_custom_product_contain_oxygen_bond_distance_aromatic_linkinvent_7_9_3/rearranged_h_0079.sdf

> <i_m_source_file_index>
5

> <r_mmod_Potential_Energy-OPLS-2005>
-276.325225830078

> <r_mmod_Stretch_Energy-OPLS-2005>
47.7857284545898

> <r_mmod_Bend_Energy-OPLS-2005>
122.985305786133

> <r_mmod_Torsional_Energy-OPLS-2005>
236.7041015625

> <r_mmod_Improper_Torsional_Energy-OPLS-2005>
4.4004693031311

> <r_mmod_Van_der_Waal_Energy-OPLS-2005>
162.59733581543

> <r_mmod_Electrostatic_Energy-OPLS-2005>
-436.614624023438

> <r_mmod_Solvation_Energy-OPLS-2005>
-434.271087646484

> <b_mmod_Minimization_Converged-OPLS-2005>
0

> <r_mmod_RMS_Derivative-OPLS-2005>
1.25410830974579

$$$$
5
                    3D
 Structure written by MMmdl.
155164  0  0  1  0            999 V2000
  -30.5912  -14.8935   20.4467 C   0  0  0  0  0  0
  -30.4476  -12.5626   19.4765 C   0  0  0  0  0  0
  -29.5175  -12.5207   18.2424 C   0  0  0  0  0  0
  -28.0477  -12.3266   18.6695 C   0  0  0  0  0  0
  -27.6372  -13.2523   19.8458 C   0  0  2  0  0  0
  -28.6927  -13.2693   20.9745 C   0  0  0  0  0  0
  -25.2502  -13.8279   20.5706 C   0  0  0  0  0  0
  -24.1826  -13.0456   20.9210 C   0  0  0  0  0  0
  -24.6479  -11.6960   20.8790 C   0  0  0  0  0  0
  -23.9159  -10.4315   21.0440 C   0  0  0  0  0  0
  -24.3686   -9.4200   21.9199 C   0  0  0  0  0  0
  -23.6334   -8.2246   22.0761 C   0  0  0  0  0  0
  -22.4297   -8.0329   21.3585 C   0  0  0  0  0  0
  -21.9977   -9.0308   20.4658 C   0  0  0  0  0  0
  -22.7349  -10.2171   20.3068 C   0  0  0  0  0  0
  -21.6845   -6.0759   22.5300 C   0  0  0  0  0  0
  -21.4026   -6.5654   23.8243 C   0  0  0  0  0  0
  -21.3627   -5.6797   24.9196 C   0  0  0  0  0  0
  -21.6035   -4.3064   24.7247 C   0  0  0  0  0  0
  -21.8819   -3.8168   23.4360 C   0  0  0  0  0  0
  -21.9192   -4.6988   22.3421 C   0  0  0  0  0  0
  -22.7828  -13.5205   21.1870 C   0  0  0  0  0  0
  -22.1660   -4.2188   21.0994 F   0  0  0  0  0  0
  -21.5598   -3.4522   25.7739 F   0  0  0  0  0  0
  -29.9684  -13.6594   20.3595 N   0  0  0  0  0  0
  -26.2939  -12.9512   20.3335 N   0  0  0  0  0  0
  -25.9419  -11.6642   20.5851 N   0  0  0  0  0  0
  -22.0485  -12.8163   22.0433 N   0  0  0  0  0  0
  -25.4074  -15.2010   20.4026 N   0  0  0  0  0  0
  -31.8032  -14.9461   20.2122 O   0  0  0  0  0  0
  -21.6646   -6.8940   21.4286 O   0  0  0  0  0  0
  -22.3491  -14.5522   20.6740 O   0  0  0  0  0  0
  -24.6338  -31.8591   23.1983 C   0  0  0  0  0  0
  -25.9126  -32.4821   23.8327 C   0  0  1  0  0  0
  -27.2103  -27.1851   20.1261 C   0  0  0  0  0  0
  -25.5883  -33.8614   24.2275 N   0  0  0  0  0  0
  -23.4377  -30.4849   21.5441 C   0  0  2  0  0  0
  -24.8876  -28.9296   20.0927 C   0  0  0  0  0  0
  -22.7539  -29.4677   22.4913 C   0  0  0  0  0  0
  -18.0293  -28.1429   22.8543 C   0  0  0  0  0  0
  -24.1458  -36.7238   23.2636 C   0  0  0  0  0  0
  -25.9900  -30.7365   21.3987 C   0  0  0  0  0  0
  -26.0619  -29.3519   20.7322 C   0  0  0  0  0  0
  -27.2191  -28.4901   20.7507 C   0  0  0  0  0  0
  -26.0354  -26.8867   19.3926 C   0  0  0  0  0  0
  -24.8902  -27.7110   19.4009 C   0  0  0  0  0  0
  -23.6574  -29.8260   20.1547 C   0  0  0  0  0  0
  -25.4123  -36.3098   24.0335 C   0  0  1  0  0  0
  -20.5908  -28.3764   23.1305 C   0  0  2  0  0  0
  -20.6808  -26.9497   22.5453 C   0  0  0  0  0  0
  -19.5770  -26.6448   21.5257 C   0  0  0  0  0  0
  -18.1948  -26.8022   22.1652 C   0  0  0  0  0  0
  -19.1560  -28.8912   23.2930 C   0  0  0  0  0  0
  -18.9495  -30.1511   23.8999 C   0  0  0  0  0  0
  -17.6521  -30.6673   24.0567 C   0  0  0  0  0  0
  -25.9059  -34.9481   23.5124 C   0  0  0  0  0  0
  -16.5407  -29.9191   23.6331 C   0  0  0  0  0  0
  -16.7289  -28.6543   23.0457 C   0  0  0  0  0  0
  -26.4447  -31.6656   25.0723 C   0  0  0  0  0  0
  -25.3650  -31.3775   26.1421 C   0  0  0  0  0  0
  -27.0285  -30.3093   24.6184 C   0  0  0  0  0  0
  -27.6021  -32.4380   25.7486 C   0  0  0  0  0  0
  -27.5599  -37.1825   24.8490 C   0  0  0  0  0  0
  -21.4220  -29.3074   22.3610 N   0  0  0  0  0  0
  -26.4310  -37.3832   23.9421 N   0  0  0  0  0  0
  -24.7049  -31.0434   22.1049 N   0  0  0  0  0  0
  -23.4223  -28.8215   23.3004 O   0  0  0  0  0  0
  -28.2073  -26.1452   20.2537 O   0  0  0  0  0  0
  -26.5656  -34.8961   22.4705 O   0  0  0  0  0  0
  -23.5461  -32.1433   23.7191 O   0  0  0  0  0  0
  -30.7961  -20.1693   21.8259 C   0  0  0  0  0  0
  -29.4689  -18.7509   20.4269 C   0  0  0  0  0  0
  -31.1480  -17.7194   21.8428 C   0  0  0  0  0  0
  -29.7679  -20.1428   20.8464 C   0  0  0  0  0  0
  -31.4541  -19.0138   22.3216 C   0  0  0  0  0  0
  -30.1447  -17.5123   20.8744 C   0  0  0  0  0  0
  -28.4799  -23.5073   20.5462 C   0  0  0  0  0  0
  -27.9560  -22.1517   20.8757 C   0  0  0  0  0  0
  -27.8450  -24.7817   20.6646 C   0  0  0  0  0  0
  -29.8247  -22.7807   20.1823 C   0  0  0  0  0  0
  -26.5460  -24.8149   21.4720 C   0  0  0  0  0  0
  -29.1267  -21.4668   20.4565 N   0  0  0  0  0  0
  -32.4093  -19.1176   23.3347 N   0  0  0  0  0  0
  -29.8148  -16.0733   20.5217 N   0  0  0  0  0  0
  -26.9060  -21.7988   21.3693 O   0  0  0  0  0  0
  -31.4780  -12.7243   19.1517 H   0  0  0  0  0  0
  -30.4453  -11.6085   20.0083 H   0  0  0  0  0  0
  -29.8154  -11.7246   17.5598 H   0  0  0  0  0  0
  -29.6179  -13.4528   17.6838 H   0  0  0  0  0  0
  -27.9176  -11.2842   18.9654 H   0  0  0  0  0  0
  -27.3849  -12.4788   17.8152 H   0  0  0  0  0  0
  -27.6029  -14.2583   19.4221 H   0  0  0  0  0  0
  -28.7777  -12.2975   21.4560 H   0  0  0  0  0  0
  -28.4126  -13.9760   21.7549 H   0  0  0  0  0  0
  -25.2841   -9.5627   22.4793 H   0  0  0  0  0  0
  -24.0010   -7.4627   22.7476 H   0  0  0  0  0  0
  -21.0882   -8.8890   19.8972 H   0  0  0  0  0  0
  -22.3853  -10.9730   19.6177 H   0  0  0  0  0  0
  -21.2050   -7.6159   23.9786 H   0  0  0  0  0  0
  -21.1417   -6.0493   25.9100 H   0  0  0  0  0  0
  -22.0622   -2.7633   23.2848 H   0  0  0  0  0  0
  -22.4070  -11.9785   22.4775 H   0  0  0  0  0  0
  -21.1166  -13.1303   22.2719 H   0  0  0  0  0  0
  -24.6330  -15.8515   20.5065 H   0  0  0  0  0  0
  -26.2329  -15.6463   20.0260 H   0  0  0  0  0  0
  -26.7139  -32.5465   23.1023 H   0  0  0  0  0  0
  -24.9962  -33.9682   25.0373 H   0  0  0  0  0  0
  -22.7342  -31.3148   21.4075 H   0  0  0  0  0  0
  -23.3798  -35.9500   23.3337 H   0  0  0  0  0  0
  -24.3462  -36.8826   22.2015 H   0  0  0  0  0  0
  -23.7146  -37.6434   23.6628 H   0  0  0  0  0  0
  -26.1307  -31.4921   20.6248 H   0  0  0  0  0  0
  -26.8599  -30.7840   22.0405 H   0  0  0  0  0  0
  -28.1022  -28.7906   21.3001 H   0  0  0  0  0  0
  -25.9653  -25.9538   18.8572 H   0  0  0  0  0  0
  -24.0052  -27.4030   18.8612 H   0  0  0  0  0  0
  -23.7703  -30.6162   19.4088 H   0  0  0  0  0  0
  -22.7639  -29.2808   19.8520 H   0  0  0  0  0  0
  -25.1341  -36.1969   25.0851 H   0  0  0  0  0  0
  -21.0035  -28.3364   24.1397 H   0  0  0  0  0  0
  -20.5774  -26.2398   23.3661 H   0  0  0  0  0  0
  -21.6684  -26.7599   22.1225 H   0  0  0  0  0  0
  -19.6932  -25.6329   21.1336 H   0  0  0  0  0  0
  -19.6667  -27.3204   20.6757 H   0  0  0  0  0  0
  -17.4229  -26.6769   21.4017 H   0  0  0  0  0  0
  -18.0330  -26.0149   22.9046 H   0  0  0  0  0  0
  -19.7992  -30.7247   24.2473 H   0  0  0  0  0  0
  -17.5080  -31.6391   24.5128 H   0  0  0  0  0  0
  -15.5390  -30.3149   23.7622 H   0  0  0  0  0  0
  -15.8668  -28.0836   22.7323 H   0  0  0  0  0  0
  -24.5820  -30.7119   25.7763 H   0  0  0  0  0  0
  -24.8781  -32.2900   26.4837 H   0  0  0  0  0  0
  -25.7903  -30.8955   27.0225 H   0  0  0  0  0  0
  -26.2847  -29.6879   24.1178 H   0  0  0  0  0  0
  -27.3950  -29.7309   25.4666 H   0  0  0  0  0  0
  -27.8733  -30.4403   23.9435 H   0  0  0  0  0  0
  -27.2687  -33.3714   26.2027 H   0  0  0  0  0  0
  -28.3862  -32.6930   25.0350 H   0  0  0  0  0  0
  -28.0665  -31.8538   26.5419 H   0  0  0  0  0  0
  -28.2741  -38.0029   24.7606 H   0  0  0  0  0  0
  -28.1010  -36.2604   24.6335 H   0  0  0  0  0  0
  -27.2280  -37.1511   25.8884 H   0  0  0  0  0  0
  -20.9393  -29.8654   21.6680 H   0  0  0  0  0  0
  -26.0180  -38.2925   24.1460 H   0  0  0  0  0  0
  -31.0652  -21.1265   22.2484 H   0  0  0  0  0  0
  -28.6696  -18.6405   19.7097 H   0  0  0  0  0  0
  -31.6758  -16.8653   22.2523 H   0  0  0  0  0  0
  -30.6587  -22.9436   20.8638 H   0  0  0  0  0  0
  -30.2041  -22.8167   19.1543 H   0  0  0  0  0  0
  -25.6793  -24.6627   20.8271 H   0  0  0  0  0  0
  -26.5252  -24.0555   22.2522 H   0  0  0  0  0  0
  -26.4275  -25.7550   22.0129 H   0  0  0  0  0  0
  -32.4377  -19.9696   23.8803 H   0  0  0  0  0  0
  -32.5574  -18.2960   23.9151 H   0  0  0  0  0  0
  -28.8308  -15.9072   20.3949 H   0  0  0  0  0  0
  1 25  1  0  0  0
  1 30  2  0  0  0
  1 84  1  0  0  0
  2  3  1  0  0  0
  2 25  1  0  0  0
  2 86  1  0  0  0
  2 87  1  0  0  0
  3  4  1  0  0  0
  3 88  1  0  0  0
  3 89  1  0  0  0
  4  5  1  0  0  0
  4 90  1  0  0  0
  4 91  1  0  0  0
  5  6  1  0  0  0
  5 26  1  0  0  0
  5 92  1  0  0  0
  6 25  1  0  0  0
  6 93  1  0  0  0
  6 94  1  0  0  0
  7  8  2  0  0  0
  7 26  1  0  0  0
  7 29  1  0  0  0
  8  9  1  0  0  0
  8 22  1  0  0  0
  9 10  1  0  0  0
  9 27  2  0  0  0
 10 11  2  0  0  0
 10 15  1  0  0  0
 11 12  1  0  0  0
 11 95  1  0  0  0
 12 13  2  0  0  0
 12 96  1  0  0  0
 13 14  1  0  0  0
 13 31  1  0  0  0
 14 15  2  0  0  0
 14 97  1  0  0  0
 15 98  1  0  0  0
 16 17  2  0  0  0
 16 21  1  0  0  0
 16 31  1  0  0  0
 17 18  1  0  0  0
 17 99  1  0  0  0
 18 19  2  0  0  0
 18100  1  0  0  0
 19 20  1  0  0  0
 19 24  1  0  0  0
 20 21  2  0  0  0
 20101  1  0  0  0
 21 23  1  0  0  0
 22 28  1  0  0  0
 22 32  2  0  0  0
 26 27  1  0  0  0
 28102  1  0  0  0
 28103  1  0  0  0
 29104  1  0  0  0
 29105  1  0  0  0
 33 34  1  0  0  0
 33 66  1  0  0  0
 33 70  2  0  0  0
 34 36  1  0  0  0
 34 59  1  0  0  0
 34106  1  0  0  0
 35 44  2  0  0  0
 35 45  1  0  0  0
 35 68  1  0  0  0
 36 56  1  0  0  0
 36107  1  0  0  0
 37 39  1  0  0  0
 37 47  1  0  0  0
 37 66  1  0  0  0
 37108  1  0  0  0
 38 43  2  0  0  0
 38 46  1  0  0  0
 38 47  1  0  0  0
 39 64  1  0  0  0
 39 67  2  0  0  0
 40 52  1  0  0  0
 40 53  2  0  0  0
 40 58  1  0  0  0
 41109  1  0  0  0
 41110  1  0  0  0
 41111  1  0  0  0
 41 48  1  0  0  0
 42 43  1  0  0  0
 42 66  1  0  0  0
 42112  1  0  0  0
 42113  1  0  0  0
 43 44  1  0  0  0
 44114  1  0  0  0
 45 46  2  0  0  0
 45115  1  0  0  0
 46116  1  0  0  0
 47117  1  0  0  0
 47118  1  0  0  0
 48 56  1  0  0  0
 48 65  1  0  0  0
 48119  1  0  0  0
 49 50  1  0  0  0
 49 53  1  0  0  0
 49 64  1  0  0  0
 49120  1  0  0  0
 50 51  1  0  0  0
 50121  1  0  0  0
 50122  1  0  0  0
 51 52  1  0  0  0
 51123  1  0  0  0
 51124  1  0  0  0
 52125  1  0  0  0
 52126  1  0  0  0
 53 54  1  0  0  0
 54 55  2  0  0  0
 54127  1  0  0  0
 55 57  1  0  0  0
 55128  1  0  0  0
 56 69  2  0  0  0
 57 58  2  0  0  0
 57129  1  0  0  0
 58130  1  0  0  0
 59 60  1  0  0  0
 59 61  1  0  0  0
 59 62  1  0  0  0
 60131  1  0  0  0
 60132  1  0  0  0
 60133  1  0  0  0
 61134  1  0  0  0
 61135  1  0  0  0
 61136  1  0  0  0
 62137  1  0  0  0
 62138  1  0  0  0
 62139  1  0  0  0
 63 65  1  0  0  0
 63140  1  0  0  0
 63141  1  0  0  0
 63142  1  0  0  0
 64143  1  0  0  0
 65144  1  0  0  0
 68 79  1  0  0  0
 71 74  2  0  0  0
 71 75  1  0  0  0
 71145  1  0  0  0
 72 74  1  0  0  0
 72 76  2  0  0  0
 72146  1  0  0  0
 73 75  2  0  0  0
 73 76  1  0  0  0
 73147  1  0  0  0
 74 82  1  0  0  0
 75 83  1  0  0  0
 76 84  1  0  0  0
 77 78  1  0  0  0
 77 79  2  0  0  0
 77 80  1  0  0  0
 78 82  1  0  0  0
 78 85  2  0  0  0
 79 81  1  0  0  0
 80 82  1  0  0  0
 80148  1  0  0  0
 80149  1  0  0  0
 81150  1  0  0  0
 81151  1  0  0  0
 81152  1  0  0  0
 83153  1  0  0  0
 83154  1  0  0  0
 84155  1  0  0  0
M  ISO  4   1 100  68 101  79 101  84 100
M  END
> <chiral flag>
0

> <version>
0

> <s_m_source_file>
/data/baiqing/PycharmProjects/Reinvent-master-3.2/result/LINK_invent/BTK/process_docking_weight1_custom_product_contain_oxygen_bond_distance_aromatic_linkinvent_7_9_3/rearranged_h_0079.sdf

> <i_m_source_file_index>
6

> <r_mmod_Potential_Energy-OPLS-2005>
573.611755371094

> <r_mmod_Stretch_Energy-OPLS-2005>
195.951431274414

> <r_mmod_Bend_Energy-OPLS-2005>
277.144195556641

> <r_mmod_Torsional_Energy-OPLS-2005>
281.272827148438

> <r_mmod_Improper_Torsional_Energy-OPLS-2005>
13.4586057662964

> <r_mmod_Van_der_Waal_Energy-OPLS-2005>
148.83625793457

> <r_mmod_Electrostatic_Energy-OPLS-2005>
-283.106719970703

> <r_mmod_Solvation_Energy-OPLS-2005>
-230.924194335938

> <b_mmod_Minimization_Converged-OPLS-2005>
0

> <r_mmod_RMS_Derivative-OPLS-2005>
10.8823156356812

$$$$
6
                    3D
 Structure written by MMmdl.
158166  0  0  1  0            999 V2000
  -30.6939  -14.5166   20.5397 C   0  0  0  0  0  0
  -30.4230  -12.3206   19.4351 C   0  0  0  0  0  0
  -29.5018  -12.5124   18.2114 C   0  0  0  0  0  0
  -28.0219  -12.3708   18.6182 C   0  0  0  0  0  0
  -27.6622  -13.2126   19.8728 C   0  0  2  0  0  0
  -28.7058  -13.0187   20.9965 C   0  0  0  0  0  0
  -25.2601  -13.8160   20.5674 C   0  0  0  0  0  0
  -24.1849  -13.0433   20.9164 C   0  0  0  0  0  0
  -24.6398  -11.6901   20.8695 C   0  0  0  0  0  0
  -23.9055  -10.4286   21.0362 C   0  0  0  0  0  0
  -24.3601   -9.4211   21.9160 C   0  0  0  0  0  0
  -23.6281   -8.2236   22.0741 C   0  0  0  0  0  0
  -22.4266   -8.0260   21.3532 C   0  0  0  0  0  0
  -21.9890   -9.0226   20.4632 C   0  0  0  0  0  0
  -22.7216  -10.2110   20.3027 C   0  0  0  0  0  0
  -21.6848   -6.0721   22.5279 C   0  0  0  0  0  0
  -21.4011   -6.5633   23.8210 C   0  0  0  0  0  0
  -21.3663   -5.6785   24.9174 C   0  0  0  0  0  0
  -21.6043   -4.3045   24.7224 C   0  0  0  0  0  0
  -21.8824   -3.8131   23.4349 C   0  0  0  0  0  0
  -21.9196   -4.6945   22.3409 C   0  0  0  0  0  0
  -22.7875  -13.5229   21.1836 C   0  0  0  0  0  0
  -22.1668   -4.2130   21.0979 F   0  0  0  0  0  0
  -21.5632   -3.4531   25.7736 F   0  0  0  0  0  0
  -30.0344  -13.3251   20.4400 N   0  0  0  0  0  0
  -26.3032  -12.9346   20.3344 N   0  0  0  0  0  0
  -25.9335  -11.6499   20.5739 N   0  0  0  0  0  0
  -22.0504  -12.8207   22.0379 N   0  0  0  0  0  0
  -25.4353  -15.1875   20.4090 N   0  0  0  0  0  0
  -31.8372  -14.6668   20.1025 O   0  0  0  0  0  0
  -21.6639   -6.8851   21.4227 O   0  0  0  0  0  0
  -22.3567  -14.5538   20.6702 O   0  0  0  0  0  0
  -24.6177  -31.8637   23.2054 C   0  0  0  0  0  0
  -25.9060  -32.4789   23.8374 C   0  0  1  0  0  0
  -27.2433  -27.4085   20.1056 C   0  0  0  0  0  0
  -25.5899  -33.8588   24.2302 N   0  0  0  0  0  0
  -23.4072  -30.4831   21.5478 C   0  0  2  0  0  0
  -24.8584  -28.9436   20.1124 C   0  0  0  0  0  0
  -22.7431  -29.4632   22.5014 C   0  0  0  0  0  0
  -18.0258  -28.1373   22.8497 C   0  0  0  0  0  0
  -24.1483  -36.7305   23.2644 C   0  0  0  0  0  0
  -25.9384  -30.8218   21.3624 C   0  0  0  0  0  0
  -26.0198  -29.4541   20.7092 C   0  0  0  0  0  0
  -27.2175  -28.6944   20.7027 C   0  0  0  0  0  0
  -26.0684  -26.9209   19.4981 C   0  0  0  0  0  0
  -24.8793  -27.6785   19.4996 C   0  0  0  0  0  0
  -23.6139  -29.8034   20.1673 C   0  0  0  0  0  0
  -25.4101  -36.3095   24.0349 C   0  0  1  0  0  0
  -20.5849  -28.3658   23.1321 C   0  0  2  0  0  0
  -20.6730  -26.9393   22.5423 C   0  0  0  0  0  0
  -19.5724  -26.6375   21.5212 C   0  0  0  0  0  0
  -18.1899  -26.7936   22.1605 C   0  0  0  0  0  0
  -19.1507  -28.8837   23.2899 C   0  0  0  0  0  0
  -18.9434  -30.1455   23.8898 C   0  0  0  0  0  0
  -17.6431  -30.6592   24.0552 C   0  0  0  0  0  0
  -25.9034  -34.9457   23.5125 C   0  0  0  0  0  0
  -16.5322  -29.9077   23.6349 C   0  0  0  0  0  0
  -16.7242  -28.6487   23.0381 C   0  0  0  0  0  0
  -26.4467  -31.6605   25.0732 C   0  0  0  0  0  0
  -25.3713  -31.3719   26.1467 C   0  0  0  0  0  0
  -27.0322  -30.3046   24.6173 C   0  0  0  0  0  0
  -27.6042  -32.4343   25.7477 C   0  0  0  0  0  0
  -27.5584  -37.1798   24.8458 C   0  0  0  0  0  0
  -21.4156  -29.3023   22.3748 N   0  0  0  0  0  0
  -26.4287  -37.3788   23.9419 N   0  0  0  0  0  0
  -24.6724  -31.0717   22.0960 N   0  0  0  0  0  0
  -23.4190  -28.8209   23.3083 O   0  0  0  0  0  0
  -28.3609  -26.5921   20.1236 O   0  0  0  0  0  0
  -26.5608  -34.8920   22.4695 O   0  0  0  0  0  0
  -23.5359  -32.1392   23.7449 O   0  0  0  0  0  0
  -31.5305  -19.0103   20.6262 C   0  0  0  0  0  0
  -29.1638  -19.2453   21.0598 C   0  0  0  0  0  0
  -31.4124  -17.5994   20.6797 C   0  0  0  0  0  0
  -29.0441  -17.8330   21.1160 C   0  0  0  0  0  0
  -30.4125  -19.8628   20.8086 C   0  0  0  0  0  0
  -30.1603  -16.9792   20.9216 C   0  0  0  0  0  0
  -28.4555  -25.7557   21.2191 C   0  0  0  0  0  0
  -30.5956  -21.3765   20.7964 C   0  0  0  0  0  0
  -28.9717  -24.4956   21.3074 C   0  0  0  0  0  0
  -28.9724  -23.8300   22.6758 C   0  0  0  0  0  0
  -28.9546  -23.8842   18.7972 C   0  0  0  0  0  0
  -29.5793  -23.6259   20.1752 C   0  0  2  0  0  0
  -29.9521  -15.5524   21.0063 N   0  0  0  0  0  0
  -29.5537  -22.1567   20.4318 N   0  0  0  0  0  0
  -31.7023  -21.8525   21.0573 O   0  0  0  0  0  0
  -31.4708  -12.4053   19.1410 H   0  0  0  0  0  0
  -30.3104  -11.3144   19.8422 H   0  0  0  0  0  0
  -29.7457  -11.7878   17.4331 H   0  0  0  0  0  0
  -29.6705  -13.4981   17.7745 H   0  0  0  0  0  0
  -27.8296  -11.3151   18.8135 H   0  0  0  0  0  0
  -27.3746  -12.6460   17.7851 H   0  0  0  0  0  0
  -27.6983  -14.2580   19.5663 H   0  0  0  0  0  0
  -28.6865  -11.9893   21.3587 H   0  0  0  0  0  0
  -28.4661  -13.6366   21.8630 H   0  0  0  0  0  0
  -25.2741   -9.5708   22.4746 H   0  0  0  0  0  0
  -23.9992   -7.4634   22.7471 H   0  0  0  0  0  0
  -21.0819   -8.8733   19.8948 H   0  0  0  0  0  0
  -22.3652  -10.9634   19.6128 H   0  0  0  0  0  0
  -21.2001   -7.6138   23.9703 H   0  0  0  0  0  0
  -21.1483   -6.0518   25.9080 H   0  0  0  0  0  0
  -22.0597   -2.7591   23.2848 H   0  0  0  0  0  0
  -22.4106  -11.9845   22.4736 H   0  0  0  0  0  0
  -21.1128  -13.1248   22.2596 H   0  0  0  0  0  0
  -24.6709  -15.8455   20.5156 H   0  0  0  0  0  0
  -26.2892  -15.6184   20.0783 H   0  0  0  0  0  0
  -26.7145  -32.5495   23.1152 H   0  0  0  0  0  0
  -25.0097  -33.9735   25.0482 H   0  0  0  0  0  0
  -22.6962  -31.3005   21.4044 H   0  0  0  0  0  0
  -23.3750  -35.9632   23.3277 H   0  0  0  0  0  0
  -24.3587  -36.8940   22.2065 H   0  0  0  0  0  0
  -23.7208  -37.6490   23.6672 H   0  0  0  0  0  0
  -26.0548  -31.5875   20.5936 H   0  0  0  0  0  0
  -26.8228  -30.8743   21.9865 H   0  0  0  0  0  0
  -28.1132  -29.0789   21.1689 H   0  0  0  0  0  0
  -26.0741  -25.9400   19.0400 H   0  0  0  0  0  0
  -23.9886  -27.2759   19.0361 H   0  0  0  0  0  0
  -23.7002  -30.5666   19.3946 H   0  0  0  0  0  0
  -22.7413  -29.2086   19.8899 H   0  0  0  0  0  0
  -25.1281  -36.1951   25.0845 H   0  0  0  0  0  0
  -20.9935  -28.3196   24.1445 H   0  0  0  0  0  0
  -20.5605  -26.2274   23.3613 H   0  0  0  0  0  0
  -21.6595  -26.7426   22.1223 H   0  0  0  0  0  0
  -19.6869  -25.6278   21.1256 H   0  0  0  0  0  0
  -19.6681  -27.3181   20.6741 H   0  0  0  0  0  0
  -17.4190  -26.6727   21.3976 H   0  0  0  0  0  0
  -18.0271  -26.0056   22.8973 H   0  0  0  0  0  0
  -19.7908  -30.7268   24.2258 H   0  0  0  0  0  0
  -17.4985  -31.6272   24.5142 H   0  0  0  0  0  0
  -15.5321  -30.2966   23.7684 H   0  0  0  0  0  0
  -15.8634  -28.0789   22.7131 H   0  0  0  0  0  0
  -24.5910  -30.7047   25.7793 H   0  0  0  0  0  0
  -24.8876  -32.2875   26.4893 H   0  0  0  0  0  0
  -25.8046  -30.8904   27.0248 H   0  0  0  0  0  0
  -26.2904  -29.6783   24.1211 H   0  0  0  0  0  0
  -27.4043  -29.7318   25.4683 H   0  0  0  0  0  0
  -27.8755  -30.4344   23.9382 H   0  0  0  0  0  0
  -27.2667  -33.3655   26.2050 H   0  0  0  0  0  0
  -28.3829  -32.6889   25.0275 H   0  0  0  0  0  0
  -28.0745  -31.8482   26.5383 H   0  0  0  0  0  0
  -28.2579  -38.0118   24.7541 H   0  0  0  0  0  0
  -28.1095  -36.2652   24.6227 H   0  0  0  0  0  0
  -27.2322  -37.1375   25.8864 H   0  0  0  0  0  0
  -20.9355  -29.8714   21.6921 H   0  0  0  0  0  0
  -26.0172  -38.2868   24.1411 H   0  0  0  0  0  0
  -32.5061  -19.4435   20.4511 H   0  0  0  0  0  0
  -28.2860  -19.8520   21.2278 H   0  0  0  0  0  0
  -32.3098  -17.0139   20.5439 H   0  0  0  0  0  0
  -28.0703  -17.4084   21.3158 H   0  0  0  0  0  0
  -28.0575  -26.2420   22.1014 H   0  0  0  0  0  0
  -28.6238  -24.5066   23.4580 H   0  0  0  0  0  0
  -29.9807  -23.5150   22.9480 H   0  0  0  0  0  0
  -28.3196  -22.9567   22.6851 H   0  0  0  0  0  0
  -29.0998  -24.9138   18.4706 H   0  0  0  0  0  0
  -27.8841  -23.6750   18.8009 H   0  0  0  0  0  0
  -29.4142  -23.2466   18.0410 H   0  0  0  0  0  0
  -30.6234  -23.9362   20.1092 H   0  0  0  0  0  0
  -29.0350  -15.2719   21.3133 H   0  0  0  0  0  0
  -28.6944  -21.6730   20.2183 H   0  0  0  0  0  0
  1 25  1  0  0  0
  1 30  2  0  0  0
  1 83  1  0  0  0
  2  3  1  0  0  0
  2 25  1  0  0  0
  2 86  1  0  0  0
  2 87  1  0  0  0
  3  4  1  0  0  0
  3 88  1  0  0  0
  3 89  1  0  0  0
  4  5  1  0  0  0
  4 90  1  0  0  0
  4 91  1  0  0  0
  5  6  1  0  0  0
  5 26  1  0  0  0
  5 92  1  0  0  0
  6 25  1  0  0  0
  6 93  1  0  0  0
  6 94  1  0  0  0
  7  8  2  0  0  0
  7 26  1  0  0  0
  7 29  1  0  0  0
  8  9  1  0  0  0
  8 22  1  0  0  0
  9 10  1  0  0  0
  9 27  2  0  0  0
 10 11  2  0  0  0
 10 15  1  0  0  0
 11 12  1  0  0  0
 11 95  1  0  0  0
 12 13  2  0  0  0
 12 96  1  0  0  0
 13 14  1  0  0  0
 13 31  1  0  0  0
 14 15  2  0  0  0
 14 97  1  0  0  0
 15 98  1  0  0  0
 16 17  2  0  0  0
 16 21  1  0  0  0
 16 31  1  0  0  0
 17 18  1  0  0  0
 17 99  1  0  0  0
 18 19  2  0  0  0
 18100  1  0  0  0
 19 20  1  0  0  0
 19 24  1  0  0  0
 20 21  2  0  0  0
 20101  1  0  0  0
 21 23  1  0  0  0
 22 28  1  0  0  0
 22 32  2  0  0  0
 26 27  1  0  0  0
 28102  1  0  0  0
 28103  1  0  0  0
 29104  1  0  0  0
 29105  1  0  0  0
 33 34  1  0  0  0
 33 66  1  0  0  0
 33 70  2  0  0  0
 34 36  1  0  0  0
 34 59  1  0  0  0
 34106  1  0  0  0
 35 44  2  0  0  0
 35 45  1  0  0  0
 35 68  1  0  0  0
 36 56  1  0  0  0
 36107  1  0  0  0
 37 39  1  0  0  0
 37 47  1  0  0  0
 37 66  1  0  0  0
 37108  1  0  0  0
 38 43  2  0  0  0
 38 46  1  0  0  0
 38 47  1  0  0  0
 39 64  1  0  0  0
 39 67  2  0  0  0
 40 52  1  0  0  0
 40 53  2  0  0  0
 40 58  1  0  0  0
 41109  1  0  0  0
 41110  1  0  0  0
 41111  1  0  0  0
 41 48  1  0  0  0
 42 43  1  0  0  0
 42 66  1  0  0  0
 42112  1  0  0  0
 42113  1  0  0  0
 43 44  1  0  0  0
 44114  1  0  0  0
 45 46  2  0  0  0
 45115  1  0  0  0
 46116  1  0  0  0
 47117  1  0  0  0
 47118  1  0  0  0
 48 56  1  0  0  0
 48 65  1  0  0  0
 48119  1  0  0  0
 49 50  1  0  0  0
 49 53  1  0  0  0
 49 64  1  0  0  0
 49120  1  0  0  0
 50 51  1  0  0  0
 50121  1  0  0  0
 50122  1  0  0  0
 51 52  1  0  0  0
 51123  1  0  0  0
 51124  1  0  0  0
 52125  1  0  0  0
 52126  1  0  0  0
 53 54  1  0  0  0
 54 55  2  0  0  0
 54127  1  0  0  0
 55 57  1  0  0  0
 55128  1  0  0  0
 56 69  2  0  0  0
 57 58  2  0  0  0
 57129  1  0  0  0
 58130  1  0  0  0
 59 60  1  0  0  0
 59 61  1  0  0  0
 59 62  1  0  0  0
 60131  1  0  0  0
 60132  1  0  0  0
 60133  1  0  0  0
 61134  1  0  0  0
 61135  1  0  0  0
 61136  1  0  0  0
 62137  1  0  0  0
 62138  1  0  0  0
 62139  1  0  0  0
 63 65  1  0  0  0
 63140  1  0  0  0
 63141  1  0  0  0
 63142  1  0  0  0
 64143  1  0  0  0
 65144  1  0  0  0
 68 77  1  0  0  0
 71 73  2  0  0  0
 71 75  1  0  0  0
 71145  1  0  0  0
 72 74  1  0  0  0
 72 75  2  0  0  0
 72146  1  0  0  0
 73 76  1  0  0  0
 73147  1  0  0  0
 74 76  2  0  0  0
 74148  1  0  0  0
 75 78  1  0  0  0
 76 83  1  0  0  0
 77 79  2  0  0  0
 77149  1  0  0  0
 78 84  1  0  0  0
 78 85  2  0  0  0
 79 80  1  0  0  0
 79 82  1  0  0  0
 80150  1  0  0  0
 80151  1  0  0  0
 80152  1  0  0  0
 81153  1  0  0  0
 81154  1  0  0  0
 81155  1  0  0  0
 81 82  1  0  0  0
 82 84  1  0  0  0
 82156  1  0  0  0
 83157  1  0  0  0
 84158  1  0  0  0
M  ISO  4   1 100  68 101  77 101  83 100
M  END
> <chiral flag>
0

> <version>
0

> <s_m_source_file>
/data/baiqing/PycharmProjects/Reinvent-master-3.2/result/LINK_invent/BTK/process_docking_weight1_custom_product_contain_oxygen_bond_distance_aromatic_linkinvent_7_9_3/rearranged_h_0079.sdf

> <i_m_source_file_index>
7

> <r_mmod_Potential_Energy-OPLS-2005>
-74.3631134033203

> <r_mmod_Stretch_Energy-OPLS-2005>
48.8970909118652

> <r_mmod_Bend_Energy-OPLS-2005>
118.689437866211

> <r_mmod_Torsional_Energy-OPLS-2005>
226.734924316406

> <r_mmod_Improper_Torsional_Energy-OPLS-2005>
4.3875846862793

> <r_mmod_Van_der_Waal_Energy-OPLS-2005>
151.83235168457

> <r_mmod_Electrostatic_Energy-OPLS-2005>
-426.149963378906

> <r_mmod_Solvation_Energy-OPLS-2005>
-218.260589599609

> <b_mmod_Minimization_Converged-OPLS-2005>
0

> <r_mmod_RMS_Derivative-OPLS-2005>
2.59779262542725

$$$$
7
                    3D
 Structure written by MMmdl.
154162  0  0  1  0            999 V2000
  -30.6745  -14.5461   20.5320 C   0  0  0  0  0  0
  -30.4282  -12.3430   19.4339 C   0  0  0  0  0  0
  -29.4987  -12.4983   18.2118 C   0  0  0  0  0  0
  -28.0213  -12.3483   18.6265 C   0  0  0  0  0  0
  -27.6551  -13.2105   19.8642 C   0  0  2  0  0  0
  -28.7000  -13.0409   20.9902 C   0  0  0  0  0  0
  -25.2567  -13.8161   20.5675 C   0  0  0  0  0  0
  -24.1828  -13.0435   20.9187 C   0  0  0  0  0  0
  -24.6389  -11.6903   20.8740 C   0  0  0  0  0  0
  -23.9056  -10.4290   21.0406 C   0  0  0  0  0  0
  -24.3611   -9.4205   21.9183 C   0  0  0  0  0  0
  -23.6287   -8.2241   22.0753 C   0  0  0  0  0  0
  -22.4269   -8.0280   21.3545 C   0  0  0  0  0  0
  -21.9902   -9.0252   20.4647 C   0  0  0  0  0  0
  -22.7229  -10.2132   20.3056 C   0  0  0  0  0  0
  -21.6852   -6.0733   22.5278 C   0  0  0  0  0  0
  -21.4015   -6.5638   23.8211 C   0  0  0  0  0  0
  -21.3659   -5.6791   24.9174 C   0  0  0  0  0  0
  -21.6043   -4.3053   24.7226 C   0  0  0  0  0  0
  -21.8819   -3.8145   23.4347 C   0  0  0  0  0  0
  -21.9192   -4.6961   22.3402 C   0  0  0  0  0  0
  -22.7852  -13.5234   21.1849 C   0  0  0  0  0  0
  -22.1660   -4.2146   21.0980 F   0  0  0  0  0  0
  -21.5628   -3.4538   25.7739 F   0  0  0  0  0  0
  -30.0213  -13.3536   20.4247 N   0  0  0  0  0  0
  -26.2995  -12.9334   20.3325 N   0  0  0  0  0  0
  -25.9315  -11.6494   20.5757 N   0  0  0  0  0  0
  -22.0489  -12.8233   22.0408 N   0  0  0  0  0  0
  -25.4274  -15.1882   20.4075 N   0  0  0  0  0  0
  -31.8411  -14.6889   20.1545 O   0  0  0  0  0  0
  -21.6636   -6.8876   21.4240 O   0  0  0  0  0  0
  -22.3540  -14.5540   20.6693 O   0  0  0  0  0  0
  -24.6203  -31.8649   23.2076 C   0  0  0  0  0  0
  -25.9076  -32.4805   23.8381 C   0  0  1  0  0  0
  -27.2281  -27.3819   20.0925 C   0  0  0  0  0  0
  -25.5915  -33.8604   24.2309 N   0  0  0  0  0  0
  -23.4098  -30.4906   21.5499 C   0  0  2  0  0  0
  -24.8536  -28.9547   20.1123 C   0  0  0  0  0  0
  -22.7438  -29.4650   22.4966 C   0  0  0  0  0  0
  -18.0279  -28.1378   22.8490 C   0  0  0  0  0  0
  -24.1489  -36.7308   23.2638 C   0  0  0  0  0  0
  -25.9460  -30.8134   21.3698 C   0  0  0  0  0  0
  -26.0199  -29.4463   20.7111 C   0  0  0  0  0  0
  -27.2079  -28.6682   20.6979 C   0  0  0  0  0  0
  -26.0305  -26.9190   19.4939 C   0  0  0  0  0  0
  -24.8564  -27.6922   19.5009 C   0  0  0  0  0  0
  -23.6198  -29.8284   20.1634 C   0  0  0  0  0  0
  -25.4111  -36.3101   24.0333 C   0  0  1  0  0  0
  -20.5873  -28.3674   23.1301 C   0  0  2  0  0  0
  -20.6770  -26.9404   22.5413 C   0  0  0  0  0  0
  -19.5747  -26.6383   21.5212 C   0  0  0  0  0  0
  -18.1926  -26.7923   22.1624 C   0  0  0  0  0  0
  -19.1529  -28.8842   23.2892 C   0  0  0  0  0  0
  -18.9456  -30.1447   23.8905 C   0  0  0  0  0  0
  -17.6458  -30.6584   24.0565 C   0  0  0  0  0  0
  -25.9043  -34.9467   23.5119 C   0  0  0  0  0  0
  -16.5348  -29.9085   23.6326 C   0  0  0  0  0  0
  -16.7267  -28.6501   23.0348 C   0  0  0  0  0  0
  -26.4483  -31.6596   25.0727 C   0  0  0  0  0  0
  -25.3737  -31.3718   26.1468 C   0  0  0  0  0  0
  -27.0317  -30.3029   24.6140 C   0  0  0  0  0  0
  -27.6052  -32.4322   25.7492 C   0  0  0  0  0  0
  -27.5581  -37.1809   24.8464 C   0  0  0  0  0  0
  -21.4159  -29.3039   22.3706 N   0  0  0  0  0  0
  -26.4295  -37.3788   23.9406 N   0  0  0  0  0  0
  -24.6773  -31.0712   22.0999 N   0  0  0  0  0  0
  -23.4190  -28.8186   23.3020 O   0  0  0  0  0  0
  -28.3781  -26.5951   20.1310 O   0  0  0  0  0  0
  -26.5606  -34.8924   22.4682 O   0  0  0  0  0  0
  -23.5384  -32.1424   23.7442 O   0  0  0  0  0  0
  -31.7983  -18.7537   21.7395 C   0  0  0  0  0  0
  -30.9992  -19.7539   21.1474 C   0  0  0  0  0  0
  -31.4472  -17.3926   21.6371 C   0  0  0  0  0  0
  -29.4611  -18.0258   20.3823 C   0  0  0  0  0  0
  -29.8137  -19.4113   20.4574 C   0  0  0  0  0  0
  -30.2788  -17.0024   20.9459 C   0  0  0  0  0  0
  -28.3552  -25.3112   19.5928 C   0  0  0  0  0  0
  -29.0075  -20.4685   19.7093 C   0  0  0  0  0  0
  -28.7381  -24.1595   20.2195 C   0  0  0  0  0  0
  -28.5851  -22.8775   19.4866 C   0  0  0  0  0  0
  -29.2861  -24.1594   21.6392 C   0  0  0  0  0  0
  -29.9004  -15.6133   20.8620 N   0  0  0  0  0  0
  -29.0872  -21.7708   20.1103 N   0  0  0  0  0  0
  -28.2980  -20.0800   18.7738 O   0  0  0  0  0  0
  -28.0329  -22.8232   18.3805 O   0  0  0  0  0  0
  -31.4714  -12.4509   19.1314 H   0  0  0  0  0  0
  -30.3425  -11.3422   19.8600 H   0  0  0  0  0  0
  -29.7491  -11.7581   17.4508 H   0  0  0  0  0  0
  -29.6541  -13.4751   17.7508 H   0  0  0  0  0  0
  -27.8475  -11.2944   18.8471 H   0  0  0  0  0  0
  -27.3674  -12.5935   17.7888 H   0  0  0  0  0  0
  -27.6817  -14.2491   19.5350 H   0  0  0  0  0  0
  -28.6919  -12.0178   21.3688 H   0  0  0  0  0  0
  -28.4615  -13.6752   21.8453 H   0  0  0  0  0  0
  -25.2757   -9.5679   22.4755 H   0  0  0  0  0  0
  -23.9997   -7.4631   22.7471 H   0  0  0  0  0  0
  -21.0833   -8.8771   19.8954 H   0  0  0  0  0  0
  -22.3688  -10.9670   19.6164 H   0  0  0  0  0  0
  -21.2009   -7.6146   23.9713 H   0  0  0  0  0  0
  -21.1480   -6.0522   25.9077 H   0  0  0  0  0  0
  -22.0599   -2.7607   23.2848 H   0  0  0  0  0  0
  -22.4103  -11.9900   22.4808 H   0  0  0  0  0  0
  -21.1108  -13.1265   22.2609 H   0  0  0  0  0  0
  -24.6565  -15.8396   20.5102 H   0  0  0  0  0  0
  -26.2705  -15.6278   20.0619 H   0  0  0  0  0  0
  -26.7146  -32.5493   23.1137 H   0  0  0  0  0  0
  -25.0064  -33.9761   25.0455 H   0  0  0  0  0  0
  -22.7008  -31.3095   21.4115 H   0  0  0  0  0  0
  -23.3747  -35.9645   23.3310 H   0  0  0  0  0  0
  -24.3581  -36.8915   22.2050 H   0  0  0  0  0  0
  -23.7249  -37.6518   23.6650 H   0  0  0  0  0  0
  -26.0701  -31.5804   20.6040 H   0  0  0  0  0  0
  -26.8297  -30.8606   21.9947 H   0  0  0  0  0  0
  -28.1062  -29.0419   21.1688 H   0  0  0  0  0  0
  -25.9664  -25.9473   19.0279 H   0  0  0  0  0  0
  -23.9581  -27.3044   19.0407 H   0  0  0  0  0  0
  -23.7345  -30.6062   19.4075 H   0  0  0  0  0  0
  -22.7410  -29.2550   19.8628 H   0  0  0  0  0  0
  -25.1289  -36.1962   25.0827 H   0  0  0  0  0  0
  -20.9964  -28.3243   24.1423 H   0  0  0  0  0  0
  -20.5673  -26.2282   23.3604 H   0  0  0  0  0  0
  -21.6641  -26.7443   22.1207 H   0  0  0  0  0  0
  -19.6910  -25.6296   21.1236 H   0  0  0  0  0  0
  -19.6685  -27.3198   20.6745 H   0  0  0  0  0  0
  -17.4195  -26.6669   21.4028 H   0  0  0  0  0  0
  -18.0329  -26.0064   22.9019 H   0  0  0  0  0  0
  -19.7933  -30.7259   24.2279 H   0  0  0  0  0  0
  -17.5014  -31.6266   24.5163 H   0  0  0  0  0  0
  -15.5350  -30.2991   23.7645 H   0  0  0  0  0  0
  -15.8666  -28.0824   22.7059 H   0  0  0  0  0  0
  -24.5904  -30.7072   25.7803 H   0  0  0  0  0  0
  -24.8937  -32.2880   26.4917 H   0  0  0  0  0  0
  -25.8079  -30.8881   27.0227 H   0  0  0  0  0  0
  -26.2876  -29.6790   24.1176 H   0  0  0  0  0  0
  -27.4049  -29.7270   25.4619 H   0  0  0  0  0  0
  -27.8730  -30.4332   23.9328 H   0  0  0  0  0  0
  -27.2664  -33.3610   26.2094 H   0  0  0  0  0  0
  -28.3847  -32.6902   25.0311 H   0  0  0  0  0  0
  -28.0737  -31.8433   26.5388 H   0  0  0  0  0  0
  -28.2604  -38.0101   24.7506 H   0  0  0  0  0  0
  -28.1071  -36.2633   24.6295 H   0  0  0  0  0  0
  -27.2299  -37.1467   25.8867 H   0  0  0  0  0  0
  -20.9322  -29.8771   21.6934 H   0  0  0  0  0  0
  -26.0181  -38.2867   24.1401 H   0  0  0  0  0  0
  -32.7013  -19.0320   22.2653 H   0  0  0  0  0  0
  -31.3261  -20.7826   21.2107 H   0  0  0  0  0  0
  -32.0848  -16.6512   22.0986 H   0  0  0  0  0  0
  -28.5652  -17.7440   19.8462 H   0  0  0  0  0  0
  -27.9886  -25.3199   18.5748 H   0  0  0  0  0  0
  -29.2973  -25.1664   22.0567 H   0  0  0  0  0  0
  -30.3095  -23.7836   21.6602 H   0  0  0  0  0  0
  -28.6686  -23.5408   22.2916 H   0  0  0  0  0  0
  -28.9196  -15.4078   20.9720 H   0  0  0  0  0  0
  -29.5903  -21.9406   20.9649 H   0  0  0  0  0  0
  1 25  1  0  0  0
  1 30  2  0  0  0
  1 82  1  0  0  0
  2  3  1  0  0  0
  2 25  1  0  0  0
  2 86  1  0  0  0
  2 87  1  0  0  0
  3  4  1  0  0  0
  3 88  1  0  0  0
  3 89  1  0  0  0
  4  5  1  0  0  0
  4 90  1  0  0  0
  4 91  1  0  0  0
  5  6  1  0  0  0
  5 26  1  0  0  0
  5 92  1  0  0  0
  6 25  1  0  0  0
  6 93  1  0  0  0
  6 94  1  0  0  0
  7  8  2  0  0  0
  7 26  1  0  0  0
  7 29  1  0  0  0
  8  9  1  0  0  0
  8 22  1  0  0  0
  9 10  1  0  0  0
  9 27  2  0  0  0
 10 11  2  0  0  0
 10 15  1  0  0  0
 11 12  1  0  0  0
 11 95  1  0  0  0
 12 13  2  0  0  0
 12 96  1  0  0  0
 13 14  1  0  0  0
 13 31  1  0  0  0
 14 15  2  0  0  0
 14 97  1  0  0  0
 15 98  1  0  0  0
 16 17  2  0  0  0
 16 21  1  0  0  0
 16 31  1  0  0  0
 17 18  1  0  0  0
 17 99  1  0  0  0
 18 19  2  0  0  0
 18100  1  0  0  0
 19 20  1  0  0  0
 19 24  1  0  0  0
 20 21  2  0  0  0
 20101  1  0  0  0
 21 23  1  0  0  0
 22 28  1  0  0  0
 22 32  2  0  0  0
 26 27  1  0  0  0
 28102  1  0  0  0
 28103  1  0  0  0
 29104  1  0  0  0
 29105  1  0  0  0
 33 34  1  0  0  0
 33 66  1  0  0  0
 33 70  2  0  0  0
 34 36  1  0  0  0
 34 59  1  0  0  0
 34106  1  0  0  0
 35 44  2  0  0  0
 35 45  1  0  0  0
 35 68  1  0  0  0
 36 56  1  0  0  0
 36107  1  0  0  0
 37 39  1  0  0  0
 37 47  1  0  0  0
 37 66  1  0  0  0
 37108  1  0  0  0
 38 43  2  0  0  0
 38 46  1  0  0  0
 38 47  1  0  0  0
 39 64  1  0  0  0
 39 67  2  0  0  0
 40 52  1  0  0  0
 40 53  2  0  0  0
 40 58  1  0  0  0
 41109  1  0  0  0
 41110  1  0  0  0
 41111  1  0  0  0
 41 48  1  0  0  0
 42 43  1  0  0  0
 42 66  1  0  0  0
 42112  1  0  0  0
 42113  1  0  0  0
 43 44  1  0  0  0
 44114  1  0  0  0
 45 46  2  0  0  0
 45115  1  0  0  0
 46116  1  0  0  0
 47117  1  0  0  0
 47118  1  0  0  0
 48 56  1  0  0  0
 48 65  1  0  0  0
 48119  1  0  0  0
 49 50  1  0  0  0
 49 53  1  0  0  0
 49 64  1  0  0  0
 49120  1  0  0  0
 50 51  1  0  0  0
 50121  1  0  0  0
 50122  1  0  0  0
 51 52  1  0  0  0
 51123  1  0  0  0
 51124  1  0  0  0
 52125  1  0  0  0
 52126  1  0  0  0
 53 54  1  0  0  0
 54 55  2  0  0  0
 54127  1  0  0  0
 55 57  1  0  0  0
 55128  1  0  0  0
 56 69  2  0  0  0
 57 58  2  0  0  0
 57129  1  0  0  0
 58130  1  0  0  0
 59 60  1  0  0  0
 59 61  1  0  0  0
 59 62  1  0  0  0
 60131  1  0  0  0
 60132  1  0  0  0
 60133  1  0  0  0
 61134  1  0  0  0
 61135  1  0  0  0
 61136  1  0  0  0
 62137  1  0  0  0
 62138  1  0  0  0
 62139  1  0  0  0
 63 65  1  0  0  0
 63140  1  0  0  0
 63141  1  0  0  0
 63142  1  0  0  0
 64143  1  0  0  0
 65144  1  0  0  0
 68 77  1  0  0  0
 71 72  2  0  0  0
 71 73  1  0  0  0
 71145  1  0  0  0
 72 75  1  0  0  0
 72146  1  0  0  0
 73 76  2  0  0  0
 73147  1  0  0  0
 74 75  2  0  0  0
 74 76  1  0  0  0
 74148  1  0  0  0
 75 78  1  0  0  0
 76 82  1  0  0  0
 77 79  2  0  0  0
 77149  1  0  0  0
 78 83  1  0  0  0
 78 84  2  0  0  0
 79 80  1  0  0  0
 79 81  1  0  0  0
 80 83  1  0  0  0
 80 85  2  0  0  0
 81150  1  0  0  0
 81151  1  0  0  0
 81152  1  0  0  0
 82153  1  0  0  0
 83154  1  0  0  0
M  ISO  4   1 100  68 101  77 101  82 100
M  END
> <chiral flag>
0

> <version>
0

> <s_m_source_file>
/data/baiqing/PycharmProjects/Reinvent-master-3.2/result/LINK_invent/BTK/process_docking_weight1_custom_product_contain_oxygen_bond_distance_aromatic_linkinvent_7_9_3/rearranged_h_0079.sdf

> <i_m_source_file_index>
8

> <r_mmod_Potential_Energy-OPLS-2005>
-146.576263427734

> <r_mmod_Stretch_Energy-OPLS-2005>
53.2053680419922

> <r_mmod_Bend_Energy-OPLS-2005>
105.847007751465

> <r_mmod_Torsional_Energy-OPLS-2005>
242.159622192383

> <r_mmod_Improper_Torsional_Energy-OPLS-2005>
5.61307764053345

> <r_mmod_Van_der_Waal_Energy-OPLS-2005>
168.70263671875

> <r_mmod_Electrostatic_Energy-OPLS-2005>
-492.484649658203

> <r_mmod_Solvation_Energy-OPLS-2005>
-255.336929321289

> <b_mmod_Minimization_Converged-OPLS-2005>
0

> <r_mmod_RMS_Derivative-OPLS-2005>
0.347001910209656

$$$$
8
                    3D
 Structure written by MMmdl.
153162  0  0  1  0            999 V2000
  -30.6162  -14.7606   20.5723 C   0  0  0  0  0  0
  -30.4425  -12.4930   19.4759 C   0  0  0  0  0  0
  -29.5167  -12.5441   18.2377 C   0  0  0  0  0  0
  -28.0418  -12.3477   18.6387 C   0  0  0  0  0  0
  -27.6456  -13.2262   19.8513 C   0  0  2  0  0  0
  -28.6795  -13.1026   20.9837 C   0  0  0  0  0  0
  -25.2531  -13.8180   20.5667 C   0  0  0  0  0  0
  -24.1811  -13.0434   20.9171 C   0  0  0  0  0  0
  -24.6393  -11.6909   20.8712 C   0  0  0  0  0  0
  -23.9068  -10.4291   21.0395 C   0  0  0  0  0  0
  -24.3620   -9.4210   21.9178 C   0  0  0  0  0  0
  -23.6294   -8.2247   22.0754 C   0  0  0  0  0  0
  -22.4275   -8.0282   21.3545 C   0  0  0  0  0  0
  -21.9909   -9.0253   20.4646 C   0  0  0  0  0  0
  -22.7238  -10.2131   20.3050 C   0  0  0  0  0  0
  -21.6855   -6.0735   22.5280 C   0  0  0  0  0  0
  -21.4016   -6.5640   23.8213 C   0  0  0  0  0  0
  -21.3660   -5.6792   24.9175 C   0  0  0  0  0  0
  -21.6044   -4.3055   24.7226 C   0  0  0  0  0  0
  -21.8820   -3.8147   23.4347 C   0  0  0  0  0  0
  -21.9194   -4.6963   22.3403 C   0  0  0  0  0  0
  -22.7837  -13.5224   21.1856 C   0  0  0  0  0  0
  -22.1662   -4.2149   21.0981 F   0  0  0  0  0  0
  -21.5628   -3.4539   25.7738 F   0  0  0  0  0  0
  -29.9901  -13.5234   20.4494 N   0  0  0  0  0  0
  -26.2941  -12.9372   20.3222 N   0  0  0  0  0  0
  -25.9314  -11.6517   20.5681 N   0  0  0  0  0  0
  -22.0492  -12.8212   22.0419 N   0  0  0  0  0  0
  -25.4255  -15.1907   20.4145 N   0  0  0  0  0  0
  -31.7195  -14.9210   20.0380 O   0  0  0  0  0  0
  -21.6641   -6.8878   21.4241 O   0  0  0  0  0  0
  -22.3516  -14.5532   20.6713 O   0  0  0  0  0  0
  -24.6331  -31.8534   23.1962 C   0  0  0  0  0  0
  -25.9146  -32.4746   23.8319 C   0  0  1  0  0  0
  -27.2258  -27.2494   20.1375 C   0  0  0  0  0  0
  -25.5933  -33.8548   24.2242 N   0  0  0  0  0  0
  -23.4320  -30.4738   21.5396 C   0  0  2  0  0  0
  -24.8825  -28.9126   20.1168 C   0  0  0  0  0  0
  -22.7514  -29.4593   22.4906 C   0  0  0  0  0  0
  -18.0294  -28.1389   22.8483 C   0  0  0  0  0  0
  -24.1490  -36.7281   23.2641 C   0  0  0  0  0  0
  -25.9789  -30.7621   21.3785 C   0  0  0  0  0  0
  -26.0551  -29.3804   20.7264 C   0  0  0  0  0  0
  -27.2335  -28.5617   20.7247 C   0  0  0  0  0  0
  -26.0314  -26.8465   19.5084 C   0  0  0  0  0  0
  -24.8753  -27.6527   19.4974 C   0  0  0  0  0  0
  -23.6536  -29.8025   20.1585 C   0  0  0  0  0  0
  -25.4117  -36.3064   24.0324 C   0  0  1  0  0  0
  -20.5899  -28.3704   23.1262 C   0  0  2  0  0  0
  -20.6780  -26.9419   22.5406 C   0  0  0  0  0  0
  -19.5755  -26.6383   21.5211 C   0  0  0  0  0  0
  -18.1937  -26.7930   22.1625 C   0  0  0  0  0  0
  -19.1548  -28.8863   23.2867 C   0  0  0  0  0  0
  -18.9468  -30.1463   23.8887 C   0  0  0  0  0  0
  -17.6467  -30.6589   24.0561 C   0  0  0  0  0  0
  -25.9058  -34.9435   23.5087 C   0  0  0  0  0  0
  -16.5358  -29.9085   23.6332 C   0  0  0  0  0  0
  -16.7280  -28.6502   23.0354 C   0  0  0  0  0  0
  -26.4507  -31.6578   25.0717 C   0  0  0  0  0  0
  -25.3722  -31.3731   26.1430 C   0  0  0  0  0  0
  -27.0364  -30.2993   24.6218 C   0  0  0  0  0  0
  -27.6050  -32.4328   25.7499 C   0  0  0  0  0  0
  -27.5576  -37.1798   24.8467 C   0  0  0  0  0  0
  -21.4218  -29.3047   22.3649 N   0  0  0  0  0  0
  -26.4291  -37.3764   23.9406 N   0  0  0  0  0  0
  -24.7004  -31.0483   22.0946 N   0  0  0  0  0  0
  -23.4201  -28.8137   23.3018 O   0  0  0  0  0  0
  -28.2990  -26.3278   20.1117 O   0  0  0  0  0  0
  -26.5635  -34.8915   22.4660 O   0  0  0  0  0  0
  -23.5475  -32.1361   23.7245 O   0  0  0  0  0  0
  -29.9620  -19.6819   21.7741 C   0  0  0  0  0  0
  -29.1267  -19.2834   19.6246 C   0  0  0  0  0  0
  -30.2415  -18.2848   21.9284 C   0  0  0  0  0  0
  -29.3710  -17.8605   19.7761 C   0  0  0  0  0  0
  -29.3600  -20.2884   20.6301 C   0  0  0  0  0  0
  -29.9113  -17.2803   20.9657 C   0  0  0  0  0  0
  -28.5533  -23.7864   20.6791 C   0  0  0  0  0  0
  -28.5241  -22.6486   21.5860 C   0  0  0  0  0  0
  -29.0624  -22.8598   19.6662 C   0  0  0  0  0  0
  -28.8594  -16.0607   23.4509 C   0  0  0  0  0  0
  -28.2065  -25.1301   20.8830 C   0  0  0  0  0  0
  -29.7756  -15.4818   22.6511 C   0  0  0  0  0  0
  -29.0219  -21.7531   20.5949 N   0  0  0  0  0  0
  -30.0145  -15.8043   21.2961 N   0  0  0  0  0  0
  -28.1918  -22.5757   22.7534 O   0  0  0  0  0  0
  -29.3803  -23.0358   18.5057 O   0  0  0  0  0  0
  -31.4794  -12.6404   19.1700 H   0  0  0  0  0  0
  -30.4154  -11.5027   19.9332 H   0  0  0  0  0  0
  -29.8115  -11.7840   17.5131 H   0  0  0  0  0  0
  -29.6328  -13.5061   17.7362 H   0  0  0  0  0  0
  -27.9015  -11.2945   18.8848 H   0  0  0  0  0  0
  -27.3869  -12.5523   17.7910 H   0  0  0  0  0  0
  -27.6571  -14.2604   19.5058 H   0  0  0  0  0  0
  -28.7302  -12.0743   21.3448 H   0  0  0  0  0  0
  -28.3348  -13.6807   21.8344 H   0  0  0  0  0  0
  -25.2767   -9.5688   22.4749 H   0  0  0  0  0  0
  -24.0004   -7.4640   22.7475 H   0  0  0  0  0  0
  -21.0839   -8.8772   19.8955 H   0  0  0  0  0  0
  -22.3697  -10.9667   19.6156 H   0  0  0  0  0  0
  -21.2010   -7.6148   23.9716 H   0  0  0  0  0  0
  -21.1481   -6.0522   25.9077 H   0  0  0  0  0  0
  -22.0599   -2.7609   23.2848 H   0  0  0  0  0  0
  -22.4113  -11.9870   22.4795 H   0  0  0  0  0  0
  -21.1113  -13.1237   22.2639 H   0  0  0  0  0  0
  -24.6683  -15.8520   20.5469 H   0  0  0  0  0  0
  -26.2951  -15.6321   20.1430 H   0  0  0  0  0  0
  -26.7215  -32.5398   23.1063 H   0  0  0  0  0  0
  -25.0068  -33.9679   25.0380 H   0  0  0  0  0  0
  -22.7295  -31.2962   21.3892 H   0  0  0  0  0  0
  -23.3750  -35.9615   23.3304 H   0  0  0  0  0  0
  -24.3577  -36.8905   22.2056 H   0  0  0  0  0  0
  -23.7248  -37.6482   23.6669 H   0  0  0  0  0  0
  -26.1174  -31.5193   20.6056 H   0  0  0  0  0  0
  -26.8561  -30.8155   22.0117 H   0  0  0  0  0  0
  -28.1356  -28.9170   21.2026 H   0  0  0  0  0  0
  -25.9901  -25.8763   19.0335 H   0  0  0  0  0  0
  -23.9780  -27.2876   19.0166 H   0  0  0  0  0  0
  -23.7811  -30.5759   19.4002 H   0  0  0  0  0  0
  -22.7719  -29.2362   19.8530 H   0  0  0  0  0  0
  -25.1302  -36.1907   25.0817 H   0  0  0  0  0  0
  -20.9992  -28.3284   24.1382 H   0  0  0  0  0  0
  -20.5677  -26.2316   23.3614 H   0  0  0  0  0  0
  -21.6648  -26.7436   22.1202 H   0  0  0  0  0  0
  -19.6916  -25.6292   21.1247 H   0  0  0  0  0  0
  -19.6690  -27.3188   20.6736 H   0  0  0  0  0  0
  -17.4204  -26.6673   21.4030 H   0  0  0  0  0  0
  -18.0339  -26.0074   22.9024 H   0  0  0  0  0  0
  -19.7944  -30.7281   24.2252 H   0  0  0  0  0  0
  -17.5021  -31.6268   24.5164 H   0  0  0  0  0  0
  -15.5358  -30.2983   23.7661 H   0  0  0  0  0  0
  -15.8681  -28.0817   22.7075 H   0  0  0  0  0  0
  -24.5906  -30.7071   25.7755 H   0  0  0  0  0  0
  -24.8904  -32.2900   26.4833 H   0  0  0  0  0  0
  -25.8033  -30.8924   27.0221 H   0  0  0  0  0  0
  -26.2956  -29.6730   24.1234 H   0  0  0  0  0  0
  -27.4031  -29.7268   25.4748 H   0  0  0  0  0  0
  -27.8838  -30.4264   23.9477 H   0  0  0  0  0  0
  -27.2648  -33.3634   26.2054 H   0  0  0  0  0  0
  -28.3875  -32.6881   25.0340 H   0  0  0  0  0  0
  -28.0703  -31.8469   26.5436 H   0  0  0  0  0  0
  -28.2596  -38.0091   24.7504 H   0  0  0  0  0  0
  -28.1069  -36.2621   24.6308 H   0  0  0  0  0  0
  -27.2291  -37.1463   25.8870 H   0  0  0  0  0  0
  -20.9410  -29.8766   21.6844 H   0  0  0  0  0  0
  -26.0167  -38.2838   24.1399 H   0  0  0  0  0  0
  -30.2189  -20.3206   22.6075 H   0  0  0  0  0  0
  -28.6792  -19.6058   18.6950 H   0  0  0  0  0  0
  -30.6869  -17.9843   22.8660 H   0  0  0  0  0  0
  -29.0810  -17.2060   18.9665 H   0  0  0  0  0  0
  -28.7544  -15.7513   24.4811 H   0  0  0  0  0  0
  -28.1992  -16.8418   23.1012 H   0  0  0  0  0  0
  -27.8343  -25.3892   21.8646 H   0  0  0  0  0  0
  -30.4137  -14.6954   23.0385 H   0  0  0  0  0  0
  1 25  1  0  0  0
  1 30  2  0  0  0
  1 84  1  0  0  0
  2  3  1  0  0  0
  2 25  1  0  0  0
  2 87  1  0  0  0
  2 88  1  0  0  0
  3  4  1  0  0  0
  3 89  1  0  0  0
  3 90  1  0  0  0
  4  5  1  0  0  0
  4 91  1  0  0  0
  4 92  1  0  0  0
  5  6  1  0  0  0
  5 26  1  0  0  0
  5 93  1  0  0  0
  6 25  1  0  0  0
  6 94  1  0  0  0
  6 95  1  0  0  0
  7  8  2  0  0  0
  7 26  1  0  0  0
  7 29  1  0  0  0
  8  9  1  0  0  0
  8 22  1  0  0  0
  9 10  1  0  0  0
  9 27  2  0  0  0
 10 11  2  0  0  0
 10 15  1  0  0  0
 11 12  1  0  0  0
 11 96  1  0  0  0
 12 13  2  0  0  0
 12 97  1  0  0  0
 13 14  1  0  0  0
 13 31  1  0  0  0
 14 15  2  0  0  0
 14 98  1  0  0  0
 15 99  1  0  0  0
 16 17  2  0  0  0
 16 21  1  0  0  0
 16 31  1  0  0  0
 17 18  1  0  0  0
 17100  1  0  0  0
 18 19  2  0  0  0
 18101  1  0  0  0
 19 20  1  0  0  0
 19 24  1  0  0  0
 20 21  2  0  0  0
 20102  1  0  0  0
 21 23  1  0  0  0
 22 28  1  0  0  0
 22 32  2  0  0  0
 26 27  1  0  0  0
 28103  1  0  0  0
 28104  1  0  0  0
 29105  1  0  0  0
 29106  1  0  0  0
 33 34  1  0  0  0
 33 66  1  0  0  0
 33 70  2  0  0  0
 34 36  1  0  0  0
 34 59  1  0  0  0
 34107  1  0  0  0
 35 44  2  0  0  0
 35 45  1  0  0  0
 35 68  1  0  0  0
 36 56  1  0  0  0
 36108  1  0  0  0
 37 39  1  0  0  0
 37 47  1  0  0  0
 37 66  1  0  0  0
 37109  1  0  0  0
 38 43  2  0  0  0
 38 46  1  0  0  0
 38 47  1  0  0  0
 39 64  1  0  0  0
 39 67  2  0  0  0
 40 52  1  0  0  0
 40 53  2  0  0  0
 40 58  1  0  0  0
 41110  1  0  0  0
 41111  1  0  0  0
 41112  1  0  0  0
 41 48  1  0  0  0
 42 43  1  0  0  0
 42 66  1  0  0  0
 42113  1  0  0  0
 42114  1  0  0  0
 43 44  1  0  0  0
 44115  1  0  0  0
 45 46  2  0  0  0
 45116  1  0  0  0
 46117  1  0  0  0
 47118  1  0  0  0
 47119  1  0  0  0
 48 56  1  0  0  0
 48 65  1  0  0  0
 48120  1  0  0  0
 49 50  1  0  0  0
 49 53  1  0  0  0
 49 64  1  0  0  0
 49121  1  0  0  0
 50 51  1  0  0  0
 50122  1  0  0  0
 50123  1  0  0  0
 51 52  1  0  0  0
 51124  1  0  0  0
 51125  1  0  0  0
 52126  1  0  0  0
 52127  1  0  0  0
 53 54  1  0  0  0
 54 55  2  0  0  0
 54128  1  0  0  0
 55 57  1  0  0  0
 55129  1  0  0  0
 56 69  2  0  0  0
 57 58  2  0  0  0
 57130  1  0  0  0
 58131  1  0  0  0
 59 60  1  0  0  0
 59 61  1  0  0  0
 59 62  1  0  0  0
 60132  1  0  0  0
 60133  1  0  0  0
 60134  1  0  0  0
 61135  1  0  0  0
 61136  1  0  0  0
 61137  1  0  0  0
 62138  1  0  0  0
 62139  1  0  0  0
 62140  1  0  0  0
 63 65  1  0  0  0
 63141  1  0  0  0
 63142  1  0  0  0
 63143  1  0  0  0
 64144  1  0  0  0
 65145  1  0  0  0
 68 81  1  0  0  0
 71 73  2  0  0  0
 71 75  1  0  0  0
 71146  1  0  0  0
 72 74  1  0  0  0
 72 75  2  0  0  0
 72147  1  0  0  0
 73 76  1  0  0  0
 73148  1  0  0  0
 74 76  2  0  0  0
 74149  1  0  0  0
 75 83  1  0  0  0
 76 84  1  0  0  0
 77 78  1  0  0  0
 77 79  1  0  0  0
 77 81  2  0  0  0
 78 83  1  0  0  0
 78 85  2  0  0  0
 79 83  1  0  0  0
 79 86  2  0  0  0
 80 82  2  0  0  0
 80150  1  0  0  0
 80151  1  0  0  0
 81152  1  0  0  0
 82 84  1  0  0  0
 82153  1  0  0  0
M  ISO  4   1 100  68 101  81 101  84 100
M  END
> <chiral flag>
0

> <version>
0

> <s_m_source_file>
/data/baiqing/PycharmProjects/Reinvent-master-3.2/result/LINK_invent/BTK/process_docking_weight1_custom_product_contain_oxygen_bond_distance_aromatic_linkinvent_7_9_3/rearranged_h_0079.sdf

> <i_m_source_file_index>
9

> <r_mmod_Potential_Energy-OPLS-2005>
425.756378173828

> <r_mmod_Stretch_Energy-OPLS-2005>
135.233779907227

> <r_mmod_Bend_Energy-OPLS-2005>
274.470977783203

> <r_mmod_Torsional_Energy-OPLS-2005>
317.051391601562

> <r_mmod_Improper_Torsional_Energy-OPLS-2005>
2.96128535270691

> <r_mmod_Van_der_Waal_Energy-OPLS-2005>
146.154266357422

> <r_mmod_Electrostatic_Energy-OPLS-2005>
-323.181640625

> <r_mmod_Solvation_Energy-OPLS-2005>
-216.04573059082

> <b_mmod_Minimization_Converged-OPLS-2005>
0

> <r_mmod_RMS_Derivative-OPLS-2005>
0.230271697044373

$$$$
9
                    3D
 Structure written by MMmdl.
152160  0  0  1  0            999 V2000
  -30.6037  -14.7954   20.4396 C   0  0  0  0  0  0
  -30.4375  -12.4863   19.4947 C   0  0  0  0  0  0
  -29.5137  -12.5145   18.2565 C   0  0  0  0  0  0
  -28.0373  -12.3475   18.6595 C   0  0  0  0  0  0
  -27.6410  -13.2470   19.8593 C   0  0  2  0  0  0
  -28.6863  -13.1947   20.9963 C   0  0  0  0  0  0
  -25.2464  -13.8237   20.5719 C   0  0  0  0  0  0
  -24.1763  -13.0453   20.9200 C   0  0  0  0  0  0
  -24.6382  -11.6944   20.8762 C   0  0  0  0  0  0
  -23.9066  -10.4321   21.0412 C   0  0  0  0  0  0
  -24.3616   -9.4223   21.9178 C   0  0  0  0  0  0
  -23.6303   -8.2247   22.0736 C   0  0  0  0  0  0
  -22.4288   -8.0276   21.3533 C   0  0  0  0  0  0
  -21.9928   -9.0243   20.4631 C   0  0  0  0  0  0
  -22.7245  -10.2134   20.3060 C   0  0  0  0  0  0
  -21.6866   -6.0738   22.5281 C   0  0  0  0  0  0
  -21.4029   -6.5640   23.8213 C   0  0  0  0  0  0
  -21.3682   -5.6788   24.9172 C   0  0  0  0  0  0
  -21.6051   -4.3056   24.7219 C   0  0  0  0  0  0
  -21.8813   -3.8151   23.4341 C   0  0  0  0  0  0
  -21.9185   -4.6963   22.3403 C   0  0  0  0  0  0
  -22.7787  -13.5210   21.1874 C   0  0  0  0  0  0
  -22.1648   -4.2151   21.0973 F   0  0  0  0  0  0
  -21.5633   -3.4531   25.7724 F   0  0  0  0  0  0
  -29.9903  -13.5554   20.4227 N   0  0  0  0  0  0
  -26.2930  -12.9471   20.3361 N   0  0  0  0  0  0
  -25.9329  -11.6608   20.5814 N   0  0  0  0  0  0
  -22.0421  -12.8207   22.0427 N   0  0  0  0  0  0
  -25.4098  -15.1957   20.4084 N   0  0  0  0  0  0
  -31.7687  -14.8897   20.0431 O   0  0  0  0  0  0
  -21.6649   -6.8872   21.4235 O   0  0  0  0  0  0
  -22.3463  -14.5496   20.6687 O   0  0  0  0  0  0
  -24.6316  -31.8544   23.1962 C   0  0  0  0  0  0
  -25.9127  -32.4757   23.8317 C   0  0  1  0  0  0
  -27.2162  -27.2365   20.1259 C   0  0  0  0  0  0
  -25.5909  -33.8558   24.2234 N   0  0  0  0  0  0
  -23.4285  -30.4742   21.5410 C   0  0  2  0  0  0
  -24.8731  -28.9156   20.1110 C   0  0  0  0  0  0
  -22.7507  -29.4584   22.4928 C   0  0  0  0  0  0
  -18.0293  -28.1390   22.8492 C   0  0  0  0  0  0
  -24.1468  -36.7296   23.2645 C   0  0  0  0  0  0
  -25.9744  -30.7578   21.3776 C   0  0  0  0  0  0
  -26.0450  -29.3746   20.7263 C   0  0  0  0  0  0
  -27.2129  -28.5443   20.7295 C   0  0  0  0  0  0
  -26.0224  -26.8561   19.4697 C   0  0  0  0  0  0
  -24.8685  -27.6654   19.4738 C   0  0  0  0  0  0
  -23.6437  -29.8047   20.1585 C   0  0  0  0  0  0
  -25.4103  -36.3081   24.0328 C   0  0  1  0  0  0
  -20.5903  -28.3692   23.1273 C   0  0  2  0  0  0
  -20.6776  -26.9404   22.5422 C   0  0  0  0  0  0
  -19.5743  -26.6376   21.5230 C   0  0  0  0  0  0
  -18.1928  -26.7933   22.1642 C   0  0  0  0  0  0
  -19.1554  -28.8855   23.2873 C   0  0  0  0  0  0
  -18.9480  -30.1472   23.8871 C   0  0  0  0  0  0
  -17.6475  -30.6589   24.0566 C   0  0  0  0  0  0
  -25.9045  -34.9452   23.5092 C   0  0  0  0  0  0
  -16.5366  -29.9083   23.6347 C   0  0  0  0  0  0
  -16.7285  -28.6510   23.0354 C   0  0  0  0  0  0
  -26.4472  -31.6600   25.0719 C   0  0  0  0  0  0
  -25.3678  -31.3788   26.1429 C   0  0  0  0  0  0
  -27.0337  -30.3021   24.6234 C   0  0  0  0  0  0
  -27.6022  -32.4349   25.7510 C   0  0  0  0  0  0
  -27.5572  -37.1805   24.8467 C   0  0  0  0  0  0
  -21.4220  -29.3028   22.3653 N   0  0  0  0  0  0
  -26.4278  -37.3784   23.9413 N   0  0  0  0  0  0
  -24.6977  -31.0479   22.0946 N   0  0  0  0  0  0
  -23.4204  -28.8142   23.3041 O   0  0  0  0  0  0
  -28.3291  -26.3543   20.1640 O   0  0  0  0  0  0
  -26.5643  -34.8932   22.4676 O   0  0  0  0  0  0
  -23.5462  -32.1368   23.7246 O   0  0  0  0  0  0
  -29.5933  -18.5829   20.7512 C   0  0  0  0  0  0
  -29.4759  -19.7487   18.6196 C   0  0  0  0  0  0
  -29.8907  -17.3162   18.7009 C   0  0  0  0  0  0
  -29.4258  -19.8512   20.0271 C   0  0  0  0  0  0
  -29.8255  -17.2833   20.1112 C   0  0  0  0  0  0
  -29.7043  -18.5127   17.9765 C   0  0  0  0  0  0
  -29.3583  -21.2765   20.6918 C   0  0  0  0  0  0
  -28.8649  -23.8716   20.4302 C   0  0  0  0  0  0
  -29.9408  -24.2743   21.4068 C   0  0  0  0  0  0
  -29.8768  -15.9408   20.7755 N   0  0  0  0  0  0
  -28.7247  -22.5047   20.0687 N   0  0  0  0  0  0
  -28.0866  -24.9299   19.9216 N   0  3  0  0  0  0
  -29.8620  -21.3997   21.8130 O   0  0  0  0  0  0
  -29.7485  -18.4741   16.6244 F   0  0  0  0  0  0
  -31.4754  -12.6164   19.1836 H   0  0  0  0  0  0
  -30.4017  -11.5162   19.9917 H   0  0  0  0  0  0
  -29.7971  -11.7271   17.5569 H   0  0  0  0  0  0
  -29.6409  -13.4592   17.7270 H   0  0  0  0  0  0
  -27.8794  -11.2999   18.9165 H   0  0  0  0  0  0
  -27.3888  -12.5528   17.8070 H   0  0  0  0  0  0
  -27.6318  -14.2690   19.4789 H   0  0  0  0  0  0
  -28.7220  -12.2007   21.4438 H   0  0  0  0  0  0
  -28.4158  -13.8824   21.7983 H   0  0  0  0  0  0
  -25.2740   -9.5717   22.4779 H   0  0  0  0  0  0
  -24.0016   -7.4648   22.7464 H   0  0  0  0  0  0
  -21.0857   -8.8764   19.8942 H   0  0  0  0  0  0
  -22.3680  -10.9667   19.6193 H   0  0  0  0  0  0
  -21.2037   -7.6147   23.9720 H   0  0  0  0  0  0
  -21.1518   -6.0514   25.9072 H   0  0  0  0  0  0
  -22.0576   -2.7611   23.2834 H   0  0  0  0  0  0
  -22.4026  -11.9898   22.4888 H   0  0  0  0  0  0
  -21.1022  -13.1224   22.2578 H   0  0  0  0  0  0
  -24.6393  -15.8498   20.5025 H   0  0  0  0  0  0
  -26.2568  -15.6324   20.0680 H   0  0  0  0  0  0
  -26.7199  -32.5396   23.1064 H   0  0  0  0  0  0
  -24.9995  -33.9689   25.0337 H   0  0  0  0  0  0
  -22.7264  -31.2985   21.3946 H   0  0  0  0  0  0
  -23.3730  -35.9627   23.3307 H   0  0  0  0  0  0
  -24.3552  -36.8927   22.2061 H   0  0  0  0  0  0
  -23.7215  -37.6494   23.6673 H   0  0  0  0  0  0
  -26.1064  -31.5104   20.5995 H   0  0  0  0  0  0
  -26.8560  -30.8174   22.0048 H   0  0  0  0  0  0
  -28.1103  -28.8918   21.2214 H   0  0  0  0  0  0
  -25.9463  -25.9104   18.9550 H   0  0  0  0  0  0
  -23.9735  -27.3148   18.9780 H   0  0  0  0  0  0
  -23.7640  -30.5771   19.3986 H   0  0  0  0  0  0
  -22.7615  -29.2355   19.8594 H   0  0  0  0  0  0
  -25.1280  -36.1934   25.0821 H   0  0  0  0  0  0
  -21.0004  -28.3275   24.1392 H   0  0  0  0  0  0
  -20.5670  -26.2309   23.3634 H   0  0  0  0  0  0
  -21.6643  -26.7413   22.1220 H   0  0  0  0  0  0
  -19.6893  -25.6281   21.1270 H   0  0  0  0  0  0
  -19.6683  -27.3179   20.6751 H   0  0  0  0  0  0
  -17.4204  -26.6700   21.4037 H   0  0  0  0  0  0
  -18.0307  -26.0076   22.9033 H   0  0  0  0  0  0
  -19.7951  -30.7311   24.2215 H   0  0  0  0  0  0
  -17.5020  -31.6265   24.5171 H   0  0  0  0  0  0
  -15.5358  -30.2969   23.7677 H   0  0  0  0  0  0
  -15.8695  -28.0818   22.7062 H   0  0  0  0  0  0
  -24.5836  -30.7147   25.7762 H   0  0  0  0  0  0
  -24.8864  -32.2970   26.4808 H   0  0  0  0  0  0
  -25.7948  -30.8993   27.0246 H   0  0  0  0  0  0
  -26.2943  -29.6771   24.1206 H   0  0  0  0  0  0
  -27.3958  -29.7280   25.4775 H   0  0  0  0  0  0
  -27.8834  -30.4300   23.9527 H   0  0  0  0  0  0
  -27.2622  -33.3665   26.2053 H   0  0  0  0  0  0
  -28.3852  -32.6894   25.0354 H   0  0  0  0  0  0
  -28.0660  -31.8494   26.5455 H   0  0  0  0  0  0
  -28.2601  -38.0093   24.7512 H   0  0  0  0  0  0
  -28.1057  -36.2627   24.6286 H   0  0  0  0  0  0
  -27.2300  -37.1461   25.8875 H   0  0  0  0  0  0
  -20.9410  -29.8734   21.6846 H   0  0  0  0  0  0
  -26.0157  -38.2862   24.1408 H   0  0  0  0  0  0
  -29.5663  -18.6210   21.8305 H   0  0  0  0  0  0
  -29.3767  -20.6268   17.9978 H   0  0  0  0  0  0
  -30.0530  -16.4041   18.1441 H   0  0  0  0  0  0
  -29.6250  -24.0672   22.4294 H   0  0  0  0  0  0
  -30.1762  -25.3373   21.3385 H   0  0  0  0  0  0
  -30.8699  -23.7439   21.2013 H   0  0  0  0  0  0
  -29.0927  -15.7584   21.3840 H   0  0  0  0  0  0
  -28.1685  -22.3766   19.2398 H   0  0  0  0  0  0
  -27.3147  -24.7634   19.2903 H   0  0  0  0  0  0
  1 25  1  0  0  0
  1 30  2  0  0  0
  1 80  1  0  0  0
  2  3  1  0  0  0
  2 25  1  0  0  0
  2 85  1  0  0  0
  2 86  1  0  0  0
  3  4  1  0  0  0
  3 87  1  0  0  0
  3 88  1  0  0  0
  4  5  1  0  0  0
  4 89  1  0  0  0
  4 90  1  0  0  0
  5  6  1  0  0  0
  5 26  1  0  0  0
  5 91  1  0  0  0
  6 25  1  0  0  0
  6 92  1  0  0  0
  6 93  1  0  0  0
  7  8  2  0  0  0
  7 26  1  0  0  0
  7 29  1  0  0  0
  8  9  1  0  0  0
  8 22  1  0  0  0
  9 10  1  0  0  0
  9 27  2  0  0  0
 10 11  2  0  0  0
 10 15  1  0  0  0
 11 12  1  0  0  0
 11 94  1  0  0  0
 12 13  2  0  0  0
 12 95  1  0  0  0
 13 14  1  0  0  0
 13 31  1  0  0  0
 14 15  2  0  0  0
 14 96  1  0  0  0
 15 97  1  0  0  0
 16 17  2  0  0  0
 16 21  1  0  0  0
 16 31  1  0  0  0
 17 18  1  0  0  0
 17 98  1  0  0  0
 18 19  2  0  0  0
 18 99  1  0  0  0
 19 20  1  0  0  0
 19 24  1  0  0  0
 20 21  2  0  0  0
 20100  1  0  0  0
 21 23  1  0  0  0
 22 28  1  0  0  0
 22 32  2  0  0  0
 26 27  1  0  0  0
 28101  1  0  0  0
 28102  1  0  0  0
 29103  1  0  0  0
 29104  1  0  0  0
 33 34  1  0  0  0
 33 66  1  0  0  0
 33 70  2  0  0  0
 34 36  1  0  0  0
 34 59  1  0  0  0
 34105  1  0  0  0
 35 44  2  0  0  0
 35 45  1  0  0  0
 35 68  1  0  0  0
 36 56  1  0  0  0
 36106  1  0  0  0
 37 39  1  0  0  0
 37 47  1  0  0  0
 37 66  1  0  0  0
 37107  1  0  0  0
 38 43  2  0  0  0
 38 46  1  0  0  0
 38 47  1  0  0  0
 39 64  1  0  0  0
 39 67  2  0  0  0
 40 52  1  0  0  0
 40 53  2  0  0  0
 40 58  1  0  0  0
 41108  1  0  0  0
 41109  1  0  0  0
 41110  1  0  0  0
 41 48  1  0  0  0
 42 43  1  0  0  0
 42 66  1  0  0  0
 42111  1  0  0  0
 42112  1  0  0  0
 43 44  1  0  0  0
 44113  1  0  0  0
 45 46  2  0  0  0
 45114  1  0  0  0
 46115  1  0  0  0
 47116  1  0  0  0
 47117  1  0  0  0
 48 56  1  0  0  0
 48 65  1  0  0  0
 48118  1  0  0  0
 49 50  1  0  0  0
 49 53  1  0  0  0
 49 64  1  0  0  0
 49119  1  0  0  0
 50 51  1  0  0  0
 50120  1  0  0  0
 50121  1  0  0  0
 51 52  1  0  0  0
 51122  1  0  0  0
 51123  1  0  0  0
 52124  1  0  0  0
 52125  1  0  0  0
 53 54  1  0  0  0
 54 55  2  0  0  0
 54126  1  0  0  0
 55 57  1  0  0  0
 55127  1  0  0  0
 56 69  2  0  0  0
 57 58  2  0  0  0
 57128  1  0  0  0
 58129  1  0  0  0
 59 60  1  0  0  0
 59 61  1  0  0  0
 59 62  1  0  0  0
 60130  1  0  0  0
 60131  1  0  0  0
 60132  1  0  0  0
 61133  1  0  0  0
 61134  1  0  0  0
 61135  1  0  0  0
 62136  1  0  0  0
 62137  1  0  0  0
 62138  1  0  0  0
 63 65  1  0  0  0
 63139  1  0  0  0
 63140  1  0  0  0
 63141  1  0  0  0
 64142  1  0  0  0
 65143  1  0  0  0
 68 82  1  0  0  0
 71 74  2  0  0  0
 71 75  1  0  0  0
 71144  1  0  0  0
 72 74  1  0  0  0
 72 76  2  0  0  0
 72145  1  0  0  0
 73 75  2  0  0  0
 73 76  1  0  0  0
 73146  1  0  0  0
 74 77  1  0  0  0
 75 80  1  0  0  0
 76 84  1  0  0  0
 77 81  1  0  0  0
 77 83  2  0  0  0
 78 79  1  0  0  0
 78 81  1  0  0  0
 78 82  2  0  0  0
 79147  1  0  0  0
 79148  1  0  0  0
 79149  1  0  0  0
 80150  1  0  0  0
 81151  1  0  0  0
 82152  1  0  0  0
M  CHG  1  82   1
M  ISO  4   1 100  68 101  80 100  82 101
M  END
> <chiral flag>
0

> <version>
0

> <s_m_source_file>
/data/baiqing/PycharmProjects/Reinvent-master-3.2/result/LINK_invent/BTK/process_docking_weight1_custom_product_contain_oxygen_bond_distance_aromatic_linkinvent_7_9_3/rearranged_h_0079.sdf

> <i_m_source_file_index>
10

> <r_mmod_Potential_Energy-OPLS-2005>
1.3580436706543

> <r_mmod_Stretch_Energy-OPLS-2005>
149.582275390625

> <r_mmod_Bend_Energy-OPLS-2005>
168.460876464844

> <r_mmod_Torsional_Energy-OPLS-2005>
251.824523925781

> <r_mmod_Improper_Torsional_Energy-OPLS-2005>
4.91244459152222

> <r_mmod_Van_der_Waal_Energy-OPLS-2005>
141.869171142578

> <r_mmod_Electrostatic_Energy-OPLS-2005>
-317.169830322266

> <r_mmod_Solvation_Energy-OPLS-2005>
-499.282562255859

> <b_mmod_Minimization_Converged-OPLS-2005>
0

> <r_mmod_RMS_Derivative-OPLS-2005>
2.94360280036926

$$$$
10
                    3D
 Structure written by MMmdl.
159168  0  0  1  0            999 V2000
  -30.7495  -14.4423   20.5474 C   0  0  0  0  0  0
  -30.3997  -12.2956   19.3880 C   0  0  0  0  0  0
  -29.4712  -12.5033   18.1767 C   0  0  0  0  0  0
  -27.9858  -12.3951   18.5774 C   0  0  0  0  0  0
  -27.6458  -13.2252   19.8438 C   0  0  2  0  0  0
  -28.6900  -13.0364   20.9650 C   0  0  0  0  0  0
  -25.2534  -13.8223   20.5620 C   0  0  0  0  0  0
  -24.1830  -13.0476   20.9222 C   0  0  0  0  0  0
  -24.6407  -11.6932   20.8778 C   0  0  0  0  0  0
  -23.9088  -10.4302   21.0458 C   0  0  0  0  0  0
  -24.3641   -9.4198   21.9207 C   0  0  0  0  0  0
  -23.6328   -8.2237   22.0743 C   0  0  0  0  0  0
  -22.4322   -8.0314   21.3517 C   0  0  0  0  0  0
  -21.9952   -9.0271   20.4613 C   0  0  0  0  0  0
  -22.7292  -10.2134   20.3058 C   0  0  0  0  0  0
  -21.6833   -6.0795   22.5300 C   0  0  0  0  0  0
  -21.3985   -6.5664   23.8242 C   0  0  0  0  0  0
  -21.3672   -5.6807   24.9195 C   0  0  0  0  0  0
  -21.6048   -4.3063   24.7213 C   0  0  0  0  0  0
  -21.8817   -3.8170   23.4337 C   0  0  0  0  0  0
  -21.9187   -4.7011   22.3407 C   0  0  0  0  0  0
  -22.7843  -13.5263   21.1926 C   0  0  0  0  0  0
  -22.1659   -4.2227   21.0974 F   0  0  0  0  0  0
  -21.5666   -3.4523   25.7704 F   0  0  0  0  0  0
  -30.0230  -13.3019   20.3984 N   0  0  0  0  0  0
  -26.2953  -12.9408   20.3212 N   0  0  0  0  0  0
  -25.9303  -11.6535   20.5675 N   0  0  0  0  0  0
  -22.0442  -12.8208   22.0439 N   0  0  0  0  0  0
  -25.4262  -15.1961   20.3968 N   0  0  0  0  0  0
  -31.9210  -14.4980   20.1558 O   0  0  0  0  0  0
  -21.6644   -6.8945   21.4257 O   0  0  0  0  0  0
  -22.3481  -14.5565   20.6784 O   0  0  0  0  0  0
  -24.6267  -31.8581   23.1944 C   0  0  0  0  0  0
  -25.9198  -32.4733   23.8206 C   0  0  1  0  0  0
  -27.2072  -27.3585   20.0856 C   0  0  0  0  0  0
  -25.6028  -33.8516   24.2207 N   0  0  0  0  0  0
  -23.4090  -30.4869   21.5331 C   0  0  2  0  0  0
  -24.8533  -28.9426   20.0877 C   0  0  0  0  0  0
  -22.7404  -29.4640   22.4834 C   0  0  0  0  0  0
  -18.0292  -28.1300   22.8428 C   0  0  0  0  0  0
  -24.1454  -36.7252   23.2610 C   0  0  0  0  0  0
  -25.9474  -30.7948   21.3576 C   0  0  0  0  0  0
  -26.0230  -29.4337   20.6883 C   0  0  0  0  0  0
  -27.2094  -28.6549   20.6771 C   0  0  0  0  0  0
  -26.0275  -26.9055   19.4655 C   0  0  0  0  0  0
  -24.8568  -27.6805   19.4684 C   0  0  0  0  0  0
  -23.6176  -29.8146   20.1481 C   0  0  0  0  0  0
  -25.4097  -36.3023   24.0299 C   0  0  1  0  0  0
  -20.5883  -28.3617   23.1196 C   0  0  2  0  0  0
  -20.6716  -26.9315   22.5343 C   0  0  0  0  0  0
  -19.5728  -26.6300   21.5088 C   0  0  0  0  0  0
  -18.1940  -26.7837   22.1542 C   0  0  0  0  0  0
  -19.1560  -28.8772   23.2802 C   0  0  0  0  0  0
  -18.9494  -30.1383   23.8789 C   0  0  0  0  0  0
  -17.6505  -30.6515   24.0523 C   0  0  0  0  0  0
  -25.9038  -34.9430   23.5049 C   0  0  0  0  0  0
  -16.5391  -29.8990   23.6344 C   0  0  0  0  0  0
  -16.7279  -28.6415   23.0335 C   0  0  0  0  0  0
  -26.4606  -31.6504   25.0565 C   0  0  0  0  0  0
  -25.3900  -31.3676   26.1318 C   0  0  0  0  0  0
  -27.0412  -30.2911   24.6026 C   0  0  0  0  0  0
  -27.6105  -32.4214   25.7415 C   0  0  0  0  0  0
  -27.5554  -37.1793   24.8479 C   0  0  0  0  0  0
  -21.4105  -29.3047   22.3618 N   0  0  0  0  0  0
  -26.4259  -37.3771   23.9394 N   0  0  0  0  0  0
  -24.6789  -31.0610   22.0868 N   0  0  0  0  0  0
  -23.4127  -28.8162   23.2904 O   0  0  0  0  0  0
  -28.2272  -26.4293   20.2342 O   0  0  0  0  0  0
  -26.5533  -34.8955   22.4566 O   0  0  0  0  0  0
  -23.5471  -32.1312   23.7408 O   0  0  0  0  0  0
  -29.9624  -18.9025   19.9862 C   0  0  0  0  0  0
  -28.8862  -18.3458   22.0799 C   0  0  0  0  0  0
  -29.3619  -20.1889   19.9963 C   0  0  0  0  0  0
  -28.3173  -19.6399   22.1093 C   0  0  0  0  0  0
  -29.7617  -17.9863   21.0419 C   0  0  0  0  0  0
  -28.5404  -20.6055   21.0771 C   0  0  0  0  0  0
  -27.9827  -24.3012   21.6402 C   0  0  0  0  0  0
  -27.4789  -23.9222   22.9686 C   0  0  0  0  0  0
  -28.3854  -23.1521   20.7609 C   0  0  0  0  0  0
  -27.8381  -24.5833   24.0865 C   0  0  0  0  0  0
  -28.0085  -25.6512   21.3688 C   0  0  0  0  0  0
  -30.6315  -16.7623   21.1427 C   0  0  0  0  0  0
  -26.5178  -22.7534   23.0699 C   0  0  0  0  0  0
  -26.5514  -21.9159   21.7882 C   0  0  0  0  0  0
  -27.8912  -21.9164   21.1668 N   0  0  0  0  0  0
  -30.0778  -15.5478   20.9323 N   0  0  0  0  0  0
  -29.1160  -23.2732   19.7698 O   0  0  0  0  0  0
  -31.8257  -16.9456   21.4230 O   0  0  0  0  0  0
  -31.4420  -12.3737   19.0619 H   0  0  0  0  0  0
  -30.2950  -11.2898   19.7986 H   0  0  0  0  0  0
  -29.6976  -11.7788   17.3947 H   0  0  0  0  0  0
  -29.6556  -13.4895   17.7447 H   0  0  0  0  0  0
  -27.7373  -11.3437   18.7334 H   0  0  0  0  0  0
  -27.3606  -12.7265   17.7467 H   0  0  0  0  0  0
  -27.6704  -14.2693   19.5253 H   0  0  0  0  0  0
  -28.6448  -12.0228   21.3661 H   0  0  0  0  0  0
  -28.4563  -13.6985   21.7992 H   0  0  0  0  0  0
  -25.2779   -9.5700   22.4758 H   0  0  0  0  0  0
  -24.0099   -7.4596   22.7392 H   0  0  0  0  0  0
  -21.0946   -8.8782   19.8849 H   0  0  0  0  0  0
  -22.3814  -10.9683   19.6153 H   0  0  0  0  0  0
  -21.1923   -7.6149   23.9790 H   0  0  0  0  0  0
  -21.1520   -6.0491   25.9123 H   0  0  0  0  0  0
  -22.0577   -2.7644   23.2774 H   0  0  0  0  0  0
  -22.3984  -11.9806   22.4781 H   0  0  0  0  0  0
  -21.1049  -13.1238   22.2635 H   0  0  0  0  0  0
  -24.6539  -15.8535   20.4468 H   0  0  0  0  0  0
  -26.2776  -15.6059   20.0317 H   0  0  0  0  0  0
  -26.7223  -32.5415   23.0886 H   0  0  0  0  0  0
  -25.0463  -33.9592   25.0552 H   0  0  0  0  0  0
  -22.7065  -31.3095   21.3912 H   0  0  0  0  0  0
  -23.3707  -35.9595   23.3282 H   0  0  0  0  0  0
  -24.3596  -36.8874   22.2031 H   0  0  0  0  0  0
  -23.7215  -37.6464   23.6629 H   0  0  0  0  0  0
  -26.0935  -31.5642   20.5978 H   0  0  0  0  0  0
  -26.8192  -30.8236   21.9951 H   0  0  0  0  0  0
  -28.1023  -29.0228   21.1683 H   0  0  0  0  0  0
  -26.0023  -25.9160   19.0373 H   0  0  0  0  0  0
  -23.9523  -27.2973   19.0078 H   0  0  0  0  0  0
  -23.7274  -30.5748   19.3758 H   0  0  0  0  0  0
  -22.7319  -29.2401   19.8584 H   0  0  0  0  0  0
  -25.1298  -36.1855   25.0795 H   0  0  0  0  0  0
  -21.0039  -28.3199   24.1275 H   0  0  0  0  0  0
  -20.5402  -26.2272   23.3549 H   0  0  0  0  0  0
  -21.6627  -26.7179   22.1313 H   0  0  0  0  0  0
  -19.6862  -25.6183   21.1158 H   0  0  0  0  0  0
  -19.6701  -27.3045   20.6557 H   0  0  0  0  0  0
  -17.4192  -26.6525   21.3969 H   0  0  0  0  0  0
  -18.0432  -25.9960   22.8937 H   0  0  0  0  0  0
  -19.8024  -30.7222   24.2023 H   0  0  0  0  0  0
  -17.5116  -31.6198   24.5117 H   0  0  0  0  0  0
  -15.5406  -30.2871   23.7712 H   0  0  0  0  0  0
  -15.8685  -28.0732   22.7037 H   0  0  0  0  0  0
  -24.6125  -30.6910   25.7757 H   0  0  0  0  0  0
  -24.9037  -32.2854   26.4614 H   0  0  0  0  0  0
  -25.8353  -30.9026   27.0121 H   0  0  0  0  0  0
  -26.3015  -29.6730   24.0914 H   0  0  0  0  0  0
  -27.3928  -29.7111   25.4557 H   0  0  0  0  0  0
  -27.8971  -30.4093   23.9367 H   0  0  0  0  0  0
  -27.2657  -33.3541   26.1869 H   0  0  0  0  0  0
  -28.4067  -32.6703   25.0385 H   0  0  0  0  0  0
  -28.0559  -31.8374   26.5461 H   0  0  0  0  0  0
  -28.2588  -38.0066   24.7562 H   0  0  0  0  0  0
  -28.1034  -36.2637   24.6282 H   0  0  0  0  0  0
  -27.2305  -37.1437   25.8887 H   0  0  0  0  0  0
  -20.9162  -29.8958   21.7054 H   0  0  0  0  0  0
  -26.0117  -38.2830   24.1438 H   0  0  0  0  0  0
  -30.6184  -18.6126   19.1736 H   0  0  0  0  0  0
  -28.7061  -17.6529   22.8900 H   0  0  0  0  0  0
  -29.5630  -20.8486   19.1677 H   0  0  0  0  0  0
  -27.7152  -19.8796   22.9761 H   0  0  0  0  0  0
  -28.5313  -25.4165   24.0795 H   0  0  0  0  0  0
  -27.4313  -24.3049   25.0477 H   0  0  0  0  0  0
  -27.6966  -26.3145   22.1661 H   0  0  0  0  0  0
  -25.5017  -23.0987   23.2684 H   0  0  0  0  0  0
  -26.8041  -22.1296   23.9180 H   0  0  0  0  0  0
  -25.8460  -22.3230   21.0679 H   0  0  0  0  0  0
  -26.1498  -20.9209   21.9790 H   0  0  0  0  0  0
  -29.0738  -15.4825   20.9420 H   0  0  0  0  0  0
  1 25  1  0  0  0
  1 30  2  0  0  0
  1 86  1  0  0  0
  2  3  1  0  0  0
  2 25  1  0  0  0
  2 89  1  0  0  0
  2 90  1  0  0  0
  3  4  1  0  0  0
  3 91  1  0  0  0
  3 92  1  0  0  0
  4  5  1  0  0  0
  4 93  1  0  0  0
  4 94  1  0  0  0
  5  6  1  0  0  0
  5 26  1  0  0  0
  5 95  1  0  0  0
  6 25  1  0  0  0
  6 96  1  0  0  0
  6 97  1  0  0  0
  7  8  2  0  0  0
  7 26  1  0  0  0
  7 29  1  0  0  0
  8  9  1  0  0  0
  8 22  1  0  0  0
  9 10  1  0  0  0
  9 27  2  0  0  0
 10 11  2  0  0  0
 10 15  1  0  0  0
 11 12  1  0  0  0
 11 98  1  0  0  0
 12 13  2  0  0  0
 12 99  1  0  0  0
 13 14  1  0  0  0
 13 31  1  0  0  0
 14 15  2  0  0  0
 14100  1  0  0  0
 15101  1  0  0  0
 16 17  2  0  0  0
 16 21  1  0  0  0
 16 31  1  0  0  0
 17 18  1  0  0  0
 17102  1  0  0  0
 18 19  2  0  0  0
 18103  1  0  0  0
 19 20  1  0  0  0
 19 24  1  0  0  0
 20 21  2  0  0  0
 20104  1  0  0  0
 21 23  1  0  0  0
 22 28  1  0  0  0
 22 32  2  0  0  0
 26 27  1  0  0  0
 28105  1  0  0  0
 28106  1  0  0  0
 29107  1  0  0  0
 29108  1  0  0  0
 33 34  1  0  0  0
 33 66  1  0  0  0
 33 70  2  0  0  0
 34 36  1  0  0  0
 34 59  1  0  0  0
 34109  1  0  0  0
 35 44  2  0  0  0
 35 45  1  0  0  0
 35 68  1  0  0  0
 36 56  1  0  0  0
 36110  1  0  0  0
 37 39  1  0  0  0
 37 47  1  0  0  0
 37 66  1  0  0  0
 37111  1  0  0  0
 38 43  2  0  0  0
 38 46  1  0  0  0
 38 47  1  0  0  0
 39 64  1  0  0  0
 39 67  2  0  0  0
 40 52  1  0  0  0
 40 53  2  0  0  0
 40 58  1  0  0  0
 41112  1  0  0  0
 41113  1  0  0  0
 41114  1  0  0  0
 41 48  1  0  0  0
 42 43  1  0  0  0
 42 66  1  0  0  0
 42115  1  0  0  0
 42116  1  0  0  0
 43 44  1  0  0  0
 44117  1  0  0  0
 45 46  2  0  0  0
 45118  1  0  0  0
 46119  1  0  0  0
 47120  1  0  0  0
 47121  1  0  0  0
 48 56  1  0  0  0
 48 65  1  0  0  0
 48122  1  0  0  0
 49 50  1  0  0  0
 49 53  1  0  0  0
 49 64  1  0  0  0
 49123  1  0  0  0
 50 51  1  0  0  0
 50124  1  0  0  0
 50125  1  0  0  0
 51 52  1  0  0  0
 51126  1  0  0  0
 51127  1  0  0  0
 52128  1  0  0  0
 52129  1  0  0  0
 53 54  1  0  0  0
 54 55  2  0  0  0
 54130  1  0  0  0
 55 57  1  0  0  0
 55131  1  0  0  0
 56 69  2  0  0  0
 57 58  2  0  0  0
 57132  1  0  0  0
 58133  1  0  0  0
 59 60  1  0  0  0
 59 61  1  0  0  0
 59 62  1  0  0  0
 60134  1  0  0  0
 60135  1  0  0  0
 60136  1  0  0  0
 61137  1  0  0  0
 61138  1  0  0  0
 61139  1  0  0  0
 62140  1  0  0  0
 62141  1  0  0  0
 62142  1  0  0  0
 63 65  1  0  0  0
 63143  1  0  0  0
 63144  1  0  0  0
 63145  1  0  0  0
 64146  1  0  0  0
 65147  1  0  0  0
 68 81  1  0  0  0
 71 73  2  0  0  0
 71 75  1  0  0  0
 71148  1  0  0  0
 72 74  1  0  0  0
 72 75  2  0  0  0
 72149  1  0  0  0
 73 76  1  0  0  0
 73150  1  0  0  0
 74 76  2  0  0  0
 74151  1  0  0  0
 75 82  1  0  0  0
 76 85  1  0  0  0
 77 78  1  0  0  0
 77 79  1  0  0  0
 77 81  2  0  0  0
 78 80  2  0  0  0
 78 83  1  0  0  0
 79 85  1  0  0  0
 79 87  2  0  0  0
 80152  1  0  0  0
 80153  1  0  0  0
 81154  1  0  0  0
 82 86  1  0  0  0
 82 88  2  0  0  0
 83 84  1  0  0  0
 83155  1  0  0  0
 83156  1  0  0  0
 84 85  1  0  0  0
 84157  1  0  0  0
 84158  1  0  0  0
 86159  1  0  0  0
M  ISO  4   1 100  68 101  81 101  86 100
M  END
> <chiral flag>
0

> <version>
0

> <s_m_source_file>
/data/baiqing/PycharmProjects/Reinvent-master-3.2/result/LINK_invent/BTK/process_docking_weight1_custom_product_contain_oxygen_bond_distance_aromatic_linkinvent_7_9_3/rearranged_h_0079.sdf

> <i_m_source_file_index>
11

> <r_mmod_Potential_Energy-OPLS-2005>
227.03352355957

> <r_mmod_Stretch_Energy-OPLS-2005>
65.1282196044922

> <r_mmod_Bend_Energy-OPLS-2005>
152.129913330078

> <r_mmod_Torsional_Energy-OPLS-2005>
365.754333496094

> <r_mmod_Improper_Torsional_Energy-OPLS-2005>
7.08072900772095

> <r_mmod_Van_der_Waal_Energy-OPLS-2005>
182.891967773438

> <r_mmod_Electrostatic_Energy-OPLS-2005>
-353.573455810547

> <r_mmod_Solvation_Energy-OPLS-2005>
-233.774765014648

> <b_mmod_Minimization_Converged-OPLS-2005>
0

> <r_mmod_RMS_Derivative-OPLS-2005>
8.55660629272461

$$$$
11
                    3D
 Structure written by MMmdl.
151159  0  0  1  0            999 V2000
  -30.6091  -14.6622   20.4931 C   0  0  0  0  0  0
  -30.4409  -12.4053   19.4572 C   0  0  0  0  0  0
  -29.5106  -12.5096   18.2274 C   0  0  0  0  0  0
  -28.0333  -12.3440   18.6375 C   0  0  0  0  0  0
  -27.6524  -13.2173   19.8623 C   0  0  2  0  0  0
  -28.6964  -13.0795   20.9933 C   0  0  0  0  0  0
  -25.2556  -13.8174   20.5680 C   0  0  0  0  0  0
  -24.1826  -13.0439   20.9199 C   0  0  0  0  0  0
  -24.6394  -11.6909   20.8745 C   0  0  0  0  0  0
  -23.9063  -10.4293   21.0409 C   0  0  0  0  0  0
  -24.3614   -9.4208   21.9186 C   0  0  0  0  0  0
  -23.6290   -8.2243   22.0754 C   0  0  0  0  0  0
  -22.4272   -8.0282   21.3544 C   0  0  0  0  0  0
  -21.9906   -9.0256   20.4648 C   0  0  0  0  0  0
  -22.7234  -10.2136   20.3058 C   0  0  0  0  0  0
  -21.6853   -6.0734   22.5279 C   0  0  0  0  0  0
  -21.4014   -6.5639   23.8213 C   0  0  0  0  0  0
  -21.3659   -5.6790   24.9175 C   0  0  0  0  0  0
  -21.6046   -4.3053   24.7225 C   0  0  0  0  0  0
  -21.8818   -3.8145   23.4345 C   0  0  0  0  0  0
  -21.9193   -4.6962   22.3400 C   0  0  0  0  0  0
  -22.7847  -13.5232   21.1859 C   0  0  0  0  0  0
  -22.1660   -4.2148   21.0978 F   0  0  0  0  0  0
  -21.5628   -3.4536   25.7735 F   0  0  0  0  0  0
  -30.0104  -13.4291   20.4315 N   0  0  0  0  0  0
  -26.2981  -12.9354   20.3305 N   0  0  0  0  0  0
  -25.9322  -11.6510   20.5753 N   0  0  0  0  0  0
  -22.0484  -12.8229   22.0415 N   0  0  0  0  0  0
  -25.4270  -15.1895   20.4075 N   0  0  0  0  0  0
  -31.7726  -14.8219   20.1121 O   0  0  0  0  0  0
  -21.6639   -6.8878   21.4241 O   0  0  0  0  0  0
  -22.3536  -14.5539   20.6704 O   0  0  0  0  0  0
  -24.6262  -31.8597   23.2017 C   0  0  0  0  0  0
  -25.9108  -32.4777   23.8352 C   0  0  1  0  0  0
  -27.2254  -27.3170   20.1273 C   0  0  0  0  0  0
  -25.5924  -33.8577   24.2282 N   0  0  0  0  0  0
  -23.4207  -30.4818   21.5440 C   0  0  2  0  0  0
  -24.8689  -28.9343   20.1127 C   0  0  0  0  0  0
  -22.7477  -29.4620   22.4934 C   0  0  0  0  0  0
  -18.0287  -28.1383   22.8484 C   0  0  0  0  0  0
  -24.1490  -36.7295   23.2639 C   0  0  0  0  0  0
  -25.9612  -30.7900   21.3732 C   0  0  0  0  0  0
  -26.0371  -29.4159   20.7183 C   0  0  0  0  0  0
  -27.2209  -28.6197   20.7139 C   0  0  0  0  0  0
  -26.0403  -26.8904   19.4905 C   0  0  0  0  0  0
  -24.8722  -27.6766   19.4888 C   0  0  0  0  0  0
  -23.6364  -29.8146   20.1603 C   0  0  0  0  0  0
  -25.4114  -36.3083   24.0330 C   0  0  1  0  0  0
  -20.5888  -28.3688   23.1282 C   0  0  2  0  0  0
  -20.6775  -26.9410   22.5410 C   0  0  0  0  0  0
  -19.5750  -26.6382   21.5213 C   0  0  0  0  0  0
  -18.1931  -26.7924   22.1626 C   0  0  0  0  0  0
  -19.1540  -28.8853   23.2878 C   0  0  0  0  0  0
  -18.9462  -30.1455   23.8892 C   0  0  0  0  0  0
  -17.6463  -30.6583   24.0564 C   0  0  0  0  0  0
  -25.9051  -34.9452   23.5106 C   0  0  0  0  0  0
  -16.5354  -29.9083   23.6327 C   0  0  0  0  0  0
  -16.7276  -28.6503   23.0345 C   0  0  0  0  0  0
  -26.4492  -31.6585   25.0721 C   0  0  0  0  0  0
  -25.3730  -31.3722   26.1451 C   0  0  0  0  0  0
  -27.0336  -30.3009   24.6171 C   0  0  0  0  0  0
  -27.6053  -32.4319   25.7491 C   0  0  0  0  0  0
  -27.5579  -37.1805   24.8465 C   0  0  0  0  0  0
  -21.4191  -29.3043   22.3678 N   0  0  0  0  0  0
  -26.4293  -37.3777   23.9405 N   0  0  0  0  0  0
  -24.6880  -31.0606   22.0968 N   0  0  0  0  0  0
  -23.4201  -28.8161   23.3016 O   0  0  0  0  0  0
  -28.3352  -26.4603   20.1469 O   0  0  0  0  0  0
  -26.5620  -34.8919   22.4673 O   0  0  0  0  0  0
  -23.5424  -32.1396   23.7345 O   0  0  0  0  0  0
  -28.6786  -19.3852   20.7237 C   0  0  0  0  0  0
  -30.9252  -19.2878   19.9003 C   0  0  0  0  0  0
  -28.7182  -17.9701   20.9467 C   0  0  0  0  0  0
  -30.9683  -17.8752   20.1171 C   0  0  0  0  0  0
  -29.7749  -20.0919   20.1679 C   0  0  0  0  0  0
  -29.8529  -17.1646   20.6330 C   0  0  0  0  0  0
  -28.9794  -23.9058   20.0235 C   0  0  0  0  0  0
  -29.7357  -21.5963   19.8002 C   0  0  0  0  0  0
  -28.1167  -25.0731   20.6393 C   0  0  0  0  0  0
  -28.9750  -22.6315   20.3716 N   0  0  0  0  0  0
  -29.7903  -15.7108   20.8444 N   0  0  0  0  0  0
  -30.5047  -21.8861   18.7913 N   0  3  0  0  0  0
  -31.4813  -12.5365   19.1540 H   0  0  0  0  0  0
  -30.3835  -11.4109   19.9028 H   0  0  0  0  0  0
  -29.7787  -11.7551   17.4865 H   0  0  0  0  0  0
  -29.6499  -13.4774   17.7424 H   0  0  0  0  0  0
  -27.8730  -11.2911   18.8723 H   0  0  0  0  0  0
  -27.3797  -12.5693   17.7940 H   0  0  0  0  0  0
  -27.6677  -14.2513   19.5172 H   0  0  0  0  0  0
  -28.7123  -12.0583   21.3770 H   0  0  0  0  0  0
  -28.4382  -13.7120   21.8440 H   0  0  0  0  0  0
  -25.2762   -9.5681   22.4756 H   0  0  0  0  0  0
  -23.9998   -7.4634   22.7472 H   0  0  0  0  0  0
  -21.0836   -8.8775   19.8954 H   0  0  0  0  0  0
  -22.3695  -10.9674   19.6164 H   0  0  0  0  0  0
  -21.2007   -7.6145   23.9716 H   0  0  0  0  0  0
  -21.1481   -6.0520   25.9078 H   0  0  0  0  0  0
  -22.0599   -2.7606   23.2848 H   0  0  0  0  0  0
  -22.4085  -11.9889   22.4808 H   0  0  0  0  0  0
  -21.1101  -13.1265   22.2612 H   0  0  0  0  0  0
  -24.6544  -15.8401   20.5031 H   0  0  0  0  0  0
  -26.2613  -15.6209   20.0313 H   0  0  0  0  0  0
  -26.7178  -32.5448   23.1104 H   0  0  0  0  0  0
  -25.0073  -33.9721   25.0426 H   0  0  0  0  0  0
  -22.7144  -31.3022   21.3997 H   0  0  0  0  0  0
  -23.3748  -35.9631   23.3309 H   0  0  0  0  0  0
  -24.3580  -36.8907   22.2053 H   0  0  0  0  0  0
  -23.7249  -37.6501   23.6656 H   0  0  0  0  0  0
  -26.0916  -31.5516   20.6033 H   0  0  0  0  0  0
  -26.8421  -30.8408   22.0016 H   0  0  0  0  0  0
  -28.1180  -28.9852   21.1941 H   0  0  0  0  0  0
  -26.0076  -25.9311   18.9940 H   0  0  0  0  0  0
  -23.9795  -27.3040   19.0054 H   0  0  0  0  0  0
  -23.7558  -30.5904   19.4031 H   0  0  0  0  0  0
  -22.7565  -29.2436   19.8579 H   0  0  0  0  0  0
  -25.1294  -36.1939   25.0823 H   0  0  0  0  0  0
  -20.9979  -28.3264   24.1403 H   0  0  0  0  0  0
  -20.5672  -26.2301   23.3612 H   0  0  0  0  0  0
  -21.6645  -26.7434   22.1208 H   0  0  0  0  0  0
  -19.6911  -25.6294   21.1239 H   0  0  0  0  0  0
  -19.6683  -27.3196   20.6746 H   0  0  0  0  0  0
  -17.4199  -26.6671   21.4030 H   0  0  0  0  0  0
  -18.0330  -26.0067   22.9022 H   0  0  0  0  0  0
  -19.7940  -30.7273   24.2257 H   0  0  0  0  0  0
  -17.5016  -31.6260   24.5172 H   0  0  0  0  0  0
  -15.5354  -30.2984   23.7648 H   0  0  0  0  0  0
  -15.8678  -28.0822   22.7054 H   0  0  0  0  0  0
  -24.5903  -30.7070   25.7784 H   0  0  0  0  0  0
  -24.8923  -32.2888   26.4880 H   0  0  0  0  0  0
  -25.8059  -30.8899   27.0224 H   0  0  0  0  0  0
  -26.2909  -29.6759   24.1197 H   0  0  0  0  0  0
  -27.4039  -29.7263   25.4671 H   0  0  0  0  0  0
  -27.8775  -30.4298   23.9391 H   0  0  0  0  0  0
  -27.2662  -33.3617   26.2072 H   0  0  0  0  0  0
  -28.3862  -32.6884   25.0320 H   0  0  0  0  0  0
  -28.0722  -31.8443   26.5405 H   0  0  0  0  0  0
  -28.2604  -38.0095   24.7502 H   0  0  0  0  0  0
  -28.1067  -36.2626   24.6304 H   0  0  0  0  0  0
  -27.2293  -37.1471   25.8868 H   0  0  0  0  0  0
  -20.9369  -29.8774   21.6895 H   0  0  0  0  0  0
  -26.0175  -38.2854   24.1396 H   0  0  0  0  0  0
  -27.7799  -19.9350   20.9535 H   0  0  0  0  0  0
  -31.8129  -19.7541   19.5056 H   0  0  0  0  0  0
  -27.8341  -17.5009   21.3543 H   0  0  0  0  0  0
  -31.8777  -17.3495   19.8662 H   0  0  0  0  0  0
  -29.6258  -24.2730   19.2217 H   0  0  0  0  0  0
  -28.3200  -25.0929   21.7101 H   0  0  0  0  0  0
  -27.0731  -24.7722   20.5608 H   0  0  0  0  0  0
  -28.9019  -15.3839   21.1927 H   0  0  0  0  0  0
  -31.0335  -21.1691   18.2989 H   0  0  0  0  0  0
  -30.6058  -22.8147   18.3965 H   0  0  0  0  0  0
  1 25  1  0  0  0
  1 30  2  0  0  0
  1 81  1  0  0  0
  2  3  1  0  0  0
  2 25  1  0  0  0
  2 83  1  0  0  0
  2 84  1  0  0  0
  3  4  1  0  0  0
  3 85  1  0  0  0
  3 86  1  0  0  0
  4  5  1  0  0  0
  4 87  1  0  0  0
  4 88  1  0  0  0
  5  6  1  0  0  0
  5 26  1  0  0  0
  5 89  1  0  0  0
  6 25  1  0  0  0
  6 90  1  0  0  0
  6 91  1  0  0  0
  7  8  2  0  0  0
  7 26  1  0  0  0
  7 29  1  0  0  0
  8  9  1  0  0  0
  8 22  1  0  0  0
  9 10  1  0  0  0
  9 27  2  0  0  0
 10 11  2  0  0  0
 10 15  1  0  0  0
 11 12  1  0  0  0
 11 92  1  0  0  0
 12 13  2  0  0  0
 12 93  1  0  0  0
 13 14  1  0  0  0
 13 31  1  0  0  0
 14 15  2  0  0  0
 14 94  1  0  0  0
 15 95  1  0  0  0
 16 17  2  0  0  0
 16 21  1  0  0  0
 16 31  1  0  0  0
 17 18  1  0  0  0
 17 96  1  0  0  0
 18 19  2  0  0  0
 18 97  1  0  0  0
 19 20  1  0  0  0
 19 24  1  0  0  0
 20 21  2  0  0  0
 20 98  1  0  0  0
 21 23  1  0  0  0
 22 28  1  0  0  0
 22 32  2  0  0  0
 26 27  1  0  0  0
 28 99  1  0  0  0
 28100  1  0  0  0
 29101  1  0  0  0
 29102  1  0  0  0
 33 34  1  0  0  0
 33 66  1  0  0  0
 33 70  2  0  0  0
 34 36  1  0  0  0
 34 59  1  0  0  0
 34103  1  0  0  0
 35 44  2  0  0  0
 35 45  1  0  0  0
 35 68  1  0  0  0
 36 56  1  0  0  0
 36104  1  0  0  0
 37 39  1  0  0  0
 37 47  1  0  0  0
 37 66  1  0  0  0
 37105  1  0  0  0
 38 43  2  0  0  0
 38 46  1  0  0  0
 38 47  1  0  0  0
 39 64  1  0  0  0
 39 67  2  0  0  0
 40 52  1  0  0  0
 40 53  2  0  0  0
 40 58  1  0  0  0
 41106  1  0  0  0
 41107  1  0  0  0
 41108  1  0  0  0
 41 48  1  0  0  0
 42 43  1  0  0  0
 42 66  1  0  0  0
 42109  1  0  0  0
 42110  1  0  0  0
 43 44  1  0  0  0
 44111  1  0  0  0
 45 46  2  0  0  0
 45112  1  0  0  0
 46113  1  0  0  0
 47114  1  0  0  0
 47115  1  0  0  0
 48 56  1  0  0  0
 48 65  1  0  0  0
 48116  1  0  0  0
 49 50  1  0  0  0
 49 53  1  0  0  0
 49 64  1  0  0  0
 49117  1  0  0  0
 50 51  1  0  0  0
 50118  1  0  0  0
 50119  1  0  0  0
 51 52  1  0  0  0
 51120  1  0  0  0
 51121  1  0  0  0
 52122  1  0  0  0
 52123  1  0  0  0
 53 54  1  0  0  0
 54 55  2  0  0  0
 54124  1  0  0  0
 55 57  1  0  0  0
 55125  1  0  0  0
 56 69  2  0  0  0
 57 58  2  0  0  0
 57126  1  0  0  0
 58127  1  0  0  0
 59 60  1  0  0  0
 59 61  1  0  0  0
 59 62  1  0  0  0
 60128  1  0  0  0
 60129  1  0  0  0
 60130  1  0  0  0
 61131  1  0  0  0
 61132  1  0  0  0
 61133  1  0  0  0
 62134  1  0  0  0
 62135  1  0  0  0
 62136  1  0  0  0
 63 65  1  0  0  0
 63137  1  0  0  0
 63138  1  0  0  0
 63139  1  0  0  0
 64140  1  0  0  0
 65141  1  0  0  0
 68 79  1  0  0  0
 71 73  2  0  0  0
 71 75  1  0  0  0
 71142  1  0  0  0
 72 74  1  0  0  0
 72 75  2  0  0  0
 72143  1  0  0  0
 73 76  1  0  0  0
 73144  1  0  0  0
 74 76  2  0  0  0
 74145  1  0  0  0
 75 78  1  0  0  0
 76 81  1  0  0  0
 77 79  1  0  0  0
 77 80  2  0  0  0
 77146  1  0  0  0
 78 80  1  0  0  0
 78 82  2  0  0  0
 79147  1  0  0  0
 79148  1  0  0  0
 81149  1  0  0  0
 82150  1  0  0  0
 82151  1  0  0  0
M  CHG  1  82   1
M  ISO  4   1 100  68 101  79 101  81 100
M  END
> <chiral flag>
0

> <version>
0

> <s_m_source_file>
/data/baiqing/PycharmProjects/Reinvent-master-3.2/result/LINK_invent/BTK/process_docking_weight1_custom_product_contain_oxygen_bond_distance_aromatic_linkinvent_7_9_3/rearranged_h_0079.sdf

> <i_m_source_file_index>
12

> <r_mmod_Potential_Energy-OPLS-2005>
81.1418838500977

> <r_mmod_Stretch_Energy-OPLS-2005>
99.0531768798828

> <r_mmod_Bend_Energy-OPLS-2005>
143.254791259766

> <r_mmod_Torsional_Energy-OPLS-2005>
230.595520019531

> <r_mmod_Improper_Torsional_Energy-OPLS-2005>
4.38265037536621

> <r_mmod_Van_der_Waal_Energy-OPLS-2005>
155.92463684082

> <r_mmod_Electrostatic_Energy-OPLS-2005>
-128.853103637695

> <r_mmod_Solvation_Energy-OPLS-2005>
-475.848602294922

> <b_mmod_Minimization_Converged-OPLS-2005>
0

> <r_mmod_RMS_Derivative-OPLS-2005>
0.499122589826584

$$$$
12
                    3D
 Structure written by MMmdl.
168177  0  0  1  0            999 V2000
  -30.6690  -14.5094   20.5375 C   0  0  0  0  0  0
  -30.4243  -12.3147   19.4424 C   0  0  0  0  0  0
  -29.5037  -12.5028   18.2167 C   0  0  0  0  0  0
  -28.0187  -12.3781   18.6159 C   0  0  0  0  0  0
  -27.6592  -13.2072   19.8799 C   0  0  2  0  0  0
  -28.6993  -12.9989   21.0041 C   0  0  0  0  0  0
  -25.2569  -13.8159   20.5689 C   0  0  0  0  0  0
  -24.1816  -13.0436   20.9160 C   0  0  0  0  0  0
  -24.6368  -11.6904   20.8715 C   0  0  0  0  0  0
  -23.9039  -10.4285   21.0394 C   0  0  0  0  0  0
  -24.3597   -9.4213   21.9176 C   0  0  0  0  0  0
  -23.6278   -8.2249   22.0758 C   0  0  0  0  0  0
  -22.4261   -8.0273   21.3544 C   0  0  0  0  0  0
  -21.9885   -9.0243   20.4649 C   0  0  0  0  0  0
  -22.7214  -10.2119   20.3047 C   0  0  0  0  0  0
  -21.6845   -6.0724   22.5281 C   0  0  0  0  0  0
  -21.4018   -6.5630   23.8214 C   0  0  0  0  0  0
  -21.3670   -5.6789   24.9177 C   0  0  0  0  0  0
  -21.6049   -4.3052   24.7228 C   0  0  0  0  0  0
  -21.8814   -3.8138   23.4351 C   0  0  0  0  0  0
  -21.9184   -4.6952   22.3405 C   0  0  0  0  0  0
  -22.7840  -13.5241   21.1829 C   0  0  0  0  0  0
  -22.1651   -4.2137   21.0985 F   0  0  0  0  0  0
  -21.5633   -3.4543   25.7744 F   0  0  0  0  0  0
  -30.0318  -13.3065   20.4580 N   0  0  0  0  0  0
  -26.3002  -12.9320   20.3376 N   0  0  0  0  0  0
  -25.9297  -11.6480   20.5745 N   0  0  0  0  0  0
  -22.0476  -12.8238   22.0381 N   0  0  0  0  0  0
  -25.4319  -15.1886   20.4131 N   0  0  0  0  0  0
  -31.7933  -14.7032   20.0659 O   0  0  0  0  0  0
  -21.6637   -6.8867   21.4241 O   0  0  0  0  0  0
  -22.3534  -14.5554   20.6683 O   0  0  0  0  0  0
  -24.6162  -31.8672   23.2075 C   0  0  0  0  0  0
  -25.9048  -32.4820   23.8373 C   0  0  1  0  0  0
  -27.2286  -27.4217   20.1038 C   0  0  0  0  0  0
  -25.5905  -33.8619   24.2304 N   0  0  0  0  0  0
  -23.4044  -30.4909   21.5485 C   0  0  2  0  0  0
  -24.8512  -28.9542   20.1125 C   0  0  0  0  0  0
  -22.7412  -29.4662   22.4972 C   0  0  0  0  0  0
  -18.0281  -28.1381   22.8490 C   0  0  0  0  0  0
  -24.1493  -36.7319   23.2638 C   0  0  0  0  0  0
  -25.9342  -30.8298   21.3620 C   0  0  0  0  0  0
  -26.0124  -29.4633   20.7091 C   0  0  0  0  0  0
  -27.2078  -28.7056   20.6978 C   0  0  0  0  0  0
  -26.0549  -26.9302   19.4958 C   0  0  0  0  0  0
  -24.8674  -27.6873   19.5019 C   0  0  0  0  0  0
  -23.6134  -29.8223   20.1634 C   0  0  0  0  0  0
  -25.4117  -36.3107   24.0325 C   0  0  1  0  0  0
  -20.5868  -28.3673   23.1313 C   0  0  2  0  0  0
  -20.6776  -26.9408   22.5422 C   0  0  0  0  0  0
  -19.5758  -26.6383   21.5220 C   0  0  0  0  0  0
  -18.1933  -26.7927   22.1622 C   0  0  0  0  0  0
  -19.1528  -28.8841   23.2900 C   0  0  0  0  0  0
  -18.9455  -30.1445   23.8914 C   0  0  0  0  0  0
  -17.6459  -30.6590   24.0564 C   0  0  0  0  0  0
  -25.9042  -34.9475   23.5108 C   0  0  0  0  0  0
  -16.5350  -29.9095   23.6324 C   0  0  0  0  0  0
  -16.7271  -28.6511   23.0345 C   0  0  0  0  0  0
  -26.4467  -31.6604   25.0709 C   0  0  0  0  0  0
  -25.3720  -31.3716   26.1447 C   0  0  0  0  0  0
  -27.0301  -30.3046   24.6093 C   0  0  0  0  0  0
  -27.6032  -32.4330   25.7485 C   0  0  0  0  0  0
  -27.5581  -37.1818   24.8461 C   0  0  0  0  0  0
  -21.4140  -29.3034   22.3710 N   0  0  0  0  0  0
  -26.4303  -37.3789   23.9393 N   0  0  0  0  0  0
  -24.6699  -31.0767   22.0980 N   0  0  0  0  0  0
  -23.4177  -28.8210   23.3024 O   0  0  0  0  0  0
  -28.3709  -26.6491   20.1076 O   0  0  0  0  0  0
  -26.5609  -34.8925   22.4672 O   0  0  0  0  0  0
  -23.5352  -32.1430   23.7462 O   0  0  0  0  0  0
  -28.5351  -17.6664   18.2995 C   0  0  0  0  0  0
  -29.1194  -16.5815   18.9725 C   0  0  0  0  0  0
  -29.5033  -17.9976   20.9125 C   0  0  0  0  0  0
  -28.4228  -18.9332   18.9121 C   0  0  0  0  0  0
  -29.5704  -16.7112   20.3038 C   0  0  0  0  0  0
  -28.9776  -19.1246   20.2118 C   0  0  0  0  0  0
  -25.3982  -20.1484   17.6145 C   0  0  0  0  0  0
  -26.2210  -20.1879   16.4373 C   0  0  0  0  0  0
  -24.0582  -20.2308   17.6571 C   0  0  0  0  0  0
  -25.7856  -20.2533   15.1676 C   0  0  0  0  0  0
  -29.2990  -21.5996   20.3405 C   0  0  0  0  0  0
  -26.2783  -19.9995   18.8246 C   0  0  0  0  0  0
  -27.6696  -20.1165   16.8438 C   0  0  0  0  0  0
  -28.8242  -22.8912   21.0468 C   0  0  0  0  0  0
  -28.7872  -24.1692   20.1483 C   0  0  0  0  0  0
  -28.2770  -25.4367   20.8850 C   0  0  0  0  0  0
  -27.6501  -19.9444   18.3044 N   0  0  0  0  0  0
  -28.9066  -20.4099   20.8558 N   0  0  0  0  0  0
  -29.9420  -15.5336   21.0394 N   0  0  0  0  0  0
  -30.0555  -21.6842   19.3688 O   0  0  0  0  0  0
  -31.4710  -12.4105   19.1471 H   0  0  0  0  0  0
  -30.3208  -11.3064   19.8459 H   0  0  0  0  0  0
  -29.7458  -11.7658   17.4492 H   0  0  0  0  0  0
  -29.6868  -13.4788   17.7644 H   0  0  0  0  0  0
  -27.8100  -11.3226   18.7930 H   0  0  0  0  0  0
  -27.3817  -12.6746   17.7813 H   0  0  0  0  0  0
  -27.6911  -14.2550   19.5895 H   0  0  0  0  0  0
  -28.6735  -11.9660   21.3546 H   0  0  0  0  0  0
  -28.4561  -13.6079   21.8760 H   0  0  0  0  0  0
  -25.2743   -9.5695   22.4748 H   0  0  0  0  0  0
  -23.9984   -7.4641   22.7477 H   0  0  0  0  0  0
  -21.0824   -8.8756   19.8949 H   0  0  0  0  0  0
  -22.3673  -10.9649   19.6155 H   0  0  0  0  0  0
  -21.2017   -7.6139   23.9709 H   0  0  0  0  0  0
  -21.1505   -6.0530   25.9078 H   0  0  0  0  0  0
  -22.0585   -2.7600   23.2860 H   0  0  0  0  0  0
  -22.4074  -11.9889   22.4766 H   0  0  0  0  0  0
  -21.1095  -13.1271   22.2584 H   0  0  0  0  0  0
  -24.6649  -15.8432   20.5197 H   0  0  0  0  0  0
  -26.2941  -15.6310   20.1212 H   0  0  0  0  0  0
  -26.7118  -32.5526   23.1139 H   0  0  0  0  0  0
  -25.0045  -33.9775   25.0441 H   0  0  0  0  0  0
  -22.6930  -31.3076   21.4080 H   0  0  0  0  0  0
  -23.3750  -35.9659   23.3311 H   0  0  0  0  0  0
  -24.3579  -36.8939   22.2051 H   0  0  0  0  0  0
  -23.7263  -37.6527   23.6662 H   0  0  0  0  0  0
  -26.0475  -31.5954   20.5926 H   0  0  0  0  0  0
  -26.8215  -30.8827   21.9817 H   0  0  0  0  0  0
  -28.1053  -29.0918   21.1605 H   0  0  0  0  0  0
  -26.0587  -25.9582   19.0219 H   0  0  0  0  0  0
  -23.9748  -27.2912   19.0369 H   0  0  0  0  0  0
  -23.7195  -30.5959   19.4028 H   0  0  0  0  0  0
  -22.7371  -29.2424   19.8684 H   0  0  0  0  0  0
  -25.1306  -36.1964   25.0820 H   0  0  0  0  0  0
  -20.9968  -28.3253   24.1431 H   0  0  0  0  0  0
  -20.5703  -26.2278   23.3610 H   0  0  0  0  0  0
  -21.6646  -26.7462   22.1208 H   0  0  0  0  0  0
  -19.6922  -25.6294   21.1253 H   0  0  0  0  0  0
  -19.6706  -27.3186   20.6743 H   0  0  0  0  0  0
  -17.4206  -26.6680   21.4016 H   0  0  0  0  0  0
  -18.0323  -26.0069   22.9015 H   0  0  0  0  0  0
  -19.7930  -30.7253   24.2302 H   0  0  0  0  0  0
  -17.5016  -31.6271   24.5162 H   0  0  0  0  0  0
  -15.5352  -30.3004   23.7634 H   0  0  0  0  0  0
  -15.8671  -28.0840   22.7043 H   0  0  0  0  0  0
  -24.5886  -30.7081   25.7767 H   0  0  0  0  0  0
  -24.8918  -32.2877   26.4896 H   0  0  0  0  0  0
  -25.8057  -30.8871   27.0205 H   0  0  0  0  0  0
  -26.2845  -29.6816   24.1141 H   0  0  0  0  0  0
  -27.4058  -29.7278   25.4555 H   0  0  0  0  0  0
  -27.8685  -30.4362   23.9251 H   0  0  0  0  0  0
  -27.2643  -33.3626   26.2073 H   0  0  0  0  0  0
  -28.3843  -32.6907   25.0318 H   0  0  0  0  0  0
  -28.0702  -31.8452   26.5400 H   0  0  0  0  0  0
  -28.2608  -38.0105   24.7497 H   0  0  0  0  0  0
  -28.1072  -36.2636   24.6318 H   0  0  0  0  0  0
  -27.2290  -37.1505   25.8861 H   0  0  0  0  0  0
  -20.9302  -29.8741   21.6920 H   0  0  0  0  0  0
  -26.0194  -38.2873   24.1374 H   0  0  0  0  0  0
  -28.1090  -17.4783   17.3257 H   0  0  0  0  0  0
  -29.1384  -15.6270   18.4690 H   0  0  0  0  0  0
  -29.8431  -18.1185   21.9320 H   0  0  0  0  0  0
  -23.4579  -20.3363   16.7661 H   0  0  0  0  0  0
  -23.5340  -20.1915   18.6015 H   0  0  0  0  0  0
  -24.7350  -20.2884   14.9225 H   0  0  0  0  0  0
  -26.4838  -20.2688   14.3440 H   0  0  0  0  0  0
  -26.0038  -19.0965   19.3739 H   0  0  0  0  0  0
  -26.1537  -20.8545   19.4903 H   0  0  0  0  0  0
  -28.1589  -21.0596   16.5978 H   0  0  0  0  0  0
  -28.1908  -19.3295   16.3006 H   0  0  0  0  0  0
  -29.4806  -23.0674   21.8999 H   0  0  0  0  0  0
  -27.8286  -22.7157   21.4567 H   0  0  0  0  0  0
  -28.1542  -23.9825   19.2798 H   0  0  0  0  0  0
  -29.7865  -24.3654   19.7590 H   0  0  0  0  0  0
  -28.8769  -25.5921   21.7819 H   0  0  0  0  0  0
  -27.2604  -25.2573   21.2408 H   0  0  0  0  0  0
  -28.4653  -20.4335   21.7637 H   0  0  0  0  0  0
  -29.2331  -15.2300   21.6914 H   0  0  0  0  0  0
  1 25  1  0  0  0
  1 30  2  0  0  0
  1 89  1  0  0  0
  2  3  1  0  0  0
  2 25  1  0  0  0
  2 91  1  0  0  0
  2 92  1  0  0  0
  3  4  1  0  0  0
  3 93  1  0  0  0
  3 94  1  0  0  0
  4  5  1  0  0  0
  4 95  1  0  0  0
  4 96  1  0  0  0
  5  6  1  0  0  0
  5 26  1  0  0  0
  5 97  1  0  0  0
  6 25  1  0  0  0
  6 98  1  0  0  0
  6 99  1  0  0  0
  7  8  2  0  0  0
  7 26  1  0  0  0
  7 29  1  0  0  0
  8  9  1  0  0  0
  8 22  1  0  0  0
  9 10  1  0  0  0
  9 27  2  0  0  0
 10 11  2  0  0  0
 10 15  1  0  0  0
 11 12  1  0  0  0
 11100  1  0  0  0
 12 13  2  0  0  0
 12101  1  0  0  0
 13 14  1  0  0  0
 13 31  1  0  0  0
 14 15  2  0  0  0
 14102  1  0  0  0
 15103  1  0  0  0
 16 17  2  0  0  0
 16 21  1  0  0  0
 16 31  1  0  0  0
 17 18  1  0  0  0
 17104  1  0  0  0
 18 19  2  0  0  0
 18105  1  0  0  0
 19 20  1  0  0  0
 19 24  1  0  0  0
 20 21  2  0  0  0
 20106  1  0  0  0
 21 23  1  0  0  0
 22 28  1  0  0  0
 22 32  2  0  0  0
 26 27  1  0  0  0
 28107  1  0  0  0
 28108  1  0  0  0
 29109  1  0  0  0
 29110  1  0  0  0
 33 34  1  0  0  0
 33 66  1  0  0  0
 33 70  2  0  0  0
 34 36  1  0  0  0
 34 59  1  0  0  0
 34111  1  0  0  0
 35 44  2  0  0  0
 35 45  1  0  0  0
 35 68  1  0  0  0
 36 56  1  0  0  0
 36112  1  0  0  0
 37 39  1  0  0  0
 37 47  1  0  0  0
 37 66  1  0  0  0
 37113  1  0  0  0
 38 43  2  0  0  0
 38 46  1  0  0  0
 38 47  1  0  0  0
 39 64  1  0  0  0
 39 67  2  0  0  0
 40 52  1  0  0  0
 40 53  2  0  0  0
 40 58  1  0  0  0
 41114  1  0  0  0
 41115  1  0  0  0
 41116  1  0  0  0
 41 48  1  0  0  0
 42 43  1  0  0  0
 42 66  1  0  0  0
 42117  1  0  0  0
 42118  1  0  0  0
 43 44  1  0  0  0
 44119  1  0  0  0
 45 46  2  0  0  0
 45120  1  0  0  0
 46121  1  0  0  0
 47122  1  0  0  0
 47123  1  0  0  0
 48 56  1  0  0  0
 48 65  1  0  0  0
 48124  1  0  0  0
 49 50  1  0  0  0
 49 53  1  0  0  0
 49 64  1  0  0  0
 49125  1  0  0  0
 50 51  1  0  0  0
 50126  1  0  0  0
 50127  1  0  0  0
 51 52  1  0  0  0
 51128  1  0  0  0
 51129  1  0  0  0
 52130  1  0  0  0
 52131  1  0  0  0
 53 54  1  0  0  0
 54 55  2  0  0  0
 54132  1  0  0  0
 55 57  1  0  0  0
 55133  1  0  0  0
 56 69  2  0  0  0
 57 58  2  0  0  0
 57134  1  0  0  0
 58135  1  0  0  0
 59 60  1  0  0  0
 59 61  1  0  0  0
 59 62  1  0  0  0
 60136  1  0  0  0
 60137  1  0  0  0
 60138  1  0  0  0
 61139  1  0  0  0
 61140  1  0  0  0
 61141  1  0  0  0
 62142  1  0  0  0
 62143  1  0  0  0
 62144  1  0  0  0
 63 65  1  0  0  0
 63145  1  0  0  0
 63146  1  0  0  0
 63147  1  0  0  0
 64148  1  0  0  0
 65149  1  0  0  0
 68 86  1  0  0  0
 71 72  2  0  0  0
 71 74  1  0  0  0
 71150  1  0  0  0
 72 75  1  0  0  0
 72151  1  0  0  0
 73 75  2  0  0  0
 73 76  1  0  0  0
 73152  1  0  0  0
 74 76  2  0  0  0
 74 87  1  0  0  0
 75 89  1  0  0  0
 76 88  1  0  0  0
 77 78  1  0  0  0
 77 79  2  0  0  0
 77 82  1  0  0  0
 78 80  2  0  0  0
 78 83  1  0  0  0
 79153  1  0  0  0
 79154  1  0  0  0
 80155  1  0  0  0
 80156  1  0  0  0
 81 84  1  0  0  0
 81 88  1  0  0  0
 81 90  2  0  0  0
 82 87  1  0  0  0
 82157  1  0  0  0
 82158  1  0  0  0
 83 87  1  0  0  0
 83159  1  0  0  0
 83160  1  0  0  0
 84 85  1  0  0  0
 84161  1  0  0  0
 84162  1  0  0  0
 85 86  1  0  0  0
 85163  1  0  0  0
 85164  1  0  0  0
 86165  1  0  0  0
 86166  1  0  0  0
 88167  1  0  0  0
 89168  1  0  0  0
M  ISO  4   1 100  68 101  86 101  89 100
M  END
> <chiral flag>
0

> <version>
0

> <s_m_source_file>
/data/baiqing/PycharmProjects/Reinvent-master-3.2/result/LINK_invent/BTK/process_docking_weight1_custom_product_contain_oxygen_bond_distance_aromatic_linkinvent_7_9_3/rearranged_h_0079.sdf

> <i_m_source_file_index>
13

> <r_mmod_Potential_Energy-OPLS-2005>
-25.6479568481445

> <r_mmod_Stretch_Energy-OPLS-2005>
46.2564239501953

> <r_mmod_Bend_Energy-OPLS-2005>
155.346588134766

> <r_mmod_Torsional_Energy-OPLS-2005>
329.114807128906

> <r_mmod_Improper_Torsional_Energy-OPLS-2005>
12.053316116333

> <r_mmod_Van_der_Waal_Energy-OPLS-2005>
147.009094238281

> <r_mmod_Electrostatic_Energy-OPLS-2005>
-479.126831054688

> <r_mmod_Solvation_Energy-OPLS-2005>
-252.677536010742

> <b_mmod_Minimization_Converged-OPLS-2005>
0

> <r_mmod_RMS_Derivative-OPLS-2005>
1.46826505661011

$$$$
13
                    3D
 Structure written by MMmdl.
156164  0  0  1  0            999 V2000
  -30.7104  -14.5109   20.5498 C   0  0  0  0  0  0
  -30.4167  -12.3250   19.4365 C   0  0  0  0  0  0
  -29.4943  -12.4992   18.2130 C   0  0  0  0  0  0
  -28.0172  -12.3560   18.6262 C   0  0  0  0  0  0
  -27.6563  -13.2140   19.8689 C   0  0  2  0  0  0
  -28.6994  -13.0394   20.9965 C   0  0  0  0  0  0
  -25.2568  -13.8174   20.5690 C   0  0  0  0  0  0
  -24.1829  -13.0443   20.9192 C   0  0  0  0  0  0
  -24.6390  -11.6912   20.8740 C   0  0  0  0  0  0
  -23.9058  -10.4295   21.0404 C   0  0  0  0  0  0
  -24.3611   -9.4210   21.9181 C   0  0  0  0  0  0
  -23.6291   -8.2243   22.0752 C   0  0  0  0  0  0
  -22.4273   -8.0279   21.3543 C   0  0  0  0  0  0
  -21.9905   -9.0252   20.4645 C   0  0  0  0  0  0
  -22.7230  -10.2134   20.3054 C   0  0  0  0  0  0
  -21.6853   -6.0734   22.5279 C   0  0  0  0  0  0
  -21.4013   -6.5638   23.8211 C   0  0  0  0  0  0
  -21.3659   -5.6792   24.9175 C   0  0  0  0  0  0
  -21.6044   -4.3055   24.7226 C   0  0  0  0  0  0
  -21.8820   -3.8146   23.4347 C   0  0  0  0  0  0
  -21.9193   -4.6962   22.3402 C   0  0  0  0  0  0
  -22.7852  -13.5238   21.1852 C   0  0  0  0  0  0
  -22.1664   -4.2147   21.0980 F   0  0  0  0  0  0
  -21.5628   -3.4537   25.7737 F   0  0  0  0  0  0
  -30.0261  -13.3368   20.4347 N   0  0  0  0  0  0
  -26.2999  -12.9354   20.3348 N   0  0  0  0  0  0
  -25.9319  -11.6509   20.5769 N   0  0  0  0  0  0
  -22.0489  -12.8229   22.0404 N   0  0  0  0  0  0
  -25.4290  -15.1893   20.4096 N   0  0  0  0  0  0
  -31.8489  -14.6377   20.0929 O   0  0  0  0  0  0
  -21.6640   -6.8875   21.4240 O   0  0  0  0  0  0
  -22.3543  -14.5548   20.6704 O   0  0  0  0  0  0
  -24.6176  -31.8665   23.2096 C   0  0  0  0  0  0
  -25.9058  -32.4816   23.8398 C   0  0  1  0  0  0
  -27.2264  -27.4094   20.1018 C   0  0  0  0  0  0
  -25.5910  -33.8615   24.2328 N   0  0  0  0  0  0
  -23.4075  -30.4911   21.5500 C   0  0  2  0  0  0
  -24.8553  -28.9601   20.1090 C   0  0  0  0  0  0
  -22.7431  -29.4653   22.4971 C   0  0  0  0  0  0
  -18.0272  -28.1382   22.8492 C   0  0  0  0  0  0
  -24.1484  -36.7307   23.2636 C   0  0  0  0  0  0
  -25.9403  -30.8253   21.3676 C   0  0  0  0  0  0
  -26.0187  -29.4599   20.7102 C   0  0  0  0  0  0
  -27.2109  -28.6920   20.7043 C   0  0  0  0  0  0
  -26.0500  -26.9415   19.4761 C   0  0  0  0  0  0
  -24.8672  -27.7016   19.4858 C   0  0  0  0  0  0
  -23.6175  -29.8279   20.1632 C   0  0  0  0  0  0
  -25.4103  -36.3107   24.0342 C   0  0  1  0  0  0
  -20.5867  -28.3673   23.1308 C   0  0  2  0  0  0
  -20.6760  -26.9407   22.5415 C   0  0  0  0  0  0
  -19.5741  -26.6388   21.5210 C   0  0  0  0  0  0
  -18.1920  -26.7928   22.1621 C   0  0  0  0  0  0
  -19.1524  -28.8842   23.2896 C   0  0  0  0  0  0
  -18.9450  -30.1445   23.8912 C   0  0  0  0  0  0
  -17.6453  -30.6588   24.0561 C   0  0  0  0  0  0
  -25.9038  -34.9473   23.5131 C   0  0  0  0  0  0
  -16.5343  -29.9088   23.6329 C   0  0  0  0  0  0
  -16.7262  -28.6502   23.0356 C   0  0  0  0  0  0
  -26.4476  -31.6599   25.0732 C   0  0  0  0  0  0
  -25.3739  -31.3714   26.1480 C   0  0  0  0  0  0
  -27.0301  -30.3035   24.6123 C   0  0  0  0  0  0
  -27.6058  -32.4314   25.7490 C   0  0  0  0  0  0
  -27.5587  -37.1794   24.8457 C   0  0  0  0  0  0
  -21.4153  -29.3038   22.3713 N   0  0  0  0  0  0
  -26.4283  -37.3798   23.9427 N   0  0  0  0  0  0
  -24.6735  -31.0749   22.1007 N   0  0  0  0  0  0
  -23.4192  -28.8189   23.3016 O   0  0  0  0  0  0
  -28.3328  -26.5791   20.1496 O   0  0  0  0  0  0
  -26.5594  -34.8929   22.4690 O   0  0  0  0  0  0
  -23.5360  -32.1423   23.7473 O   0  0  0  0  0  0
  -32.1947  -18.6571   21.3955 C   0  0  0  0  0  0
  -31.2336  -19.6850   21.3905 C   0  0  0  0  0  0
  -31.8051  -17.3099   21.2793 C   0  0  0  0  0  0
  -29.4784  -18.0071   21.1212 C   0  0  0  0  0  0
  -29.8621  -19.3776   21.2604 C   0  0  0  0  0  0
  -30.4408  -16.9543   21.1270 C   0  0  0  0  0  0
  -28.0886  -25.3181   20.6803 C   0  0  0  0  0  0
  -28.8627  -20.4735   21.3705 C   0  0  0  0  0  0
  -28.7736  -24.1714   20.4207 C   0  0  0  0  0  0
  -28.2901  -22.9300   21.0641 C   0  0  0  0  0  0
  -29.9793  -24.1315   19.4955 C   0  0  0  0  0  0
  -30.0165  -15.5747   21.0301 N   0  0  0  0  0  0
  -29.0978  -21.7300   20.8827 N   0  0  0  0  0  0
  -27.7316  -20.1826   22.0237 N   0  3  0  0  0  0
  -27.2518  -22.8651   21.7361 O   0  0  0  0  0  0
  -31.4625  -12.4088   19.1353 H   0  0  0  0  0  0
  -30.3113  -11.3236   19.8568 H   0  0  0  0  0  0
  -29.7406  -11.7628   17.4469 H   0  0  0  0  0  0
  -29.6583  -13.4785   17.7605 H   0  0  0  0  0  0
  -27.8362  -11.3021   18.8400 H   0  0  0  0  0  0
  -27.3650  -12.6108   17.7901 H   0  0  0  0  0  0
  -27.6875  -14.2550   19.5466 H   0  0  0  0  0  0
  -28.6821  -12.0172   21.3775 H   0  0  0  0  0  0
  -28.4606  -13.6761   21.8495 H   0  0  0  0  0  0
  -25.2757   -9.5690   22.4754 H   0  0  0  0  0  0
  -24.0003   -7.4634   22.7470 H   0  0  0  0  0  0
  -21.0836   -8.8767   19.8952 H   0  0  0  0  0  0
  -22.3684  -10.9670   19.6164 H   0  0  0  0  0  0
  -21.2004   -7.6147   23.9715 H   0  0  0  0  0  0
  -21.1481   -6.0522   25.9078 H   0  0  0  0  0  0
  -22.0598   -2.7608   23.2846 H   0  0  0  0  0  0
  -22.4099  -11.9884   22.4786 H   0  0  0  0  0  0
  -21.1109  -13.1260   22.2611 H   0  0  0  0  0  0
  -24.6593  -15.8422   20.5091 H   0  0  0  0  0  0
  -26.2730  -15.6234   20.0583 H   0  0  0  0  0  0
  -26.7131  -32.5523   23.1164 H   0  0  0  0  0  0
  -25.0073  -33.9775   25.0482 H   0  0  0  0  0  0
  -22.6972  -31.3090   21.4117 H   0  0  0  0  0  0
  -23.3756  -35.9628   23.3279 H   0  0  0  0  0  0
  -24.3590  -36.8937   22.2055 H   0  0  0  0  0  0
  -23.7218  -37.6502   23.6655 H   0  0  0  0  0  0
  -26.0573  -31.5929   20.6012 H   0  0  0  0  0  0
  -26.8262  -30.8758   21.9892 H   0  0  0  0  0  0
  -28.1050  -29.0639   21.1848 H   0  0  0  0  0  0
  -26.0416  -25.9716   18.9986 H   0  0  0  0  0  0
  -23.9746  -27.3124   19.0153 H   0  0  0  0  0  0
  -23.7263  -30.6054   19.4062 H   0  0  0  0  0  0
  -22.7410  -29.2493   19.8656 H   0  0  0  0  0  0
  -25.1272  -36.1968   25.0831 H   0  0  0  0  0  0
  -20.9958  -28.3238   24.1429 H   0  0  0  0  0  0
  -20.5659  -26.2284   23.3605 H   0  0  0  0  0  0
  -21.6631  -26.7446   22.1209 H   0  0  0  0  0  0
  -19.6903  -25.6301   21.1237 H   0  0  0  0  0  0
  -19.6686  -27.3200   20.6742 H   0  0  0  0  0  0
  -17.4193  -26.6680   21.4019 H   0  0  0  0  0  0
  -18.0322  -26.0065   22.9014 H   0  0  0  0  0  0
  -19.7925  -30.7248   24.2297 H   0  0  0  0  0  0
  -17.5012  -31.6273   24.5153 H   0  0  0  0  0  0
  -15.5345  -30.2995   23.7647 H   0  0  0  0  0  0
  -15.8661  -28.0822   22.7074 H   0  0  0  0  0  0
  -24.5916  -30.7053   25.7822 H   0  0  0  0  0  0
  -24.8922  -32.2871   26.4921 H   0  0  0  0  0  0
  -25.8091  -30.8896   27.0244 H   0  0  0  0  0  0
  -26.2846  -29.6806   24.1165 H   0  0  0  0  0  0
  -27.4045  -29.7266   25.4591 H   0  0  0  0  0  0
  -27.8698  -30.4342   23.9292 H   0  0  0  0  0  0
  -27.2687  -33.3613   26.2083 H   0  0  0  0  0  0
  -28.3857  -32.6873   25.0305 H   0  0  0  0  0  0
  -28.0737  -31.8426   26.5391 H   0  0  0  0  0  0
  -28.2571  -38.0126   24.7562 H   0  0  0  0  0  0
  -28.1114  -36.2662   24.6198 H   0  0  0  0  0  0
  -27.2323  -37.1344   25.8861 H   0  0  0  0  0  0
  -20.9316  -29.8773   21.6945 H   0  0  0  0  0  0
  -26.0171  -38.2869   24.1462 H   0  0  0  0  0  0
  -33.2415  -18.8997   21.5133 H   0  0  0  0  0  0
  -31.5655  -20.7054   21.5258 H   0  0  0  0  0  0
  -32.5830  -16.5633   21.3281 H   0  0  0  0  0  0
  -28.4306  -17.7594   21.0231 H   0  0  0  0  0  0
  -27.2403  -25.3327   21.3553 H   0  0  0  0  0  0
  -30.1847  -25.1171   19.0770 H   0  0  0  0  0  0
  -29.8045  -23.4500   18.6622 H   0  0  0  0  0  0
  -30.8718  -23.8116   20.0344 H   0  0  0  0  0  0
  -29.0559  -15.3809   21.2669 H   0  0  0  0  0  0
  -29.9416  -21.7664   20.3354 H   0  0  0  0  0  0
  -27.6079  -19.2882   22.4701 H   0  0  0  0  0  0
  -27.0611  -20.9249   22.1819 H   0  0  0  0  0  0
  1 25  1  0  0  0
  1 30  2  0  0  0
  1 82  1  0  0  0
  2  3  1  0  0  0
  2 25  1  0  0  0
  2 86  1  0  0  0
  2 87  1  0  0  0
  3  4  1  0  0  0
  3 88  1  0  0  0
  3 89  1  0  0  0
  4  5  1  0  0  0
  4 90  1  0  0  0
  4 91  1  0  0  0
  5  6  1  0  0  0
  5 26  1  0  0  0
  5 92  1  0  0  0
  6 25  1  0  0  0
  6 93  1  0  0  0
  6 94  1  0  0  0
  7  8  2  0  0  0
  7 26  1  0  0  0
  7 29  1  0  0  0
  8  9  1  0  0  0
  8 22  1  0  0  0
  9 10  1  0  0  0
  9 27  2  0  0  0
 10 11  2  0  0  0
 10 15  1  0  0  0
 11 12  1  0  0  0
 11 95  1  0  0  0
 12 13  2  0  0  0
 12 96  1  0  0  0
 13 14  1  0  0  0
 13 31  1  0  0  0
 14 15  2  0  0  0
 14 97  1  0  0  0
 15 98  1  0  0  0
 16 17  2  0  0  0
 16 21  1  0  0  0
 16 31  1  0  0  0
 17 18  1  0  0  0
 17 99  1  0  0  0
 18 19  2  0  0  0
 18100  1  0  0  0
 19 20  1  0  0  0
 19 24  1  0  0  0
 20 21  2  0  0  0
 20101  1  0  0  0
 21 23  1  0  0  0
 22 28  1  0  0  0
 22 32  2  0  0  0
 26 27  1  0  0  0
 28102  1  0  0  0
 28103  1  0  0  0
 29104  1  0  0  0
 29105  1  0  0  0
 33 34  1  0  0  0
 33 66  1  0  0  0
 33 70  2  0  0  0
 34 36  1  0  0  0
 34 59  1  0  0  0
 34106  1  0  0  0
 35 44  2  0  0  0
 35 45  1  0  0  0
 35 68  1  0  0  0
 36 56  1  0  0  0
 36107  1  0  0  0
 37 39  1  0  0  0
 37 47  1  0  0  0
 37 66  1  0  0  0
 37108  1  0  0  0
 38 43  2  0  0  0
 38 46  1  0  0  0
 38 47  1  0  0  0
 39 64  1  0  0  0
 39 67  2  0  0  0
 40 52  1  0  0  0
 40 53  2  0  0  0
 40 58  1  0  0  0
 41109  1  0  0  0
 41110  1  0  0  0
 41111  1  0  0  0
 41 48  1  0  0  0
 42 43  1  0  0  0
 42 66  1  0  0  0
 42112  1  0  0  0
 42113  1  0  0  0
 43 44  1  0  0  0
 44114  1  0  0  0
 45 46  2  0  0  0
 45115  1  0  0  0
 46116  1  0  0  0
 47117  1  0  0  0
 47118  1  0  0  0
 48 56  1  0  0  0
 48 65  1  0  0  0
 48119  1  0  0  0
 49 50  1  0  0  0
 49 53  1  0  0  0
 49 64  1  0  0  0
 49120  1  0  0  0
 50 51  1  0  0  0
 50121  1  0  0  0
 50122  1  0  0  0
 51 52  1  0  0  0
 51123  1  0  0  0
 51124  1  0  0  0
 52125  1  0  0  0
 52126  1  0  0  0
 53 54  1  0  0  0
 54 55  2  0  0  0
 54127  1  0  0  0
 55 57  1  0  0  0
 55128  1  0  0  0
 56 69  2  0  0  0
 57 58  2  0  0  0
 57129  1  0  0  0
 58130  1  0  0  0
 59 60  1  0  0  0
 59 61  1  0  0  0
 59 62  1  0  0  0
 60131  1  0  0  0
 60132  1  0  0  0
 60133  1  0  0  0
 61134  1  0  0  0
 61135  1  0  0  0
 61136  1  0  0  0
 62137  1  0  0  0
 62138  1  0  0  0
 62139  1  0  0  0
 63 65  1  0  0  0
 63140  1  0  0  0
 63141  1  0  0  0
 63142  1  0  0  0
 64143  1  0  0  0
 65144  1  0  0  0
 68 77  1  0  0  0
 71 72  2  0  0  0
 71 73  1  0  0  0
 71145  1  0  0  0
 72 75  1  0  0  0
 72146  1  0  0  0
 73 76  2  0  0  0
 73147  1  0  0  0
 74 75  2  0  0  0
 74 76  1  0  0  0
 74148  1  0  0  0
 75 78  1  0  0  0
 76 82  1  0  0  0
 77 79  2  0  0  0
 77149  1  0  0  0
 78 83  1  0  0  0
 78 84  2  0  0  0
 79 80  1  0  0  0
 79 81  1  0  0  0
 80 83  1  0  0  0
 80 85  2  0  0  0
 81150  1  0  0  0
 81151  1  0  0  0
 81152  1  0  0  0
 82153  1  0  0  0
 83154  1  0  0  0
 84155  1  0  0  0
 84156  1  0  0  0
M  CHG  1  84   1
M  ISO  4   1 100  68 101  77 101  82 100
M  END
> <chiral flag>
0

> <version>
0

> <s_m_source_file>
/data/baiqing/PycharmProjects/Reinvent-master-3.2/result/LINK_invent/BTK/process_docking_weight1_custom_product_contain_oxygen_bond_distance_aromatic_linkinvent_7_9_3/rearranged_h_0079.sdf

> <i_m_source_file_index>
14

> <r_mmod_Potential_Energy-OPLS-2005>
-320.371704101562

> <r_mmod_Stretch_Energy-OPLS-2005>
49.3827247619629

> <r_mmod_Bend_Energy-OPLS-2005>
108.720626831055

> <r_mmod_Torsional_Energy-OPLS-2005>
220.697357177734

> <r_mmod_Improper_Torsional_Energy-OPLS-2005>
4.65176868438721

> <r_mmod_Van_der_Waal_Energy-OPLS-2005>
177.790512084961

> <r_mmod_Electrostatic_Energy-OPLS-2005>
-465.937194824219

> <r_mmod_Solvation_Energy-OPLS-2005>
-437.132843017578

> <b_mmod_Minimization_Converged-OPLS-2005>
0

> <r_mmod_RMS_Derivative-OPLS-2005>
0.407511293888092

$$$$
14
                    3D
 Structure written by MMmdl.
148156  0  0  1  0            999 V2000
  -30.6140  -14.6772   20.4855 C   0  0  0  0  0  0
  -30.4401  -12.4130   19.4594 C   0  0  0  0  0  0
  -29.5100  -12.5069   18.2288 C   0  0  0  0  0  0
  -28.0339  -12.3392   18.6413 C   0  0  0  0  0  0
  -27.6514  -13.2194   19.8607 C   0  0  2  0  0  0
  -28.6971  -13.0968   20.9922 C   0  0  0  0  0  0
  -25.2556  -13.8174   20.5688 C   0  0  0  0  0  0
  -24.1828  -13.0437   20.9200 C   0  0  0  0  0  0
  -24.6398  -11.6909   20.8745 C   0  0  0  0  0  0
  -23.9067  -10.4292   21.0407 C   0  0  0  0  0  0
  -24.3618   -9.4207   21.9185 C   0  0  0  0  0  0
  -23.6293   -8.2242   22.0753 C   0  0  0  0  0  0
  -22.4275   -8.0281   21.3543 C   0  0  0  0  0  0
  -21.9911   -9.0255   20.4646 C   0  0  0  0  0  0
  -22.7238  -10.2135   20.3056 C   0  0  0  0  0  0
  -21.6853   -6.0736   22.5279 C   0  0  0  0  0  0
  -21.4015   -6.5640   23.8212 C   0  0  0  0  0  0
  -21.3659   -5.6793   24.9174 C   0  0  0  0  0  0
  -21.6044   -4.3056   24.7225 C   0  0  0  0  0  0
  -21.8820   -3.8147   23.4346 C   0  0  0  0  0  0
  -21.9193   -4.6964   22.3402 C   0  0  0  0  0  0
  -22.7850  -13.5229   21.1860 C   0  0  0  0  0  0
  -22.1661   -4.2149   21.0980 F   0  0  0  0  0  0
  -21.5628   -3.4540   25.7738 F   0  0  0  0  0  0
  -30.0087  -13.4457   20.4247 N   0  0  0  0  0  0
  -26.2983  -12.9358   20.3311 N   0  0  0  0  0  0
  -25.9328  -11.6511   20.5760 N   0  0  0  0  0  0
  -22.0492  -12.8221   22.0415 N   0  0  0  0  0  0
  -25.4263  -15.1895   20.4087 N   0  0  0  0  0  0
  -31.7846  -14.8211   20.1205 O   0  0  0  0  0  0
  -21.6639   -6.8878   21.4240 O   0  0  0  0  0  0
  -22.3536  -14.5536   20.6706 O   0  0  0  0  0  0
  -24.6291  -31.8584   23.2017 C   0  0  0  0  0  0
  -25.9128  -32.4771   23.8351 C   0  0  1  0  0  0
  -27.2249  -27.2959   20.1005 C   0  0  0  0  0  0
  -25.5934  -33.8572   24.2275 N   0  0  0  0  0  0
  -23.4231  -30.4843   21.5454 C   0  0  2  0  0  0
  -24.8681  -28.9429   20.1063 C   0  0  0  0  0  0
  -22.7492  -29.4619   22.4922 C   0  0  0  0  0  0
  -18.0290  -28.1388   22.8482 C   0  0  0  0  0  0
  -24.1490  -36.7290   23.2640 C   0  0  0  0  0  0
  -25.9684  -30.7820   21.3767 C   0  0  0  0  0  0
  -26.0407  -29.4105   20.7111 C   0  0  0  0  0  0
  -27.2178  -28.5988   20.7007 C   0  0  0  0  0  0
  -26.0145  -26.8879   19.4864 C   0  0  0  0  0  0
  -24.8585  -27.6874   19.4861 C   0  0  0  0  0  0
  -23.6378  -29.8251   20.1590 C   0  0  0  0  0  0
  -25.4115  -36.3078   24.0329 C   0  0  1  0  0  0
  -20.5894  -28.3694   23.1275 C   0  0  2  0  0  0
  -20.6779  -26.9415   22.5406 C   0  0  0  0  0  0
  -19.5753  -26.6384   21.5210 C   0  0  0  0  0  0
  -18.1933  -26.7928   22.1625 C   0  0  0  0  0  0
  -19.1544  -28.8857   23.2873 C   0  0  0  0  0  0
  -18.9466  -30.1458   23.8890 C   0  0  0  0  0  0
  -17.6466  -30.6587   24.0562 C   0  0  0  0  0  0
  -25.9054  -34.9448   23.5101 C   0  0  0  0  0  0
  -16.5356  -29.9085   23.6333 C   0  0  0  0  0  0
  -16.7277  -28.6505   23.0349 C   0  0  0  0  0  0
  -26.4500  -31.6585   25.0730 C   0  0  0  0  0  0
  -25.3727  -31.3731   26.1454 C   0  0  0  0  0  0
  -27.0346  -30.3005   24.6202 C   0  0  0  0  0  0
  -27.6056  -32.4325   25.7502 C   0  0  0  0  0  0
  -27.5576  -37.1805   24.8468 C   0  0  0  0  0  0
  -21.4201  -29.3046   22.3668 N   0  0  0  0  0  0
  -26.4293  -37.3772   23.9404 N   0  0  0  0  0  0
  -24.6927  -31.0579   22.0978 N   0  0  0  0  0  0
  -23.4210  -28.8150   23.2998 O   0  0  0  0  0  0
  -28.3291  -26.4201   20.2113 O   0  0  0  0  0  0
  -26.5622  -34.8916   22.4668 O   0  0  0  0  0  0
  -23.5449  -32.1392   23.7332 O   0  0  0  0  0  0
  -28.8674  -19.4760   20.9512 C   0  0  0  0  0  0
  -31.1214  -19.3241   20.1564 C   0  0  0  0  0  0
  -28.8200  -18.0437   21.0190 C   0  0  0  0  0  0
  -31.0760  -17.8966   20.2206 C   0  0  0  0  0  0
  -30.0316  -20.1709   20.5256 C   0  0  0  0  0  0
  -29.9220  -17.2042   20.6722 C   0  0  0  0  0  0
  -30.2288  -21.7131   20.6059 C   0  0  0  0  0  0
  -29.1859  -23.9637   20.5704 C   0  0  0  0  0  0
  -28.3837  -25.0626   19.6804 C   0  0  0  0  0  0
  -29.1897  -22.5847   20.3184 N   0  5  0  0  0  0
  -29.7969  -15.7403   20.8008 N   0  0  0  0  0  0
  -31.3846  -22.0618   20.8674 O   0  0  0  0  0  0
  -29.7846  -24.4636   21.5343 O   0  0  0  0  0  0
  -27.8747  -24.7229   18.6055 O   0  0  0  0  0  0
  -31.4804  -12.5414   19.1557 H   0  0  0  0  0  0
  -30.3818  -11.4227   19.9133 H   0  0  0  0  0  0
  -29.7800  -11.7480   17.4932 H   0  0  0  0  0  0
  -29.6461  -13.4715   17.7372 H   0  0  0  0  0  0
  -27.8782  -11.2873   18.8835 H   0  0  0  0  0  0
  -27.3778  -12.5564   17.7975 H   0  0  0  0  0  0
  -27.6625  -14.2505   19.5068 H   0  0  0  0  0  0
  -28.7170  -12.0808   21.3893 H   0  0  0  0  0  0
  -28.4388  -13.7410   21.8342 H   0  0  0  0  0  0
  -25.2763   -9.5684   22.4759 H   0  0  0  0  0  0
  -24.0003   -7.4634   22.7473 H   0  0  0  0  0  0
  -21.0842   -8.8775   19.8952 H   0  0  0  0  0  0
  -22.3698  -10.9675   19.6167 H   0  0  0  0  0  0
  -21.2007   -7.6148   23.9716 H   0  0  0  0  0  0
  -21.1480   -6.0523   25.9077 H   0  0  0  0  0  0
  -22.0599   -2.7609   23.2846 H   0  0  0  0  0  0
  -22.4110  -11.9885   22.4806 H   0  0  0  0  0  0
  -21.1111  -13.1247   22.2621 H   0  0  0  0  0  0
  -24.6548  -15.8404   20.5084 H   0  0  0  0  0  0
  -26.2642  -15.6251   20.0453 H   0  0  0  0  0  0
  -26.7195  -32.5428   23.1095 H   0  0  0  0  0  0
  -25.0078  -33.9717   25.0417 H   0  0  0  0  0  0
  -22.7177  -31.3059   21.4044 H   0  0  0  0  0  0
  -23.3746  -35.9630   23.3318 H   0  0  0  0  0  0
  -24.3575  -36.8895   22.2051 H   0  0  0  0  0  0
  -23.7254  -37.6501   23.6654 H   0  0  0  0  0  0
  -26.1061  -31.5482   20.6124 H   0  0  0  0  0  0
  -26.8465  -30.8257   22.0094 H   0  0  0  0  0  0
  -28.1129  -28.9504   21.1942 H   0  0  0  0  0  0
  -25.9027  -25.9202   19.0263 H   0  0  0  0  0  0
  -23.9563  -27.3171   19.0190 H   0  0  0  0  0  0
  -23.7588  -30.6050   19.4063 H   0  0  0  0  0  0
  -22.7563  -29.2585   19.8536 H   0  0  0  0  0  0
  -25.1298  -36.1930   25.0823 H   0  0  0  0  0  0
  -20.9986  -28.3269   24.1395 H   0  0  0  0  0  0
  -20.5681  -26.2304   23.3608 H   0  0  0  0  0  0
  -21.6647  -26.7441   22.1198 H   0  0  0  0  0  0
  -19.6915  -25.6295   21.1241 H   0  0  0  0  0  0
  -19.6688  -27.3192   20.6739 H   0  0  0  0  0  0
  -17.4201  -26.6672   21.4030 H   0  0  0  0  0  0
  -18.0336  -26.0073   22.9025 H   0  0  0  0  0  0
  -19.7943  -30.7276   24.2255 H   0  0  0  0  0  0
  -17.5021  -31.6267   24.5165 H   0  0  0  0  0  0
  -15.5357  -30.2986   23.7662 H   0  0  0  0  0  0
  -15.8677  -28.0825   22.7064 H   0  0  0  0  0  0
  -24.5904  -30.7077   25.7782 H   0  0  0  0  0  0
  -24.8917  -32.2899   26.4871 H   0  0  0  0  0  0
  -25.8047  -30.8913   27.0235 H   0  0  0  0  0  0
  -26.2928  -29.6753   24.1219 H   0  0  0  0  0  0
  -27.4026  -29.7265   25.4717 H   0  0  0  0  0  0
  -27.8806  -30.4282   23.9445 H   0  0  0  0  0  0
  -27.2663  -33.3629   26.2067 H   0  0  0  0  0  0
  -28.3871  -32.6880   25.0334 H   0  0  0  0  0  0
  -28.0717  -31.8458   26.5428 H   0  0  0  0  0  0
  -28.2607  -38.0088   24.7491 H   0  0  0  0  0  0
  -28.1059  -36.2618   24.6327 H   0  0  0  0  0  0
  -27.2292  -37.1494   25.8872 H   0  0  0  0  0  0
  -20.9380  -29.8780   21.6888 H   0  0  0  0  0  0
  -26.0174  -38.2851   24.1390 H   0  0  0  0  0  0
  -28.0076  -20.0493   21.2690 H   0  0  0  0  0  0
  -32.0464  -19.7863   19.8408 H   0  0  0  0  0  0
  -27.9051  -17.5875   21.3709 H   0  0  0  0  0  0
  -31.9601  -17.3457   19.9335 H   0  0  0  0  0  0
  -28.8861  -15.4321   21.1043 H   0  0  0  0  0  0
  1 25  1  0  0  0
  1 30  2  0  0  0
  1 81  1  0  0  0
  2  3  1  0  0  0
  2 25  1  0  0  0
  2 85  1  0  0  0
  2 86  1  0  0  0
  3  4  1  0  0  0
  3 87  1  0  0  0
  3 88  1  0  0  0
  4  5  1  0  0  0
  4 89  1  0  0  0
  4 90  1  0  0  0
  5  6  1  0  0  0
  5 26  1  0  0  0
  5 91  1  0  0  0
  6 25  1  0  0  0
  6 92  1  0  0  0
  6 93  1  0  0  0
  7  8  2  0  0  0
  7 26  1  0  0  0
  7 29  1  0  0  0
  8  9  1  0  0  0
  8 22  1  0  0  0
  9 10  1  0  0  0
  9 27  2  0  0  0
 10 11  2  0  0  0
 10 15  1  0  0  0
 11 12  1  0  0  0
 11 94  1  0  0  0
 12 13  2  0  0  0
 12 95  1  0  0  0
 13 14  1  0  0  0
 13 31  1  0  0  0
 14 15  2  0  0  0
 14 96  1  0  0  0
 15 97  1  0  0  0
 16 17  2  0  0  0
 16 21  1  0  0  0
 16 31  1  0  0  0
 17 18  1  0  0  0
 17 98  1  0  0  0
 18 19  2  0  0  0
 18 99  1  0  0  0
 19 20  1  0  0  0
 19 24  1  0  0  0
 20 21  2  0  0  0
 20100  1  0  0  0
 21 23  1  0  0  0
 22 28  1  0  0  0
 22 32  2  0  0  0
 26 27  1  0  0  0
 28101  1  0  0  0
 28102  1  0  0  0
 29103  1  0  0  0
 29104  1  0  0  0
 33 34  1  0  0  0
 33 66  1  0  0  0
 33 70  2  0  0  0
 34 36  1  0  0  0
 34 59  1  0  0  0
 34105  1  0  0  0
 35 44  2  0  0  0
 35 45  1  0  0  0
 35 68  1  0  0  0
 36 56  1  0  0  0
 36106  1  0  0  0
 37 39  1  0  0  0
 37 47  1  0  0  0
 37 66  1  0  0  0
 37107  1  0  0  0
 38 43  2  0  0  0
 38 46  1  0  0  0
 38 47  1  0  0  0
 39 64  1  0  0  0
 39 67  2  0  0  0
 40 52  1  0  0  0
 40 53  2  0  0  0
 40 58  1  0  0  0
 41108  1  0  0  0
 41109  1  0  0  0
 41110  1  0  0  0
 41 48  1  0  0  0
 42 43  1  0  0  0
 42 66  1  0  0  0
 42111  1  0  0  0
 42112  1  0  0  0
 43 44  1  0  0  0
 44113  1  0  0  0
 45 46  2  0  0  0
 45114  1  0  0  0
 46115  1  0  0  0
 47116  1  0  0  0
 47117  1  0  0  0
 48 56  1  0  0  0
 48 65  1  0  0  0
 48118  1  0  0  0
 49 50  1  0  0  0
 49 53  1  0  0  0
 49 64  1  0  0  0
 49119  1  0  0  0
 50 51  1  0  0  0
 50120  1  0  0  0
 50121  1  0  0  0
 51 52  1  0  0  0
 51122  1  0  0  0
 51123  1  0  0  0
 52124  1  0  0  0
 52125  1  0  0  0
 53 54  1  0  0  0
 54 55  2  0  0  0
 54126  1  0  0  0
 55 57  1  0  0  0
 55127  1  0  0  0
 56 69  2  0  0  0
 57 58  2  0  0  0
 57128  1  0  0  0
 58129  1  0  0  0
 59 60  1  0  0  0
 59 61  1  0  0  0
 59 62  1  0  0  0
 60130  1  0  0  0
 60131  1  0  0  0
 60132  1  0  0  0
 61133  1  0  0  0
 61134  1  0  0  0
 61135  1  0  0  0
 62136  1  0  0  0
 62137  1  0  0  0
 62138  1  0  0  0
 63 65  1  0  0  0
 63139  1  0  0  0
 63140  1  0  0  0
 63141  1  0  0  0
 64142  1  0  0  0
 65143  1  0  0  0
 68 79  1  0  0  0
 71 73  2  0  0  0
 71 75  1  0  0  0
 71144  1  0  0  0
 72 74  1  0  0  0
 72 75  2  0  0  0
 72145  1  0  0  0
 73 76  1  0  0  0
 73146  1  0  0  0
 74 76  2  0  0  0
 74147  1  0  0  0
 75 77  1  0  0  0
 76 81  1  0  0  0
 77 80  1  0  0  0
 77 82  2  0  0  0
 78 79  1  0  0  0
 78 80  1  0  0  0
 78 83  2  0  0  0
 79 84  2  0  0  0
 81148  1  0  0  0
M  CHG  1  80  -1
M  ISO  4   1 100  68 101  79 101  81 100
M  END
> <chiral flag>
0

> <version>
0

> <s_m_source_file>
/data/baiqing/PycharmProjects/Reinvent-master-3.2/result/LINK_invent/BTK/process_docking_weight1_custom_product_contain_oxygen_bond_distance_aromatic_linkinvent_7_9_3/rearranged_h_0079.sdf

> <i_m_source_file_index>
15

> <r_mmod_Potential_Energy-OPLS-2005>
-9.06050872802734

> <r_mmod_Stretch_Energy-OPLS-2005>
105.302368164062

> <r_mmod_Bend_Energy-OPLS-2005>
158.746185302734

> <r_mmod_Torsional_Energy-OPLS-2005>
241.00700378418

> <r_mmod_Improper_Torsional_Energy-OPLS-2005>
5.69881248474121

> <r_mmod_Van_der_Waal_Energy-OPLS-2005>
153.025390625

> <r_mmod_Electrostatic_Energy-OPLS-2005>
-220.018432617188

> <r_mmod_Solvation_Energy-OPLS-2005>
-515.527099609375

> <b_mmod_Minimization_Converged-OPLS-2005>
0

> <r_mmod_RMS_Derivative-OPLS-2005>
0.235645517706871

$$$$
15
                    3D
 Structure written by MMmdl.
156165  0  0  1  0            999 V2000
  -30.6200  -14.7758   20.5454 C   0  0  0  0  0  0
  -30.4385  -12.4950   19.4805 C   0  0  0  0  0  0
  -29.5159  -12.5334   18.2411 C   0  0  0  0  0  0
  -28.0436  -12.3382   18.6472 C   0  0  0  0  0  0
  -27.6431  -13.2321   19.8485 C   0  0  2  0  0  0
  -28.6783  -13.1505   20.9863 C   0  0  0  0  0  0
  -25.2517  -13.8194   20.5677 C   0  0  0  0  0  0
  -24.1803  -13.0436   20.9182 C   0  0  0  0  0  0
  -24.6395  -11.6915   20.8723 C   0  0  0  0  0  0
  -23.9073  -10.4292   21.0393 C   0  0  0  0  0  0
  -24.3623   -9.4210   21.9174 C   0  0  0  0  0  0
  -23.6296   -8.2248   22.0751 C   0  0  0  0  0  0
  -22.4278   -8.0286   21.3542 C   0  0  0  0  0  0
  -21.9909   -9.0256   20.4644 C   0  0  0  0  0  0
  -22.7240  -10.2132   20.3049 C   0  0  0  0  0  0
  -21.6857   -6.0740   22.5282 C   0  0  0  0  0  0
  -21.4018   -6.5642   23.8217 C   0  0  0  0  0  0
  -21.3657   -5.6792   24.9177 C   0  0  0  0  0  0
  -21.6042   -4.3056   24.7226 C   0  0  0  0  0  0
  -21.8819   -3.8148   23.4348 C   0  0  0  0  0  0
  -21.9194   -4.6966   22.3404 C   0  0  0  0  0  0
  -22.7828  -13.5222   21.1857 C   0  0  0  0  0  0
  -22.1663   -4.2151   21.0981 F   0  0  0  0  0  0
  -21.5622   -3.4538   25.7737 F   0  0  0  0  0  0
  -29.9882  -13.5428   20.4360 N   0  0  0  0  0  0
  -26.2936  -12.9399   20.3228 N   0  0  0  0  0  0
  -25.9323  -11.6540   20.5704 N   0  0  0  0  0  0
  -22.0479  -12.8214   22.0419 N   0  0  0  0  0  0
  -25.4233  -15.1921   20.4148 N   0  0  0  0  0  0
  -31.7275  -14.9232   20.0168 O   0  0  0  0  0  0
  -21.6643   -6.8882   21.4243 O   0  0  0  0  0  0
  -22.3506  -14.5524   20.6706 O   0  0  0  0  0  0
  -24.6349  -31.8510   23.1945 C   0  0  0  0  0  0
  -25.9160  -32.4731   23.8308 C   0  0  1  0  0  0
  -27.2283  -27.2330   20.1204 C   0  0  0  0  0  0
  -25.5935  -33.8533   24.2228 N   0  0  0  0  0  0
  -23.4339  -30.4724   21.5380 C   0  0  2  0  0  0
  -24.8827  -28.9149   20.1059 C   0  0  0  0  0  0
  -22.7523  -29.4579   22.4887 C   0  0  0  0  0  0
  -18.0297  -28.1392   22.8480 C   0  0  0  0  0  0
  -24.1489  -36.7277   23.2640 C   0  0  0  0  0  0
  -25.9827  -30.7544   21.3785 C   0  0  0  0  0  0
  -26.0559  -29.3756   20.7162 C   0  0  0  0  0  0
  -27.2279  -28.5466   20.7137 C   0  0  0  0  0  0
  -26.0216  -26.8398   19.4987 C   0  0  0  0  0  0
  -24.8719  -27.6557   19.4865 C   0  0  0  0  0  0
  -23.6546  -29.8053   20.1545 C   0  0  0  0  0  0
  -25.4118  -36.3055   24.0321 C   0  0  1  0  0  0
  -20.5905  -28.3706   23.1255 C   0  0  2  0  0  0
  -20.6784  -26.9419   22.5406 C   0  0  0  0  0  0
  -19.5759  -26.6381   21.5212 C   0  0  0  0  0  0
  -18.1940  -26.7931   22.1624 C   0  0  0  0  0  0
  -19.1554  -28.8867   23.2860 C   0  0  0  0  0  0
  -18.9471  -30.1468   23.8884 C   0  0  0  0  0  0
  -17.6468  -30.6590   24.0560 C   0  0  0  0  0  0
  -25.9062  -34.9426   23.5081 C   0  0  0  0  0  0
  -16.5358  -29.9086   23.6331 C   0  0  0  0  0  0
  -16.7283  -28.6505   23.0350 C   0  0  0  0  0  0
  -26.4509  -31.6575   25.0718 C   0  0  0  0  0  0
  -25.3721  -31.3743   26.1434 C   0  0  0  0  0  0
  -27.0366  -30.2983   24.6242 C   0  0  0  0  0  0
  -27.6047  -32.4332   25.7498 C   0  0  0  0  0  0
  -27.5577  -37.1794   24.8464 C   0  0  0  0  0  0
  -21.4226  -29.3043   22.3637 N   0  0  0  0  0  0
  -26.4289  -37.3759   23.9407 N   0  0  0  0  0  0
  -24.7031  -31.0447   22.0930 N   0  0  0  0  0  0
  -23.4206  -28.8128   23.3007 O   0  0  0  0  0  0
  -28.3032  -26.3037   20.2323 O   0  0  0  0  0  0
  -26.5644  -34.8910   22.4656 O   0  0  0  0  0  0
  -23.5490  -32.1343   23.7220 O   0  0  0  0  0  0
  -29.3559  -19.6680   21.7310 C   0  0  0  0  0  0
  -29.5386  -19.3131   19.4308 C   0  0  0  0  0  0
  -29.5911  -18.2704   21.9631 C   0  0  0  0  0  0
  -29.7863  -17.8976   19.6461 C   0  0  0  0  0  0
  -29.3067  -20.3006   20.4551 C   0  0  0  0  0  0
  -29.8279  -17.2911   20.9406 C   0  0  0  0  0  0
  -28.6675  -23.7763   19.8061 C   0  0  0  0  0  0
  -28.8114  -22.9763   21.0307 C   0  0  0  0  0  0
  -28.4325  -25.1134   19.4404 C   0  0  0  0  0  0
  -28.9040  -22.4710   18.9865 C   0  0  0  0  0  0
  -28.4453  -25.4651   17.9601 C   0  0  0  0  0  0
  -30.0213  -15.5201   22.7206 C   0  0  0  0  0  0
  -29.0482  -21.7743   20.2821 N   0  0  0  0  0  0
  -30.0327  -15.8211   21.2768 N   0  0  0  0  0  0
  -28.7350  -23.2847   22.2020 O   0  0  0  0  0  0
  -31.4767  -12.6328   19.1738 H   0  0  0  0  0  0
  -30.4066  -11.5125   19.9548 H   0  0  0  0  0  0
  -29.8114  -11.7645   17.5260 H   0  0  0  0  0  0
  -29.6314  -13.4895   17.7285 H   0  0  0  0  0  0
  -27.9092  -11.2878   18.9084 H   0  0  0  0  0  0
  -27.3870  -12.5272   17.7970 H   0  0  0  0  0  0
  -27.6431  -14.2581   19.4794 H   0  0  0  0  0  0
  -28.7244  -12.1416   21.3991 H   0  0  0  0  0  0
  -28.3541  -13.7908   21.8033 H   0  0  0  0  0  0
  -25.2769   -9.5686   22.4742 H   0  0  0  0  0  0
  -24.0005   -7.4642   22.7470 H   0  0  0  0  0  0
  -21.0843   -8.8774   19.8954 H   0  0  0  0  0  0
  -22.3698  -10.9669   19.6155 H   0  0  0  0  0  0
  -21.2020   -7.6151   23.9723 H   0  0  0  0  0  0
  -21.1473   -6.0521   25.9079 H   0  0  0  0  0  0
  -22.0601   -2.7610   23.2849 H   0  0  0  0  0  0
  -22.4104  -11.9885   22.4818 H   0  0  0  0  0  0
  -21.1097  -13.1238   22.2623 H   0  0  0  0  0  0
  -24.6644  -15.8524   20.5429 H   0  0  0  0  0  0
  -26.2894  -15.6328   20.1299 H   0  0  0  0  0  0
  -26.7225  -32.5366   23.1046 H   0  0  0  0  0  0
  -25.0066  -33.9660   25.0362 H   0  0  0  0  0  0
  -22.7320  -31.2957   21.3897 H   0  0  0  0  0  0
  -23.3748  -35.9612   23.3299 H   0  0  0  0  0  0
  -24.3576  -36.8908   22.2057 H   0  0  0  0  0  0
  -23.7249  -37.6477   23.6675 H   0  0  0  0  0  0
  -26.1281  -31.5155   20.6108 H   0  0  0  0  0  0
  -26.8565  -30.8005   22.0168 H   0  0  0  0  0  0
  -28.1224  -28.8895   21.2147 H   0  0  0  0  0  0
  -25.9359  -25.8607   19.0516 H   0  0  0  0  0  0
  -23.9696  -27.2906   19.0154 H   0  0  0  0  0  0
  -23.7821  -30.5817   19.3992 H   0  0  0  0  0  0
  -22.7715  -29.2419   19.8482 H   0  0  0  0  0  0
  -25.1303  -36.1893   25.0815 H   0  0  0  0  0  0
  -21.0000  -28.3294   24.1374 H   0  0  0  0  0  0
  -20.5681  -26.2320   23.3618 H   0  0  0  0  0  0
  -21.6651  -26.7433   22.1203 H   0  0  0  0  0  0
  -19.6918  -25.6290   21.1250 H   0  0  0  0  0  0
  -19.6697  -27.3185   20.6738 H   0  0  0  0  0  0
  -17.4208  -26.6675   21.4029 H   0  0  0  0  0  0
  -18.0340  -26.0077   22.9027 H   0  0  0  0  0  0
  -19.7947  -30.7285   24.2246 H   0  0  0  0  0  0
  -17.5023  -31.6267   24.5168 H   0  0  0  0  0  0
  -15.5361  -30.2982   23.7663 H   0  0  0  0  0  0
  -15.8686  -28.0820   22.7070 H   0  0  0  0  0  0
  -24.5891  -30.7099   25.7764 H   0  0  0  0  0  0
  -24.8922  -32.2922   26.4840 H   0  0  0  0  0  0
  -25.8027  -30.8930   27.0224 H   0  0  0  0  0  0
  -26.2965  -29.6718   24.1250 H   0  0  0  0  0  0
  -27.4010  -29.7264   25.4786 H   0  0  0  0  0  0
  -27.8857  -30.4243   23.9522 H   0  0  0  0  0  0
  -27.2638  -33.3635   26.2055 H   0  0  0  0  0  0
  -28.3868  -32.6892   25.0338 H   0  0  0  0  0  0
  -28.0707  -31.8477   26.5435 H   0  0  0  0  0  0
  -28.2591  -38.0094   24.7505 H   0  0  0  0  0  0
  -28.1078  -36.2623   24.6295 H   0  0  0  0  0  0
  -27.2295  -37.1448   25.8867 H   0  0  0  0  0  0
  -20.9422  -29.8764   21.6832 H   0  0  0  0  0  0
  -26.0161  -38.2830   24.1406 H   0  0  0  0  0  0
  -29.1967  -20.2875   22.6026 H   0  0  0  0  0  0
  -29.5265  -19.6512   18.4045 H   0  0  0  0  0  0
  -29.5774  -17.9782   23.0014 H   0  0  0  0  0  0
  -29.9359  -17.2727   18.7769 H   0  0  0  0  0  0
  -29.8184  -22.4137   18.3933 H   0  0  0  0  0  0
  -28.0601  -22.0841   18.4132 H   0  0  0  0  0  0
  -29.3121  -25.0181   17.4729 H   0  0  0  0  0  0
  -28.5020  -26.5420   17.7981 H   0  0  0  0  0  0
  -27.5501  -25.0880   17.4657 H   0  0  0  0  0  0
  -30.7864  -16.1031   23.2354 H   0  0  0  0  0  0
  -30.2277  -14.4775   22.9731 H   0  0  0  0  0  0
  -29.0493  -15.7591   23.1535 H   0  0  0  0  0  0
  1 25  1  0  0  0
  1 30  2  0  0  0
  1 84  1  0  0  0
  2  3  1  0  0  0
  2 25  1  0  0  0
  2 86  1  0  0  0
  2 87  1  0  0  0
  3  4  1  0  0  0
  3 88  1  0  0  0
  3 89  1  0  0  0
  4  5  1  0  0  0
  4 90  1  0  0  0
  4 91  1  0  0  0
  5  6  1  0  0  0
  5 26  1  0  0  0
  5 92  1  0  0  0
  6 25  1  0  0  0
  6 93  1  0  0  0
  6 94  1  0  0  0
  7  8  2  0  0  0
  7 26  1  0  0  0
  7 29  1  0  0  0
  8  9  1  0  0  0
  8 22  1  0  0  0
  9 10  1  0  0  0
  9 27  2  0  0  0
 10 11  2  0  0  0
 10 15  1  0  0  0
 11 12  1  0  0  0
 11 95  1  0  0  0
 12 13  2  0  0  0
 12 96  1  0  0  0
 13 14  1  0  0  0
 13 31  1  0  0  0
 14 15  2  0  0  0
 14 97  1  0  0  0
 15 98  1  0  0  0
 16 17  2  0  0  0
 16 21  1  0  0  0
 16 31  1  0  0  0
 17 18  1  0  0  0
 17 99  1  0  0  0
 18 19  2  0  0  0
 18100  1  0  0  0
 19 20  1  0  0  0
 19 24  1  0  0  0
 20 21  2  0  0  0
 20101  1  0  0  0
 21 23  1  0  0  0
 22 28  1  0  0  0
 22 32  2  0  0  0
 26 27  1  0  0  0
 28102  1  0  0  0
 28103  1  0  0  0
 29104  1  0  0  0
 29105  1  0  0  0
 33 34  1  0  0  0
 33 66  1  0  0  0
 33 70  2  0  0  0
 34 36  1  0  0  0
 34 59  1  0  0  0
 34106  1  0  0  0
 35 44  2  0  0  0
 35 45  1  0  0  0
 35 68  1  0  0  0
 36 56  1  0  0  0
 36107  1  0  0  0
 37 39  1  0  0  0
 37 47  1  0  0  0
 37 66  1  0  0  0
 37108  1  0  0  0
 38 43  2  0  0  0
 38 46  1  0  0  0
 38 47  1  0  0  0
 39 64  1  0  0  0
 39 67  2  0  0  0
 40 52  1  0  0  0
 40 53  2  0  0  0
 40 58  1  0  0  0
 41109  1  0  0  0
 41110  1  0  0  0
 41111  1  0  0  0
 41 48  1  0  0  0
 42 43  1  0  0  0
 42 66  1  0  0  0
 42112  1  0  0  0
 42113  1  0  0  0
 43 44  1  0  0  0
 44114  1  0  0  0
 45 46  2  0  0  0
 45115  1  0  0  0
 46116  1  0  0  0
 47117  1  0  0  0
 47118  1  0  0  0
 48 56  1  0  0  0
 48 65  1  0  0  0
 48119  1  0  0  0
 49 50  1  0  0  0
 49 53  1  0  0  0
 49 64  1  0  0  0
 49120  1  0  0  0
 50 51  1  0  0  0
 50121  1  0  0  0
 50122  1  0  0  0
 51 52  1  0  0  0
 51123  1  0  0  0
 51124  1  0  0  0
 52125  1  0  0  0
 52126  1  0  0  0
 53 54  1  0  0  0
 54 55  2  0  0  0
 54127  1  0  0  0
 55 57  1  0  0  0
 55128  1  0  0  0
 56 69  2  0  0  0
 57 58  2  0  0  0
 57129  1  0  0  0
 58130  1  0  0  0
 59 60  1  0  0  0
 59 61  1  0  0  0
 59 62  1  0  0  0
 60131  1  0  0  0
 60132  1  0  0  0
 60133  1  0  0  0
 61134  1  0  0  0
 61135  1  0  0  0
 61136  1  0  0  0
 62137  1  0  0  0
 62138  1  0  0  0
 62139  1  0  0  0
 63 65  1  0  0  0
 63140  1  0  0  0
 63141  1  0  0  0
 63142  1  0  0  0
 64143  1  0  0  0
 65144  1  0  0  0
 68 79  1  0  0  0
 71 73  2  0  0  0
 71 75  1  0  0  0
 71145  1  0  0  0
 72 74  1  0  0  0
 72 75  2  0  0  0
 72146  1  0  0  0
 73 76  1  0  0  0
 73147  1  0  0  0
 74 76  2  0  0  0
 74148  1  0  0  0
 75 83  1  0  0  0
 76 84  1  0  0  0
 77 78  1  0  0  0
 77 79  2  0  0  0
 77 80  1  0  0  0
 78 83  1  0  0  0
 78 85  2  0  0  0
 79 81  1  0  0  0
 80 83  1  0  0  0
 80149  1  0  0  0
 80150  1  0  0  0
 81151  1  0  0  0
 81152  1  0  0  0
 81153  1  0  0  0
 82 84  1  0  0  0
 82154  1  0  0  0
 82155  1  0  0  0
 82156  1  0  0  0
M  ISO  4   1 100  68 101  79 101  84 100
M  END
> <chiral flag>
0

> <version>
0

> <s_m_source_file>
/data/baiqing/PycharmProjects/Reinvent-master-3.2/result/LINK_invent/BTK/process_docking_weight1_custom_product_contain_oxygen_bond_distance_aromatic_linkinvent_7_9_3/rearranged_h_0079.sdf

> <i_m_source_file_index>
16

> <r_mmod_Potential_Energy-OPLS-2005>
464.157012939453

> <r_mmod_Stretch_Energy-OPLS-2005>
143.582107543945

> <r_mmod_Bend_Energy-OPLS-2005>
276.478149414062

> <r_mmod_Torsional_Energy-OPLS-2005>
279.938446044922

> <r_mmod_Improper_Torsional_Energy-OPLS-2005>
3.37075281143188

> <r_mmod_Van_der_Waal_Energy-OPLS-2005>
146.090240478516

> <r_mmod_Electrostatic_Energy-OPLS-2005>
-281.204742431641

> <r_mmod_Solvation_Energy-OPLS-2005>
-206.74739074707

> <b_mmod_Minimization_Converged-OPLS-2005>
0

> <r_mmod_RMS_Derivative-OPLS-2005>
0.684920907020569

$$$$
16
                    3D
 Structure written by MMmdl.
151160  0  0  1  0            999 V2000
  -30.6035  -14.7189   20.5675 C   0  0  0  0  0  0
  -30.4519  -12.4657   19.4654 C   0  0  0  0  0  0
  -29.5183  -12.5482   18.2330 C   0  0  0  0  0  0
  -28.0388  -12.3622   18.6301 C   0  0  0  0  0  0
  -27.6541  -13.2153   19.8657 C   0  0  2  0  0  0
  -28.6928  -13.0266   20.9867 C   0  0  0  0  0  0
  -25.2560  -13.8154   20.5664 C   0  0  0  0  0  0
  -24.1824  -13.0425   20.9163 C   0  0  0  0  0  0
  -24.6392  -11.6895   20.8710 C   0  0  0  0  0  0
  -23.9060  -10.4285   21.0393 C   0  0  0  0  0  0
  -24.3612   -9.4206   21.9177 C   0  0  0  0  0  0
  -23.6288   -8.2243   22.0753 C   0  0  0  0  0  0
  -22.4270   -8.0278   21.3544 C   0  0  0  0  0  0
  -21.9902   -9.0249   20.4646 C   0  0  0  0  0  0
  -22.7229  -10.2127   20.3049 C   0  0  0  0  0  0
  -21.6851   -6.0732   22.5280 C   0  0  0  0  0  0
  -21.4014   -6.5638   23.8213 C   0  0  0  0  0  0
  -21.3660   -5.6792   24.9175 C   0  0  0  0  0  0
  -21.6045   -4.3055   24.7226 C   0  0  0  0  0  0
  -21.8820   -3.8145   23.4348 C   0  0  0  0  0  0
  -21.9193   -4.6961   22.3404 C   0  0  0  0  0  0
  -22.7851  -13.5223   21.1847 C   0  0  0  0  0  0
  -22.1661   -4.2147   21.0981 F   0  0  0  0  0  0
  -21.5629   -3.4538   25.7739 F   0  0  0  0  0  0
  -30.0026  -13.4692   20.4652 N   0  0  0  0  0  0
  -26.2984  -12.9329   20.3285 N   0  0  0  0  0  0
  -25.9314  -11.6483   20.5698 N   0  0  0  0  0  0
  -22.0498  -12.8219   22.0408 N   0  0  0  0  0  0
  -25.4280  -15.1878   20.4109 N   0  0  0  0  0  0
  -31.7014  -14.9146   20.0313 O   0  0  0  0  0  0
  -21.6637   -6.8874   21.4241 O   0  0  0  0  0  0
  -22.3535  -14.5534   20.6703 O   0  0  0  0  0  0
  -24.6300  -31.8563   23.1984 C   0  0  0  0  0  0
  -25.9130  -32.4760   23.8330 C   0  0  1  0  0  0
  -27.2316  -27.2862   20.1268 C   0  0  0  0  0  0
  -25.5931  -33.8561   24.2260 N   0  0  0  0  0  0
  -23.4275  -30.4764   21.5416 C   0  0  2  0  0  0
  -24.8784  -28.9214   20.1152 C   0  0  0  0  0  0
  -22.7498  -29.4603   22.4923 C   0  0  0  0  0  0
  -18.0292  -28.1388   22.8482 C   0  0  0  0  0  0
  -24.1491  -36.7286   23.2638 C   0  0  0  0  0  0
  -25.9711  -30.7755   21.3759 C   0  0  0  0  0  0
  -26.0491  -29.3977   20.7219 C   0  0  0  0  0  0
  -27.2322  -28.5919   20.7179 C   0  0  0  0  0  0
  -26.0399  -26.8653   19.5037 C   0  0  0  0  0  0
  -24.8766  -27.6606   19.4965 C   0  0  0  0  0  0
  -23.6466  -29.8056   20.1597 C   0  0  0  0  0  0
  -25.4117  -36.3071   24.0325 C   0  0  1  0  0  0
  -20.5894  -28.3699   23.1273 C   0  0  2  0  0  0
  -20.6782  -26.9418   22.5408 C   0  0  0  0  0  0
  -19.5758  -26.6386   21.5212 C   0  0  0  0  0  0
  -18.1937  -26.7930   22.1624 C   0  0  0  0  0  0
  -19.1545  -28.8861   23.2871 C   0  0  0  0  0  0
  -18.9465  -30.1462   23.8890 C   0  0  0  0  0  0
  -17.6465  -30.6589   24.0563 C   0  0  0  0  0  0
  -25.9055  -34.9442   23.5096 C   0  0  0  0  0  0
  -16.5356  -29.9085   23.6332 C   0  0  0  0  0  0
  -16.7278  -28.6503   23.0351 C   0  0  0  0  0  0
  -26.4503  -31.6579   25.0716 C   0  0  0  0  0  0
  -25.3725  -31.3725   26.1435 C   0  0  0  0  0  0
  -27.0351  -30.2995   24.6194 C   0  0  0  0  0  0
  -27.6053  -32.4322   25.7495 C   0  0  0  0  0  0
  -27.5579  -37.1797   24.8464 C   0  0  0  0  0  0
  -21.4206  -29.3044   22.3660 N   0  0  0  0  0  0
  -26.4291  -37.3769   23.9407 N   0  0  0  0  0  0
  -24.6950  -31.0534   22.0957 N   0  0  0  0  0  0
  -23.4197  -28.8152   23.3030 O   0  0  0  0  0  0
  -28.3125  -26.3840   20.1153 O   0  0  0  0  0  0
  -26.5629  -34.8917   22.4665 O   0  0  0  0  0  0
  -23.5453  -32.1380   23.7284 O   0  0  0  0  0  0
  -29.7254  -18.0647   19.7948 C   0  0  0  0  0  0
  -29.8644  -18.3642   22.1352 C   0  0  0  0  0  0
  -29.4905  -19.4875   19.6508 C   0  0  0  0  0  0
  -29.6090  -19.7591   21.9805 C   0  0  0  0  0  0
  -29.8906  -17.4246   21.0618 C   0  0  0  0  0  0
  -29.3686  -20.4145   20.7415 C   0  0  0  0  0  0
  -28.5725  -23.8790   20.7015 C   0  0  0  0  0  0
  -28.4533  -22.7790   21.6492 C   0  0  0  0  0  0
  -28.1946  -25.2056   20.8930 C   0  0  0  0  0  0
  -29.9007  -15.8897   21.4104 C   0  0  0  0  0  0
  -29.2083  -22.8898   19.6801 C   0  0  0  0  0  0
  -29.3538  -15.5968   22.5172 N   0  0  0  0  0  0
  -28.9877  -21.8531   20.7310 N   0  0  0  0  0  0
  -28.0550  -22.7563   22.7955 O   0  0  0  0  0  0
  -31.4870  -12.6229   19.1589 H   0  0  0  0  0  0
  -30.4307  -11.4629   19.8948 H   0  0  0  0  0  0
  -29.8039  -11.7999   17.4925 H   0  0  0  0  0  0
  -29.6442  -13.5186   17.7502 H   0  0  0  0  0  0
  -27.8828  -11.3052   18.8492 H   0  0  0  0  0  0
  -27.3872  -12.5982   17.7880 H   0  0  0  0  0  0
  -27.6830  -14.2598   19.5545 H   0  0  0  0  0  0
  -28.7418  -11.9746   21.2717 H   0  0  0  0  0  0
  -28.3631  -13.5184   21.8945 H   0  0  0  0  0  0
  -25.2759   -9.5684   22.4747 H   0  0  0  0  0  0
  -23.9999   -7.4635   22.7472 H   0  0  0  0  0  0
  -21.0833   -8.8766   19.8951 H   0  0  0  0  0  0
  -22.3689  -10.9663   19.6155 H   0  0  0  0  0  0
  -21.2006   -7.6146   23.9715 H   0  0  0  0  0  0
  -21.1481   -6.0522   25.9078 H   0  0  0  0  0  0
  -22.0599   -2.7608   23.2849 H   0  0  0  0  0  0
  -22.4115  -11.9879   22.4793 H   0  0  0  0  0  0
  -21.1119  -13.1249   22.2623 H   0  0  0  0  0  0
  -24.6685  -15.8479   20.5372 H   0  0  0  0  0  0
  -26.2949  -15.6296   20.1318 H   0  0  0  0  0  0
  -26.7200  -32.5422   23.1077 H   0  0  0  0  0  0
  -25.0069  -33.9701   25.0399 H   0  0  0  0  0  0
  -22.7236  -31.2978   21.3928 H   0  0  0  0  0  0
  -23.3753  -35.9619   23.3301 H   0  0  0  0  0  0
  -24.3578  -36.8910   22.2053 H   0  0  0  0  0  0
  -23.7248  -37.6488   23.6664 H   0  0  0  0  0  0
  -26.1054  -31.5357   20.6050 H   0  0  0  0  0  0
  -26.8499  -30.8276   22.0071 H   0  0  0  0  0  0
  -28.1322  -28.9523   21.1958 H   0  0  0  0  0  0
  -26.0074  -25.8925   19.0336 H   0  0  0  0  0  0
  -23.9802  -27.2881   19.0201 H   0  0  0  0  0  0
  -23.7688  -30.5797   19.4013 H   0  0  0  0  0  0
  -22.7665  -29.2354   19.8569 H   0  0  0  0  0  0
  -25.1298  -36.1916   25.0818 H   0  0  0  0  0  0
  -20.9984  -28.3277   24.1395 H   0  0  0  0  0  0
  -20.5687  -26.2309   23.3611 H   0  0  0  0  0  0
  -21.6649  -26.7446   22.1200 H   0  0  0  0  0  0
  -19.6924  -25.6295   21.1245 H   0  0  0  0  0  0
  -19.6697  -27.3193   20.6740 H   0  0  0  0  0  0
  -17.4206  -26.6673   21.4027 H   0  0  0  0  0  0
  -18.0343  -26.0072   22.9024 H   0  0  0  0  0  0
  -19.7941  -30.7281   24.2255 H   0  0  0  0  0  0
  -17.5018  -31.6268   24.5167 H   0  0  0  0  0  0
  -15.5356  -30.2987   23.7661 H   0  0  0  0  0  0
  -15.8677  -28.0824   22.7069 H   0  0  0  0  0  0
  -24.5906  -30.7070   25.7759 H   0  0  0  0  0  0
  -24.8912  -32.2894   26.4845 H   0  0  0  0  0  0
  -25.8042  -30.8911   27.0217 H   0  0  0  0  0  0
  -26.2935  -29.6739   24.1213 H   0  0  0  0  0  0
  -27.4031  -29.7260   25.4711 H   0  0  0  0  0  0
  -27.8812  -30.4271   23.9438 H   0  0  0  0  0  0
  -27.2652  -33.3621   26.2064 H   0  0  0  0  0  0
  -28.3869  -32.6883   25.0331 H   0  0  0  0  0  0
  -28.0713  -31.8454   26.5420 H   0  0  0  0  0  0
  -28.2591  -38.0099   24.7510 H   0  0  0  0  0  0
  -28.1080  -36.2628   24.6291 H   0  0  0  0  0  0
  -27.2295  -37.1444   25.8867 H   0  0  0  0  0  0
  -20.9398  -29.8752   21.6848 H   0  0  0  0  0  0
  -26.0170  -38.2842   24.1409 H   0  0  0  0  0  0
  -29.7179  -17.4511   18.9050 H   0  0  0  0  0  0
  -29.9949  -18.0105   23.1482 H   0  0  0  0  0  0
  -29.3341  -19.8655   18.6503 H   0  0  0  0  0  0
  -29.5676  -20.3474   22.8864 H   0  0  0  0  0  0
  -27.7446  -25.4607   21.8436 H   0  0  0  0  0  0
  -30.2678  -23.0158   19.4520 H   0  0  0  0  0  0
  -28.6459  -22.6715   18.7710 H   0  0  0  0  0  0
  -28.9663  -16.4232   22.9550 H   0  0  0  0  0  0
  1 25  1  0  0  0
  1 30  2  0  0  0
  1 80  1  0  0  0
  2  3  1  0  0  0
  2 25  1  0  0  0
  2 85  1  0  0  0
  2 86  1  0  0  0
  3  4  1  0  0  0
  3 87  1  0  0  0
  3 88  1  0  0  0
  4  5  1  0  0  0
  4 89  1  0  0  0
  4 90  1  0  0  0
  5  6  1  0  0  0
  5 26  1  0  0  0
  5 91  1  0  0  0
  6 25  1  0  0  0
  6 92  1  0  0  0
  6 93  1  0  0  0
  7  8  2  0  0  0
  7 26  1  0  0  0
  7 29  1  0  0  0
  8  9  1  0  0  0
  8 22  1  0  0  0
  9 10  1  0  0  0
  9 27  2  0  0  0
 10 11  2  0  0  0
 10 15  1  0  0  0
 11 12  1  0  0  0
 11 94  1  0  0  0
 12 13  2  0  0  0
 12 95  1  0  0  0
 13 14  1  0  0  0
 13 31  1  0  0  0
 14 15  2  0  0  0
 14 96  1  0  0  0
 15 97  1  0  0  0
 16 17  2  0  0  0
 16 21  1  0  0  0
 16 31  1  0  0  0
 17 18  1  0  0  0
 17 98  1  0  0  0
 18 19  2  0  0  0
 18 99  1  0  0  0
 19 20  1  0  0  0
 19 24  1  0  0  0
 20 21  2  0  0  0
 20100  1  0  0  0
 21 23  1  0  0  0
 22 28  1  0  0  0
 22 32  2  0  0  0
 26 27  1  0  0  0
 28101  1  0  0  0
 28102  1  0  0  0
 29103  1  0  0  0
 29104  1  0  0  0
 33 34  1  0  0  0
 33 66  1  0  0  0
 33 70  2  0  0  0
 34 36  1  0  0  0
 34 59  1  0  0  0
 34105  1  0  0  0
 35 44  2  0  0  0
 35 45  1  0  0  0
 35 68  1  0  0  0
 36 56  1  0  0  0
 36106  1  0  0  0
 37 39  1  0  0  0
 37 47  1  0  0  0
 37 66  1  0  0  0
 37107  1  0  0  0
 38 43  2  0  0  0
 38 46  1  0  0  0
 38 47  1  0  0  0
 39 64  1  0  0  0
 39 67  2  0  0  0
 40 52  1  0  0  0
 40 53  2  0  0  0
 40 58  1  0  0  0
 41108  1  0  0  0
 41109  1  0  0  0
 41110  1  0  0  0
 41 48  1  0  0  0
 42 43  1  0  0  0
 42 66  1  0  0  0
 42111  1  0  0  0
 42112  1  0  0  0
 43 44  1  0  0  0
 44113  1  0  0  0
 45 46  2  0  0  0
 45114  1  0  0  0
 46115  1  0  0  0
 47116  1  0  0  0
 47117  1  0  0  0
 48 56  1  0  0  0
 48 65  1  0  0  0
 48118  1  0  0  0
 49 50  1  0  0  0
 49 53  1  0  0  0
 49 64  1  0  0  0
 49119  1  0  0  0
 50 51  1  0  0  0
 50120  1  0  0  0
 50121  1  0  0  0
 51 52  1  0  0  0
 51122  1  0  0  0
 51123  1  0  0  0
 52124  1  0  0  0
 52125  1  0  0  0
 53 54  1  0  0  0
 54 55  2  0  0  0
 54126  1  0  0  0
 55 57  1  0  0  0
 55127  1  0  0  0
 56 69  2  0  0  0
 57 58  2  0  0  0
 57128  1  0  0  0
 58129  1  0  0  0
 59 60  1  0  0  0
 59 61  1  0  0  0
 59 62  1  0  0  0
 60130  1  0  0  0
 60131  1  0  0  0
 60132  1  0  0  0
 61133  1  0  0  0
 61134  1  0  0  0
 61135  1  0  0  0
 62136  1  0  0  0
 62137  1  0  0  0
 62138  1  0  0  0
 63 65  1  0  0  0
 63139  1  0  0  0
 63140  1  0  0  0
 63141  1  0  0  0
 64142  1  0  0  0
 65143  1  0  0  0
 68 79  1  0  0  0
 71 73  2  0  0  0
 71 75  1  0  0  0
 71144  1  0  0  0
 72 74  1  0  0  0
 72 75  2  0  0  0
 72145  1  0  0  0
 73 76  1  0  0  0
 73146  1  0  0  0
 74 76  2  0  0  0
 74147  1  0  0  0
 75 80  1  0  0  0
 76 83  1  0  0  0
 77 78  1  0  0  0
 77 79  2  0  0  0
 77 81  1  0  0  0
 78 83  1  0  0  0
 78 84  2  0  0  0
 79148  1  0  0  0
 80 82  2  0  0  0
 81 83  1  0  0  0
 81149  1  0  0  0
 81150  1  0  0  0
 82151  1  0  0  0
M  ISO  4   1 100  68 101  79 101  80 100
M  END
> <chiral flag>
0

> <version>
0

> <s_m_source_file>
/data/baiqing/PycharmProjects/Reinvent-master-3.2/result/LINK_invent/BTK/process_docking_weight1_custom_product_contain_oxygen_bond_distance_aromatic_linkinvent_7_9_3/rearranged_h_0079.sdf

> <i_m_source_file_index>
17

> <r_mmod_Potential_Energy-OPLS-2005>
386.96826171875

> <r_mmod_Stretch_Energy-OPLS-2005>
117.16967010498

> <r_mmod_Bend_Energy-OPLS-2005>
273.03662109375

> <r_mmod_Torsional_Energy-OPLS-2005>
217.920120239258

> <r_mmod_Improper_Torsional_Energy-OPLS-2005>
3.64537286758423

> <r_mmod_Van_der_Waal_Energy-OPLS-2005>
145.576065063477

> <r_mmod_Electrostatic_Energy-OPLS-2005>
-232.5322265625

> <r_mmod_Solvation_Energy-OPLS-2005>
-208.222808837891

> <b_mmod_Minimization_Converged-OPLS-2005>
0

> <r_mmod_RMS_Derivative-OPLS-2005>
0.563038647174835

$$$$
17
                    3D
 Structure written by MMmdl.
161170  0  0  1  0            999 V2000
  -30.6746  -14.7036   20.3961 C   0  0  0  0  0  0
  -30.4236  -12.4220   19.4699 C   0  0  0  0  0  0
  -29.5142  -12.4776   18.2265 C   0  0  0  0  0  0
  -28.0365  -12.3291   18.6392 C   0  0  0  0  0  0
  -27.6436  -13.2347   19.8391 C   0  0  2  0  0  0
  -28.6921  -13.1952   20.9724 C   0  0  0  0  0  0
  -25.2554  -13.8222   20.5683 C   0  0  0  0  0  0
  -24.1828  -13.0491   20.9229 C   0  0  0  0  0  0
  -24.6404  -11.6975   20.8779 C   0  0  0  0  0  0
  -23.9066  -10.4337   21.0456 C   0  0  0  0  0  0
  -24.3634   -9.4232   21.9220 C   0  0  0  0  0  0
  -23.6312   -8.2260   22.0772 C   0  0  0  0  0  0
  -22.4275   -8.0315   21.3580 C   0  0  0  0  0  0
  -21.9912   -9.0282   20.4662 C   0  0  0  0  0  0
  -22.7252  -10.2165   20.3076 C   0  0  0  0  0  0
  -21.6845   -6.0758   22.5289 C   0  0  0  0  0  0
  -21.4013   -6.5655   23.8224 C   0  0  0  0  0  0
  -21.3649   -5.6803   24.9183 C   0  0  0  0  0  0
  -21.6045   -4.3066   24.7222 C   0  0  0  0  0  0
  -21.8815   -3.8162   23.4338 C   0  0  0  0  0  0
  -21.9193   -4.6988   22.3407 C   0  0  0  0  0  0
  -22.7829  -13.5285   21.1866 C   0  0  0  0  0  0
  -22.1667   -4.2194   21.0980 F   0  0  0  0  0  0
  -21.5605   -3.4543   25.7723 F   0  0  0  0  0  0
  -29.9936  -13.5110   20.3707 N   0  0  0  0  0  0
  -26.2955  -12.9437   20.3226 N   0  0  0  0  0  0
  -25.9329  -11.6586   20.5740 N   0  0  0  0  0  0
  -22.0428  -12.8280   22.0384 N   0  0  0  0  0  0
  -25.4327  -15.1933   20.4095 N   0  0  0  0  0  0
  -31.8912  -14.6865   20.2135 O   0  0  0  0  0  0
  -21.6658   -6.8901   21.4251 O   0  0  0  0  0  0
  -22.3530  -14.5591   20.6697 O   0  0  0  0  0  0
  -24.6286  -31.8598   23.2006 C   0  0  0  0  0  0
  -25.9143  -32.4763   23.8327 C   0  0  1  0  0  0
  -27.2190  -27.3078   20.0824 C   0  0  0  0  0  0
  -25.5949  -33.8566   24.2244 N   0  0  0  0  0  0
  -23.4205  -30.4834   21.5494 C   0  0  2  0  0  0
  -24.8631  -28.9368   20.1140 C   0  0  0  0  0  0
  -22.7493  -29.4620   22.4975 C   0  0  0  0  0  0
  -18.0282  -28.1374   22.8469 C   0  0  0  0  0  0
  -24.1487  -36.7254   23.2640 C   0  0  0  0  0  0
  -25.9677  -30.7771   21.3834 C   0  0  0  0  0  0
  -26.0369  -29.4068   20.7152 C   0  0  0  0  0  0
  -27.2182  -28.6006   20.6951 C   0  0  0  0  0  0
  -26.0044  -26.8784   19.4986 C   0  0  0  0  0  0
  -24.8474  -27.6751   19.5011 C   0  0  0  0  0  0
  -23.6311  -29.8174   20.1655 C   0  0  0  0  0  0
  -25.4122  -36.3056   24.0312 C   0  0  1  0  0  0
  -20.5885  -28.3673   23.1279 C   0  0  2  0  0  0
  -20.6787  -26.9392   22.5411 C   0  0  0  0  0  0
  -19.5752  -26.6358   21.5220 C   0  0  0  0  0  0
  -18.1922  -26.7908   22.1607 C   0  0  0  0  0  0
  -19.1539  -28.8838   23.2848 C   0  0  0  0  0  0
  -18.9459  -30.1443   23.8867 C   0  0  0  0  0  0
  -17.6467  -30.6569   24.0540 C   0  0  0  0  0  0
  -25.9067  -34.9434   23.5065 C   0  0  0  0  0  0
  -16.5353  -29.9066   23.6334 C   0  0  0  0  0  0
  -16.7279  -28.6477   23.0361 C   0  0  0  0  0  0
  -26.4521  -31.6608   25.0735 C   0  0  0  0  0  0
  -25.3734  -31.3802   26.1448 C   0  0  0  0  0  0
  -27.0396  -30.3009   24.6286 C   0  0  0  0  0  0
  -27.6020  -32.4418   25.7510 C   0  0  0  0  0  0
  -27.5570  -37.1774   24.8452 C   0  0  0  0  0  0
  -21.4203  -29.3024   22.3693 N   0  0  0  0  0  0
  -26.4282  -37.3759   23.9398 N   0  0  0  0  0  0
  -24.6909  -31.0609   22.0967 N   0  0  0  0  0  0
  -23.4210  -28.8178   23.3072 O   0  0  0  0  0  0
  -28.3271  -26.4334   20.0895 O   0  0  0  0  0  0
  -26.5621  -34.8899   22.4628 O   0  0  0  0  0  0
  -23.5459  -32.1415   23.7345 O   0  0  0  0  0  0
  -32.0793  -18.6741   18.8180 C   0  0  0  0  0  0
  -31.3097  -19.8294   19.0016 C   0  0  0  0  0  0
  -31.6207  -17.4185   19.2444 C   0  0  0  0  0  0
  -29.6081  -18.4808   20.1010 C   0  0  0  0  0  0
  -30.0263  -19.7868   19.5985 C   0  0  0  0  0  0
  -30.3945  -17.2604   19.9405 C   0  0  0  0  0  0
  -28.5397  -23.3036   20.6616 C   0  0  0  0  0  0
  -28.4850  -24.0127   19.3714 C   0  0  0  0  0  0
  -27.9468  -23.8438   21.7413 C   0  0  0  0  0  0
  -28.4147  -25.3876   19.1411 C   0  0  0  0  0  0
  -28.4028  -23.0086   18.2135 C   0  0  0  0  0  0
  -29.1621  -21.8632   20.7955 C   0  0  0  0  0  0
  -29.3662  -21.8038   18.3396 C   0  0  0  0  0  0
  -28.4420  -25.9710   17.7305 C   0  0  0  0  0  0
  -29.2342  -21.0089   19.5810 N   0  0  0  0  0  0
  -29.9664  -15.8987   20.3897 N   0  0  0  0  0  0
  -31.4686  -12.5063   19.1702 H   0  0  0  0  0  0
  -30.3332  -11.4611   19.9787 H   0  0  0  0  0  0
  -29.7895  -11.6881   17.5256 H   0  0  0  0  0  0
  -29.6625  -13.4152   17.6896 H   0  0  0  0  0  0
  -27.8757  -11.2831   18.9004 H   0  0  0  0  0  0
  -27.3883  -12.5391   17.7864 H   0  0  0  0  0  0
  -27.6319  -14.2538   19.4495 H   0  0  0  0  0  0
  -28.7177  -12.2132   21.4483 H   0  0  0  0  0  0
  -28.4445  -13.9102   21.7579 H   0  0  0  0  0  0
  -25.2798   -9.5680   22.4790 H   0  0  0  0  0  0
  -24.0055   -7.4595   22.7425 H   0  0  0  0  0  0
  -21.0868   -8.8778   19.8910 H   0  0  0  0  0  0
  -22.3753  -10.9695   19.6152 H   0  0  0  0  0  0
  -21.2028   -7.6168   23.9735 H   0  0  0  0  0  0
  -21.1463   -6.0543   25.9086 H   0  0  0  0  0  0
  -22.0606   -2.7629   23.2827 H   0  0  0  0  0  0
  -22.4050  -12.0036   22.4909 H   0  0  0  0  0  0
  -21.0978  -13.1220   22.2439 H   0  0  0  0  0  0
  -24.6758  -15.8600   20.5055 H   0  0  0  0  0  0
  -26.2824  -15.6088   20.0502 H   0  0  0  0  0  0
  -26.7209  -32.5418   23.1066 H   0  0  0  0  0  0
  -25.0161  -33.9704   25.0437 H   0  0  0  0  0  0
  -22.7105  -31.3021   21.4108 H   0  0  0  0  0  0
  -23.3771  -35.9561   23.3316 H   0  0  0  0  0  0
  -24.3566  -36.8897   22.2050 H   0  0  0  0  0  0
  -23.7219  -37.6440   23.6684 H   0  0  0  0  0  0
  -26.1284  -31.5485   20.6301 H   0  0  0  0  0  0
  -26.8322  -30.8018   22.0338 H   0  0  0  0  0  0
  -28.1213  -28.9561   21.1722 H   0  0  0  0  0  0
  -25.9228  -25.9006   19.0483 H   0  0  0  0  0  0
  -23.9430  -27.3047   19.0405 H   0  0  0  0  0  0
  -23.7338  -30.5888   19.4000 H   0  0  0  0  0  0
  -22.7515  -29.2381   19.8800 H   0  0  0  0  0  0
  -25.1312  -36.1881   25.0800 H   0  0  0  0  0  0
  -20.9934  -28.3255   24.1416 H   0  0  0  0  0  0
  -20.5738  -26.2272   23.3609 H   0  0  0  0  0  0
  -21.6658  -26.7465   22.1181 H   0  0  0  0  0  0
  -19.6932  -25.6275   21.1242 H   0  0  0  0  0  0
  -19.6689  -27.3172   20.6745 H   0  0  0  0  0  0
  -17.4206  -26.6657   21.3996 H   0  0  0  0  0  0
  -18.0293  -26.0050   22.8988 H   0  0  0  0  0  0
  -19.7945  -30.7237   24.2245 H   0  0  0  0  0  0
  -17.5029  -31.6257   24.5110 H   0  0  0  0  0  0
  -15.5364  -30.2942   23.7685 H   0  0  0  0  0  0
  -15.8668  -28.0773   22.7139 H   0  0  0  0  0  0
  -24.5815  -30.7293   25.7752 H   0  0  0  0  0  0
  -24.9076  -32.3033   26.4901 H   0  0  0  0  0  0
  -25.8005  -30.8894   27.0203 H   0  0  0  0  0  0
  -26.3026  -29.6727   24.1282 H   0  0  0  0  0  0
  -27.4041  -29.7292   25.4834 H   0  0  0  0  0  0
  -27.8901  -30.4285   23.9585 H   0  0  0  0  0  0
  -27.2537  -33.3682   26.2087 H   0  0  0  0  0  0
  -28.3783  -32.7090   25.0331 H   0  0  0  0  0  0
  -28.0744  -31.8611   26.5442 H   0  0  0  0  0  0
  -28.2582  -38.0080   24.7524 H   0  0  0  0  0  0
  -28.1074  -36.2612   24.6249 H   0  0  0  0  0  0
  -27.2287  -37.1384   25.8855 H   0  0  0  0  0  0
  -20.9408  -29.8703   21.6848 H   0  0  0  0  0  0
  -26.0164  -38.2832   24.1411 H   0  0  0  0  0  0
  -33.0359  -18.7464   18.3207 H   0  0  0  0  0  0
  -31.7376  -20.7512   18.6332 H   0  0  0  0  0  0
  -32.2702  -16.5959   18.9949 H   0  0  0  0  0  0
  -28.6495  -18.4119   20.5920 H   0  0  0  0  0  0
  -27.4404  -24.7981   21.7024 H   0  0  0  0  0  0
  -27.9445  -23.3258   22.6870 H   0  0  0  0  0  0
  -28.5907  -23.4769   17.2477 H   0  0  0  0  0  0
  -27.3792  -22.6366   18.1650 H   0  0  0  0  0  0
  -28.5791  -21.3134   21.5361 H   0  0  0  0  0  0
  -30.1637  -21.9605   21.2122 H   0  0  0  0  0  0
  -30.3697  -22.2123   18.2532 H   0  0  0  0  0  0
  -29.2259  -21.1477   17.4803 H   0  0  0  0  0  0
  -29.3295  -25.6313   17.1987 H   0  0  0  0  0  0
  -28.4736  -27.0613   17.7300 H   0  0  0  0  0  0
  -27.5629  -25.6610   17.1632 H   0  0  0  0  0  0
  -28.9907  -15.8030   20.6281 H   0  0  0  0  0  0
  1 25  1  0  0  0
  1 30  2  0  0  0
  1 86  1  0  0  0
  2  3  1  0  0  0
  2 25  1  0  0  0
  2 87  1  0  0  0
  2 88  1  0  0  0
  3  4  1  0  0  0
  3 89  1  0  0  0
  3 90  1  0  0  0
  4  5  1  0  0  0
  4 91  1  0  0  0
  4 92  1  0  0  0
  5  6  1  0  0  0
  5 26  1  0  0  0
  5 93  1  0  0  0
  6 25  1  0  0  0
  6 94  1  0  0  0
  6 95  1  0  0  0
  7  8  2  0  0  0
  7 26  1  0  0  0
  7 29  1  0  0  0
  8  9  1  0  0  0
  8 22  1  0  0  0
  9 10  1  0  0  0
  9 27  2  0  0  0
 10 11  2  0  0  0
 10 15  1  0  0  0
 11 12  1  0  0  0
 11 96  1  0  0  0
 12 13  2  0  0  0
 12 97  1  0  0  0
 13 14  1  0  0  0
 13 31  1  0  0  0
 14 15  2  0  0  0
 14 98  1  0  0  0
 15 99  1  0  0  0
 16 17  2  0  0  0
 16 21  1  0  0  0
 16 31  1  0  0  0
 17 18  1  0  0  0
 17100  1  0  0  0
 18 19  2  0  0  0
 18101  1  0  0  0
 19 20  1  0  0  0
 19 24  1  0  0  0
 20 21  2  0  0  0
 20102  1  0  0  0
 21 23  1  0  0  0
 22 28  1  0  0  0
 22 32  2  0  0  0
 26 27  1  0  0  0
 28103  1  0  0  0
 28104  1  0  0  0
 29105  1  0  0  0
 29106  1  0  0  0
 33 34  1  0  0  0
 33 66  1  0  0  0
 33 70  2  0  0  0
 34 36  1  0  0  0
 34 59  1  0  0  0
 34107  1  0  0  0
 35 44  2  0  0  0
 35 45  1  0  0  0
 35 68  1  0  0  0
 36 56  1  0  0  0
 36108  1  0  0  0
 37 39  1  0  0  0
 37 47  1  0  0  0
 37 66  1  0  0  0
 37109  1  0  0  0
 38 43  2  0  0  0
 38 46  1  0  0  0
 38 47  1  0  0  0
 39 64  1  0  0  0
 39 67  2  0  0  0
 40 52  1  0  0  0
 40 53  2  0  0  0
 40 58  1  0  0  0
 41110  1  0  0  0
 41111  1  0  0  0
 41112  1  0  0  0
 41 48  1  0  0  0
 42 43  1  0  0  0
 42 66  1  0  0  0
 42113  1  0  0  0
 42114  1  0  0  0
 43 44  1  0  0  0
 44115  1  0  0  0
 45 46  2  0  0  0
 45116  1  0  0  0
 46117  1  0  0  0
 47118  1  0  0  0
 47119  1  0  0  0
 48 56  1  0  0  0
 48 65  1  0  0  0
 48120  1  0  0  0
 49 50  1  0  0  0
 49 53  1  0  0  0
 49 64  1  0  0  0
 49121  1  0  0  0
 50 51  1  0  0  0
 50122  1  0  0  0
 50123  1  0  0  0
 51 52  1  0  0  0
 51124  1  0  0  0
 51125  1  0  0  0
 52126  1  0  0  0
 52127  1  0  0  0
 53 54  1  0  0  0
 54 55  2  0  0  0
 54128  1  0  0  0
 55 57  1  0  0  0
 55129  1  0  0  0
 56 69  2  0  0  0
 57 58  2  0  0  0
 57130  1  0  0  0
 58131  1  0  0  0
 59 60  1  0  0  0
 59 61  1  0  0  0
 59 62  1  0  0  0
 60132  1  0  0  0
 60133  1  0  0  0
 60134  1  0  0  0
 61135  1  0  0  0
 61136  1  0  0  0
 61137  1  0  0  0
 62138  1  0  0  0
 62139  1  0  0  0
 62140  1  0  0  0
 63 65  1  0  0  0
 63141  1  0  0  0
 63142  1  0  0  0
 63143  1  0  0  0
 64144  1  0  0  0
 65145  1  0  0  0
 68 80  1  0  0  0
 71 72  2  0  0  0
 71 73  1  0  0  0
 71146  1  0  0  0
 72 75  1  0  0  0
 72147  1  0  0  0
 73 76  2  0  0  0
 73148  1  0  0  0
 74 75  2  0  0  0
 74 76  1  0  0  0
 74149  1  0  0  0
 75 85  1  0  0  0
 76 86  1  0  0  0
 77 78  1  0  0  0
 77 79  2  0  0  0
 77 82  1  0  0  0
 78 80  2  0  0  0
 78 81  1  0  0  0
 79150  1  0  0  0
 79151  1  0  0  0
 80 84  1  0  0  0
 81 83  1  0  0  0
 81152  1  0  0  0
 81153  1  0  0  0
 82 85  1  0  0  0
 82154  1  0  0  0
 82155  1  0  0  0
 83 85  1  0  0  0
 83156  1  0  0  0
 83157  1  0  0  0
 84158  1  0  0  0
 84159  1  0  0  0
 84160  1  0  0  0
 86161  1  0  0  0
M  ISO  4   1 100  68 101  80 101  86 100
M  END
> <chiral flag>
0

> <version>
0

> <s_m_source_file>
/data/baiqing/PycharmProjects/Reinvent-master-3.2/result/LINK_invent/BTK/process_docking_weight1_custom_product_contain_oxygen_bond_distance_aromatic_linkinvent_7_9_3/rearranged_h_0079.sdf

> <i_m_source_file_index>
18

> <r_mmod_Potential_Energy-OPLS-2005>
224.059646606445

> <r_mmod_Stretch_Energy-OPLS-2005>
107.517127990723

> <r_mmod_Bend_Energy-OPLS-2005>
166.980102539062

> <r_mmod_Torsional_Energy-OPLS-2005>
271.083801269531

> <r_mmod_Improper_Torsional_Energy-OPLS-2005>
9.61068153381348

> <r_mmod_Van_der_Waal_Energy-OPLS-2005>
173.238510131836

> <r_mmod_Electrostatic_Energy-OPLS-2005>
-367.557189941406

> <r_mmod_Solvation_Energy-OPLS-2005>
-210.257446289062

> <b_mmod_Minimization_Converged-OPLS-2005>
0

> <r_mmod_RMS_Derivative-OPLS-2005>
4.53642129898071

$$$$
18
                    3D
 Structure written by MMmdl.
163172  0  0  1  0            999 V2000
  -30.5823  -14.8458   20.4423 C   0  0  0  0  0  0
  -30.4409  -12.5233   19.4743 C   0  0  0  0  0  0
  -29.5138  -12.5122   18.2388 C   0  0  0  0  0  0
  -28.0460  -12.3141   18.6618 C   0  0  0  0  0  0
  -27.6350  -13.2366   19.8392 C   0  0  2  0  0  0
  -28.6826  -13.2274   20.9722 C   0  0  0  0  0  0
  -25.2495  -13.8192   20.5693 C   0  0  0  0  0  0
  -24.1799  -13.0432   20.9216 C   0  0  0  0  0  0
  -24.6397  -11.6913   20.8757 C   0  0  0  0  0  0
  -23.9076  -10.4290   21.0411 C   0  0  0  0  0  0
  -24.3624   -9.4204   21.9182 C   0  0  0  0  0  0
  -23.6299   -8.2244   22.0748 C   0  0  0  0  0  0
  -22.4281   -8.0286   21.3541 C   0  0  0  0  0  0
  -21.9915   -9.0259   20.4640 C   0  0  0  0  0  0
  -22.7250  -10.2137   20.3057 C   0  0  0  0  0  0
  -21.6853   -6.0737   22.5276 C   0  0  0  0  0  0
  -21.4015   -6.5641   23.8211 C   0  0  0  0  0  0
  -21.3658   -5.6792   24.9173 C   0  0  0  0  0  0
  -21.6047   -4.3056   24.7224 C   0  0  0  0  0  0
  -21.8821   -3.8148   23.4343 C   0  0  0  0  0  0
  -21.9192   -4.6963   22.3398 C   0  0  0  0  0  0
  -22.7823  -13.5217   21.1883 C   0  0  0  0  0  0
  -22.1665   -4.2150   21.0976 F   0  0  0  0  0  0
  -21.5620   -3.4539   25.7736 F   0  0  0  0  0  0
  -29.9678  -13.6069   20.3715 N   0  0  0  0  0  0
  -26.2915  -12.9406   20.3244 N   0  0  0  0  0  0
  -25.9325  -11.6546   20.5743 N   0  0  0  0  0  0
  -22.0462  -12.8205   22.0431 N   0  0  0  0  0  0
  -25.4155  -15.1926   20.4104 N   0  0  0  0  0  0
  -31.7924  -14.9174   20.2068 O   0  0  0  0  0  0
  -21.6640   -6.8889   21.4246 O   0  0  0  0  0  0
  -22.3511  -14.5524   20.6727 O   0  0  0  0  0  0
  -24.6413  -31.8492   23.1949 C   0  0  0  0  0  0
  -25.9203  -32.4714   23.8321 C   0  0  1  0  0  0
  -27.2192  -27.1933   20.1209 C   0  0  0  0  0  0
  -25.5975  -33.8523   24.2244 N   0  0  0  0  0  0
  -23.4415  -30.4728   21.5418 C   0  0  2  0  0  0
  -24.8883  -28.9175   20.1117 C   0  0  0  0  0  0
  -22.7555  -29.4564   22.4893 C   0  0  0  0  0  0
  -18.0310  -28.1395   22.8458 C   0  0  0  0  0  0
  -24.1495  -36.7262   23.2637 C   0  0  0  0  0  0
  -25.9975  -30.7412   21.3853 C   0  0  0  0  0  0
  -26.0699  -29.3605   20.7213 C   0  0  0  0  0  0
  -27.2381  -28.5134   20.7140 C   0  0  0  0  0  0
  -25.9919  -26.8317   19.5139 C   0  0  0  0  0  0
  -24.8581  -27.6612   19.4984 C   0  0  0  0  0  0
  -23.6639  -29.8135   20.1579 C   0  0  0  0  0  0
  -25.4122  -36.3046   24.0323 C   0  0  1  0  0  0
  -20.5912  -28.3707   23.1248 C   0  0  2  0  0  0
  -20.6795  -26.9416   22.5398 C   0  0  0  0  0  0
  -19.5769  -26.6379   21.5206 C   0  0  0  0  0  0
  -18.1952  -26.7930   22.1618 C   0  0  0  0  0  0
  -19.1562  -28.8873   23.2843 C   0  0  0  0  0  0
  -18.9477  -30.1467   23.8866 C   0  0  0  0  0  0
  -17.6471  -30.6574   24.0555 C   0  0  0  0  0  0
  -25.9063  -34.9413   23.5080 C   0  0  0  0  0  0
  -16.5364  -29.9061   23.6339 C   0  0  0  0  0  0
  -16.7294  -28.6497   23.0332 C   0  0  0  0  0  0
  -26.4530  -31.6551   25.0731 C   0  0  0  0  0  0
  -25.3728  -31.3749   26.1440 C   0  0  0  0  0  0
  -27.0377  -30.2949   24.6271 C   0  0  0  0  0  0
  -27.6067  -32.4295   25.7513 C   0  0  0  0  0  0
  -27.5576  -37.1798   24.8465 C   0  0  0  0  0  0
  -21.4251  -29.3036   22.3635 N   0  0  0  0  0  0
  -26.4294  -37.3744   23.9389 N   0  0  0  0  0  0
  -24.7136  -31.0391   22.0963 N   0  0  0  0  0  0
  -23.4215  -28.8101   23.3023 O   0  0  0  0  0  0
  -28.2597  -26.2036   20.1759 O   0  0  0  0  0  0
  -26.5618  -34.8897   22.4639 O   0  0  0  0  0  0
  -23.5538  -32.1354   23.7187 O   0  0  0  0  0  0
  -30.7257  -20.2616   21.2615 C   0  0  0  0  0  0
  -29.3294  -18.6139   20.1564 C   0  0  0  0  0  0
  -31.1849  -17.8383   21.5067 C   0  0  0  0  0  0
  -29.6275  -20.0454   20.3973 C   0  0  0  0  0  0
  -31.4809  -19.1920   21.8014 C   0  0  0  0  0  0
  -30.0982  -17.4731   20.6805 C   0  0  0  0  0  0
  -28.0278  -23.1984   17.7701 C   0  0  0  0  0  0
  -28.4051  -23.7152   19.1128 C   0  0  0  0  0  0
  -28.5568  -21.9152   17.3831 C   0  0  0  0  0  0
  -28.8742  -22.6230   20.1145 C   0  0  0  0  0  0
  -29.0501  -21.6603   16.1565 C   0  0  0  0  0  0
  -27.0495  -23.7669   17.0090 C   0  0  0  0  0  0
  -28.2318  -25.1239   19.2301 C   0  0  0  0  0  0
  -28.4117  -20.8401   18.4131 C   0  0  0  0  0  0
  -26.4522  -23.2605   15.7055 C   0  0  0  0  0  0
  -28.9720  -21.2402   19.7095 N   0  0  0  0  0  0
  -32.5540  -19.4845   22.6430 N   0  0  0  0  0  0
  -29.7856  -16.0053   20.4895 N   0  0  0  0  0  0
  -29.1779  -22.9381   21.2690 O   0  0  0  0  0  0
  -31.4757  -12.6725   19.1605 H   0  0  0  0  0  0
  -30.4175  -11.5615   19.9891 H   0  0  0  0  0  0
  -29.8133  -11.7252   17.5455 H   0  0  0  0  0  0
  -29.6158  -13.4533   17.6963 H   0  0  0  0  0  0
  -27.9320  -11.2701   18.9554 H   0  0  0  0  0  0
  -27.3818  -12.4652   17.8099 H   0  0  0  0  0  0
  -27.6085  -14.2450   19.4259 H   0  0  0  0  0  0
  -28.7448  -12.2447   21.4416 H   0  0  0  0  0  0
  -28.4031  -13.9303   21.7587 H   0  0  0  0  0  0
  -25.2762   -9.5674   22.4768 H   0  0  0  0  0  0
  -23.9995   -7.4635   22.7465 H   0  0  0  0  0  0
  -21.0841   -8.8790   19.8954 H   0  0  0  0  0  0
  -22.3705  -10.9683   19.6178 H   0  0  0  0  0  0
  -21.2017   -7.6152   23.9723 H   0  0  0  0  0  0
  -21.1473   -6.0516   25.9075 H   0  0  0  0  0  0
  -22.0601   -2.7609   23.2843 H   0  0  0  0  0  0
  -22.4072  -11.9864   22.4823 H   0  0  0  0  0  0
  -21.1079  -13.1236   22.2636 H   0  0  0  0  0  0
  -24.6422  -15.8401   20.5212 H   0  0  0  0  0  0
  -26.2518  -15.6365   20.0550 H   0  0  0  0  0  0
  -26.7272  -32.5345   23.1058 H   0  0  0  0  0  0
  -25.0133  -33.9651   25.0401 H   0  0  0  0  0  0
  -22.7410  -31.2977   21.3959 H   0  0  0  0  0  0
  -23.3748  -35.9605   23.3311 H   0  0  0  0  0  0
  -24.3592  -36.8865   22.2050 H   0  0  0  0  0  0
  -23.7258  -37.6472   23.6651 H   0  0  0  0  0  0
  -26.1483  -31.5008   20.6172 H   0  0  0  0  0  0
  -26.8703  -30.7877   22.0250 H   0  0  0  0  0  0
  -28.1412  -28.8477   21.2050 H   0  0  0  0  0  0
  -25.8567  -25.8525   19.0819 H   0  0  0  0  0  0
  -23.9486  -27.3036   19.0353 H   0  0  0  0  0  0
  -23.7978  -30.5943   19.4085 H   0  0  0  0  0  0
  -22.7797  -29.2548   19.8454 H   0  0  0  0  0  0
  -25.1304  -36.1893   25.0816 H   0  0  0  0  0  0
  -20.9989  -28.3290   24.1375 H   0  0  0  0  0  0
  -20.5706  -26.2308   23.3605 H   0  0  0  0  0  0
  -21.6664  -26.7439   22.1190 H   0  0  0  0  0  0
  -19.6924  -25.6289   21.1240 H   0  0  0  0  0  0
  -19.6706  -27.3186   20.6733 H   0  0  0  0  0  0
  -17.4214  -26.6655   21.4027 H   0  0  0  0  0  0
  -18.0360  -26.0092   22.9039 H   0  0  0  0  0  0
  -19.7952  -30.7293   24.2218 H   0  0  0  0  0  0
  -17.5020  -31.6250   24.5161 H   0  0  0  0  0  0
  -15.5363  -30.2938   23.7690 H   0  0  0  0  0  0
  -15.8700  -28.0808   22.7036 H   0  0  0  0  0  0
  -24.5886  -30.7117   25.7773 H   0  0  0  0  0  0
  -24.8960  -32.2951   26.4829 H   0  0  0  0  0  0
  -25.8027  -30.8941   27.0239 H   0  0  0  0  0  0
  -26.2993  -29.6680   24.1263 H   0  0  0  0  0  0
  -27.3994  -29.7221   25.4820 H   0  0  0  0  0  0
  -27.8896  -30.4186   23.9580 H   0  0  0  0  0  0
  -27.2662  -33.3593   26.2081 H   0  0  0  0  0  0
  -28.3892  -32.6854   25.0355 H   0  0  0  0  0  0
  -28.0720  -31.8426   26.5444 H   0  0  0  0  0  0
  -28.2602  -38.0083   24.7471 H   0  0  0  0  0  0
  -28.1066  -36.2612   24.6341 H   0  0  0  0  0  0
  -27.2293  -37.1495   25.8869 H   0  0  0  0  0  0
  -20.9459  -29.8754   21.6823 H   0  0  0  0  0  0
  -26.0170  -38.2819   24.1369 H   0  0  0  0  0  0
  -31.0315  -21.2727   21.4865 H   0  0  0  0  0  0
  -28.4885  -18.3699   19.5233 H   0  0  0  0  0  0
  -31.7907  -17.0606   21.9500 H   0  0  0  0  0  0
  -29.1224  -22.4337   15.4057 H   0  0  0  0  0  0
  -29.3947  -20.6746   15.8791 H   0  0  0  0  0  0
  -26.5653  -24.6807   17.3108 H   0  0  0  0  0  0
  -28.0159  -25.6371   18.3071 H   0  0  0  0  0  0
  -28.8942  -19.9494   18.0130 H   0  0  0  0  0  0
  -27.3538  -20.6041   18.5381 H   0  0  0  0  0  0
  -26.5188  -22.1784   15.5985 H   0  0  0  0  0  0
  -26.9429  -23.7325   14.8543 H   0  0  0  0  0  0
  -25.3934  -23.5172   15.6643 H   0  0  0  0  0  0
  -32.9069  -20.4342   22.7087 H   0  0  0  0  0  0
  -33.2555  -18.7759   22.8406 H   0  0  0  0  0  0
  -28.8024  -15.8003   20.4077 H   0  0  0  0  0  0
  1 25  1  0  0  0
  1 30  2  0  0  0
  1 88  1  0  0  0
  2  3  1  0  0  0
  2 25  1  0  0  0
  2 90  1  0  0  0
  2 91  1  0  0  0
  3  4  1  0  0  0
  3 92  1  0  0  0
  3 93  1  0  0  0
  4  5  1  0  0  0
  4 94  1  0  0  0
  4 95  1  0  0  0
  5  6  1  0  0  0
  5 26  1  0  0  0
  5 96  1  0  0  0
  6 25  1  0  0  0
  6 97  1  0  0  0
  6 98  1  0  0  0
  7  8  2  0  0  0
  7 26  1  0  0  0
  7 29  1  0  0  0
  8  9  1  0  0  0
  8 22  1  0  0  0
  9 10  1  0  0  0
  9 27  2  0  0  0
 10 11  2  0  0  0
 10 15  1  0  0  0
 11 12  1  0  0  0
 11 99  1  0  0  0
 12 13  2  0  0  0
 12100  1  0  0  0
 13 14  1  0  0  0
 13 31  1  0  0  0
 14 15  2  0  0  0
 14101  1  0  0  0
 15102  1  0  0  0
 16 17  2  0  0  0
 16 21  1  0  0  0
 16 31  1  0  0  0
 17 18  1  0  0  0
 17103  1  0  0  0
 18 19  2  0  0  0
 18104  1  0  0  0
 19 20  1  0  0  0
 19 24  1  0  0  0
 20 21  2  0  0  0
 20105  1  0  0  0
 21 23  1  0  0  0
 22 28  1  0  0  0
 22 32  2  0  0  0
 26 27  1  0  0  0
 28106  1  0  0  0
 28107  1  0  0  0
 29108  1  0  0  0
 29109  1  0  0  0
 33 34  1  0  0  0
 33 66  1  0  0  0
 33 70  2  0  0  0
 34 36  1  0  0  0
 34 59  1  0  0  0
 34110  1  0  0  0
 35 44  2  0  0  0
 35 45  1  0  0  0
 35 68  1  0  0  0
 36 56  1  0  0  0
 36111  1  0  0  0
 37 39  1  0  0  0
 37 47  1  0  0  0
 37 66  1  0  0  0
 37112  1  0  0  0
 38 43  2  0  0  0
 38 46  1  0  0  0
 38 47  1  0  0  0
 39 64  1  0  0  0
 39 67  2  0  0  0
 40 52  1  0  0  0
 40 53  2  0  0  0
 40 58  1  0  0  0
 41113  1  0  0  0
 41114  1  0  0  0
 41115  1  0  0  0
 41 48  1  0  0  0
 42 43  1  0  0  0
 42 66  1  0  0  0
 42116  1  0  0  0
 42117  1  0  0  0
 43 44  1  0  0  0
 44118  1  0  0  0
 45 46  2  0  0  0
 45119  1  0  0  0
 46120  1  0  0  0
 47121  1  0  0  0
 47122  1  0  0  0
 48 56  1  0  0  0
 48 65  1  0  0  0
 48123  1  0  0  0
 49 50  1  0  0  0
 49 53  1  0  0  0
 49 64  1  0  0  0
 49124  1  0  0  0
 50 51  1  0  0  0
 50125  1  0  0  0
 50126  1  0  0  0
 51 52  1  0  0  0
 51127  1  0  0  0
 51128  1  0  0  0
 52129  1  0  0  0
 52130  1  0  0  0
 53 54  1  0  0  0
 54 55  2  0  0  0
 54131  1  0  0  0
 55 57  1  0  0  0
 55132  1  0  0  0
 56 69  2  0  0  0
 57 58  2  0  0  0
 57133  1  0  0  0
 58134  1  0  0  0
 59 60  1  0  0  0
 59 61  1  0  0  0
 59 62  1  0  0  0
 60135  1  0  0  0
 60136  1  0  0  0
 60137  1  0  0  0
 61138  1  0  0  0
 61139  1  0  0  0
 61140  1  0  0  0
 62141  1  0  0  0
 62142  1  0  0  0
 62143  1  0  0  0
 63 65  1  0  0  0
 63144  1  0  0  0
 63145  1  0  0  0
 63146  1  0  0  0
 64147  1  0  0  0
 65148  1  0  0  0
 68 83  1  0  0  0
 71 74  2  0  0  0
 71 75  1  0  0  0
 71149  1  0  0  0
 72 74  1  0  0  0
 72 76  2  0  0  0
 72150  1  0  0  0
 73 75  2  0  0  0
 73 76  1  0  0  0
 73151  1  0  0  0
 74 86  1  0  0  0
 75 87  1  0  0  0
 76 88  1  0  0  0
 77 78  1  0  0  0
 77 79  1  0  0  0
 77 82  2  0  0  0
 78 80  1  0  0  0
 78 83  2  0  0  0
 79 81  2  0  0  0
 79 84  1  0  0  0
 80 86  1  0  0  0
 80 89  2  0  0  0
 81152  1  0  0  0
 81153  1  0  0  0
 82 85  1  0  0  0
 82154  1  0  0  0
 83155  1  0  0  0
 84 86  1  0  0  0
 84156  1  0  0  0
 84157  1  0  0  0
 85158  1  0  0  0
 85159  1  0  0  0
 85160  1  0  0  0
 87161  1  0  0  0
 87162  1  0  0  0
 88163  1  0  0  0
M  ISO  4   1 100  68 101  83 101  88 100
M  END
> <chiral flag>
0

> <version>
0

> <s_m_source_file>
/data/baiqing/PycharmProjects/Reinvent-master-3.2/result/LINK_invent/BTK/process_docking_weight1_custom_product_contain_oxygen_bond_distance_aromatic_linkinvent_7_9_3/rearranged_h_0079.sdf

> <i_m_source_file_index>
19

> <r_mmod_Potential_Energy-OPLS-2005>
613.868225097656

> <r_mmod_Stretch_Energy-OPLS-2005>
208.258834838867

> <r_mmod_Bend_Energy-OPLS-2005>
272.860961914062

> <r_mmod_Torsional_Energy-OPLS-2005>
325.447296142578

> <r_mmod_Improper_Torsional_Energy-OPLS-2005>
10.1430444717407

> <r_mmod_Van_der_Waal_Energy-OPLS-2005>
183.877593994141

> <r_mmod_Electrostatic_Energy-OPLS-2005>
-294.022857666016

> <r_mmod_Solvation_Energy-OPLS-2005>
-234.294815063477

> <b_mmod_Minimization_Converged-OPLS-2005>
0

> <r_mmod_RMS_Derivative-OPLS-2005>
1.66115057468414

$$$$
19
                    3D
 Structure written by MMmdl.
160169  0  0  1  0            999 V2000
  -30.6884  -14.4426   20.5595 C   0  0  0  0  0  0
  -30.4300  -12.2867   19.4052 C   0  0  0  0  0  0
  -29.4878  -12.4928   18.2001 C   0  0  0  0  0  0
  -28.0078  -12.3703   18.6189 C   0  0  0  0  0  0
  -27.6662  -13.1995   19.8861 C   0  0  2  0  0  0
  -28.7127  -12.9415   20.9948 C   0  0  0  0  0  0
  -25.2556  -13.8117   20.5620 C   0  0  0  0  0  0
  -24.1805  -13.0414   20.9100 C   0  0  0  0  0  0
  -24.6383  -11.6879   20.8750 C   0  0  0  0  0  0
  -23.9055  -10.4275   21.0429 C   0  0  0  0  0  0
  -24.3611   -9.4197   21.9206 C   0  0  0  0  0  0
  -23.6294   -8.2237   22.0761 C   0  0  0  0  0  0
  -22.4285   -8.0276   21.3538 C   0  0  0  0  0  0
  -21.9918   -9.0249   20.4643 C   0  0  0  0  0  0
  -22.7239  -10.2128   20.3065 C   0  0  0  0  0  0
  -21.6844   -6.0745   22.5279 C   0  0  0  0  0  0
  -21.4005   -6.5646   23.8214 C   0  0  0  0  0  0
  -21.3653   -5.6793   24.9173 C   0  0  0  0  0  0
  -21.6047   -4.3058   24.7226 C   0  0  0  0  0  0
  -21.8818   -3.8154   23.4346 C   0  0  0  0  0  0
  -21.9190   -4.6975   22.3404 C   0  0  0  0  0  0
  -22.7837  -13.5219   21.1797 C   0  0  0  0  0  0
  -22.1660   -4.2161   21.0984 F   0  0  0  0  0  0
  -21.5636   -3.4534   25.7741 F   0  0  0  0  0  0
  -30.0466  -13.2519   20.4430 N   0  0  0  0  0  0
  -26.3048  -12.9311   20.3465 N   0  0  0  0  0  0
  -25.9330  -11.6465   20.5863 N   0  0  0  0  0  0
  -22.0500  -12.8211   22.0368 N   0  0  0  0  0  0
  -25.4202  -15.1818   20.4007 N   0  0  0  0  0  0
  -31.8116  -14.6568   20.0933 O   0  0  0  0  0  0
  -21.6625   -6.8887   21.4245 O   0  0  0  0  0  0
  -22.3520  -14.5547   20.6676 O   0  0  0  0  0  0
  -24.6137  -31.8692   23.2092 C   0  0  0  0  0  0
  -25.9038  -32.4832   23.8375 C   0  0  1  0  0  0
  -27.2457  -27.4560   20.0961 C   0  0  0  0  0  0
  -25.5896  -33.8613   24.2316 N   0  0  0  0  0  0
  -23.4019  -30.4898   21.5487 C   0  0  2  0  0  0
  -24.8528  -28.9590   20.1118 C   0  0  0  0  0  0
  -22.7430  -29.4619   22.4971 C   0  0  0  0  0  0
  -18.0264  -28.1342   22.8478 C   0  0  0  0  0  0
  -24.1488  -36.7303   23.2638 C   0  0  0  0  0  0
  -25.9282  -30.8431   21.3595 C   0  0  0  0  0  0
  -26.0097  -29.4789   20.7067 C   0  0  0  0  0  0
  -27.2117  -28.7373   20.6935 C   0  0  0  0  0  0
  -26.0779  -26.9502   19.4898 C   0  0  0  0  0  0
  -24.8797  -27.6927   19.4997 C   0  0  0  0  0  0
  -23.6105  -29.8207   20.1623 C   0  0  0  0  0  0
  -25.4107  -36.3104   24.0334 C   0  0  1  0  0  0
  -20.5865  -28.3624   23.1307 C   0  0  2  0  0  0
  -20.6754  -26.9361   22.5400 C   0  0  0  0  0  0
  -19.5746  -26.6368   21.5181 C   0  0  0  0  0  0
  -18.1924  -26.7901   22.1594 C   0  0  0  0  0  0
  -19.1521  -28.8799   23.2896 C   0  0  0  0  0  0
  -18.9455  -30.1408   23.8911 C   0  0  0  0  0  0
  -17.6469  -30.6571   24.0537 C   0  0  0  0  0  0
  -25.9023  -34.9472   23.5122 C   0  0  0  0  0  0
  -16.5354  -29.9074   23.6308 C   0  0  0  0  0  0
  -16.7258  -28.6470   23.0356 C   0  0  0  0  0  0
  -26.4459  -31.6610   25.0702 C   0  0  0  0  0  0
  -25.3739  -31.3735   26.1469 C   0  0  0  0  0  0
  -27.0250  -30.3040   24.6035 C   0  0  0  0  0  0
  -27.6037  -32.4317   25.7484 C   0  0  0  0  0  0
  -27.5575  -37.1815   24.8468 C   0  0  0  0  0  0
  -21.4150  -29.3003   22.3732 N   0  0  0  0  0  0
  -26.4291  -37.3790   23.9416 N   0  0  0  0  0  0
  -24.6658  -31.0805   22.0983 N   0  0  0  0  0  0
  -23.4215  -28.8130   23.2987 O   0  0  0  0  0  0
  -28.3921  -26.6940   20.0634 O   0  0  0  0  0  0
  -26.5594  -34.8923   22.4694 O   0  0  0  0  0  0
  -23.5335  -32.1407   23.7525 O   0  0  0  0  0  0
  -30.8588  -18.9783   20.3126 C   0  0  0  0  0  0
  -31.0135  -17.5839   20.4920 C   0  0  0  0  0  0
  -28.4983  -18.7909   20.8669 C   0  0  0  0  0  0
  -29.6071  -19.5990   20.5298 C   0  0  0  0  0  0
  -29.9034  -16.7901   20.8634 C   0  0  0  0  0  0
  -28.6502  -17.4030   21.0325 C   0  0  0  0  0  0
  -29.2574  -23.0085   21.8671 C   0  0  0  0  0  0
  -29.9430  -23.2870   19.5418 C   0  0  0  0  0  0
  -29.3167  -23.3871   23.1588 C   0  0  0  0  0  0
  -28.8465  -26.1290   21.2128 C   0  0  0  0  0  0
  -28.6687  -21.6539   21.5026 C   0  0  0  0  0  0
  -29.7605  -21.7684   19.2881 C   0  0  0  0  0  0
  -30.0769  -25.2308   21.0232 C   0  0  0  0  0  0
  -29.4868  -21.0015   20.5004 N   0  0  0  0  0  0
  -29.7253  -23.8106   20.7845 N   0  0  0  0  0  0
  -29.9457  -15.3960   21.1351 N   0  0  0  0  0  0
  -30.3156  -23.9765   18.5872 O   0  0  0  0  0  0
  -28.3583  -26.3066   22.3333 O   0  0  0  0  0  0
  -27.5855  -16.6417   21.3773 F   0  0  0  0  0  0
  -31.4695  -12.4031   19.0930 H   0  0  0  0  0  0
  -30.3503  -11.2706   19.7937 H   0  0  0  0  0  0
  -29.7117  -11.7629   17.4215 H   0  0  0  0  0  0
  -29.6597  -13.4757   17.7596 H   0  0  0  0  0  0
  -27.8006  -11.3154   18.8020 H   0  0  0  0  0  0
  -27.3572  -12.6652   17.7942 H   0  0  0  0  0  0
  -27.7185  -14.2510   19.6052 H   0  0  0  0  0  0
  -28.6858  -11.8945   21.3025 H   0  0  0  0  0  0
  -28.4788  -13.5072   21.8975 H   0  0  0  0  0  0
  -25.2767   -9.5671   22.4764 H   0  0  0  0  0  0
  -23.9997   -7.4631   22.7483 H   0  0  0  0  0  0
  -21.0850   -8.8774   19.8946 H   0  0  0  0  0  0
  -22.3717  -10.9672   19.6156 H   0  0  0  0  0  0
  -21.1981   -7.6148   23.9720 H   0  0  0  0  0  0
  -21.1478   -6.0522   25.9076 H   0  0  0  0  0  0
  -22.0604   -2.7615   23.2839 H   0  0  0  0  0  0
  -22.4108  -11.9838   22.4701 H   0  0  0  0  0  0
  -21.1135  -13.1246   22.2632 H   0  0  0  0  0  0
  -24.6632  -15.8346   20.5636 H   0  0  0  0  0  0
  -26.3238  -15.6387   20.3423 H   0  0  0  0  0  0
  -26.7138  -32.5543   23.1164 H   0  0  0  0  0  0
  -25.0093  -33.9774   25.0488 H   0  0  0  0  0  0
  -22.6900  -31.3050   21.4090 H   0  0  0  0  0  0
  -23.3757  -35.9633   23.3303 H   0  0  0  0  0  0
  -24.3591  -36.8903   22.2057 H   0  0  0  0  0  0
  -23.7235  -37.6497   23.6647 H   0  0  0  0  0  0
  -26.0364  -31.6116   20.5929 H   0  0  0  0  0  0
  -26.8192  -30.8993   21.9719 H   0  0  0  0  0  0
  -28.1079  -29.1379   21.1452 H   0  0  0  0  0  0
  -26.0944  -25.9765   19.0183 H   0  0  0  0  0  0
  -23.9921  -27.2910   19.0312 H   0  0  0  0  0  0
  -23.7161  -30.5951   19.4028 H   0  0  0  0  0  0
  -22.7370  -29.2363   19.8673 H   0  0  0  0  0  0
  -25.1286  -36.1964   25.0827 H   0  0  0  0  0  0
  -20.9958  -28.3187   24.1428 H   0  0  0  0  0  0
  -20.5642  -26.2238   23.3588 H   0  0  0  0  0  0
  -21.6630  -26.7399   22.1216 H   0  0  0  0  0  0
  -19.6936  -25.6287   21.1204 H   0  0  0  0  0  0
  -19.6706  -27.3178   20.6717 H   0  0  0  0  0  0
  -17.4197  -26.6624   21.4003 H   0  0  0  0  0  0
  -18.0329  -26.0029   22.8967 H   0  0  0  0  0  0
  -19.7928  -30.7184   24.2335 H   0  0  0  0  0  0
  -17.5020  -31.6273   24.5114 H   0  0  0  0  0  0
  -15.5350  -30.2992   23.7634 H   0  0  0  0  0  0
  -15.8634  -28.0800   22.7108 H   0  0  0  0  0  0
  -24.5875  -30.7115   25.7816 H   0  0  0  0  0  0
  -24.8991  -32.2918   26.4928 H   0  0  0  0  0  0
  -25.8089  -30.8885   27.0219 H   0  0  0  0  0  0
  -26.2750  -29.6869   24.1076 H   0  0  0  0  0  0
  -27.4003  -29.7187   25.4444 H   0  0  0  0  0  0
  -27.8599  -30.4322   23.9145 H   0  0  0  0  0  0
  -27.2636  -33.3640   26.2011 H   0  0  0  0  0  0
  -28.3889  -32.6860   25.0344 H   0  0  0  0  0  0
  -28.0651  -31.8477   26.5457 H   0  0  0  0  0  0
  -28.2602  -38.0107   24.7507 H   0  0  0  0  0  0
  -28.1063  -36.2639   24.6304 H   0  0  0  0  0  0
  -27.2299  -37.1468   25.8872 H   0  0  0  0  0  0
  -20.9321  -29.8733   21.6953 H   0  0  0  0  0  0
  -26.0179  -38.2859   24.1435 H   0  0  0  0  0  0
  -31.7263  -19.5755   20.0666 H   0  0  0  0  0  0
  -31.9926  -17.1437   20.3761 H   0  0  0  0  0  0
  -27.5218  -19.2206   21.0255 H   0  0  0  0  0  0
  -28.9514  -22.7294   23.9351 H   0  0  0  0  0  0
  -29.7280  -24.3262   23.4927 H   0  0  0  0  0  0
  -27.6492  -21.7880   21.1346 H   0  0  0  0  0  0
  -28.5987  -21.0351   22.3982 H   0  0  0  0  0  0
  -30.6419  -21.3803   18.7737 H   0  0  0  0  0  0
  -28.9193  -21.6533   18.6030 H   0  0  0  0  0  0
  -30.7137  -25.3102   21.9032 H   0  0  0  0  0  0
  -30.6767  -25.6459   20.2127 H   0  0  0  0  0  0
  -29.0769  -15.0394   21.5068 H   0  0  0  0  0  0
  1 25  1  0  0  0
  1 30  2  0  0  0
  1 86  1  0  0  0
  2  3  1  0  0  0
  2 25  1  0  0  0
  2 90  1  0  0  0
  2 91  1  0  0  0
  3  4  1  0  0  0
  3 92  1  0  0  0
  3 93  1  0  0  0
  4  5  1  0  0  0
  4 94  1  0  0  0
  4 95  1  0  0  0
  5  6  1  0  0  0
  5 26  1  0  0  0
  5 96  1  0  0  0
  6 25  1  0  0  0
  6 97  1  0  0  0
  6 98  1  0  0  0
  7  8  2  0  0  0
  7 26  1  0  0  0
  7 29  1  0  0  0
  8  9  1  0  0  0
  8 22  1  0  0  0
  9 10  1  0  0  0
  9 27  2  0  0  0
 10 11  2  0  0  0
 10 15  1  0  0  0
 11 12  1  0  0  0
 11 99  1  0  0  0
 12 13  2  0  0  0
 12100  1  0  0  0
 13 14  1  0  0  0
 13 31  1  0  0  0
 14 15  2  0  0  0
 14101  1  0  0  0
 15102  1  0  0  0
 16 17  2  0  0  0
 16 21  1  0  0  0
 16 31  1  0  0  0
 17 18  1  0  0  0
 17103  1  0  0  0
 18 19  2  0  0  0
 18104  1  0  0  0
 19 20  1  0  0  0
 19 24  1  0  0  0
 20 21  2  0  0  0
 20105  1  0  0  0
 21 23  1  0  0  0
 22 28  1  0  0  0
 22 32  2  0  0  0
 26 27  1  0  0  0
 28106  1  0  0  0
 28107  1  0  0  0
 29108  1  0  0  0
 29109  1  0  0  0
 33 34  1  0  0  0
 33 66  1  0  0  0
 33 70  2  0  0  0
 34 36  1  0  0  0
 34 59  1  0  0  0
 34110  1  0  0  0
 35 44  2  0  0  0
 35 45  1  0  0  0
 35 68  1  0  0  0
 36 56  1  0  0  0
 36111  1  0  0  0
 37 39  1  0  0  0
 37 47  1  0  0  0
 37 66  1  0  0  0
 37112  1  0  0  0
 38 43  2  0  0  0
 38 46  1  0  0  0
 38 47  1  0  0  0
 39 64  1  0  0  0
 39 67  2  0  0  0
 40 52  1  0  0  0
 40 53  2  0  0  0
 40 58  1  0  0  0
 41113  1  0  0  0
 41114  1  0  0  0
 41115  1  0  0  0
 41 48  1  0  0  0
 42 43  1  0  0  0
 42 66  1  0  0  0
 42116  1  0  0  0
 42117  1  0  0  0
 43 44  1  0  0  0
 44118  1  0  0  0
 45 46  2  0  0  0
 45119  1  0  0  0
 46120  1  0  0  0
 47121  1  0  0  0
 47122  1  0  0  0
 48 56  1  0  0  0
 48 65  1  0  0  0
 48123  1  0  0  0
 49 50  1  0  0  0
 49 53  1  0  0  0
 49 64  1  0  0  0
 49124  1  0  0  0
 50 51  1  0  0  0
 50125  1  0  0  0
 50126  1  0  0  0
 51 52  1  0  0  0
 51127  1  0  0  0
 51128  1  0  0  0
 52129  1  0  0  0
 52130  1  0  0  0
 53 54  1  0  0  0
 54 55  2  0  0  0
 54131  1  0  0  0
 55 57  1  0  0  0
 55132  1  0  0  0
 56 69  2  0  0  0
 57 58  2  0  0  0
 57133  1  0  0  0
 58134  1  0  0  0
 59 60  1  0  0  0
 59 61  1  0  0  0
 59 62  1  0  0  0
 60135  1  0  0  0
 60136  1  0  0  0
 60137  1  0  0  0
 61138  1  0  0  0
 61139  1  0  0  0
 61140  1  0  0  0
 62141  1  0  0  0
 62142  1  0  0  0
 62143  1  0  0  0
 63 65  1  0  0  0
 63144  1  0  0  0
 63145  1  0  0  0
 63146  1  0  0  0
 64147  1  0  0  0
 65148  1  0  0  0
 68 80  1  0  0  0
 71 72  2  0  0  0
 71 74  1  0  0  0
 71149  1  0  0  0
 72 75  1  0  0  0
 72150  1  0  0  0
 73 74  2  0  0  0
 73 76  1  0  0  0
 73151  1  0  0  0
 74 84  1  0  0  0
 75 76  2  0  0  0
 75 86  1  0  0  0
 76 89  1  0  0  0
 77 79  2  0  0  0
 77 81  1  0  0  0
 77 85  1  0  0  0
 78 82  1  0  0  0
 78 85  1  0  0  0
 78 87  2  0  0  0
 79152  1  0  0  0
 79153  1  0  0  0
 80 83  1  0  0  0
 80 88  2  0  0  0
 81 84  1  0  0  0
 81154  1  0  0  0
 81155  1  0  0  0
 82 84  1  0  0  0
 82156  1  0  0  0
 82157  1  0  0  0
 83 85  1  0  0  0
 83158  1  0  0  0
 83159  1  0  0  0
 86160  1  0  0  0
M  ISO  4   1 100  68 101  80 101  86 100
M  END
> <chiral flag>
0

> <version>
0

> <s_m_source_file>
/data/baiqing/PycharmProjects/Reinvent-master-3.2/result/LINK_invent/BTK/process_docking_weight1_custom_product_contain_oxygen_bond_distance_aromatic_linkinvent_7_9_3/rearranged_h_0079.sdf

> <i_m_source_file_index>
20

> <r_mmod_Potential_Energy-OPLS-2005>
-82.8439178466797

> <r_mmod_Stretch_Energy-OPLS-2005>
41.3144340515137

> <r_mmod_Bend_Energy-OPLS-2005>
115.09635925293

> <r_mmod_Torsional_Energy-OPLS-2005>
229.805435180664

> <r_mmod_Improper_Torsional_Energy-OPLS-2005>
6.51855802536011

> <r_mmod_Van_der_Waal_Energy-OPLS-2005>
178.669311523438

> <r_mmod_Electrostatic_Energy-OPLS-2005>
-441.799102783203

> <r_mmod_Solvation_Energy-OPLS-2005>
-222.275039672852

> <b_mmod_Minimization_Converged-OPLS-2005>
0

> <r_mmod_RMS_Derivative-OPLS-2005>
3.07953596115112

$$$$
20
                    3D
 Structure written by MMmdl.
158167  0  0  1  0            999 V2000
  -30.5423  -14.8717   20.4467 C   0  0  0  0  0  0
  -30.4449  -12.5436   19.4641 C   0  0  0  0  0  0
  -29.5176  -12.5148   18.2299 C   0  0  0  0  0  0
  -28.0445  -12.3204   18.6473 C   0  0  0  0  0  0
  -27.6309  -13.2352   19.8320 C   0  0  2  0  0  0
  -28.6786  -13.2208   20.9605 C   0  0  0  0  0  0
  -25.2484  -13.8179   20.5719 C   0  0  0  0  0  0
  -24.1790  -13.0417   20.9228 C   0  0  0  0  0  0
  -24.6399  -11.6903   20.8733 C   0  0  0  0  0  0
  -23.9084  -10.4281   21.0403 C   0  0  0  0  0  0
  -24.3626   -9.4199   21.9192 C   0  0  0  0  0  0
  -23.6296   -8.2233   22.0760 C   0  0  0  0  0  0
  -22.4272   -8.0280   21.3554 C   0  0  0  0  0  0
  -21.9924   -9.0258   20.4650 C   0  0  0  0  0  0
  -22.7256  -10.2136   20.3057 C   0  0  0  0  0  0
  -21.6850   -6.0740   22.5294 C   0  0  0  0  0  0
  -21.4008   -6.5642   23.8225 C   0  0  0  0  0  0
  -21.3656   -5.6792   24.9186 C   0  0  0  0  0  0
  -21.6046   -4.3057   24.7233 C   0  0  0  0  0  0
  -21.8809   -3.8153   23.4349 C   0  0  0  0  0  0
  -21.9189   -4.6972   22.3407 C   0  0  0  0  0  0
  -22.7808  -13.5193   21.1876 C   0  0  0  0  0  0
  -22.1658   -4.2157   21.0984 F   0  0  0  0  0  0
  -21.5632   -3.4536   25.7743 F   0  0  0  0  0  0
  -29.9522  -13.6224   20.3567 N   0  0  0  0  0  0
  -26.2898  -12.9396   20.3226 N   0  0  0  0  0  0
  -25.9334  -11.6545   20.5754 N   0  0  0  0  0  0
  -22.0449  -12.8195   22.0429 N   0  0  0  0  0  0
  -25.4101  -15.1919   20.4133 N   0  0  0  0  0  0
  -31.7581  -14.9603   20.2593 O   0  0  0  0  0  0
  -21.6626   -6.8888   21.4257 O   0  0  0  0  0  0
  -22.3484  -14.5487   20.6711 O   0  0  0  0  0  0
  -24.6388  -31.8510   23.1936 C   0  0  0  0  0  0
  -25.9195  -32.4730   23.8307 C   0  0  1  0  0  0
  -27.2177  -27.1985   20.1216 C   0  0  0  0  0  0
  -25.5961  -33.8525   24.2236 N   0  0  0  0  0  0
  -23.4379  -30.4755   21.5370 C   0  0  2  0  0  0
  -24.8868  -28.9164   20.1061 C   0  0  0  0  0  0
  -22.7555  -29.4577   22.4851 C   0  0  0  0  0  0
  -18.0300  -28.1359   22.8488 C   0  0  0  0  0  0
  -24.1492  -36.7253   23.2641 C   0  0  0  0  0  0
  -25.9929  -30.7448   21.3836 C   0  0  0  0  0  0
  -26.0645  -29.3625   20.7208 C   0  0  0  0  0  0
  -27.2293  -28.5146   20.7217 C   0  0  0  0  0  0
  -26.0072  -26.8391   19.4830 C   0  0  0  0  0  0
  -24.8664  -27.6638   19.4800 C   0  0  0  0  0  0
  -23.6602  -29.8110   20.1533 C   0  0  0  0  0  0
  -25.4124  -36.3036   24.0323 C   0  0  1  0  0  0
  -20.5913  -28.3702   23.1204 C   0  0  2  0  0  0
  -20.6818  -26.9400   22.5415 C   0  0  0  0  0  0
  -19.5774  -26.6310   21.5234 C   0  0  0  0  0  0
  -18.1969  -26.7869   22.1671 C   0  0  0  0  0  0
  -19.1561  -28.8852   23.2822 C   0  0  0  0  0  0
  -18.9465  -30.1457   23.8833 C   0  0  0  0  0  0
  -17.6470  -30.6591   24.0502 C   0  0  0  0  0  0
  -25.9069  -34.9417   23.5075 C   0  0  0  0  0  0
  -16.5355  -29.9068   23.6321 C   0  0  0  0  0  0
  -16.7276  -28.6468   23.0372 C   0  0  0  0  0  0
  -26.4519  -31.6564   25.0723 C   0  0  0  0  0  0
  -25.3714  -31.3718   26.1422 C   0  0  0  0  0  0
  -27.0384  -30.2972   24.6258 C   0  0  0  0  0  0
  -27.6051  -32.4320   25.7502 C   0  0  0  0  0  0
  -27.5576  -37.1788   24.8469 C   0  0  0  0  0  0
  -21.4261  -29.3043   22.3609 N   0  0  0  0  0  0
  -26.4286  -37.3748   23.9411 N   0  0  0  0  0  0
  -24.7094  -31.0437   22.0921 N   0  0  0  0  0  0
  -23.4237  -28.8134   23.2985 O   0  0  0  0  0  0
  -28.2601  -26.2182   20.2188 O   0  0  0  0  0  0
  -26.5647  -34.8887   22.4650 O   0  0  0  0  0  0
  -23.5526  -32.1330   23.7222 O   0  0  0  0  0  0
  -29.7032  -20.0211   22.1882 C   0  0  0  0  0  0
  -30.1440  -17.5931   22.2417 C   0  0  0  0  0  0
  -29.4337  -18.6810   20.1896 C   0  0  0  0  0  0
  -30.0384  -18.8390   22.8978 C   0  0  0  0  0  0
  -29.3909  -20.0248   20.8068 C   0  0  0  0  0  0
  -29.8286  -17.4346   20.8787 C   0  0  0  0  0  0
  -28.4888  -23.6402   19.5004 C   0  0  0  0  0  0
  -28.3391  -22.7488   18.3597 C   0  0  0  0  0  0
  -28.9139  -22.6809   20.5895 C   0  0  0  0  0  0
  -27.8373  -23.0685   17.1505 C   0  0  0  0  0  0
  -28.2385  -25.0328   19.4009 C   0  0  0  0  0  0
  -30.2836  -18.9041   24.3764 C   0  0  0  0  0  0
  -28.7415  -21.3304   18.6929 C   0  0  0  0  0  0
  -29.0245  -21.3423   20.1243 N   0  0  0  0  0  0
  -29.4329  -19.6443   25.0784 N   0  0  0  0  0  0
  -29.7169  -16.0146   20.3793 N   0  0  0  0  0  0
  -29.1331  -23.0274   21.7539 O   0  0  0  0  0  0
  -31.1823  -18.2563   24.9121 O   0  0  0  0  0  0
  -31.4760  -12.7111   19.1457 H   0  0  0  0  0  0
  -30.4339  -11.5829   19.9809 H   0  0  0  0  0  0
  -29.8239  -11.7226   17.5449 H   0  0  0  0  0  0
  -29.6204  -13.4528   17.6841 H   0  0  0  0  0  0
  -27.9185  -11.2749   18.9322 H   0  0  0  0  0  0
  -27.3842  -12.4879   17.7941 H   0  0  0  0  0  0
  -27.6065  -14.2463   19.4271 H   0  0  0  0  0  0
  -28.7562  -12.2317   21.4115 H   0  0  0  0  0  0
  -28.3987  -13.9056   21.7608 H   0  0  0  0  0  0
  -25.2773   -9.5663   22.4775 H   0  0  0  0  0  0
  -24.0000   -7.4604   22.7471 H   0  0  0  0  0  0
  -21.0863   -8.8786   19.8938 H   0  0  0  0  0  0
  -22.3729  -10.9683   19.6161 H   0  0  0  0  0  0
  -21.1987   -7.6145   23.9740 H   0  0  0  0  0  0
  -21.1497   -6.0515   25.9095 H   0  0  0  0  0  0
  -22.0588   -2.7615   23.2849 H   0  0  0  0  0  0
  -22.4064  -11.9866   22.4829 H   0  0  0  0  0  0
  -21.1072  -13.1241   22.2624 H   0  0  0  0  0  0
  -24.6318  -15.8343   20.5232 H   0  0  0  0  0  0
  -26.2470  -15.6479   20.0763 H   0  0  0  0  0  0
  -26.7276  -32.5374   23.1053 H   0  0  0  0  0  0
  -25.0098  -33.9648   25.0377 H   0  0  0  0  0  0
  -22.7367  -31.3006   21.3894 H   0  0  0  0  0  0
  -23.3751  -35.9578   23.3289 H   0  0  0  0  0  0
  -24.3571  -36.8894   22.2051 H   0  0  0  0  0  0
  -23.7258  -37.6456   23.6679 H   0  0  0  0  0  0
  -26.1517  -31.5064   20.6180 H   0  0  0  0  0  0
  -26.8634  -30.7870   22.0276 H   0  0  0  0  0  0
  -28.1260  -28.8414   21.2280 H   0  0  0  0  0  0
  -25.8910  -25.8738   19.0148 H   0  0  0  0  0  0
  -23.9611  -27.3122   19.0058 H   0  0  0  0  0  0
  -23.7905  -30.5859   19.3951 H   0  0  0  0  0  0
  -22.7765  -29.2473   19.8479 H   0  0  0  0  0  0
  -25.1315  -36.1845   25.0814 H   0  0  0  0  0  0
  -20.9992  -28.3310   24.1330 H   0  0  0  0  0  0
  -20.5752  -26.2341   23.3669 H   0  0  0  0  0  0
  -21.6714  -26.7398   22.1268 H   0  0  0  0  0  0
  -19.6932  -25.6173   21.1362 H   0  0  0  0  0  0
  -19.6706  -27.3041   20.6699 H   0  0  0  0  0  0
  -17.4186  -26.6562   21.4129 H   0  0  0  0  0  0
  -18.0440  -26.0054   22.9136 H   0  0  0  0  0  0
  -19.7941  -30.7296   24.2171 H   0  0  0  0  0  0
  -17.5021  -31.6324   24.4990 H   0  0  0  0  0  0
  -15.5362  -30.2986   23.7630 H   0  0  0  0  0  0
  -15.8667  -28.0782   22.7105 H   0  0  0  0  0  0
  -24.5905  -30.7056   25.7731 H   0  0  0  0  0  0
  -24.8882  -32.2885   26.4802 H   0  0  0  0  0  0
  -25.8009  -30.8914   27.0225 H   0  0  0  0  0  0
  -26.3001  -29.6695   24.1250 H   0  0  0  0  0  0
  -27.4016  -29.7259   25.4810 H   0  0  0  0  0  0
  -27.8898  -30.4215   23.9566 H   0  0  0  0  0  0
  -27.2649  -33.3638   26.2021 H   0  0  0  0  0  0
  -28.3886  -32.6853   25.0353 H   0  0  0  0  0  0
  -28.0688  -31.8485   26.5461 H   0  0  0  0  0  0
  -28.2596  -38.0088   24.7515 H   0  0  0  0  0  0
  -28.1080  -36.2615   24.6300 H   0  0  0  0  0  0
  -27.2287  -37.1444   25.8874 H   0  0  0  0  0  0
  -20.9433  -29.8798   21.6842 H   0  0  0  0  0  0
  -26.0146  -38.2814   24.1406 H   0  0  0  0  0  0
  -29.6883  -20.9345   22.7603 H   0  0  0  0  0  0
  -30.3962  -16.7214   22.8279 H   0  0  0  0  0  0
  -29.1386  -18.5976   19.1548 H   0  0  0  0  0  0
  -27.4907  -24.0540   16.8805 H   0  0  0  0  0  0
  -27.7489  -22.3075   16.3859 H   0  0  0  0  0  0
  -27.9773  -25.3795   18.4149 H   0  0  0  0  0  0
  -29.6322  -21.0434   18.1304 H   0  0  0  0  0  0
  -27.9343  -20.6341   18.4595 H   0  0  0  0  0  0
  -29.5228  -19.7118   26.0822 H   0  0  0  0  0  0
  -28.6661  -20.1118   24.6169 H   0  0  0  0  0  0
  -28.7773  -15.7789   20.1024 H   0  0  0  0  0  0
  1 25  1  0  0  0
  1 30  2  0  0  0
  1 86  1  0  0  0
  2  3  1  0  0  0
  2 25  1  0  0  0
  2 89  1  0  0  0
  2 90  1  0  0  0
  3  4  1  0  0  0
  3 91  1  0  0  0
  3 92  1  0  0  0
  4  5  1  0  0  0
  4 93  1  0  0  0
  4 94  1  0  0  0
  5  6  1  0  0  0
  5 26  1  0  0  0
  5 95  1  0  0  0
  6 25  1  0  0  0
  6 96  1  0  0  0
  6 97  1  0  0  0
  7  8  2  0  0  0
  7 26  1  0  0  0
  7 29  1  0  0  0
  8  9  1  0  0  0
  8 22  1  0  0  0
  9 10  1  0  0  0
  9 27  2  0  0  0
 10 11  2  0  0  0
 10 15  1  0  0  0
 11 12  1  0  0  0
 11 98  1  0  0  0
 12 13  2  0  0  0
 12 99  1  0  0  0
 13 14  1  0  0  0
 13 31  1  0  0  0
 14 15  2  0  0  0
 14100  1  0  0  0
 15101  1  0  0  0
 16 17  2  0  0  0
 16 21  1  0  0  0
 16 31  1  0  0  0
 17 18  1  0  0  0
 17102  1  0  0  0
 18 19  2  0  0  0
 18103  1  0  0  0
 19 20  1  0  0  0
 19 24  1  0  0  0
 20 21  2  0  0  0
 20104  1  0  0  0
 21 23  1  0  0  0
 22 28  1  0  0  0
 22 32  2  0  0  0
 26 27  1  0  0  0
 28105  1  0  0  0
 28106  1  0  0  0
 29107  1  0  0  0
 29108  1  0  0  0
 33 34  1  0  0  0
 33 66  1  0  0  0
 33 70  2  0  0  0
 34 36  1  0  0  0
 34 59  1  0  0  0
 34109  1  0  0  0
 35 44  2  0  0  0
 35 45  1  0  0  0
 35 68  1  0  0  0
 36 56  1  0  0  0
 36110  1  0  0  0
 37 39  1  0  0  0
 37 47  1  0  0  0
 37 66  1  0  0  0
 37111  1  0  0  0
 38 43  2  0  0  0
 38 46  1  0  0  0
 38 47  1  0  0  0
 39 64  1  0  0  0
 39 67  2  0  0  0
 40 52  1  0  0  0
 40 53  2  0  0  0
 40 58  1  0  0  0
 41112  1  0  0  0
 41113  1  0  0  0
 41114  1  0  0  0
 41 48  1  0  0  0
 42 43  1  0  0  0
 42 66  1  0  0  0
 42115  1  0  0  0
 42116  1  0  0  0
 43 44  1  0  0  0
 44117  1  0  0  0
 45 46  2  0  0  0
 45118  1  0  0  0
 46119  1  0  0  0
 47120  1  0  0  0
 47121  1  0  0  0
 48 56  1  0  0  0
 48 65  1  0  0  0
 48122  1  0  0  0
 49 50  1  0  0  0
 49 53  1  0  0  0
 49 64  1  0  0  0
 49123  1  0  0  0
 50 51  1  0  0  0
 50124  1  0  0  0
 50125  1  0  0  0
 51 52  1  0  0  0
 51126  1  0  0  0
 51127  1  0  0  0
 52128  1  0  0  0
 52129  1  0  0  0
 53 54  1  0  0  0
 54 55  2  0  0  0
 54130  1  0  0  0
 55 57  1  0  0  0
 55131  1  0  0  0
 56 69  2  0  0  0
 57 58  2  0  0  0
 57132  1  0  0  0
 58133  1  0  0  0
 59 60  1  0  0  0
 59 61  1  0  0  0
 59 62  1  0  0  0
 60134  1  0  0  0
 60135  1  0  0  0
 60136  1  0  0  0
 61137  1  0  0  0
 61138  1  0  0  0
 61139  1  0  0  0
 62140  1  0  0  0
 62141  1  0  0  0
 62142  1  0  0  0
 63 65  1  0  0  0
 63143  1  0  0  0
 63144  1  0  0  0
 63145  1  0  0  0
 64146  1  0  0  0
 65147  1  0  0  0
 68 81  1  0  0  0
 71 74  2  0  0  0
 71 75  1  0  0  0
 71148  1  0  0  0
 72 74  1  0  0  0
 72 76  2  0  0  0
 72149  1  0  0  0
 73 75  2  0  0  0
 73 76  1  0  0  0
 73150  1  0  0  0
 74 82  1  0  0  0
 75 84  1  0  0  0
 76 86  1  0  0  0
 77 78  1  0  0  0
 77 79  1  0  0  0
 77 81  2  0  0  0
 78 80  2  0  0  0
 78 83  1  0  0  0
 79 84  1  0  0  0
 79 87  2  0  0  0
 80151  1  0  0  0
 80152  1  0  0  0
 81153  1  0  0  0
 82 85  1  0  0  0
 82 88  2  0  0  0
 83 84  1  0  0  0
 83154  1  0  0  0
 83155  1  0  0  0
 85156  1  0  0  0
 85157  1  0  0  0
 86158  1  0  0  0
M  ISO  4   1 100  68 101  81 101  86 100
M  END
> <chiral flag>
0

> <version>
0

> <s_m_source_file>
/data/baiqing/PycharmProjects/Reinvent-master-3.2/result/LINK_invent/BTK/process_docking_weight1_custom_product_contain_oxygen_bond_distance_aromatic_linkinvent_7_9_3/rearranged_h_0079.sdf

> <i_m_source_file_index>
21

> <r_mmod_Potential_Energy-OPLS-2005>
351.237823486328

> <r_mmod_Stretch_Energy-OPLS-2005>
181.064346313477

> <r_mmod_Bend_Energy-OPLS-2005>
281.168121337891

> <r_mmod_Torsional_Energy-OPLS-2005>
298.049011230469

> <r_mmod_Improper_Torsional_Energy-OPLS-2005>
12.1700630187988

> <r_mmod_Van_der_Waal_Energy-OPLS-2005>
142.170547485352

> <r_mmod_Electrostatic_Energy-OPLS-2005>
-451.06298828125

> <r_mmod_Solvation_Energy-OPLS-2005>
-263.209594726562

> <b_mmod_Minimization_Converged-OPLS-2005>
0

> <r_mmod_RMS_Derivative-OPLS-2005>
3.70055961608887

$$$$
21
                    3D
 Structure written by MMmdl.
160168  0  0  1  0            999 V2000
  -30.6499  -14.5833   20.4797 C   0  0  0  0  0  0
  -30.4220  -12.3465   19.4586 C   0  0  0  0  0  0
  -29.5063  -12.4958   18.2247 C   0  0  0  0  0  0
  -28.0275  -12.3488   18.6268 C   0  0  0  0  0  0
  -27.6527  -13.2146   19.8604 C   0  0  2  0  0  0
  -28.6921  -13.0661   20.9931 C   0  0  0  0  0  0
  -25.2568  -13.8162   20.5652 C   0  0  0  0  0  0
  -24.1838  -13.0428   20.9144 C   0  0  0  0  0  0
  -24.6400  -11.6897   20.8710 C   0  0  0  0  0  0
  -23.9063  -10.4298   21.0404 C   0  0  0  0  0  0
  -24.3626   -9.4216   21.9178 C   0  0  0  0  0  0
  -23.6291   -8.2269   22.0755 C   0  0  0  0  0  0
  -22.4271   -8.0314   21.3546 C   0  0  0  0  0  0
  -21.9902   -9.0286   20.4643 C   0  0  0  0  0  0
  -22.7237  -10.2159   20.3056 C   0  0  0  0  0  0
  -21.6864   -6.0738   22.5274 C   0  0  0  0  0  0
  -21.4027   -6.5631   23.8212 C   0  0  0  0  0  0
  -21.3668   -5.6773   24.9166 C   0  0  0  0  0  0
  -21.6055   -4.3045   24.7210 C   0  0  0  0  0  0
  -21.8827   -3.8139   23.4324 C   0  0  0  0  0  0
  -21.9196   -4.6960   22.3382 C   0  0  0  0  0  0
  -22.7872  -13.5241   21.1797 C   0  0  0  0  0  0
  -22.1662   -4.2151   21.0955 F   0  0  0  0  0  0
  -21.5620   -3.4519   25.7710 F   0  0  0  0  0  0
  -30.0169  -13.3736   20.4369 N   0  0  0  0  0  0
  -26.2985  -12.9330   20.3287 N   0  0  0  0  0  0
  -25.9322  -11.6483   20.5722 N   0  0  0  0  0  0
  -22.0513  -12.8269   22.0372 N   0  0  0  0  0  0
  -25.4314  -15.1890   20.4135 N   0  0  0  0  0  0
  -31.8167  -14.7170   20.0958 O   0  0  0  0  0  0
  -21.6649   -6.8902   21.4246 O   0  0  0  0  0  0
  -22.3559  -14.5548   20.6638 O   0  0  0  0  0  0
  -24.6200  -31.8629   23.2064 C   0  0  0  0  0  0
  -25.9069  -32.4792   23.8370 C   0  0  1  0  0  0
  -27.2313  -27.3734   20.1113 C   0  0  0  0  0  0
  -25.5895  -33.8586   24.2320 N   0  0  0  0  0  0
  -23.4120  -30.4862   21.5472 C   0  0  2  0  0  0
  -24.8607  -28.9486   20.1100 C   0  0  0  0  0  0
  -22.7458  -29.4612   22.4949 C   0  0  0  0  0  0
  -18.0279  -28.1396   22.8469 C   0  0  0  0  0  0
  -24.1464  -36.7296   23.2635 C   0  0  0  0  0  0
  -25.9470  -30.8117   21.3697 C   0  0  0  0  0  0
  -26.0248  -29.4415   20.7155 C   0  0  0  0  0  0
  -27.2109  -28.6606   20.7164 C   0  0  0  0  0  0
  -26.0474  -26.9129   19.4921 C   0  0  0  0  0  0
  -24.8715  -27.6864   19.4919 C   0  0  0  0  0  0
  -23.6272  -29.8245   20.1598 C   0  0  0  0  0  0
  -25.4084  -36.3098   24.0340 C   0  0  1  0  0  0
  -20.5869  -28.3677   23.1302 C   0  0  2  0  0  0
  -20.6757  -26.9395   22.5433 C   0  0  0  0  0  0
  -19.5739  -26.6379   21.5222 C   0  0  0  0  0  0
  -18.1920  -26.7935   22.1620 C   0  0  0  0  0  0
  -19.1529  -28.8856   23.2875 C   0  0  0  0  0  0
  -18.9459  -30.1456   23.8896 C   0  0  0  0  0  0
  -17.6457  -30.6575   24.0584 C   0  0  0  0  0  0
  -25.9026  -34.9463   23.5145 C   0  0  0  0  0  0
  -16.5356  -29.9084   23.6322 C   0  0  0  0  0  0
  -16.7274  -28.6521   23.0323 C   0  0  0  0  0  0
  -26.4489  -31.6574   25.0705 C   0  0  0  0  0  0
  -25.3771  -31.3737   26.1482 C   0  0  0  0  0  0
  -27.0321  -30.2999   24.6121 C   0  0  0  0  0  0
  -27.6047  -32.4320   25.7468 C   0  0  0  0  0  0
  -27.5579  -37.1791   24.8463 C   0  0  0  0  0  0
  -21.4179  -29.3023   22.3706 N   0  0  0  0  0  0
  -26.4277  -37.3780   23.9424 N   0  0  0  0  0  0
  -24.6778  -31.0680   22.0992 N   0  0  0  0  0  0
  -23.4198  -28.8164   23.3020 O   0  0  0  0  0  0
  -28.3392  -26.5371   20.2084 O   0  0  0  0  0  0
  -26.5605  -34.8912   22.4711 O   0  0  0  0  0  0
  -23.5371  -32.1414   23.7416 O   0  0  0  0  0  0
  -30.1373  -16.9351   18.6669 C   0  0  0  0  0  0
  -29.9893  -18.1009   17.9026 C   0  0  0  0  0  0
  -29.4422  -18.1770   20.6372 C   0  0  0  0  0  0
  -29.3165  -19.3997   19.8858 C   0  0  0  0  0  0
  -29.8487  -16.9317   20.0495 C   0  0  0  0  0  0
  -29.5575  -19.3124   18.4760 C   0  0  0  0  0  0
  -28.6335  -25.6714   19.1716 C   0  0  0  0  0  0
  -28.8842  -20.7081   20.5863 C   0  0  0  0  0  0
  -28.8513  -24.3185   19.1785 C   0  0  0  0  0  0
  -29.1960  -23.6898   17.8362 C   0  0  0  0  0  0
  -29.6142  -23.7701   21.5769 C   0  0  0  0  0  0
  -28.7821  -23.3038   20.3679 C   0  0  2  0  0  0
  -29.3631  -20.3637   17.5768 N   0  0  0  0  0  0
  -29.8851  -15.6735   20.7785 N   0  0  0  0  0  0
  -29.1555  -21.8998   19.9854 N   0  0  0  0  0  0
  -28.3251  -20.6574   21.6854 O   0  0  0  0  0  0
  -31.4706  -12.4369   19.1691 H   0  0  0  0  0  0
  -30.3194  -11.3514   19.8926 H   0  0  0  0  0  0
  -29.7625  -11.7497   17.4716 H   0  0  0  0  0  0
  -29.6663  -13.4697   17.7587 H   0  0  0  0  0  0
  -27.8511  -11.2942   18.8430 H   0  0  0  0  0  0
  -27.3858  -12.5967   17.7816 H   0  0  0  0  0  0
  -27.6714  -14.2513   19.5233 H   0  0  0  0  0  0
  -28.6814  -12.0480   21.3829 H   0  0  0  0  0  0
  -28.4506  -13.7164   21.8354 H   0  0  0  0  0  0
  -25.2797   -9.5673   22.4720 H   0  0  0  0  0  0
  -23.9994   -7.4656   22.7466 H   0  0  0  0  0  0
  -21.0836   -8.8828   19.8943 H   0  0  0  0  0  0
  -22.3730  -10.9700   19.6157 H   0  0  0  0  0  0
  -21.2049   -7.6137   23.9717 H   0  0  0  0  0  0
  -21.1465   -6.0497   25.9066 H   0  0  0  0  0  0
  -22.0600   -2.7591   23.2824 H   0  0  0  0  0  0
  -22.4124  -11.9932   22.4765 H   0  0  0  0  0  0
  -21.1147  -13.1347   22.2577 H   0  0  0  0  0  0
  -24.6687  -15.8501   20.5220 H   0  0  0  0  0  0
  -26.2893  -15.6232   20.0980 H   0  0  0  0  0  0
  -26.7141  -32.5502   23.1122 H   0  0  0  0  0  0
  -25.0074  -33.9731   25.0493 H   0  0  0  0  0  0
  -22.7013  -31.3032   21.4074 H   0  0  0  0  0  0
  -23.3727  -35.9631   23.3302 H   0  0  0  0  0  0
  -24.3567  -36.8912   22.2055 H   0  0  0  0  0  0
  -23.7207  -37.6485   23.6658 H   0  0  0  0  0  0
  -26.0662  -31.5731   20.5970 H   0  0  0  0  0  0
  -26.8319  -30.8667   21.9923 H   0  0  0  0  0  0
  -28.1007  -29.0253   21.2112 H   0  0  0  0  0  0
  -26.0167  -25.9331   19.0362 H   0  0  0  0  0  0
  -23.9771  -27.3006   19.0205 H   0  0  0  0  0  0
  -23.7479  -30.6054   19.4077 H   0  0  0  0  0  0
  -22.7475  -29.2573   19.8508 H   0  0  0  0  0  0
  -25.1243  -36.1968   25.0828 H   0  0  0  0  0  0
  -20.9947  -28.3263   24.1426 H   0  0  0  0  0  0
  -20.5638  -26.2287   23.3634 H   0  0  0  0  0  0
  -21.6638  -26.7407   22.1257 H   0  0  0  0  0  0
  -19.6895  -25.6303   21.1217 H   0  0  0  0  0  0
  -19.6674  -27.3210   20.6775 H   0  0  0  0  0  0
  -17.4190  -26.6689   21.4024 H   0  0  0  0  0  0
  -18.0286  -26.0083   22.9013 H   0  0  0  0  0  0
  -19.7938  -30.7272   24.2247 H   0  0  0  0  0  0
  -17.5017  -31.6240   24.5217 H   0  0  0  0  0  0
  -15.5353  -30.2994   23.7643 H   0  0  0  0  0  0
  -15.8674  -28.0851   22.7003 H   0  0  0  0  0  0
  -24.5916  -30.7081   25.7884 H   0  0  0  0  0  0
  -24.8995  -32.2923   26.4898 H   0  0  0  0  0  0
  -25.8138  -30.8957   27.0260 H   0  0  0  0  0  0
  -26.2885  -29.6744   24.1170 H   0  0  0  0  0  0
  -27.4071  -29.7235   25.4583 H   0  0  0  0  0  0
  -27.8717  -30.4272   23.9289 H   0  0  0  0  0  0
  -27.2623  -33.3593   26.2069 H   0  0  0  0  0  0
  -28.3834  -32.6936   25.0295 H   0  0  0  0  0  0
  -28.0742  -31.8452   26.5371 H   0  0  0  0  0  0
  -28.2599  -38.0087   24.7518 H   0  0  0  0  0  0
  -28.1073  -36.2627   24.6259 H   0  0  0  0  0  0
  -27.2326  -37.1416   25.8874 H   0  0  0  0  0  0
  -20.9354  -29.8782   21.6955 H   0  0  0  0  0  0
  -26.0168  -38.2844   24.1463 H   0  0  0  0  0  0
  -30.4387  -16.0313   18.1556 H   0  0  0  0  0  0
  -30.1881  -18.0412   16.8405 H   0  0  0  0  0  0
  -29.2168  -18.2006   21.6965 H   0  0  0  0  0  0
  -28.6960  -26.2319   18.2485 H   0  0  0  0  0  0
  -29.3148  -24.4382   17.0518 H   0  0  0  0  0  0
  -28.4052  -23.0090   17.5209 H   0  0  0  0  0  0
  -30.1398  -23.1476   17.8918 H   0  0  0  0  0  0
  -29.3223  -24.7705   21.8972 H   0  0  0  0  0  0
  -30.6808  -23.7953   21.3475 H   0  0  0  0  0  0
  -29.4761  -23.1089   22.4339 H   0  0  0  0  0  0
  -27.7335  -23.2786   20.6749 H   0  0  0  0  0  0
  -29.4230  -20.1238   16.5912 H   0  0  0  0  0  0
  -28.5486  -20.9455   17.7373 H   0  0  0  0  0  0
  -29.0637  -15.4729   21.3281 H   0  0  0  0  0  0
  -29.6116  -21.7902   19.0834 H   0  0  0  0  0  0
  1 25  1  0  0  0
  1 30  2  0  0  0
  1 84  1  0  0  0
  2  3  1  0  0  0
  2 25  1  0  0  0
  2 87  1  0  0  0
  2 88  1  0  0  0
  3  4  1  0  0  0
  3 89  1  0  0  0
  3 90  1  0  0  0
  4  5  1  0  0  0
  4 91  1  0  0  0
  4 92  1  0  0  0
  5  6  1  0  0  0
  5 26  1  0  0  0
  5 93  1  0  0  0
  6 25  1  0  0  0
  6 94  1  0  0  0
  6 95  1  0  0  0
  7  8  2  0  0  0
  7 26  1  0  0  0
  7 29  1  0  0  0
  8  9  1  0  0  0
  8 22  1  0  0  0
  9 10  1  0  0  0
  9 27  2  0  0  0
 10 11  2  0  0  0
 10 15  1  0  0  0
 11 12  1  0  0  0
 11 96  1  0  0  0
 12 13  2  0  0  0
 12 97  1  0  0  0
 13 14  1  0  0  0
 13 31  1  0  0  0
 14 15  2  0  0  0
 14 98  1  0  0  0
 15 99  1  0  0  0
 16 17  2  0  0  0
 16 21  1  0  0  0
 16 31  1  0  0  0
 17 18  1  0  0  0
 17100  1  0  0  0
 18 19  2  0  0  0
 18101  1  0  0  0
 19 20  1  0  0  0
 19 24  1  0  0  0
 20 21  2  0  0  0
 20102  1  0  0  0
 21 23  1  0  0  0
 22 28  1  0  0  0
 22 32  2  0  0  0
 26 27  1  0  0  0
 28103  1  0  0  0
 28104  1  0  0  0
 29105  1  0  0  0
 29106  1  0  0  0
 33 34  1  0  0  0
 33 66  1  0  0  0
 33 70  2  0  0  0
 34 36  1  0  0  0
 34 59  1  0  0  0
 34107  1  0  0  0
 35 44  2  0  0  0
 35 45  1  0  0  0
 35 68  1  0  0  0
 36 56  1  0  0  0
 36108  1  0  0  0
 37 39  1  0  0  0
 37 47  1  0  0  0
 37 66  1  0  0  0
 37109  1  0  0  0
 38 43  2  0  0  0
 38 46  1  0  0  0
 38 47  1  0  0  0
 39 64  1  0  0  0
 39 67  2  0  0  0
 40 52  1  0  0  0
 40 53  2  0  0  0
 40 58  1  0  0  0
 41110  1  0  0  0
 41111  1  0  0  0
 41112  1  0  0  0
 41 48  1  0  0  0
 42 43  1  0  0  0
 42 66  1  0  0  0
 42113  1  0  0  0
 42114  1  0  0  0
 43 44  1  0  0  0
 44115  1  0  0  0
 45 46  2  0  0  0
 45116  1  0  0  0
 46117  1  0  0  0
 47118  1  0  0  0
 47119  1  0  0  0
 48 56  1  0  0  0
 48 65  1  0  0  0
 48120  1  0  0  0
 49 50  1  0  0  0
 49 53  1  0  0  0
 49 64  1  0  0  0
 49121  1  0  0  0
 50 51  1  0  0  0
 50122  1  0  0  0
 50123  1  0  0  0
 51 52  1  0  0  0
 51124  1  0  0  0
 51125  1  0  0  0
 52126  1  0  0  0
 52127  1  0  0  0
 53 54  1  0  0  0
 54 55  2  0  0  0
 54128  1  0  0  0
 55 57  1  0  0  0
 55129  1  0  0  0
 56 69  2  0  0  0
 57 58  2  0  0  0
 57130  1  0  0  0
 58131  1  0  0  0
 59 60  1  0  0  0
 59 61  1  0  0  0
 59 62  1  0  0  0
 60132  1  0  0  0
 60133  1  0  0  0
 60134  1  0  0  0
 61135  1  0  0  0
 61136  1  0  0  0
 61137  1  0  0  0
 62138  1  0  0  0
 62139  1  0  0  0
 62140  1  0  0  0
 63 65  1  0  0  0
 63141  1  0  0  0
 63142  1  0  0  0
 63143  1  0  0  0
 64144  1  0  0  0
 65145  1  0  0  0
 68 77  1  0  0  0
 71 72  2  0  0  0
 71 75  1  0  0  0
 71146  1  0  0  0
 72 76  1  0  0  0
 72147  1  0  0  0
 73 74  1  0  0  0
 73 75  2  0  0  0
 73148  1  0  0  0
 74 76  2  0  0  0
 74 78  1  0  0  0
 75 84  1  0  0  0
 76 83  1  0  0  0
 77 79  2  0  0  0
 77149  1  0  0  0
 78 85  1  0  0  0
 78 86  2  0  0  0
 79 80  1  0  0  0
 79 82  1  0  0  0
 80150  1  0  0  0
 80151  1  0  0  0
 80152  1  0  0  0
 81153  1  0  0  0
 81154  1  0  0  0
 81155  1  0  0  0
 81 82  1  0  0  0
 82 85  1  0  0  0
 82156  1  0  0  0
 83157  1  0  0  0
 83158  1  0  0  0
 84159  1  0  0  0
 85160  1  0  0  0
M  ISO  4   1 100  68 101  77 101  84 100
M  END
> <chiral flag>
0

> <version>
0

> <s_m_source_file>
/data/baiqing/PycharmProjects/Reinvent-master-3.2/result/LINK_invent/BTK/process_docking_weight1_custom_product_contain_oxygen_bond_distance_aromatic_linkinvent_7_9_3/rearranged_h_0079.sdf

> <i_m_source_file_index>
22

> <r_mmod_Potential_Energy-OPLS-2005>
23.7544040679932

> <r_mmod_Stretch_Energy-OPLS-2005>
65.0856399536133

> <r_mmod_Bend_Energy-OPLS-2005>
130.428787231445

> <r_mmod_Torsional_Energy-OPLS-2005>
256.076690673828

> <r_mmod_Improper_Torsional_Energy-OPLS-2005>
11.1747579574585

> <r_mmod_Van_der_Waal_Energy-OPLS-2005>
158.328704833984

> <r_mmod_Electrostatic_Energy-OPLS-2005>
-411.144622802734

> <r_mmod_Solvation_Energy-OPLS-2005>
-221.454025268555

> <b_mmod_Minimization_Converged-OPLS-2005>
0

> <r_mmod_RMS_Derivative-OPLS-2005>
3.3335919380188

$$$$
22
                    3D
 Structure written by MMmdl.
153161  0  0  1  0            999 V2000
  -30.6991  -14.4989   20.5325 C   0  0  0  0  0  0
  -30.4239  -12.3127   19.4358 C   0  0  0  0  0  0
  -29.5020  -12.5085   18.2138 C   0  0  0  0  0  0
  -28.0206  -12.3785   18.6197 C   0  0  0  0  0  0
  -27.6649  -13.2149   19.8779 C   0  0  2  0  0  0
  -28.7098  -13.0100   21.0009 C   0  0  0  0  0  0
  -25.2611  -13.8179   20.5721 C   0  0  0  0  0  0
  -24.1858  -13.0447   20.9175 C   0  0  0  0  0  0
  -24.6414  -11.6912   20.8726 C   0  0  0  0  0  0
  -23.9059  -10.4295   21.0395 C   0  0  0  0  0  0
  -24.3614   -9.4215   21.9180 C   0  0  0  0  0  0
  -23.6292   -8.2244   22.0743 C   0  0  0  0  0  0
  -22.4278   -8.0281   21.3534 C   0  0  0  0  0  0
  -21.9905   -9.0261   20.4648 C   0  0  0  0  0  0
  -22.7223  -10.2143   20.3054 C   0  0  0  0  0  0
  -21.6854   -6.0735   22.5280 C   0  0  0  0  0  0
  -21.4023   -6.5638   23.8212 C   0  0  0  0  0  0
  -21.3655   -5.6789   24.9177 C   0  0  0  0  0  0
  -21.6046   -4.3049   24.7221 C   0  0  0  0  0  0
  -21.8819   -3.8147   23.4340 C   0  0  0  0  0  0
  -21.9192   -4.6963   22.3397 C   0  0  0  0  0  0
  -22.7871  -13.5249   21.1830 C   0  0  0  0  0  0
  -22.1660   -4.2159   21.0980 F   0  0  0  0  0  0
  -21.5616   -3.4532   25.7729 F   0  0  0  0  0  0
  -30.0392  -13.3098   20.4458 N   0  0  0  0  0  0
  -26.3057  -12.9360   20.3402 N   0  0  0  0  0  0
  -25.9354  -11.6507   20.5767 N   0  0  0  0  0  0
  -22.0494  -12.8273   22.0395 N   0  0  0  0  0  0
  -25.4341  -15.1901   20.4173 N   0  0  0  0  0  0
  -31.8413  -14.6536   20.0907 O   0  0  0  0  0  0
  -21.6635   -6.8881   21.4240 O   0  0  0  0  0  0
  -22.3565  -14.5545   20.6659 O   0  0  0  0  0  0
  -24.6152  -31.8661   23.2090 C   0  0  0  0  0  0
  -25.9045  -32.4809   23.8389 C   0  0  1  0  0  0
  -27.2328  -27.4225   20.1114 C   0  0  0  0  0  0
  -25.5903  -33.8607   24.2323 N   0  0  0  0  0  0
  -23.4050  -30.4882   21.5484 C   0  0  2  0  0  0
  -24.8537  -28.9485   20.1197 C   0  0  0  0  0  0
  -22.7421  -29.4646   22.4984 C   0  0  0  0  0  0
  -18.0278  -28.1388   22.8489 C   0  0  0  0  0  0
  -24.1498  -36.7321   23.2637 C   0  0  0  0  0  0
  -25.9341  -30.8270   21.3664 C   0  0  0  0  0  0
  -26.0130  -29.4600   20.7173 C   0  0  0  0  0  0
  -27.2070  -28.7013   20.7140 C   0  0  0  0  0  0
  -26.0600  -26.9256   19.5071 C   0  0  0  0  0  0
  -24.8712  -27.6798   19.5140 C   0  0  0  0  0  0
  -23.6163  -29.8160   20.1648 C   0  0  0  0  0  0
  -25.4113  -36.3106   24.0337 C   0  0  1  0  0  0
  -20.5872  -28.3676   23.1326 C   0  0  2  0  0  0
  -20.6782  -26.9414   22.5429 C   0  0  0  0  0  0
  -19.5754  -26.6388   21.5232 C   0  0  0  0  0  0
  -18.1931  -26.7937   22.1626 C   0  0  0  0  0  0
  -19.1528  -28.8850   23.2903 C   0  0  0  0  0  0
  -18.9452  -30.1459   23.8906 C   0  0  0  0  0  0
  -17.6453  -30.6597   24.0570 C   0  0  0  0  0  0
  -25.9029  -34.9464   23.5124 C   0  0  0  0  0  0
  -16.5346  -29.9096   23.6330 C   0  0  0  0  0  0
  -16.7266  -28.6520   23.0339 C   0  0  0  0  0  0
  -26.4490  -31.6580   25.0708 C   0  0  0  0  0  0
  -25.3775  -31.3678   26.1467 C   0  0  0  0  0  0
  -27.0315  -30.3017   24.6087 C   0  0  0  0  0  0
  -27.6068  -32.4294   25.7470 C   0  0  0  0  0  0
  -27.5583  -37.1825   24.8466 C   0  0  0  0  0  0
  -21.4150  -29.3034   22.3723 N   0  0  0  0  0  0
  -26.4303  -37.3785   23.9402 N   0  0  0  0  0  0
  -24.6691  -31.0758   22.0995 N   0  0  0  0  0  0
  -23.4178  -28.8196   23.3037 O   0  0  0  0  0  0
  -28.3822  -26.6614   20.1035 O   0  0  0  0  0  0
  -26.5584  -34.8919   22.4679 O   0  0  0  0  0  0
  -23.5341  -32.1425   23.7467 O   0  0  0  0  0  0
  -30.7843  -18.7631   19.1885 C   0  0  0  0  0  0
  -29.7421  -19.2955   21.3098 C   0  0  0  0  0  0
  -30.6970  -17.3848   19.4810 C   0  0  0  0  0  0
  -29.6472  -17.9107   21.6024 C   0  0  0  0  0  0
  -30.3023  -19.7429   20.0890 C   0  0  0  0  0  0
  -30.1324  -16.9334   20.7002 C   0  0  0  0  0  0
  -30.4792  -21.2134   19.7553 C   0  0  0  0  0  0
  -29.4125  -23.4034   19.9046 C   0  0  0  0  0  0
  -28.1413  -24.1359   20.3820 C   0  0  0  0  0  0
  -28.3721  -25.5419   21.0142 C   0  0  0  0  0  0
  -29.9825  -15.5380   21.0145 N   0  0  0  0  0  0
  -29.4981  -22.0661   20.1323 N   0  0  0  0  0  0
  -31.4820  -21.5449   19.1104 O   0  0  0  0  0  0
  -30.2785  -24.0705   19.3264 O   0  0  0  0  0  0
  -31.4713  -12.3971   19.1411 H   0  0  0  0  0  0
  -30.3116  -11.3070   19.8428 H   0  0  0  0  0  0
  -29.7460  -11.7778   17.4420 H   0  0  0  0  0  0
  -29.6769  -13.4900   17.7708 H   0  0  0  0  0  0
  -27.8191  -11.3229   18.8049 H   0  0  0  0  0  0
  -27.3764  -12.6676   17.7880 H   0  0  0  0  0  0
  -27.7039  -14.2627   19.5789 H   0  0  0  0  0  0
  -28.6873  -11.9789   21.3565 H   0  0  0  0  0  0
  -28.4770  -13.6254   21.8709 H   0  0  0  0  0  0
  -25.2757   -9.5701   22.4756 H   0  0  0  0  0  0
  -24.0006   -7.4641   22.7472 H   0  0  0  0  0  0
  -21.0824   -8.8775   19.8982 H   0  0  0  0  0  0
  -22.3665  -10.9677   19.6165 H   0  0  0  0  0  0
  -21.2030   -7.6153   23.9725 H   0  0  0  0  0  0
  -21.1470   -6.0515   25.9080 H   0  0  0  0  0  0
  -22.0605   -2.7611   23.2831 H   0  0  0  0  0  0
  -22.4072  -11.9951   22.4835 H   0  0  0  0  0  0
  -21.1111  -13.1346   22.2567 H   0  0  0  0  0  0
  -24.6744  -15.8491   20.5428 H   0  0  0  0  0  0
  -26.2956  -15.6311   20.1193 H   0  0  0  0  0  0
  -26.7106  -32.5535   23.1140 H   0  0  0  0  0  0
  -25.0095  -33.9764   25.0498 H   0  0  0  0  0  0
  -22.6949  -31.3053   21.4058 H   0  0  0  0  0  0
  -23.3738  -35.9679   23.3322 H   0  0  0  0  0  0
  -24.3600  -36.8908   22.2049 H   0  0  0  0  0  0
  -23.7283  -37.6547   23.6635 H   0  0  0  0  0  0
  -26.0478  -31.5906   20.5962 H   0  0  0  0  0  0
  -26.8214  -30.8815   21.9856 H   0  0  0  0  0  0
  -28.1002  -29.0838   21.1885 H   0  0  0  0  0  0
  -26.0623  -25.9552   19.0334 H   0  0  0  0  0  0
  -23.9782  -27.2775   19.0549 H   0  0  0  0  0  0
  -23.7303  -30.5882   19.4030 H   0  0  0  0  0  0
  -22.7421  -29.2340   19.8660 H   0  0  0  0  0  0
  -25.1294  -36.1972   25.0833 H   0  0  0  0  0  0
  -20.9952  -28.3261   24.1450 H   0  0  0  0  0  0
  -20.5744  -26.2272   23.3614 H   0  0  0  0  0  0
  -21.6652  -26.7507   22.1192 H   0  0  0  0  0  0
  -19.6923  -25.6303   21.1258 H   0  0  0  0  0  0
  -19.6704  -27.3209   20.6776 H   0  0  0  0  0  0
  -17.4216  -26.6701   21.4014 H   0  0  0  0  0  0
  -18.0313  -26.0083   22.9021 H   0  0  0  0  0  0
  -19.7933  -30.7279   24.2270 H   0  0  0  0  0  0
  -17.5014  -31.6278   24.5170 H   0  0  0  0  0  0
  -15.5347  -30.2995   23.7660 H   0  0  0  0  0  0
  -15.8672  -28.0853   22.7017 H   0  0  0  0  0  0
  -24.5946  -30.7016   25.7824 H   0  0  0  0  0  0
  -24.8969  -32.2824   26.4949 H   0  0  0  0  0  0
  -25.8152  -30.8839   27.0206 H   0  0  0  0  0  0
  -26.2843  -29.6759   24.1183 H   0  0  0  0  0  0
  -27.4125  -29.7269   25.4542 H   0  0  0  0  0  0
  -27.8674  -30.4325   23.9204 H   0  0  0  0  0  0
  -27.2699  -33.3597   26.2054 H   0  0  0  0  0  0
  -28.3880  -32.6837   25.0294 H   0  0  0  0  0  0
  -28.0731  -31.8407   26.5380 H   0  0  0  0  0  0
  -28.2613  -38.0107   24.7475 H   0  0  0  0  0  0
  -28.1059  -36.2632   24.6335 H   0  0  0  0  0  0
  -27.2287  -37.1530   25.8865 H   0  0  0  0  0  0
  -20.9317  -29.8716   21.6914 H   0  0  0  0  0  0
  -26.0186  -38.2865   24.1383 H   0  0  0  0  0  0
  -31.2322  -19.0713   18.2537 H   0  0  0  0  0  0
  -29.4005  -20.0128   22.0422 H   0  0  0  0  0  0
  -31.0674  -16.6831   18.7466 H   0  0  0  0  0  0
  -29.2125  -17.6063   22.5443 H   0  0  0  0  0  0
  -27.6580  -23.5081   21.1308 H   0  0  0  0  0  0
  -27.4405  -24.2003   19.5513 H   0  0  0  0  0  0
  -29.3226  -25.5486   21.5493 H   0  0  0  0  0  0
  -27.6220  -25.6978   21.7923 H   0  0  0  0  0  0
  -29.1472  -15.2839   21.5199 H   0  0  0  0  0  0
  -28.7279  -21.6391   20.6199 H   0  0  0  0  0  0
  1 25  1  0  0  0
  1 30  2  0  0  0
  1 81  1  0  0  0
  2  3  1  0  0  0
  2 25  1  0  0  0
  2 85  1  0  0  0
  2 86  1  0  0  0
  3  4  1  0  0  0
  3 87  1  0  0  0
  3 88  1  0  0  0
  4  5  1  0  0  0
  4 89  1  0  0  0
  4 90  1  0  0  0
  5  6  1  0  0  0
  5 26  1  0  0  0
  5 91  1  0  0  0
  6 25  1  0  0  0
  6 92  1  0  0  0
  6 93  1  0  0  0
  7  8  2  0  0  0
  7 26  1  0  0  0
  7 29  1  0  0  0
  8  9  1  0  0  0
  8 22  1  0  0  0
  9 10  1  0  0  0
  9 27  2  0  0  0
 10 11  2  0  0  0
 10 15  1  0  0  0
 11 12  1  0  0  0
 11 94  1  0  0  0
 12 13  2  0  0  0
 12 95  1  0  0  0
 13 14  1  0  0  0
 13 31  1  0  0  0
 14 15  2  0  0  0
 14 96  1  0  0  0
 15 97  1  0  0  0
 16 17  2  0  0  0
 16 21  1  0  0  0
 16 31  1  0  0  0
 17 18  1  0  0  0
 17 98  1  0  0  0
 18 19  2  0  0  0
 18 99  1  0  0  0
 19 20  1  0  0  0
 19 24  1  0  0  0
 20 21  2  0  0  0
 20100  1  0  0  0
 21 23  1  0  0  0
 22 28  1  0  0  0
 22 32  2  0  0  0
 26 27  1  0  0  0
 28101  1  0  0  0
 28102  1  0  0  0
 29103  1  0  0  0
 29104  1  0  0  0
 33 34  1  0  0  0
 33 66  1  0  0  0
 33 70  2  0  0  0
 34 36  1  0  0  0
 34 59  1  0  0  0
 34105  1  0  0  0
 35 44  2  0  0  0
 35 45  1  0  0  0
 35 68  1  0  0  0
 36 56  1  0  0  0
 36106  1  0  0  0
 37 39  1  0  0  0
 37 47  1  0  0  0
 37 66  1  0  0  0
 37107  1  0  0  0
 38 43  2  0  0  0
 38 46  1  0  0  0
 38 47  1  0  0  0
 39 64  1  0  0  0
 39 67  2  0  0  0
 40 52  1  0  0  0
 40 53  2  0  0  0
 40 58  1  0  0  0
 41108  1  0  0  0
 41109  1  0  0  0
 41110  1  0  0  0
 41 48  1  0  0  0
 42 43  1  0  0  0
 42 66  1  0  0  0
 42111  1  0  0  0
 42112  1  0  0  0
 43 44  1  0  0  0
 44113  1  0  0  0
 45 46  2  0  0  0
 45114  1  0  0  0
 46115  1  0  0  0
 47116  1  0  0  0
 47117  1  0  0  0
 48 56  1  0  0  0
 48 65  1  0  0  0
 48118  1  0  0  0
 49 50  1  0  0  0
 49 53  1  0  0  0
 49 64  1  0  0  0
 49119  1  0  0  0
 50 51  1  0  0  0
 50120  1  0  0  0
 50121  1  0  0  0
 51 52  1  0  0  0
 51122  1  0  0  0
 51123  1  0  0  0
 52124  1  0  0  0
 52125  1  0  0  0
 53 54  1  0  0  0
 54 55  2  0  0  0
 54126  1  0  0  0
 55 57  1  0  0  0
 55127  1  0  0  0
 56 69  2  0  0  0
 57 58  2  0  0  0
 57128  1  0  0  0
 58129  1  0  0  0
 59 60  1  0  0  0
 59 61  1  0  0  0
 59 62  1  0  0  0
 60130  1  0  0  0
 60131  1  0  0  0
 60132  1  0  0  0
 61133  1  0  0  0
 61134  1  0  0  0
 61135  1  0  0  0
 62136  1  0  0  0
 62137  1  0  0  0
 62138  1  0  0  0
 63 65  1  0  0  0
 63139  1  0  0  0
 63140  1  0  0  0
 63141  1  0  0  0
 64142  1  0  0  0
 65143  1  0  0  0
 68 80  1  0  0  0
 71 73  2  0  0  0
 71 75  1  0  0  0
 71144  1  0  0  0
 72 74  1  0  0  0
 72 75  2  0  0  0
 72145  1  0  0  0
 73 76  1  0  0  0
 73146  1  0  0  0
 74 76  2  0  0  0
 74147  1  0  0  0
 75 77  1  0  0  0
 76 81  1  0  0  0
 77 82  1  0  0  0
 77 83  2  0  0  0
 78 79  1  0  0  0
 78 82  1  0  0  0
 78 84  2  0  0  0
 79 80  1  0  0  0
 79148  1  0  0  0
 79149  1  0  0  0
 80150  1  0  0  0
 80151  1  0  0  0
 81152  1  0  0  0
 82153  1  0  0  0
M  ISO  4   1 100  68 101  80 101  81 100
M  END
> <chiral flag>
0

> <version>
0

> <s_m_source_file>
/data/baiqing/PycharmProjects/Reinvent-master-3.2/result/LINK_invent/BTK/process_docking_weight1_custom_product_contain_oxygen_bond_distance_aromatic_linkinvent_7_9_3/rearranged_h_0079.sdf

> <i_m_source_file_index>
23

> <r_mmod_Potential_Energy-OPLS-2005>
-154.687789916992

> <r_mmod_Stretch_Energy-OPLS-2005>
41.8427047729492

> <r_mmod_Bend_Energy-OPLS-2005>
101.263359069824

> <r_mmod_Torsional_Energy-OPLS-2005>
248.007904052734

> <r_mmod_Improper_Torsional_Energy-OPLS-2005>
3.83613705635071

> <r_mmod_Van_der_Waal_Energy-OPLS-2005>
157.202606201172

> <r_mmod_Electrostatic_Energy-OPLS-2005>
-439.849182128906

> <r_mmod_Solvation_Energy-OPLS-2005>
-282.654174804688

> <b_mmod_Minimization_Converged-OPLS-2005>
0

> <r_mmod_RMS_Derivative-OPLS-2005>
2.30342268943787

$$$$
23
                    3D
 Structure written by MMmdl.
152161  0  0  1  0            999 V2000
  -30.6130  -14.6499   20.5056 C   0  0  0  0  0  0
  -30.4430  -12.3996   19.4520 C   0  0  0  0  0  0
  -29.5094  -12.5124   18.2252 C   0  0  0  0  0  0
  -28.0314  -12.3486   18.6349 C   0  0  0  0  0  0
  -27.6545  -13.2158   19.8655 C   0  0  2  0  0  0
  -28.6994  -13.0623   20.9935 C   0  0  0  0  0  0
  -25.2560  -13.8173   20.5692 C   0  0  0  0  0  0
  -24.1822  -13.0441   20.9192 C   0  0  0  0  0  0
  -24.6388  -11.6913   20.8747 C   0  0  0  0  0  0
  -23.9059  -10.4293   21.0407 C   0  0  0  0  0  0
  -24.3613   -9.4208   21.9180 C   0  0  0  0  0  0
  -23.6294   -8.2245   22.0746 C   0  0  0  0  0  0
  -22.4275   -8.0281   21.3541 C   0  0  0  0  0  0
  -21.9908   -9.0253   20.4641 C   0  0  0  0  0  0
  -22.7235  -10.2134   20.3052 C   0  0  0  0  0  0
  -21.6851   -6.0742   22.5285 C   0  0  0  0  0  0
  -21.4012   -6.5643   23.8220 C   0  0  0  0  0  0
  -21.3659   -5.6792   24.9181 C   0  0  0  0  0  0
  -21.6044   -4.3055   24.7226 C   0  0  0  0  0  0
  -21.8817   -3.8151   23.4345 C   0  0  0  0  0  0
  -21.9189   -4.6971   22.3406 C   0  0  0  0  0  0
  -22.7843  -13.5239   21.1856 C   0  0  0  0  0  0
  -22.1658   -4.2160   21.0981 F   0  0  0  0  0  0
  -21.5627   -3.4535   25.7735 F   0  0  0  0  0  0
  -30.0156  -13.4158   20.4357 N   0  0  0  0  0  0
  -26.2993  -12.9352   20.3326 N   0  0  0  0  0  0
  -25.9315  -11.6509   20.5756 N   0  0  0  0  0  0
  -22.0474  -12.8239   22.0411 N   0  0  0  0  0  0
  -25.4279  -15.1896   20.4115 N   0  0  0  0  0  0
  -31.7676  -14.8244   20.1043 O   0  0  0  0  0  0
  -21.6637   -6.8882   21.4244 O   0  0  0  0  0  0
  -22.3534  -14.5552   20.6710 O   0  0  0  0  0  0
  -24.6299  -31.8600   23.2056 C   0  0  0  0  0  0
  -25.9146  -32.4778   23.8379 C   0  0  1  0  0  0
  -27.2169  -27.2994   20.1109 C   0  0  0  0  0  0
  -25.5966  -33.8578   24.2312 N   0  0  0  0  0  0
  -23.4252  -30.4906   21.5456 C   0  0  2  0  0  0
  -24.8710  -28.9531   20.1073 C   0  0  0  0  0  0
  -22.7501  -29.4653   22.4886 C   0  0  0  0  0  0
  -18.0307  -28.1400   22.8487 C   0  0  0  0  0  0
  -24.1493  -36.7275   23.2635 C   0  0  0  0  0  0
  -25.9716  -30.7843   21.3838 C   0  0  0  0  0  0
  -26.0433  -29.4129   20.7207 C   0  0  0  0  0  0
  -27.2191  -28.5977   20.7168 C   0  0  0  0  0  0
  -26.0185  -26.9159   19.4563 C   0  0  0  0  0  0
  -24.8621  -27.7106   19.4652 C   0  0  0  0  0  0
  -23.6434  -29.8375   20.1575 C   0  0  0  0  0  0
  -25.4111  -36.3077   24.0341 C   0  0  1  0  0  0
  -20.5913  -28.3725   23.1253 C   0  0  2  0  0  0
  -20.6803  -26.9442   22.5393 C   0  0  0  0  0  0
  -19.5776  -26.6394   21.5210 C   0  0  0  0  0  0
  -18.1956  -26.7946   22.1622 C   0  0  0  0  0  0
  -19.1558  -28.8874   23.2873 C   0  0  0  0  0  0
  -18.9480  -30.1468   23.8903 C   0  0  0  0  0  0
  -17.6479  -30.6598   24.0574 C   0  0  0  0  0  0
  -25.9054  -34.9449   23.5116 C   0  0  0  0  0  0
  -16.5370  -29.9101   23.6331 C   0  0  0  0  0  0
  -16.7292  -28.6518   23.0353 C   0  0  0  0  0  0
  -26.4522  -31.6571   25.0735 C   0  0  0  0  0  0
  -25.3753  -31.3714   26.1456 C   0  0  0  0  0  0
  -27.0354  -30.2991   24.6186 C   0  0  0  0  0  0
  -27.6108  -32.4273   25.7488 C   0  0  0  0  0  0
  -27.5590  -37.1785   24.8463 C   0  0  0  0  0  0
  -21.4209  -29.3078   22.3633 N   0  0  0  0  0  0
  -26.4282  -37.3780   23.9433 N   0  0  0  0  0  0
  -24.6945  -31.0610   22.1017 N   0  0  0  0  0  0
  -23.4217  -28.8171   23.2956 O   0  0  0  0  0  0
  -28.3037  -26.3973   20.1762 O   0  0  0  0  0  0
  -26.5598  -34.8920   22.4667 O   0  0  0  0  0  0
  -23.5451  -32.1401   23.7367 O   0  0  0  0  0  0
  -30.8040  -19.3318   20.0734 C   0  0  0  0  0  0
  -28.6562  -19.3138   21.1394 C   0  0  0  0  0  0
  -30.8774  -17.9043   20.1691 C   0  0  0  0  0  0
  -28.7304  -17.8927   21.2391 C   0  0  0  0  0  0
  -29.6951  -20.0937   20.5589 C   0  0  0  0  0  0
  -29.8379  -17.1388   20.7641 C   0  0  0  0  0  0
  -30.2284  -23.7745   20.6108 C   0  0  0  0  0  0
  -28.9380  -23.7751   20.2762 C   0  0  0  0  0  0
  -30.6865  -22.4012   20.7552 C   0  0  0  0  0  0
  -28.5469  -22.3545   20.2089 C   0  0  0  0  0  0
  -27.9677  -24.9628   19.9418 C   0  0  0  0  0  0
  -29.6382  -21.5789   20.4974 N   0  0  0  0  0  0
  -29.7994  -15.6782   20.9094 N   0  0  0  0  0  0
  -31.8284  -22.0433   21.0673 O   0  0  0  0  0  0
  -27.4252  -21.9192   19.9225 O   0  0  0  0  0  0
  -31.4822  -12.5350   19.1474 H   0  0  0  0  0  0
  -30.3891  -11.4014   19.8893 H   0  0  0  0  0  0
  -29.7753  -11.7617   17.4796 H   0  0  0  0  0  0
  -29.6485  -13.4822   17.7448 H   0  0  0  0  0  0
  -27.8665  -11.2947   18.8608 H   0  0  0  0  0  0
  -27.3787  -12.5830   17.7931 H   0  0  0  0  0  0
  -27.6733  -14.2527   19.5298 H   0  0  0  0  0  0
  -28.7115  -12.0355   21.3621 H   0  0  0  0  0  0
  -28.4402  -13.6796   21.8545 H   0  0  0  0  0  0
  -25.2757   -9.5691   22.4757 H   0  0  0  0  0  0
  -24.0006   -7.4632   22.7459 H   0  0  0  0  0  0
  -21.0843   -8.8774   19.8942 H   0  0  0  0  0  0
  -22.3695  -10.9677   19.6166 H   0  0  0  0  0  0
  -21.2005   -7.6150   23.9733 H   0  0  0  0  0  0
  -21.1482   -6.0516   25.9086 H   0  0  0  0  0  0
  -22.0596   -2.7615   23.2838 H   0  0  0  0  0  0
  -22.4080  -11.9901   22.4815 H   0  0  0  0  0  0
  -21.1093  -13.1270   22.2603 H   0  0  0  0  0  0
  -24.6589  -15.8430   20.5148 H   0  0  0  0  0  0
  -26.2767  -15.6301   20.0809 H   0  0  0  0  0  0
  -26.7212  -32.5449   23.1125 H   0  0  0  0  0  0
  -25.0184  -33.9726   25.0507 H   0  0  0  0  0  0
  -22.7216  -31.3136   21.4046 H   0  0  0  0  0  0
  -23.3779  -35.9580   23.3250 H   0  0  0  0  0  0
  -24.3615  -36.8922   22.2061 H   0  0  0  0  0  0
  -23.7201  -37.6452   23.6666 H   0  0  0  0  0  0
  -26.1093  -31.5509   20.6201 H   0  0  0  0  0  0
  -26.8501  -30.8279   22.0155 H   0  0  0  0  0  0
  -28.1127  -28.9422   21.2188 H   0  0  0  0  0  0
  -25.9243  -25.9789   18.9308 H   0  0  0  0  0  0
  -23.9681  -27.3581   18.9691 H   0  0  0  0  0  0
  -23.7744  -30.6211   19.4100 H   0  0  0  0  0  0
  -22.7618  -29.2758   19.8437 H   0  0  0  0  0  0
  -25.1278  -36.1923   25.0830 H   0  0  0  0  0  0
  -21.0020  -28.3312   24.1368 H   0  0  0  0  0  0
  -20.5731  -26.2340   23.3602 H   0  0  0  0  0  0
  -21.6670  -26.7488   22.1168 H   0  0  0  0  0  0
  -19.6949  -25.6301   21.1252 H   0  0  0  0  0  0
  -19.6716  -27.3196   20.6736 H   0  0  0  0  0  0
  -17.4229  -26.6701   21.4017 H   0  0  0  0  0  0
  -18.0356  -26.0081   22.9012 H   0  0  0  0  0  0
  -19.7955  -30.7281   24.2277 H   0  0  0  0  0  0
  -17.5039  -31.6280   24.5172 H   0  0  0  0  0  0
  -15.5375  -30.3015   23.7647 H   0  0  0  0  0  0
  -15.8693  -28.0841   22.7063 H   0  0  0  0  0  0
  -24.5963  -30.7019   25.7789 H   0  0  0  0  0  0
  -24.8907  -32.2876   26.4839 H   0  0  0  0  0  0
  -25.8079  -30.8936   27.0253 H   0  0  0  0  0  0
  -26.2926  -29.6729   24.1230 H   0  0  0  0  0  0
  -27.4076  -29.7247   25.4678 H   0  0  0  0  0  0
  -27.8791  -30.4267   23.9402 H   0  0  0  0  0  0
  -27.2779  -33.3604   26.2041 H   0  0  0  0  0  0
  -28.3942  -32.6756   25.0315 H   0  0  0  0  0  0
  -28.0746  -31.8389   26.5413 H   0  0  0  0  0  0
  -28.2557  -38.0132   24.7572 H   0  0  0  0  0  0
  -28.1130  -36.2664   24.6189 H   0  0  0  0  0  0
  -27.2328  -37.1311   25.8868 H   0  0  0  0  0  0
  -20.9380  -29.8822   21.6862 H   0  0  0  0  0  0
  -26.0155  -38.2838   24.1486 H   0  0  0  0  0  0
  -31.6365  -19.8435   19.6110 H   0  0  0  0  0  0
  -27.7791  -19.8035   21.5391 H   0  0  0  0  0  0
  -31.7534  -17.4080   19.7761 H   0  0  0  0  0  0
  -27.9011  -17.3765   21.7024 H   0  0  0  0  0  0
  -30.8483  -24.6484   20.7322 H   0  0  0  0  0  0
  -27.0538  -24.7343   20.4940 H   0  0  0  0  0  0
  -27.7419  -24.8423   18.8815 H   0  0  0  0  0  0
  -28.9289  -15.3308   21.2808 H   0  0  0  0  0  0
  1 25  1  0  0  0
  1 30  2  0  0  0
  1 83  1  0  0  0
  2  3  1  0  0  0
  2 25  1  0  0  0
  2 86  1  0  0  0
  2 87  1  0  0  0
  3  4  1  0  0  0
  3 88  1  0  0  0
  3 89  1  0  0  0
  4  5  1  0  0  0
  4 90  1  0  0  0
  4 91  1  0  0  0
  5  6  1  0  0  0
  5 26  1  0  0  0
  5 92  1  0  0  0
  6 25  1  0  0  0
  6 93  1  0  0  0
  6 94  1  0  0  0
  7  8  2  0  0  0
  7 26  1  0  0  0
  7 29  1  0  0  0
  8  9  1  0  0  0
  8 22  1  0  0  0
  9 10  1  0  0  0
  9 27  2  0  0  0
 10 11  2  0  0  0
 10 15  1  0  0  0
 11 12  1  0  0  0
 11 95  1  0  0  0
 12 13  2  0  0  0
 12 96  1  0  0  0
 13 14  1  0  0  0
 13 31  1  0  0  0
 14 15  2  0  0  0
 14 97  1  0  0  0
 15 98  1  0  0  0
 16 17  2  0  0  0
 16 21  1  0  0  0
 16 31  1  0  0  0
 17 18  1  0  0  0
 17 99  1  0  0  0
 18 19  2  0  0  0
 18100  1  0  0  0
 19 20  1  0  0  0
 19 24  1  0  0  0
 20 21  2  0  0  0
 20101  1  0  0  0
 21 23  1  0  0  0
 22 28  1  0  0  0
 22 32  2  0  0  0
 26 27  1  0  0  0
 28102  1  0  0  0
 28103  1  0  0  0
 29104  1  0  0  0
 29105  1  0  0  0
 33 34  1  0  0  0
 33 66  1  0  0  0
 33 70  2  0  0  0
 34 36  1  0  0  0
 34 59  1  0  0  0
 34106  1  0  0  0
 35 44  2  0  0  0
 35 45  1  0  0  0
 35 68  1  0  0  0
 36 56  1  0  0  0
 36107  1  0  0  0
 37 39  1  0  0  0
 37 47  1  0  0  0
 37 66  1  0  0  0
 37108  1  0  0  0
 38 43  2  0  0  0
 38 46  1  0  0  0
 38 47  1  0  0  0
 39 64  1  0  0  0
 39 67  2  0  0  0
 40 52  1  0  0  0
 40 53  2  0  0  0
 40 58  1  0  0  0
 41109  1  0  0  0
 41110  1  0  0  0
 41111  1  0  0  0
 41 48  1  0  0  0
 42 43  1  0  0  0
 42 66  1  0  0  0
 42112  1  0  0  0
 42113  1  0  0  0
 43 44  1  0  0  0
 44114  1  0  0  0
 45 46  2  0  0  0
 45115  1  0  0  0
 46116  1  0  0  0
 47117  1  0  0  0
 47118  1  0  0  0
 48 56  1  0  0  0
 48 65  1  0  0  0
 48119  1  0  0  0
 49 50  1  0  0  0
 49 53  1  0  0  0
 49 64  1  0  0  0
 49120  1  0  0  0
 50 51  1  0  0  0
 50121  1  0  0  0
 50122  1  0  0  0
 51 52  1  0  0  0
 51123  1  0  0  0
 51124  1  0  0  0
 52125  1  0  0  0
 52126  1  0  0  0
 53 54  1  0  0  0
 54 55  2  0  0  0
 54127  1  0  0  0
 55 57  1  0  0  0
 55128  1  0  0  0
 56 69  2  0  0  0
 57 58  2  0  0  0
 57129  1  0  0  0
 58130  1  0  0  0
 59 60  1  0  0  0
 59 61  1  0  0  0
 59 62  1  0  0  0
 60131  1  0  0  0
 60132  1  0  0  0
 60133  1  0  0  0
 61134  1  0  0  0
 61135  1  0  0  0
 61136  1  0  0  0
 62137  1  0  0  0
 62138  1  0  0  0
 62139  1  0  0  0
 63 65  1  0  0  0
 63140  1  0  0  0
 63141  1  0  0  0
 63142  1  0  0  0
 64143  1  0  0  0
 65144  1  0  0  0
 68 81  1  0  0  0
 71 73  2  0  0  0
 71 75  1  0  0  0
 71145  1  0  0  0
 72 74  1  0  0  0
 72 75  2  0  0  0
 72146  1  0  0  0
 73 76  1  0  0  0
 73147  1  0  0  0
 74 76  2  0  0  0
 74148  1  0  0  0
 75 82  1  0  0  0
 76 83  1  0  0  0
 77 78  2  0  0  0
 77 79  1  0  0  0
 77149  1  0  0  0
 78 80  1  0  0  0
 78 81  1  0  0  0
 79 82  1  0  0  0
 79 84  2  0  0  0
 80 82  1  0  0  0
 80 85  2  0  0  0
 81150  1  0  0  0
 81151  1  0  0  0
 83152  1  0  0  0
M  ISO  4   1 100  68 101  81 101  83 100
M  END
> <chiral flag>
0

> <version>
0

> <s_m_source_file>
/data/baiqing/PycharmProjects/Reinvent-master-3.2/result/LINK_invent/BTK/process_docking_weight1_custom_product_contain_oxygen_bond_distance_aromatic_linkinvent_7_9_3/rearranged_h_0079.sdf

> <i_m_source_file_index>
24

> <r_mmod_Potential_Energy-OPLS-2005>
82.7786254882812

> <r_mmod_Stretch_Energy-OPLS-2005>
87.6945190429688

> <r_mmod_Bend_Energy-OPLS-2005>
189.800857543945

> <r_mmod_Torsional_Energy-OPLS-2005>
235.467269897461

> <r_mmod_Improper_Torsional_Energy-OPLS-2005>
3.68464469909668

> <r_mmod_Van_der_Waal_Energy-OPLS-2005>
148.999633789062

> <r_mmod_Electrostatic_Energy-OPLS-2005>
-403.608795166016

> <r_mmod_Solvation_Energy-OPLS-2005>
-237.189315795898

> <b_mmod_Minimization_Converged-OPLS-2005>
0

> <r_mmod_RMS_Derivative-OPLS-2005>
1.06836152076721

$$$$
24
                    3D
 Structure written by MMmdl.
168177  0  0  1  0            999 V2000
  -30.7334  -14.4731   20.5733 C   0  0  0  0  0  0
  -30.4122  -12.3091   19.4301 C   0  0  0  0  0  0
  -29.4917  -12.4991   18.2093 C   0  0  0  0  0  0
  -28.0138  -12.3641   18.6218 C   0  0  0  0  0  0
  -27.6582  -13.2138   19.8716 C   0  0  2  0  0  0
  -28.7014  -13.0257   20.9969 C   0  0  0  0  0  0
  -25.2573  -13.8181   20.5688 C   0  0  0  0  0  0
  -24.1837  -13.0445   20.9185 C   0  0  0  0  0  0
  -24.6398  -11.6915   20.8735 C   0  0  0  0  0  0
  -23.9065  -10.4297   21.0410 C   0  0  0  0  0  0
  -24.3615   -9.4212   21.9190 C   0  0  0  0  0  0
  -23.6289   -8.2247   22.0756 C   0  0  0  0  0  0
  -22.4273   -8.0285   21.3543 C   0  0  0  0  0  0
  -21.9913   -9.0260   20.4646 C   0  0  0  0  0  0
  -22.7239  -10.2141   20.3057 C   0  0  0  0  0  0
  -21.6850   -6.0740   22.5277 C   0  0  0  0  0  0
  -21.4014   -6.5643   23.8212 C   0  0  0  0  0  0
  -21.3659   -5.6795   24.9174 C   0  0  0  0  0  0
  -21.6045   -4.3059   24.7225 C   0  0  0  0  0  0
  -21.8818   -3.8152   23.4345 C   0  0  0  0  0  0
  -21.9192   -4.6968   22.3402 C   0  0  0  0  0  0
  -22.7860  -13.5236   21.1853 C   0  0  0  0  0  0
  -22.1660   -4.2151   21.0978 F   0  0  0  0  0  0
  -21.5632   -3.4543   25.7738 F   0  0  0  0  0  0
  -30.0293  -13.3155   20.4346 N   0  0  0  0  0  0
  -26.3010  -12.9362   20.3362 N   0  0  0  0  0  0
  -25.9326  -11.6515   20.5771 N   0  0  0  0  0  0
  -22.0504  -12.8220   22.0405 N   0  0  0  0  0  0
  -25.4292  -15.1901   20.4087 N   0  0  0  0  0  0
  -31.8628  -14.6104   20.0964 O   0  0  0  0  0  0
  -21.6636   -6.8883   21.4240 O   0  0  0  0  0  0
  -22.3544  -14.5544   20.6706 O   0  0  0  0  0  0
  -24.6174  -31.8682   23.2113 C   0  0  0  0  0  0
  -25.9064  -32.4822   23.8406 C   0  0  1  0  0  0
  -27.2216  -27.4098   20.0943 C   0  0  0  0  0  0
  -25.5915  -33.8622   24.2330 N   0  0  0  0  0  0
  -23.4046  -30.4949   21.5538 C   0  0  2  0  0  0
  -24.8476  -28.9670   20.1110 C   0  0  0  0  0  0
  -22.7425  -29.4659   22.4991 C   0  0  0  0  0  0
  -18.0274  -28.1379   22.8496 C   0  0  0  0  0  0
  -24.1487  -36.7312   23.2639 C   0  0  0  0  0  0
  -25.9383  -30.8260   21.3699 C   0  0  0  0  0  0
  -26.0123  -29.4619   20.7107 C   0  0  0  0  0  0
  -27.2023  -28.6918   20.6995 C   0  0  0  0  0  0
  -26.0366  -26.9525   19.4663 C   0  0  0  0  0  0
  -24.8564  -27.7128   19.4842 C   0  0  0  0  0  0
  -23.6116  -29.8355   20.1659 C   0  0  0  0  0  0
  -25.4110  -36.3112   24.0335 C   0  0  1  0  0  0
  -20.5867  -28.3667   23.1319 C   0  0  2  0  0  0
  -20.6764  -26.9403   22.5418 C   0  0  0  0  0  0
  -19.5738  -26.6382   21.5217 C   0  0  0  0  0  0
  -18.1917  -26.7926   22.1628 C   0  0  0  0  0  0
  -19.1525  -28.8841   23.2900 C   0  0  0  0  0  0
  -18.9453  -30.1450   23.8899 C   0  0  0  0  0  0
  -17.6456  -30.6586   24.0562 C   0  0  0  0  0  0
  -25.9041  -34.9478   23.5127 C   0  0  0  0  0  0
  -16.5345  -29.9085   23.6329 C   0  0  0  0  0  0
  -16.7262  -28.6500   23.0351 C   0  0  0  0  0  0
  -26.4480  -31.6603   25.0740 C   0  0  0  0  0  0
  -25.3736  -31.3688   26.1474 C   0  0  0  0  0  0
  -27.0336  -30.3054   24.6129 C   0  0  0  0  0  0
  -27.6052  -32.4324   25.7509 C   0  0  0  0  0  0
  -27.5581  -37.1811   24.8466 C   0  0  0  0  0  0
  -21.4150  -29.3035   22.3731 N   0  0  0  0  0  0
  -26.4295  -37.3798   23.9407 N   0  0  0  0  0  0
  -24.6719  -31.0769   22.1028 N   0  0  0  0  0  0
  -23.4194  -28.8187   23.3027 O   0  0  0  0  0  0
  -28.3663  -26.6253   20.1450 O   0  0  0  0  0  0
  -26.5598  -34.8928   22.4685 O   0  0  0  0  0  0
  -23.5362  -32.1448   23.7491 O   0  0  0  0  0  0
  -31.7570  -19.3996   21.7434 C   0  0  0  0  0  0
  -31.9189  -16.9808   21.9089 C   0  0  0  0  0  0
  -29.8946  -18.0066   21.0166 C   0  0  0  0  0  0
  -32.5006  -18.2532   22.1052 C   0  0  0  0  0  0
  -30.4478  -19.3039   21.2089 C   0  0  0  0  0  0
  -30.6315  -16.8352   21.3405 C   0  0  0  0  0  0
  -35.9008  -19.2788   23.1672 C   0  0  0  0  0  0
  -35.9887  -17.8474   23.2987 C   0  0  0  0  0  0
  -36.8904  -20.1610   23.3869 C   0  0  0  0  0  0
  -37.0729  -17.1504   23.6782 C   0  0  0  0  0  0
  -29.8882  -21.7792   21.0627 C   0  0  0  0  0  0
  -34.5081  -19.6562   22.7355 C   0  0  0  0  0  0
  -34.6588  -17.2305   22.9485 C   0  0  0  0  0  0
  -28.9098  -22.7756   20.4091 C   0  0  0  0  0  0
  -29.2704  -24.2885   20.5564 C   0  0  0  0  0  0
  -28.1677  -25.2028   19.9749 C   0  0  0  0  0  0
  -33.7981  -18.3776   22.6475 N   0  0  0  0  0  0
  -29.6835  -20.4611   20.8128 N   0  0  0  0  0  0
  -30.0804  -15.5251   21.1188 N   0  0  0  0  0  0
  -30.7795  -22.2142   21.7945 O   0  0  0  0  0  0
  -31.4585  -12.3862   19.1293 H   0  0  0  0  0  0
  -30.2980  -11.3058   19.8437 H   0  0  0  0  0  0
  -29.7318  -11.7658   17.4385 H   0  0  0  0  0  0
  -29.6642  -13.4807   17.7644 H   0  0  0  0  0  0
  -27.8235  -11.3098   18.8247 H   0  0  0  0  0  0
  -27.3642  -12.6339   17.7883 H   0  0  0  0  0  0
  -27.6944  -14.2573   19.5582 H   0  0  0  0  0  0
  -28.6781  -12.0015   21.3721 H   0  0  0  0  0  0
  -28.4669  -13.6584   21.8543 H   0  0  0  0  0  0
  -25.2763   -9.5689   22.4764 H   0  0  0  0  0  0
  -24.0000   -7.4641   22.7477 H   0  0  0  0  0  0
  -21.0850   -8.8780   19.8947 H   0  0  0  0  0  0
  -22.3703  -10.9681   19.6164 H   0  0  0  0  0  0
  -21.2005   -7.6151   23.9714 H   0  0  0  0  0  0
  -21.1485   -6.0528   25.9076 H   0  0  0  0  0  0
  -22.0599   -2.7613   23.2844 H   0  0  0  0  0  0
  -22.4120  -11.9861   22.4758 H   0  0  0  0  0  0
  -21.1126  -13.1250   22.2630 H   0  0  0  0  0  0
  -24.6633  -15.8468   20.5155 H   0  0  0  0  0  0
  -26.2802  -15.6265   20.0771 H   0  0  0  0  0  0
  -26.7132  -32.5528   23.1167 H   0  0  0  0  0  0
  -25.0073  -33.9785   25.0480 H   0  0  0  0  0  0
  -22.6930  -31.3122   21.4189 H   0  0  0  0  0  0
  -23.3759  -35.9637   23.3304 H   0  0  0  0  0  0
  -24.3572  -36.8934   22.2052 H   0  0  0  0  0  0
  -23.7234  -37.6512   23.6660 H   0  0  0  0  0  0
  -26.0578  -31.5951   20.6052 H   0  0  0  0  0  0
  -26.8234  -30.8724   21.9925 H   0  0  0  0  0  0
  -28.0970  -29.0657   21.1775 H   0  0  0  0  0  0
  -25.9926  -26.0010   18.9571 H   0  0  0  0  0  0
  -23.9641  -27.3290   19.0087 H   0  0  0  0  0  0
  -23.7204  -30.6142   19.4104 H   0  0  0  0  0  0
  -22.7331  -29.2589   19.8695 H   0  0  0  0  0  0
  -25.1284  -36.1978   25.0828 H   0  0  0  0  0  0
  -20.9951  -28.3234   24.1441 H   0  0  0  0  0  0
  -20.5684  -26.2269   23.3601 H   0  0  0  0  0  0
  -21.6634  -26.7454   22.1203 H   0  0  0  0  0  0
  -19.6898  -25.6297   21.1236 H   0  0  0  0  0  0
  -19.6672  -27.3196   20.6751 H   0  0  0  0  0  0
  -17.4190  -26.6692   21.4020 H   0  0  0  0  0  0
  -18.0296  -26.0061   22.9014 H   0  0  0  0  0  0
  -19.7931  -30.7266   24.2261 H   0  0  0  0  0  0
  -17.5015  -31.6268   24.5165 H   0  0  0  0  0  0
  -15.5343  -30.2986   23.7656 H   0  0  0  0  0  0
  -15.8666  -28.0822   22.7058 H   0  0  0  0  0  0
  -24.5921  -30.7028   25.7790 H   0  0  0  0  0  0
  -24.8909  -32.2833   26.4932 H   0  0  0  0  0  0
  -25.8088  -30.8845   27.0227 H   0  0  0  0  0  0
  -26.2899  -29.6792   24.1188 H   0  0  0  0  0  0
  -27.4121  -29.7305   25.4595 H   0  0  0  0  0  0
  -27.8721  -30.4384   23.9289 H   0  0  0  0  0  0
  -27.2672  -33.3614   26.2114 H   0  0  0  0  0  0
  -28.3851  -32.6900   25.0329 H   0  0  0  0  0  0
  -28.0736  -31.8433   26.5404 H   0  0  0  0  0  0
  -28.2602  -38.0109   24.7534 H   0  0  0  0  0  0
  -28.1081  -36.2642   24.6282 H   0  0  0  0  0  0
  -27.2295  -37.1449   25.8868 H   0  0  0  0  0  0
  -20.9304  -29.8771   21.6969 H   0  0  0  0  0  0
  -26.0189  -38.2879   24.1413 H   0  0  0  0  0  0
  -32.2130  -20.3657   21.8744 H   0  0  0  0  0  0
  -32.4676  -16.0924   22.1834 H   0  0  0  0  0  0
  -28.9049  -17.9073   20.5936 H   0  0  0  0  0  0
  -37.8788  -19.8542   23.6945 H   0  0  0  0  0  0
  -36.7206  -21.2204   23.2583 H   0  0  0  0  0  0
  -38.0085  -17.6299   23.9238 H   0  0  0  0  0  0
  -37.0382  -16.0731   23.7498 H   0  0  0  0  0  0
  -34.5393  -20.1644   21.7701 H   0  0  0  0  0  0
  -34.0449  -20.3155   23.4714 H   0  0  0  0  0  0
  -34.2700  -16.6553   23.7903 H   0  0  0  0  0  0
  -34.7655  -16.5723   22.0845 H   0  0  0  0  0  0
  -27.9271  -22.5975   20.8473 H   0  0  0  0  0  0
  -28.8248  -22.5276   19.3505 H   0  0  0  0  0  0
  -30.2204  -24.4951   20.0621 H   0  0  0  0  0  0
  -29.4106  -24.5307   21.6108 H   0  0  0  0  0  0
  -27.2418  -24.9000   20.4676 H   0  0  0  0  0  0
  -28.0528  -24.9892   18.9112 H   0  0  0  0  0  0
  -28.8612  -20.2660   20.2576 H   0  0  0  0  0  0
  -29.0991  -15.3926   21.3117 H   0  0  0  0  0  0
  1 25  1  0  0  0
  1 30  2  0  0  0
  1 89  1  0  0  0
  2  3  1  0  0  0
  2 25  1  0  0  0
  2 91  1  0  0  0
  2 92  1  0  0  0
  3  4  1  0  0  0
  3 93  1  0  0  0
  3 94  1  0  0  0
  4  5  1  0  0  0
  4 95  1  0  0  0
  4 96  1  0  0  0
  5  6  1  0  0  0
  5 26  1  0  0  0
  5 97  1  0  0  0
  6 25  1  0  0  0
  6 98  1  0  0  0
  6 99  1  0  0  0
  7  8  2  0  0  0
  7 26  1  0  0  0
  7 29  1  0  0  0
  8  9  1  0  0  0
  8 22  1  0  0  0
  9 10  1  0  0  0
  9 27  2  0  0  0
 10 11  2  0  0  0
 10 15  1  0  0  0
 11 12  1  0  0  0
 11100  1  0  0  0
 12 13  2  0  0  0
 12101  1  0  0  0
 13 14  1  0  0  0
 13 31  1  0  0  0
 14 15  2  0  0  0
 14102  1  0  0  0
 15103  1  0  0  0
 16 17  2  0  0  0
 16 21  1  0  0  0
 16 31  1  0  0  0
 17 18  1  0  0  0
 17104  1  0  0  0
 18 19  2  0  0  0
 18105  1  0  0  0
 19 20  1  0  0  0
 19 24  1  0  0  0
 20 21  2  0  0  0
 20106  1  0  0  0
 21 23  1  0  0  0
 22 28  1  0  0  0
 22 32  2  0  0  0
 26 27  1  0  0  0
 28107  1  0  0  0
 28108  1  0  0  0
 29109  1  0  0  0
 29110  1  0  0  0
 33 34  1  0  0  0
 33 66  1  0  0  0
 33 70  2  0  0  0
 34 36  1  0  0  0
 34 59  1  0  0  0
 34111  1  0  0  0
 35 44  2  0  0  0
 35 45  1  0  0  0
 35 68  1  0  0  0
 36 56  1  0  0  0
 36112  1  0  0  0
 37 39  1  0  0  0
 37 47  1  0  0  0
 37 66  1  0  0  0
 37113  1  0  0  0
 38 43  2  0  0  0
 38 46  1  0  0  0
 38 47  1  0  0  0
 39 64  1  0  0  0
 39 67  2  0  0  0
 40 52  1  0  0  0
 40 53  2  0  0  0
 40 58  1  0  0  0
 41114  1  0  0  0
 41115  1  0  0  0
 41116  1  0  0  0
 41 48  1  0  0  0
 42 43  1  0  0  0
 42 66  1  0  0  0
 42117  1  0  0  0
 42118  1  0  0  0
 43 44  1  0  0  0
 44119  1  0  0  0
 45 46  2  0  0  0
 45120  1  0  0  0
 46121  1  0  0  0
 47122  1  0  0  0
 47123  1  0  0  0
 48 56  1  0  0  0
 48 65  1  0  0  0
 48124  1  0  0  0
 49 50  1  0  0  0
 49 53  1  0  0  0
 49 64  1  0  0  0
 49125  1  0  0  0
 50 51  1  0  0  0
 50126  1  0  0  0
 50127  1  0  0  0
 51 52  1  0  0  0
 51128  1  0  0  0
 51129  1  0  0  0
 52130  1  0  0  0
 52131  1  0  0  0
 53 54  1  0  0  0
 54 55  2  0  0  0
 54132  1  0  0  0
 55 57  1  0  0  0
 55133  1  0  0  0
 56 69  2  0  0  0
 57 58  2  0  0  0
 57134  1  0  0  0
 58135  1  0  0  0
 59 60  1  0  0  0
 59 61  1  0  0  0
 59 62  1  0  0  0
 60136  1  0  0  0
 60137  1  0  0  0
 60138  1  0  0  0
 61139  1  0  0  0
 61140  1  0  0  0
 61141  1  0  0  0
 62142  1  0  0  0
 62143  1  0  0  0
 62144  1  0  0  0
 63 65  1  0  0  0
 63145  1  0  0  0
 63146  1  0  0  0
 63147  1  0  0  0
 64148  1  0  0  0
 65149  1  0  0  0
 68 86  1  0  0  0
 71 74  2  0  0  0
 71 75  1  0  0  0
 71150  1  0  0  0
 72 74  1  0  0  0
 72 76  2  0  0  0
 72151  1  0  0  0
 73 75  2  0  0  0
 73 76  1  0  0  0
 73152  1  0  0  0
 74 87  1  0  0  0
 75 88  1  0  0  0
 76 89  1  0  0  0
 77 78  1  0  0  0
 77 79  2  0  0  0
 77 82  1  0  0  0
 78 80  2  0  0  0
 78 83  1  0  0  0
 79153  1  0  0  0
 79154  1  0  0  0
 80155  1  0  0  0
 80156  1  0  0  0
 81 84  1  0  0  0
 81 88  1  0  0  0
 81 90  2  0  0  0
 82 87  1  0  0  0
 82157  1  0  0  0
 82158  1  0  0  0
 83 87  1  0  0  0
 83159  1  0  0  0
 83160  1  0  0  0
 84 85  1  0  0  0
 84161  1  0  0  0
 84162  1  0  0  0
 85 86  1  0  0  0
 85163  1  0  0  0
 85164  1  0  0  0
 86165  1  0  0  0
 86166  1  0  0  0
 88167  1  0  0  0
 89168  1  0  0  0
M  ISO  4   1 100  68 101  86 101  89 100
M  END
> <chiral flag>
0

> <version>
0

> <s_m_source_file>
/data/baiqing/PycharmProjects/Reinvent-master-3.2/result/LINK_invent/BTK/process_docking_weight1_custom_product_contain_oxygen_bond_distance_aromatic_linkinvent_7_9_3/rearranged_h_0079.sdf

> <i_m_source_file_index>
25

> <r_mmod_Potential_Energy-OPLS-2005>
-14.2232398986816

> <r_mmod_Stretch_Energy-OPLS-2005>
45.9535598754883

> <r_mmod_Bend_Energy-OPLS-2005>
179.346633911133

> <r_mmod_Torsional_Energy-OPLS-2005>
218.285766601562

> <r_mmod_Improper_Torsional_Energy-OPLS-2005>
3.80286359786987

> <r_mmod_Van_der_Waal_Energy-OPLS-2005>
173.29443359375

> <r_mmod_Electrostatic_Energy-OPLS-2005>
-388.103790283203

> <r_mmod_Solvation_Energy-OPLS-2005>
-264.478393554688

> <b_mmod_Minimization_Converged-OPLS-2005>
0

> <r_mmod_RMS_Derivative-OPLS-2005>
0.681759655475616

$$$$
25
                    3D
 Structure written by MMmdl.
157166  0  0  1  0            999 V2000
  -30.6149  -14.7495   20.5447 C   0  0  0  0  0  0
  -30.4299  -12.4771   19.4777 C   0  0  0  0  0  0
  -29.5112  -12.5404   18.2371 C   0  0  0  0  0  0
  -28.0379  -12.3427   18.6419 C   0  0  0  0  0  0
  -27.6401  -13.2293   19.8496 C   0  0  2  0  0  0
  -28.6734  -13.1282   20.9866 C   0  0  0  0  0  0
  -25.2501  -13.8190   20.5670 C   0  0  0  0  0  0
  -24.1792  -13.0440   20.9189 C   0  0  0  0  0  0
  -24.6380  -11.6914   20.8724 C   0  0  0  0  0  0
  -23.9058  -10.4298   21.0398 C   0  0  0  0  0  0
  -24.3619   -9.4214   21.9171 C   0  0  0  0  0  0
  -23.6298   -8.2251   22.0743 C   0  0  0  0  0  0
  -22.4273   -8.0290   21.3542 C   0  0  0  0  0  0
  -21.9907   -9.0258   20.4640 C   0  0  0  0  0  0
  -22.7232  -10.2136   20.3047 C   0  0  0  0  0  0
  -21.6857   -6.0744   22.5287 C   0  0  0  0  0  0
  -21.4013   -6.5641   23.8222 C   0  0  0  0  0  0
  -21.3659   -5.6788   24.9179 C   0  0  0  0  0  0
  -21.6047   -4.3054   24.7225 C   0  0  0  0  0  0
  -21.8815   -3.8153   23.4346 C   0  0  0  0  0  0
  -21.9195   -4.6973   22.3402 C   0  0  0  0  0  0
  -22.7816  -13.5226   21.1875 C   0  0  0  0  0  0
  -22.1661   -4.2155   21.0977 F   0  0  0  0  0  0
  -21.5630   -3.4537   25.7740 F   0  0  0  0  0  0
  -29.9839  -13.5190   20.4386 N   0  0  0  0  0  0
  -26.2911  -12.9387   20.3224 N   0  0  0  0  0  0
  -25.9303  -11.6532   20.5705 N   0  0  0  0  0  0
  -22.0475  -12.8211   22.0434 N   0  0  0  0  0  0
  -25.4210  -15.1917   20.4114 N   0  0  0  0  0  0
  -31.7324  -14.8943   20.0366 O   0  0  0  0  0  0
  -21.6643   -6.8885   21.4244 O   0  0  0  0  0  0
  -22.3499  -14.5534   20.6732 O   0  0  0  0  0  0
  -24.6335  -31.8545   23.1966 C   0  0  0  0  0  0
  -25.9156  -32.4748   23.8321 C   0  0  1  0  0  0
  -27.2212  -27.2501   20.1115 C   0  0  0  0  0  0
  -25.5948  -33.8556   24.2243 N   0  0  0  0  0  0
  -23.4316  -30.4782   21.5388 C   0  0  2  0  0  0
  -24.8809  -28.9270   20.1038 C   0  0  0  0  0  0
  -22.7514  -29.4619   22.4880 C   0  0  0  0  0  0
  -18.0297  -28.1411   22.8480 C   0  0  0  0  0  0
  -24.1495  -36.7269   23.2639 C   0  0  0  0  0  0
  -25.9809  -30.7604   21.3829 C   0  0  0  0  0  0
  -26.0541  -29.3841   20.7186 C   0  0  0  0  0  0
  -27.2260  -28.5556   20.7168 C   0  0  0  0  0  0
  -26.0186  -26.8630   19.4779 C   0  0  0  0  0  0
  -24.8692  -27.6750   19.4729 C   0  0  0  0  0  0
  -23.6520  -29.8145   20.1543 C   0  0  0  0  0  0
  -25.4127  -36.3063   24.0318 C   0  0  1  0  0  0
  -20.5904  -28.3736   23.1257 C   0  0  2  0  0  0
  -20.6782  -26.9445   22.5433 C   0  0  0  0  0  0
  -19.5774  -26.6400   21.5222 C   0  0  0  0  0  0
  -18.1937  -26.7962   22.1601 C   0  0  0  0  0  0
  -19.1551  -28.8887   23.2869 C   0  0  0  0  0  0
  -18.9474  -30.1477   23.8915 C   0  0  0  0  0  0
  -17.6473  -30.6607   24.0579 C   0  0  0  0  0  0
  -25.9068  -34.9437   23.5079 C   0  0  0  0  0  0
  -16.5363  -29.9114   23.6334 C   0  0  0  0  0  0
  -16.7283  -28.6526   23.0362 C   0  0  0  0  0  0
  -26.4505  -31.6581   25.0724 C   0  0  0  0  0  0
  -25.3701  -31.3757   26.1423 C   0  0  0  0  0  0
  -27.0331  -30.2972   24.6257 C   0  0  0  0  0  0
  -27.6070  -32.4319   25.7477 C   0  0  0  0  0  0
  -27.5586  -37.1789   24.8458 C   0  0  0  0  0  0
  -21.4219  -29.3064   22.3618 N   0  0  0  0  0  0
  -26.4296  -37.3767   23.9403 N   0  0  0  0  0  0
  -24.7008  -31.0488   22.0958 N   0  0  0  0  0  0
  -23.4195  -28.8170   23.3002 O   0  0  0  0  0  0
  -28.2749  -26.3025   20.2044 O   0  0  0  0  0  0
  -26.5650  -34.8915   22.4653 O   0  0  0  0  0  0
  -23.5478  -32.1381   23.7245 O   0  0  0  0  0  0
  -29.2943  -19.6869   21.3342 C   0  0  0  0  0  0
  -29.5899  -19.0787   19.0586 C   0  0  0  0  0  0
  -29.5155  -18.3104   21.6957 C   0  0  0  0  0  0
  -29.8163  -17.7041   19.4213 C   0  0  0  0  0  0
  -29.3181  -20.1453   19.9871 C   0  0  0  0  0  0
  -29.7958  -17.2446   20.7679 C   0  0  0  0  0  0
  -28.6484  -23.9075   19.1650 C   0  0  0  0  0  0
  -28.7525  -23.2286   17.8907 C   0  0  0  0  0  0
  -28.8477  -22.7938   20.1692 C   0  0  0  0  0  0
  -28.5795  -23.7607   16.6641 C   0  0  0  0  0  0
  -28.4094  -25.2920   19.2188 C   0  0  0  0  0  0
  -29.0696  -21.7793   18.0771 C   0  0  0  0  0  0
  -29.9003  -15.6010   22.6655 C   0  0  0  0  0  0
  -29.0783  -21.5626   19.5222 N   0  0  0  0  0  0
  -29.9904  -15.8132   21.2101 N   0  0  0  0  0  0
  -28.8104  -22.9245   21.3972 O   0  0  0  0  0  0
  -31.4714  -12.6070   19.1795 H   0  0  0  0  0  0
  -30.3801  -11.4901   19.9406 H   0  0  0  0  0  0
  -29.8061  -11.7867   17.5061 H   0  0  0  0  0  0
  -29.6289  -13.5081   17.7454 H   0  0  0  0  0  0
  -27.9022  -11.2902   18.8946 H   0  0  0  0  0  0
  -27.3794  -12.5371   17.7943 H   0  0  0  0  0  0
  -27.6459  -14.2595   19.4919 H   0  0  0  0  0  0
  -28.7132  -12.1118   21.3805 H   0  0  0  0  0  0
  -28.3510  -13.7528   21.8158 H   0  0  0  0  0  0
  -25.2764   -9.5699   22.4740 H   0  0  0  0  0  0
  -24.0019   -7.4642   22.7458 H   0  0  0  0  0  0
  -21.0842   -8.8771   19.8949 H   0  0  0  0  0  0
  -22.3683  -10.9674   19.6161 H   0  0  0  0  0  0
  -21.1994   -7.6147   23.9726 H   0  0  0  0  0  0
  -21.1483   -6.0515   25.9081 H   0  0  0  0  0  0
  -22.0587   -2.7615   23.2845 H   0  0  0  0  0  0
  -22.4117  -11.9882   22.4821 H   0  0  0  0  0  0
  -21.1088  -13.1214   22.2649 H   0  0  0  0  0  0
  -24.6562  -15.8472   20.5304 H   0  0  0  0  0  0
  -26.2809  -15.6342   20.1119 H   0  0  0  0  0  0
  -26.7226  -32.5390   23.1065 H   0  0  0  0  0  0
  -25.0085  -33.9694   25.0380 H   0  0  0  0  0  0
  -22.7291  -31.3015   21.3915 H   0  0  0  0  0  0
  -23.3767  -35.9591   23.3305 H   0  0  0  0  0  0
  -24.3564  -36.8895   22.2049 H   0  0  0  0  0  0
  -23.7241  -37.6462   23.6673 H   0  0  0  0  0  0
  -26.1267  -31.5227   20.6162 H   0  0  0  0  0  0
  -26.8546  -30.8029   22.0219 H   0  0  0  0  0  0
  -28.1205  -28.8930   21.2212 H   0  0  0  0  0  0
  -25.9346  -25.8909   19.0145 H   0  0  0  0  0  0
  -23.9682  -27.3150   18.9943 H   0  0  0  0  0  0
  -23.7793  -30.5923   19.4003 H   0  0  0  0  0  0
  -22.7702  -29.2503   19.8455 H   0  0  0  0  0  0
  -25.1312  -36.1905   25.0811 H   0  0  0  0  0  0
  -21.0000  -28.3356   24.1379 H   0  0  0  0  0  0
  -20.5659  -26.2365   23.3654 H   0  0  0  0  0  0
  -21.6653  -26.7450   22.1263 H   0  0  0  0  0  0
  -19.6939  -25.6305   21.1265 H   0  0  0  0  0  0
  -19.6737  -27.3203   20.6745 H   0  0  0  0  0  0
  -17.4231  -26.6763   21.3974 H   0  0  0  0  0  0
  -18.0295  -26.0092   22.8973 H   0  0  0  0  0  0
  -19.7945  -30.7280   24.2311 H   0  0  0  0  0  0
  -17.5028  -31.6280   24.5193 H   0  0  0  0  0  0
  -15.5366  -30.3028   23.7639 H   0  0  0  0  0  0
  -15.8681  -28.0839   22.7091 H   0  0  0  0  0  0
  -24.6039  -30.6882   25.7811 H   0  0  0  0  0  0
  -24.8678  -32.2902   26.4594 H   0  0  0  0  0  0
  -25.8027  -30.9213   27.0343 H   0  0  0  0  0  0
  -26.2917  -29.6725   24.1253 H   0  0  0  0  0  0
  -27.3928  -29.7241   25.4810 H   0  0  0  0  0  0
  -27.8843  -30.4189   23.9552 H   0  0  0  0  0  0
  -27.2711  -33.3656   26.2004 H   0  0  0  0  0  0
  -28.3898  -32.6814   25.0301 H   0  0  0  0  0  0
  -28.0720  -31.8470   26.5424 H   0  0  0  0  0  0
  -28.2622  -38.0069   24.7481 H   0  0  0  0  0  0
  -28.1068  -36.2596   24.6315 H   0  0  0  0  0  0
  -27.2305  -37.1485   25.8865 H   0  0  0  0  0  0
  -20.9410  -29.8757   21.6789 H   0  0  0  0  0  0
  -26.0173  -38.2838   24.1422 H   0  0  0  0  0  0
  -29.0938  -20.3944   22.1268 H   0  0  0  0  0  0
  -29.6322  -19.2900   18.0002 H   0  0  0  0  0  0
  -29.4570  -18.0984   22.7519 H   0  0  0  0  0  0
  -30.0019  -16.9956   18.6271 H   0  0  0  0  0  0
  -28.3352  -24.7955   16.4832 H   0  0  0  0  0  0
  -28.6794  -23.1392   15.7853 H   0  0  0  0  0  0
  -28.3207  -25.8061   18.2762 H   0  0  0  0  0  0
  -30.0468  -21.5591   17.6461 H   0  0  0  0  0  0
  -28.3104  -21.1635   17.5930 H   0  0  0  0  0  0
  -28.9046  -15.8639   23.0256 H   0  0  0  0  0  0
  -30.6316  -16.2209   23.1851 H   0  0  0  0  0  0
  -30.0973  -14.5767   22.9889 H   0  0  0  0  0  0
  1 25  1  0  0  0
  1 30  2  0  0  0
  1 85  1  0  0  0
  2  3  1  0  0  0
  2 25  1  0  0  0
  2 87  1  0  0  0
  2 88  1  0  0  0
  3  4  1  0  0  0
  3 89  1  0  0  0
  3 90  1  0  0  0
  4  5  1  0  0  0
  4 91  1  0  0  0
  4 92  1  0  0  0
  5  6  1  0  0  0
  5 26  1  0  0  0
  5 93  1  0  0  0
  6 25  1  0  0  0
  6 94  1  0  0  0
  6 95  1  0  0  0
  7  8  2  0  0  0
  7 26  1  0  0  0
  7 29  1  0  0  0
  8  9  1  0  0  0
  8 22  1  0  0  0
  9 10  1  0  0  0
  9 27  2  0  0  0
 10 11  2  0  0  0
 10 15  1  0  0  0
 11 12  1  0  0  0
 11 96  1  0  0  0
 12 13  2  0  0  0
 12 97  1  0  0  0
 13 14  1  0  0  0
 13 31  1  0  0  0
 14 15  2  0  0  0
 14 98  1  0  0  0
 15 99  1  0  0  0
 16 17  2  0  0  0
 16 21  1  0  0  0
 16 31  1  0  0  0
 17 18  1  0  0  0
 17100  1  0  0  0
 18 19  2  0  0  0
 18101  1  0  0  0
 19 20  1  0  0  0
 19 24  1  0  0  0
 20 21  2  0  0  0
 20102  1  0  0  0
 21 23  1  0  0  0
 22 28  1  0  0  0
 22 32  2  0  0  0
 26 27  1  0  0  0
 28103  1  0  0  0
 28104  1  0  0  0
 29105  1  0  0  0
 29106  1  0  0  0
 33 34  1  0  0  0
 33 66  1  0  0  0
 33 70  2  0  0  0
 34 36  1  0  0  0
 34 59  1  0  0  0
 34107  1  0  0  0
 35 44  2  0  0  0
 35 45  1  0  0  0
 35 68  1  0  0  0
 36 56  1  0  0  0
 36108  1  0  0  0
 37 39  1  0  0  0
 37 47  1  0  0  0
 37 66  1  0  0  0
 37109  1  0  0  0
 38 43  2  0  0  0
 38 46  1  0  0  0
 38 47  1  0  0  0
 39 64  1  0  0  0
 39 67  2  0  0  0
 40 52  1  0  0  0
 40 53  2  0  0  0
 40 58  1  0  0  0
 41110  1  0  0  0
 41111  1  0  0  0
 41112  1  0  0  0
 41 48  1  0  0  0
 42 43  1  0  0  0
 42 66  1  0  0  0
 42113  1  0  0  0
 42114  1  0  0  0
 43 44  1  0  0  0
 44115  1  0  0  0
 45 46  2  0  0  0
 45116  1  0  0  0
 46117  1  0  0  0
 47118  1  0  0  0
 47119  1  0  0  0
 48 56  1  0  0  0
 48 65  1  0  0  0
 48120  1  0  0  0
 49 50  1  0  0  0
 49 53  1  0  0  0
 49 64  1  0  0  0
 49121  1  0  0  0
 50 51  1  0  0  0
 50122  1  0  0  0
 50123  1  0  0  0
 51 52  1  0  0  0
 51124  1  0  0  0
 51125  1  0  0  0
 52126  1  0  0  0
 52127  1  0  0  0
 53 54  1  0  0  0
 54 55  2  0  0  0
 54128  1  0  0  0
 55 57  1  0  0  0
 55129  1  0  0  0
 56 69  2  0  0  0
 57 58  2  0  0  0
 57130  1  0  0  0
 58131  1  0  0  0
 59 60  1  0  0  0
 59 61  1  0  0  0
 59 62  1  0  0  0
 60132  1  0  0  0
 60133  1  0  0  0
 60134  1  0  0  0
 61135  1  0  0  0
 61136  1  0  0  0
 61137  1  0  0  0
 62138  1  0  0  0
 62139  1  0  0  0
 62140  1  0  0  0
 63 65  1  0  0  0
 63141  1  0  0  0
 63142  1  0  0  0
 63143  1  0  0  0
 64144  1  0  0  0
 65145  1  0  0  0
 68 81  1  0  0  0
 71 73  2  0  0  0
 71 75  1  0  0  0
 71146  1  0  0  0
 72 74  1  0  0  0
 72 75  2  0  0  0
 72147  1  0  0  0
 73 76  1  0  0  0
 73148  1  0  0  0
 74 76  2  0  0  0
 74149  1  0  0  0
 75 84  1  0  0  0
 76 85  1  0  0  0
 77 78  1  0  0  0
 77 79  1  0  0  0
 77 81  2  0  0  0
 78 80  2  0  0  0
 78 82  1  0  0  0
 79 84  1  0  0  0
 79 86  2  0  0  0
 80150  1  0  0  0
 80151  1  0  0  0
 81152  1  0  0  0
 82 84  1  0  0  0
 82153  1  0  0  0
 82154  1  0  0  0
 83 85  1  0  0  0
 83155  1  0  0  0
 83156  1  0  0  0
 83157  1  0  0  0
M  ISO  4   1 100  68 101  81 101  85 100
M  END
> <chiral flag>
0

> <version>
0

> <s_m_source_file>
/data/baiqing/PycharmProjects/Reinvent-master-3.2/result/LINK_invent/BTK/process_docking_weight1_custom_product_contain_oxygen_bond_distance_aromatic_linkinvent_7_9_3/rearranged_h_0079.sdf

> <i_m_source_file_index>
26

> <r_mmod_Potential_Energy-OPLS-2005>
540.200317382812

> <r_mmod_Stretch_Energy-OPLS-2005>
142.81982421875

> <r_mmod_Bend_Energy-OPLS-2005>
273.100830078125

> <r_mmod_Torsional_Energy-OPLS-2005>
309.138122558594

> <r_mmod_Improper_Torsional_Energy-OPLS-2005>
3.11979627609253

> <r_mmod_Van_der_Waal_Energy-OPLS-2005>
157.832275390625

> <r_mmod_Electrostatic_Energy-OPLS-2005>
-233.877426147461

> <r_mmod_Solvation_Energy-OPLS-2005>
-204.976364135742

> <b_mmod_Minimization_Converged-OPLS-2005>
0

> <r_mmod_RMS_Derivative-OPLS-2005>
1.48940145969391

$$$$
26
                    3D
 Structure written by MMmdl.
143151  0  0  1  0            999 V2000
  -30.3550  -15.4727   20.3464 C   0  0  0  0  0  0
  -30.4320  -12.9594   19.5354 C   0  0  0  0  0  0
  -29.5436  -12.6209   18.3075 C   0  0  0  0  0  0
  -28.1046  -12.2999   18.7423 C   0  0  0  0  0  0
  -27.6016  -13.2928   19.8168 C   0  0  2  0  0  0
  -28.6258  -13.5530   20.9439 C   0  0  0  0  0  0
  -25.2343  -13.8266   20.5768 C   0  0  0  0  0  0
  -24.1719  -13.0433   20.9278 C   0  0  0  0  0  0
  -24.6401  -11.6939   20.8767 C   0  0  0  0  0  0
  -23.9103  -10.4292   21.0403 C   0  0  0  0  0  0
  -24.3644   -9.4205   21.9182 C   0  0  0  0  0  0
  -23.6309   -8.2244   22.0752 C   0  0  0  0  0  0
  -22.4289   -8.0285   21.3544 C   0  0  0  0  0  0
  -21.9933   -9.0259   20.4644 C   0  0  0  0  0  0
  -22.7273  -10.2134   20.3052 C   0  0  0  0  0  0
  -21.6857   -6.0739   22.5280 C   0  0  0  0  0  0
  -21.4018   -6.5642   23.8213 C   0  0  0  0  0  0
  -21.3661   -5.6793   24.9175 C   0  0  0  0  0  0
  -21.6043   -4.3055   24.7225 C   0  0  0  0  0  0
  -21.8818   -3.8149   23.4345 C   0  0  0  0  0  0
  -21.9194   -4.6966   22.3403 C   0  0  0  0  0  0
  -22.7734  -13.5173   21.1919 C   0  0  0  0  0  0
  -22.1661   -4.2151   21.0979 F   0  0  0  0  0  0
  -21.5628   -3.4539   25.7738 F   0  0  0  0  0  0
  -29.8255  -14.1271   20.3022 N   0  0  0  0  0  0
  -26.2779  -12.9572   20.3217 N   0  0  0  0  0  0
  -25.9342  -11.6659   20.5708 N   0  0  0  0  0  0
  -22.0397  -12.8151   22.0473 N   0  0  0  0  0  0
  -25.3944  -15.2005   20.4197 N   0  0  0  0  0  0
  -31.5848  -15.4412   20.1619 O   0  0  0  0  0  0
  -21.6646   -6.8886   21.4243 O   0  0  0  0  0  0
  -22.3411  -14.5472   20.6756 O   0  0  0  0  0  0
  -24.6739  -31.8099   23.1589 C   0  0  0  0  0  0
  -25.9367  -32.4515   23.8101 C   0  0  1  0  0  0
  -27.2221  -26.7900   20.2110 C   0  0  0  0  0  0
  -25.5985  -33.8337   24.1996 N   0  0  0  0  0  0
  -23.4951  -30.4144   21.5106 C   0  0  2  0  0  0
  -24.9502  -28.7687   20.1193 C   0  0  0  0  0  0
  -22.7718  -29.4364   22.4742 C   0  0  0  0  0  0
  -18.0334  -28.1414   22.8464 C   0  0  0  0  0  0
  -24.1496  -36.7175   23.2651 C   0  0  0  0  0  0
  -26.0701  -30.5688   21.4127 C   0  0  0  0  0  0
  -26.1337  -29.1410   20.7674 C   0  0  0  0  0  0
  -27.2550  -28.1748   20.7875 C   0  0  0  0  0  0
  -26.0112  -26.6053   19.5007 C   0  0  0  0  0  0
  -24.9213  -27.5238   19.4661 C   0  0  0  0  0  0
  -23.7439  -29.7154   20.1433 C   0  0  0  0  0  0
  -25.4143  -36.2924   24.0288 C   0  0  1  0  0  0
  -20.5962  -28.3767   23.1166 C   0  0  2  0  0  0
  -20.6803  -26.9437   22.5404 C   0  0  0  0  0  0
  -19.5779  -26.6373   21.5217 C   0  0  0  0  0  0
  -18.1962  -26.7945   22.1622 C   0  0  0  0  0  0
  -19.1597  -28.8915   23.2798 C   0  0  0  0  0  0
  -18.9503  -30.1502   23.8838 C   0  0  0  0  0  0
  -17.6494  -30.6600   24.0555 C   0  0  0  0  0  0
  -25.9117  -34.9311   23.4974 C   0  0  0  0  0  0
  -16.5385  -29.9084   23.6347 C   0  0  0  0  0  0
  -16.7315  -28.6506   23.0365 C   0  0  0  0  0  0
  -26.4576  -31.6516   25.0689 C   0  0  0  0  0  0
  -25.3663  -31.3808   26.1317 C   0  0  0  0  0  0
  -27.0499  -30.2864   24.6532 C   0  0  0  0  0  0
  -27.6036  -32.4362   25.7502 C   0  0  0  0  0  0
  -27.5568  -37.1744   24.8465 C   0  0  0  0  0  0
  -21.4376  -29.3032   22.3495 N   0  0  0  0  0  0
  -26.4275  -37.3675   23.9408 N   0  0  0  0  0  0
  -24.7687  -30.9627   22.0799 N   0  0  0  0  0  0
  -23.4208  -28.7957   23.3046 O   0  0  0  0  0  0
  -28.2497  -25.6605   20.2323 O   0  0  0  0  0  0
  -26.5748  -34.8871   22.4584 O   0  0  0  0  0  0
  -23.5782  -32.1141   23.6598 O   0  0  0  0  0  0
  -28.5665  -22.8752   20.2778 C   0  0  0  0  0  0
  -28.2879  -24.1719   20.2589 C   0  0  0  0  0  0
  -31.5191  -20.2294   20.1117 C   0  0  0  0  0  0
  -30.6545  -21.3600   20.1490 C   0  0  0  0  0  0
  -31.1175  -18.8682   20.1936 C   0  0  0  0  0  0
  -28.8745  -19.7656   20.3614 C   0  0  0  0  0  0
  -29.2451  -21.3080   20.2740 C   0  0  0  0  0  0
  -29.7757  -18.4522   20.3276 C   0  0  0  0  0  0
  -29.5705  -16.7871   20.4048 N   0  0  0  0  0  0
  -31.4367  -13.1986   19.1850 H   0  0  0  0  0  0
  -30.5529  -12.0868   20.1796 H   0  0  0  0  0  0
  -29.9648  -11.7845   17.7480 H   0  0  0  0  0  0
  -29.5343  -13.4729   17.6260 H   0  0  0  0  0  0
  -28.0990  -11.2883   19.1498 H   0  0  0  0  0  0
  -27.4351  -12.2888   17.8812 H   0  0  0  0  0  0
  -27.4877  -14.2360   19.2807 H   0  0  0  0  0  0
  -28.8459  -12.6449   21.5071 H   0  0  0  0  0  0
  -28.2241  -14.2717   21.6599 H   0  0  0  0  0  0
  -25.2783   -9.5679   22.4766 H   0  0  0  0  0  0
  -24.0011   -7.4635   22.7475 H   0  0  0  0  0  0
  -21.0863   -8.8786   19.8950 H   0  0  0  0  0  0
  -22.3730  -10.9675   19.6165 H   0  0  0  0  0  0
  -21.2013   -7.6150   23.9718 H   0  0  0  0  0  0
  -21.1483   -6.0523   25.9077 H   0  0  0  0  0  0
  -22.0595   -2.7610   23.2845 H   0  0  0  0  0  0
  -22.4035  -11.9825   22.4867 H   0  0  0  0  0  0
  -21.1004  -13.1148   22.2671 H   0  0  0  0  0  0
  -24.6193  -15.8460   20.5276 H   0  0  0  0  0  0
  -26.2269  -15.6418   20.0527 H   0  0  0  0  0  0
  -26.7442  -32.5009   23.0811 H   0  0  0  0  0  0
  -25.0051  -33.9394   25.0093 H   0  0  0  0  0  0
  -22.8152  -31.2491   21.3269 H   0  0  0  0  0  0
  -23.3780  -35.9480   23.3255 H   0  0  0  0  0  0
  -24.3570  -36.8895   22.2077 H   0  0  0  0  0  0
  -23.7228  -37.6329   23.6762 H   0  0  0  0  0  0
  -26.2656  -31.2970   20.6246 H   0  0  0  0  0  0
  -26.9243  -30.6333   22.0742 H   0  0  0  0  0  0
  -28.1523  -28.4673   21.3144 H   0  0  0  0  0  0
  -25.8742  -25.6643   18.9866 H   0  0  0  0  0  0
  -24.0270  -27.2343   18.9315 H   0  0  0  0  0  0
  -23.9133  -30.4772   19.3815 H   0  0  0  0  0  0
  -22.8503  -29.1777   19.8215 H   0  0  0  0  0  0
  -25.1347  -36.1697   25.0778 H   0  0  0  0  0  0
  -21.0051  -28.3385   24.1291 H   0  0  0  0  0  0
  -20.5679  -26.2388   23.3656 H   0  0  0  0  0  0
  -21.6664  -26.7397   22.1215 H   0  0  0  0  0  0
  -19.6937  -25.6267   21.1288 H   0  0  0  0  0  0
  -19.6721  -27.3147   20.6719 H   0  0  0  0  0  0
  -17.4232  -26.6695   21.4025 H   0  0  0  0  0  0
  -18.0351  -26.0099   22.9028 H   0  0  0  0  0  0
  -19.7977  -30.7335   24.2181 H   0  0  0  0  0  0
  -17.5044  -31.6275   24.5165 H   0  0  0  0  0  0
  -15.5383  -30.2966   23.7703 H   0  0  0  0  0  0
  -15.8717  -28.0803   22.7114 H   0  0  0  0  0  0
  -24.5863  -30.7146   25.7616 H   0  0  0  0  0  0
  -24.8835  -32.3023   26.4577 H   0  0  0  0  0  0
  -25.7855  -30.9075   27.0205 H   0  0  0  0  0  0
  -26.3199  -29.6492   24.1530 H   0  0  0  0  0  0
  -27.3963  -29.7290   25.5246 H   0  0  0  0  0  0
  -27.9166  -30.4011   24.0020 H   0  0  0  0  0  0
  -27.2582  -33.3726   26.1898 H   0  0  0  0  0  0
  -28.3937  -32.6825   25.0397 H   0  0  0  0  0  0
  -28.0604  -31.8614   26.5568 H   0  0  0  0  0  0
  -28.2548  -38.0073   24.7521 H   0  0  0  0  0  0
  -28.1101  -36.2596   24.6282 H   0  0  0  0  0  0
  -27.2285  -37.1368   25.8866 H   0  0  0  0  0  0
  -20.9660  -29.8691   21.6578 H   0  0  0  0  0  0
  -26.0110  -38.2727   24.1420 H   0  0  0  0  0  0
  -32.5779  -20.4236   20.0120 H   0  0  0  0  0  0
  -31.1237  -22.3316   20.0745 H   0  0  0  0  0  0
  -31.8938  -18.1172   20.1502 H   0  0  0  0  0  0
  -27.8156  -19.5764   20.4614 H   0  0  0  0  0  0
  -28.5941  -16.5541   20.5118 H   0  0  0  0  0  0
  1 25  1  0  0  0
  1 30  2  0  0  0
  1 79  1  0  0  0
  2  3  1  0  0  0
  2 25  1  0  0  0
  2 80  1  0  0  0
  2 81  1  0  0  0
  3  4  1  0  0  0
  3 82  1  0  0  0
  3 83  1  0  0  0
  4  5  1  0  0  0
  4 84  1  0  0  0
  4 85  1  0  0  0
  5  6  1  0  0  0
  5 26  1  0  0  0
  5 86  1  0  0  0
  6 25  1  0  0  0
  6 87  1  0  0  0
  6 88  1  0  0  0
  7  8  2  0  0  0
  7 26  1  0  0  0
  7 29  1  0  0  0
  8  9  1  0  0  0
  8 22  1  0  0  0
  9 10  1  0  0  0
  9 27  2  0  0  0
 10 11  2  0  0  0
 10 15  1  0  0  0
 11 12  1  0  0  0
 11 89  1  0  0  0
 12 13  2  0  0  0
 12 90  1  0  0  0
 13 14  1  0  0  0
 13 31  1  0  0  0
 14 15  2  0  0  0
 14 91  1  0  0  0
 15 92  1  0  0  0
 16 17  2  0  0  0
 16 21  1  0  0  0
 16 31  1  0  0  0
 17 18  1  0  0  0
 17 93  1  0  0  0
 18 19  2  0  0  0
 18 94  1  0  0  0
 19 20  1  0  0  0
 19 24  1  0  0  0
 20 21  2  0  0  0
 20 95  1  0  0  0
 21 23  1  0  0  0
 22 28  1  0  0  0
 22 32  2  0  0  0
 26 27  1  0  0  0
 28 96  1  0  0  0
 28 97  1  0  0  0
 29 98  1  0  0  0
 29 99  1  0  0  0
 33 34  1  0  0  0
 33 66  1  0  0  0
 33 70  2  0  0  0
 34 36  1  0  0  0
 34 59  1  0  0  0
 34100  1  0  0  0
 35 44  2  0  0  0
 35 45  1  0  0  0
 35 68  1  0  0  0
 36 56  1  0  0  0
 36101  1  0  0  0
 37 39  1  0  0  0
 37 47  1  0  0  0
 37 66  1  0  0  0
 37102  1  0  0  0
 38 43  2  0  0  0
 38 46  1  0  0  0
 38 47  1  0  0  0
 39 64  1  0  0  0
 39 67  2  0  0  0
 40 52  1  0  0  0
 40 53  2  0  0  0
 40 58  1  0  0  0
 41103  1  0  0  0
 41104  1  0  0  0
 41105  1  0  0  0
 41 48  1  0  0  0
 42 43  1  0  0  0
 42 66  1  0  0  0
 42106  1  0  0  0
 42107  1  0  0  0
 43 44  1  0  0  0
 44108  1  0  0  0
 45 46  2  0  0  0
 45109  1  0  0  0
 46110  1  0  0  0
 47111  1  0  0  0
 47112  1  0  0  0
 48 56  1  0  0  0
 48 65  1  0  0  0
 48113  1  0  0  0
 49 50  1  0  0  0
 49 53  1  0  0  0
 49 64  1  0  0  0
 49114  1  0  0  0
 50 51  1  0  0  0
 50115  1  0  0  0
 50116  1  0  0  0
 51 52  1  0  0  0
 51117  1  0  0  0
 51118  1  0  0  0
 52119  1  0  0  0
 52120  1  0  0  0
 53 54  1  0  0  0
 54 55  2  0  0  0
 54121  1  0  0  0
 55 57  1  0  0  0
 55122  1  0  0  0
 56 69  2  0  0  0
 57 58  2  0  0  0
 57123  1  0  0  0
 58124  1  0  0  0
 59 60  1  0  0  0
 59 61  1  0  0  0
 59 62  1  0  0  0
 60125  1  0  0  0
 60126  1  0  0  0
 60127  1  0  0  0
 61128  1  0  0  0
 61129  1  0  0  0
 61130  1  0  0  0
 62131  1  0  0  0
 62132  1  0  0  0
 62133  1  0  0  0
 63 65  1  0  0  0
 63134  1  0  0  0
 63135  1  0  0  0
 63136  1  0  0  0
 64137  1  0  0  0
 65138  1  0  0  0
 68 72  1  0  0  0
 71 72  3  0  0  0
 71 77  1  0  0  0
 73 74  2  0  0  0
 73 75  1  0  0  0
 73139  1  0  0  0
 74 77  1  0  0  0
 74140  1  0  0  0
 75 78  2  0  0  0
 75141  1  0  0  0
 76 77  2  0  0  0
 76 78  1  0  0  0
 76142  1  0  0  0
 78 79  1  0  0  0
 79143  1  0  0  0
M  ISO  4   1 100  68 101  72 101  79 100
M  END
> <chiral flag>
0

> <version>
0

> <s_m_source_file>
/data/baiqing/PycharmProjects/Reinvent-master-3.2/result/LINK_invent/BTK/process_docking_weight1_custom_product_contain_oxygen_bond_distance_aromatic_linkinvent_7_9_3/rearranged_h_0079.sdf

> <i_m_source_file_index>
27

> <r_mmod_Potential_Energy-OPLS-2005>
1630.74438476562

> <r_mmod_Stretch_Energy-OPLS-2005>
730.737670898438

> <r_mmod_Bend_Energy-OPLS-2005>
438.162933349609

> <r_mmod_Torsional_Energy-OPLS-2005>
204.889663696289

> <r_mmod_Improper_Torsional_Energy-OPLS-2005>
3.80088758468628

> <r_mmod_Van_der_Waal_Energy-OPLS-2005>
125.237854003906

> <r_mmod_Electrostatic_Energy-OPLS-2005>
-340.609344482422

> <r_mmod_Solvation_Energy-OPLS-2005>
-214.764633178711

> <b_mmod_Minimization_Converged-OPLS-2005>
0

> <r_mmod_RMS_Derivative-OPLS-2005>
0.325423032045364

$$$$
27
                    3D
 Structure written by MMmdl.
154162  0  0  1  0            999 V2000
  -30.6643  -14.5296   20.5514 C   0  0  0  0  0  0
  -30.4324  -12.3353   19.4330 C   0  0  0  0  0  0
  -29.5017  -12.5113   18.2136 C   0  0  0  0  0  0
  -28.0228  -12.3628   18.6237 C   0  0  0  0  0  0
  -27.6613  -13.2074   19.8747 C   0  0  2  0  0  0
  -28.7033  -13.0009   20.9979 C   0  0  0  0  0  0
  -25.2588  -13.8155   20.5680 C   0  0  0  0  0  0
  -24.1837  -13.0433   20.9168 C   0  0  0  0  0  0
  -24.6391  -11.6900   20.8726 C   0  0  0  0  0  0
  -23.9058  -10.4289   21.0403 C   0  0  0  0  0  0
  -24.3612   -9.4207   21.9181 C   0  0  0  0  0  0
  -23.6285   -8.2245   22.0754 C   0  0  0  0  0  0
  -22.4268   -8.0281   21.3547 C   0  0  0  0  0  0
  -21.9900   -9.0255   20.4651 C   0  0  0  0  0  0
  -22.7231  -10.2131   20.3055 C   0  0  0  0  0  0
  -21.6852   -6.0732   22.5279 C   0  0  0  0  0  0
  -21.4016   -6.5637   23.8212 C   0  0  0  0  0  0
  -21.3657   -5.6791   24.9175 C   0  0  0  0  0  0
  -21.6044   -4.3054   24.7226 C   0  0  0  0  0  0
  -21.8819   -3.8144   23.4347 C   0  0  0  0  0  0
  -21.9192   -4.6960   22.3403 C   0  0  0  0  0  0
  -22.7863  -13.5239   21.1836 C   0  0  0  0  0  0
  -22.1662   -4.2147   21.0981 F   0  0  0  0  0  0
  -21.5626   -3.4535   25.7738 F   0  0  0  0  0  0
  -30.0326  -13.3237   20.4499 N   0  0  0  0  0  0
  -26.3023  -12.9325   20.3357 N   0  0  0  0  0  0
  -25.9319  -11.6486   20.5754 N   0  0  0  0  0  0
  -22.0498  -12.8241   22.0396 N   0  0  0  0  0  0
  -25.4310  -15.1877   20.4115 N   0  0  0  0  0  0
  -31.7889  -14.7313   20.0823 O   0  0  0  0  0  0
  -21.6637   -6.8876   21.4242 O   0  0  0  0  0  0
  -22.3558  -14.5551   20.6690 O   0  0  0  0  0  0
  -24.6179  -31.8652   23.2077 C   0  0  0  0  0  0
  -25.9056  -32.4811   23.8387 C   0  0  1  0  0  0
  -27.2348  -27.4049   20.1036 C   0  0  0  0  0  0
  -25.5898  -33.8609   24.2317 N   0  0  0  0  0  0
  -23.4093  -30.4871   21.5480 C   0  0  2  0  0  0
  -24.8600  -28.9507   20.1122 C   0  0  0  0  0  0
  -22.7433  -29.4636   22.4969 C   0  0  0  0  0  0
  -18.0272  -28.1375   22.8488 C   0  0  0  0  0  0
  -24.1486  -36.7312   23.2639 C   0  0  0  0  0  0
  -25.9416  -30.8220   21.3669 C   0  0  0  0  0  0
  -26.0219  -29.4543   20.7131 C   0  0  0  0  0  0
  -27.2158  -28.6882   20.7078 C   0  0  0  0  0  0
  -26.0603  -26.9254   19.4926 C   0  0  0  0  0  0
  -24.8754  -27.6864   19.4972 C   0  0  0  0  0  0
  -23.6214  -29.8192   20.1631 C   0  0  0  0  0  0
  -25.4107  -36.3106   24.0336 C   0  0  1  0  0  0
  -20.5865  -28.3668   23.1303 C   0  0  2  0  0  0
  -20.6760  -26.9399   22.5414 C   0  0  0  0  0  0
  -19.5741  -26.6379   21.5208 C   0  0  0  0  0  0
  -18.1919  -26.7920   22.1620 C   0  0  0  0  0  0
  -19.1522  -28.8837   23.2894 C   0  0  0  0  0  0
  -18.9451  -30.1441   23.8909 C   0  0  0  0  0  0
  -17.6454  -30.6584   24.0558 C   0  0  0  0  0  0
  -25.9034  -34.9469   23.5125 C   0  0  0  0  0  0
  -16.5345  -29.9086   23.6326 C   0  0  0  0  0  0
  -16.7261  -28.6500   23.0352 C   0  0  0  0  0  0
  -26.4476  -31.6596   25.0725 C   0  0  0  0  0  0
  -25.3736  -31.3709   26.1471 C   0  0  0  0  0  0
  -27.0311  -30.3032   24.6122 C   0  0  0  0  0  0
  -27.6051  -32.4317   25.7486 C   0  0  0  0  0  0
  -27.5578  -37.1811   24.8465 C   0  0  0  0  0  0
  -21.4153  -29.3032   22.3712 N   0  0  0  0  0  0
  -26.4295  -37.3789   23.9404 N   0  0  0  0  0  0
  -24.6745  -31.0726   22.0991 N   0  0  0  0  0  0
  -23.4187  -28.8172   23.3020 O   0  0  0  0  0  0
  -28.3413  -26.5764   20.1183 O   0  0  0  0  0  0
  -26.5601  -34.8924   22.4689 O   0  0  0  0  0  0
  -23.5361  -32.1411   23.7450 O   0  0  0  0  0  0
  -30.3528  -19.2950   21.1453 C   0  0  0  0  0  0
  -29.0342  -18.6540   19.2167 C   0  0  0  0  0  0
  -30.4872  -17.9227   21.4994 C   0  0  0  0  0  0
  -29.1663  -17.2886   19.5693 C   0  0  0  0  0  0
  -29.6259  -19.6849   19.9916 C   0  0  0  0  0  0
  -29.9062  -16.8986   20.7091 C   0  0  0  0  0  0
  -28.4031  -25.7122   21.1964 C   0  0  0  0  0  0
  -29.5148  -21.1056   19.5353 C   0  0  0  0  0  0
  -28.6992  -24.3797   21.2209 C   0  0  0  0  0  0
  -29.0238  -23.5579   20.0446 C   0  0  0  0  0  0
  -29.9358  -15.5213   21.1129 N   0  0  0  0  0  0
  -29.2129  -22.1449   20.3633 N   0  0  0  0  0  0
  -29.7192  -21.3192   18.2302 N   0  3  0  0  0  0
  -29.1320  -23.9668   18.8823 O   0  0  0  0  0  0
  -28.6886  -23.7534   22.4108 O   0  0  0  0  0  0
  -31.4758  -12.4463   19.1323 H   0  0  0  0  0  0
  -30.3470  -11.3257   19.8375 H   0  0  0  0  0  0
  -29.7493  -11.7813   17.4418 H   0  0  0  0  0  0
  -29.6619  -13.4939   17.7666 H   0  0  0  0  0  0
  -27.8407  -11.3065   18.8264 H   0  0  0  0  0  0
  -27.3721  -12.6279   17.7897 H   0  0  0  0  0  0
  -27.6995  -14.2526   19.5692 H   0  0  0  0  0  0
  -28.6904  -11.9647   21.3395 H   0  0  0  0  0  0
  -28.4543  -13.5965   21.8772 H   0  0  0  0  0  0
  -25.2756   -9.5682   22.4756 H   0  0  0  0  0  0
  -23.9994   -7.4636   22.7471 H   0  0  0  0  0  0
  -21.0830   -8.8774   19.8958 H   0  0  0  0  0  0
  -22.3689  -10.9669   19.6163 H   0  0  0  0  0  0
  -21.2012   -7.6146   23.9716 H   0  0  0  0  0  0
  -21.1478   -6.0520   25.9078 H   0  0  0  0  0  0
  -22.0601   -2.7606   23.2850 H   0  0  0  0  0  0
  -22.4095  -11.9893   22.4785 H   0  0  0  0  0  0
  -21.1124  -13.1289   22.2604 H   0  0  0  0  0  0
  -24.6643  -15.8419   20.5245 H   0  0  0  0  0  0
  -26.2847  -15.6312   20.0994 H   0  0  0  0  0  0
  -26.7128  -32.5520   23.1152 H   0  0  0  0  0  0
  -25.0044  -33.9766   25.0459 H   0  0  0  0  0  0
  -22.6993  -31.3046   21.4066 H   0  0  0  0  0  0
  -23.3741  -35.9654   23.3321 H   0  0  0  0  0  0
  -24.3579  -36.8910   22.2050 H   0  0  0  0  0  0
  -23.7252  -37.6528   23.6644 H   0  0  0  0  0  0
  -26.0584  -31.5880   20.5990 H   0  0  0  0  0  0
  -26.8272  -30.8753   21.9883 H   0  0  0  0  0  0
  -28.1113  -29.0660   21.1810 H   0  0  0  0  0  0
  -26.0621  -25.9489   19.0287 H   0  0  0  0  0  0
  -23.9827  -27.2926   19.0307 H   0  0  0  0  0  0
  -23.7303  -30.5943   19.4039 H   0  0  0  0  0  0
  -22.7456  -29.2395   19.8662 H   0  0  0  0  0  0
  -25.1286  -36.1972   25.0830 H   0  0  0  0  0  0
  -20.9955  -28.3237   24.1423 H   0  0  0  0  0  0
  -20.5650  -26.2275   23.3604 H   0  0  0  0  0  0
  -21.6635  -26.7431   22.1216 H   0  0  0  0  0  0
  -19.6904  -25.6292   21.1232 H   0  0  0  0  0  0
  -19.6682  -27.3193   20.6739 H   0  0  0  0  0  0
  -17.4187  -26.6663   21.4024 H   0  0  0  0  0  0
  -18.0325  -26.0061   22.9016 H   0  0  0  0  0  0
  -19.7929  -30.7248   24.2288 H   0  0  0  0  0  0
  -17.5012  -31.6267   24.5155 H   0  0  0  0  0  0
  -15.5347  -30.2991   23.7644 H   0  0  0  0  0  0
  -15.8658  -28.0818   22.7071 H   0  0  0  0  0  0
  -24.5899  -30.7069   25.7805 H   0  0  0  0  0  0
  -24.8939  -32.2867   26.4933 H   0  0  0  0  0  0
  -25.8080  -30.8862   27.0222 H   0  0  0  0  0  0
  -26.2863  -29.6793   24.1166 H   0  0  0  0  0  0
  -27.4058  -29.7271   25.4594 H   0  0  0  0  0  0
  -27.8708  -30.4344   23.9293 H   0  0  0  0  0  0
  -27.2671  -33.3606   26.2093 H   0  0  0  0  0  0
  -28.3843  -32.6897   25.0301 H   0  0  0  0  0  0
  -28.0741  -31.8427   26.5380 H   0  0  0  0  0  0
  -28.2608  -38.0096   24.7499 H   0  0  0  0  0  0
  -28.1062  -36.2629   24.6306 H   0  0  0  0  0  0
  -27.2296  -37.1484   25.8868 H   0  0  0  0  0  0
  -20.9315  -29.8768   21.6945 H   0  0  0  0  0  0
  -26.0185  -38.2871   24.1395 H   0  0  0  0  0  0
  -30.8318  -20.0440   21.7608 H   0  0  0  0  0  0
  -28.4618  -18.9053   18.3341 H   0  0  0  0  0  0
  -31.0379  -17.6600   22.3919 H   0  0  0  0  0  0
  -28.6822  -16.5419   18.9556 H   0  0  0  0  0  0
  -28.1698  -26.2432   22.1100 H   0  0  0  0  0  0
  -29.0845  -15.1905   21.5397 H   0  0  0  0  0  0
  -29.0941  -21.8611   21.3242 H   0  0  0  0  0  0
  -30.0113  -20.5652   17.6286 H   0  0  0  0  0  0
  -29.6372  -22.2596   17.8652 H   0  0  0  0  0  0
  -28.4659  -24.3964   23.0713 H   0  0  0  0  0  0
  1 25  1  0  0  0
  1 30  2  0  0  0
  1 81  1  0  0  0
  2  3  1  0  0  0
  2 25  1  0  0  0
  2 86  1  0  0  0
  2 87  1  0  0  0
  3  4  1  0  0  0
  3 88  1  0  0  0
  3 89  1  0  0  0
  4  5  1  0  0  0
  4 90  1  0  0  0
  4 91  1  0  0  0
  5  6  1  0  0  0
  5 26  1  0  0  0
  5 92  1  0  0  0
  6 25  1  0  0  0
  6 93  1  0  0  0
  6 94  1  0  0  0
  7  8  2  0  0  0
  7 26  1  0  0  0
  7 29  1  0  0  0
  8  9  1  0  0  0
  8 22  1  0  0  0
  9 10  1  0  0  0
  9 27  2  0  0  0
 10 11  2  0  0  0
 10 15  1  0  0  0
 11 12  1  0  0  0
 11 95  1  0  0  0
 12 13  2  0  0  0
 12 96  1  0  0  0
 13 14  1  0  0  0
 13 31  1  0  0  0
 14 15  2  0  0  0
 14 97  1  0  0  0
 15 98  1  0  0  0
 16 17  2  0  0  0
 16 21  1  0  0  0
 16 31  1  0  0  0
 17 18  1  0  0  0
 17 99  1  0  0  0
 18 19  2  0  0  0
 18100  1  0  0  0
 19 20  1  0  0  0
 19 24  1  0  0  0
 20 21  2  0  0  0
 20101  1  0  0  0
 21 23  1  0  0  0
 22 28  1  0  0  0
 22 32  2  0  0  0
 26 27  1  0  0  0
 28102  1  0  0  0
 28103  1  0  0  0
 29104  1  0  0  0
 29105  1  0  0  0
 33 34  1  0  0  0
 33 66  1  0  0  0
 33 70  2  0  0  0
 34 36  1  0  0  0
 34 59  1  0  0  0
 34106  1  0  0  0
 35 44  2  0  0  0
 35 45  1  0  0  0
 35 68  1  0  0  0
 36 56  1  0  0  0
 36107  1  0  0  0
 37 39  1  0  0  0
 37 47  1  0  0  0
 37 66  1  0  0  0
 37108  1  0  0  0
 38 43  2  0  0  0
 38 46  1  0  0  0
 38 47  1  0  0  0
 39 64  1  0  0  0
 39 67  2  0  0  0
 40 52  1  0  0  0
 40 53  2  0  0  0
 40 58  1  0  0  0
 41109  1  0  0  0
 41110  1  0  0  0
 41111  1  0  0  0
 41 48  1  0  0  0
 42 43  1  0  0  0
 42 66  1  0  0  0
 42112  1  0  0  0
 42113  1  0  0  0
 43 44  1  0  0  0
 44114  1  0  0  0
 45 46  2  0  0  0
 45115  1  0  0  0
 46116  1  0  0  0
 47117  1  0  0  0
 47118  1  0  0  0
 48 56  1  0  0  0
 48 65  1  0  0  0
 48119  1  0  0  0
 49 50  1  0  0  0
 49 53  1  0  0  0
 49 64  1  0  0  0
 49120  1  0  0  0
 50 51  1  0  0  0
 50121  1  0  0  0
 50122  1  0  0  0
 51 52  1  0  0  0
 51123  1  0  0  0
 51124  1  0  0  0
 52125  1  0  0  0
 52126  1  0  0  0
 53 54  1  0  0  0
 54 55  2  0  0  0
 54127  1  0  0  0
 55 57  1  0  0  0
 55128  1  0  0  0
 56 69  2  0  0  0
 57 58  2  0  0  0
 57129  1  0  0  0
 58130  1  0  0  0
 59 60  1  0  0  0
 59 61  1  0  0  0
 59 62  1  0  0  0
 60131  1  0  0  0
 60132  1  0  0  0
 60133  1  0  0  0
 61134  1  0  0  0
 61135  1  0  0  0
 61136  1  0  0  0
 62137  1  0  0  0
 62138  1  0  0  0
 62139  1  0  0  0
 63 65  1  0  0  0
 63140  1  0  0  0
 63141  1  0  0  0
 63142  1  0  0  0
 64143  1  0  0  0
 65144  1  0  0  0
 68 77  1  0  0  0
 71 73  2  0  0  0
 71 75  1  0  0  0
 71145  1  0  0  0
 72 74  1  0  0  0
 72 75  2  0  0  0
 72146  1  0  0  0
 73 76  1  0  0  0
 73147  1  0  0  0
 74 76  2  0  0  0
 74148  1  0  0  0
 75 78  1  0  0  0
 76 81  1  0  0  0
 77 79  2  0  0  0
 77149  1  0  0  0
 78 82  1  0  0  0
 78 83  2  0  0  0
 79 80  1  0  0  0
 79 85  1  0  0  0
 80 82  1  0  0  0
 80 84  2  0  0  0
 81150  1  0  0  0
 82151  1  0  0  0
 83152  1  0  0  0
 83153  1  0  0  0
 85154  1  0  0  0
M  CHG  1  83   1
M  ISO  4   1 100  68 101  77 101  81 100
M  END
> <chiral flag>
0

> <version>
0

> <s_m_source_file>
/data/baiqing/PycharmProjects/Reinvent-master-3.2/result/LINK_invent/BTK/process_docking_weight1_custom_product_contain_oxygen_bond_distance_aromatic_linkinvent_7_9_3/rearranged_h_0079.sdf

> <i_m_source_file_index>
28

> <r_mmod_Potential_Energy-OPLS-2005>
-307.828094482422

> <r_mmod_Stretch_Energy-OPLS-2005>
47.4952850341797

> <r_mmod_Bend_Energy-OPLS-2005>
117.942398071289

> <r_mmod_Torsional_Energy-OPLS-2005>
244.438720703125

> <r_mmod_Improper_Torsional_Energy-OPLS-2005>
5.17879295349121

> <r_mmod_Van_der_Waal_Energy-OPLS-2005>
155.245697021484

> <r_mmod_Electrostatic_Energy-OPLS-2005>
-462.856109619141

> <r_mmod_Solvation_Energy-OPLS-2005>
-436.103363037109

> <b_mmod_Minimization_Converged-OPLS-2005>
0

> <r_mmod_RMS_Derivative-OPLS-2005>
0.504493296146393

$$$$
28
                    3D
 Structure written by MMmdl.
158167  0  0  1  0            999 V2000
  -30.5894  -14.7898   20.4458 C   0  0  0  0  0  0
  -30.4349  -12.4788   19.4998 C   0  0  0  0  0  0
  -29.5227  -12.5316   18.2537 C   0  0  0  0  0  0
  -28.0451  -12.3508   18.6476 C   0  0  0  0  0  0
  -27.6439  -13.2417   19.8533 C   0  0  2  0  0  0
  -28.6806  -13.1846   20.9959 C   0  0  0  0  0  0
  -25.2525  -13.8212   20.5674 C   0  0  0  0  0  0
  -24.1818  -13.0449   20.9166 C   0  0  0  0  0  0
  -24.6407  -11.6924   20.8709 C   0  0  0  0  0  0
  -23.9078  -10.4303   21.0386 C   0  0  0  0  0  0
  -24.3637   -9.4226   21.9163 C   0  0  0  0  0  0
  -23.6318   -8.2263   22.0725 C   0  0  0  0  0  0
  -22.4296   -8.0304   21.3527 C   0  0  0  0  0  0
  -21.9916   -9.0277   20.4629 C   0  0  0  0  0  0
  -22.7239  -10.2160   20.3051 C   0  0  0  0  0  0
  -21.6859   -6.0748   22.5267 C   0  0  0  0  0  0
  -21.4018   -6.5642   23.8204 C   0  0  0  0  0  0
  -21.3648   -5.6795   24.9163 C   0  0  0  0  0  0
  -21.6057   -4.3060   24.7218 C   0  0  0  0  0  0
  -21.8820   -3.8144   23.4334 C   0  0  0  0  0  0
  -21.9192   -4.6969   22.3383 C   0  0  0  0  0  0
  -22.7855  -13.5237   21.1856 C   0  0  0  0  0  0
  -22.1675   -4.2163   21.0956 F   0  0  0  0  0  0
  -21.5622   -3.4526   25.7716 F   0  0  0  0  0  0
  -29.9881  -13.5447   20.4328 N   0  0  0  0  0  0
  -26.2949  -12.9423   20.3257 N   0  0  0  0  0  0
  -25.9336  -11.6553   20.5709 N   0  0  0  0  0  0
  -22.0526  -12.8232   22.0450 N   0  0  0  0  0  0
  -25.4270  -15.1924   20.4109 N   0  0  0  0  0  0
  -31.7527  -14.8938   20.0427 O   0  0  0  0  0  0
  -21.6663   -6.8901   21.4236 O   0  0  0  0  0  0
  -22.3533  -14.5528   20.6675 O   0  0  0  0  0  0
  -24.6336  -31.8512   23.1980 C   0  0  0  0  0  0
  -25.9146  -32.4737   23.8327 C   0  0  1  0  0  0
  -27.2217  -27.2141   20.1265 C   0  0  0  0  0  0
  -25.5933  -33.8534   24.2246 N   0  0  0  0  0  0
  -23.4349  -30.4748   21.5404 C   0  0  2  0  0  0
  -24.8852  -28.9203   20.1053 C   0  0  0  0  0  0
  -22.7518  -29.4570   22.4873 C   0  0  0  0  0  0
  -18.0306  -28.1408   22.8473 C   0  0  0  0  0  0
  -24.1492  -36.7287   23.2631 C   0  0  0  0  0  0
  -25.9863  -30.7438   21.3943 C   0  0  0  0  0  0
  -26.0553  -29.3626   20.7350 C   0  0  0  0  0  0
  -27.2197  -28.5184   20.7451 C   0  0  0  0  0  0
  -26.0368  -26.8758   19.4301 C   0  0  0  0  0  0
  -24.8858  -27.6877   19.4388 C   0  0  0  0  0  0
  -23.6580  -29.8138   20.1546 C   0  0  0  0  0  0
  -25.4119  -36.3054   24.0315 C   0  0  1  0  0  0
  -20.5902  -28.3712   23.1254 C   0  0  2  0  0  0
  -20.6789  -26.9420   22.5409 C   0  0  0  0  0  0
  -19.5766  -26.6386   21.5210 C   0  0  0  0  0  0
  -18.1951  -26.7942   22.1619 C   0  0  0  0  0  0
  -19.1559  -28.8882   23.2864 C   0  0  0  0  0  0
  -18.9468  -30.1472   23.8903 C   0  0  0  0  0  0
  -17.6466  -30.6595   24.0573 C   0  0  0  0  0  0
  -25.9059  -34.9419   23.5093 C   0  0  0  0  0  0
  -16.5357  -29.9101   23.6331 C   0  0  0  0  0  0
  -16.7290  -28.6522   23.0344 C   0  0  0  0  0  0
  -26.4496  -31.6581   25.0734 C   0  0  0  0  0  0
  -25.3713  -31.3810   26.1466 C   0  0  0  0  0  0
  -27.0300  -30.2949   24.6305 C   0  0  0  0  0  0
  -27.6068  -32.4309   25.7486 C   0  0  0  0  0  0
  -27.5590  -37.1799   24.8463 C   0  0  0  0  0  0
  -21.4218  -29.3041   22.3629 N   0  0  0  0  0  0
  -26.4302  -37.3749   23.9399 N   0  0  0  0  0  0
  -24.7039  -31.0425   22.0998 N   0  0  0  0  0  0
  -23.4196  -28.8099   23.2975 O   0  0  0  0  0  0
  -28.3071  -26.2858   20.1845 O   0  0  0  0  0  0
  -26.5640  -34.8896   22.4660 O   0  0  0  0  0  0
  -23.5463  -32.1357   23.7229 O   0  0  0  0  0  0
  -29.1294  -18.3525   17.9945 C   0  0  0  0  0  0
  -29.0755  -19.6270   18.5974 C   0  0  0  0  0  0
  -29.4461  -17.1928   18.7274 C   0  0  0  0  0  0
  -29.6429  -18.5829   20.7175 C   0  0  0  0  0  0
  -29.3432  -19.8198   19.9734 C   0  0  0  0  0  0
  -29.7056  -17.2430   20.1138 C   0  0  0  0  0  0
  -30.3953  -23.9632   20.7500 C   0  0  0  0  0  0
  -28.9979  -23.7760   20.3485 C   0  0  0  0  0  0
  -31.0584  -22.8682   21.4653 C   0  0  0  0  0  0
  -28.5796  -22.3253   20.0724 C   0  0  0  0  0  0
  -31.0828  -25.0556   20.3467 C   0  0  0  0  0  0
  -32.2668  -23.0117   22.0472 C   0  0  0  0  0  0
  -28.1245  -24.8504   20.0979 C   0  0  0  0  0  0
  -30.3937  -21.4975   21.5330 C   0  0  0  0  0  0
  -29.3957  -21.2444   20.4844 N   0  0  0  0  0  0
  -29.8552  -15.9219   20.8077 N   0  0  0  0  0  0
  -27.5221  -22.0871   19.4815 O   0  0  0  0  0  0
  -31.4781  -12.5973   19.2015 H   0  0  0  0  0  0
  -30.3754  -11.5046   19.9862 H   0  0  0  0  0  0
  -29.8134  -11.7676   17.5304 H   0  0  0  0  0  0
  -29.6497  -13.4935   17.7542 H   0  0  0  0  0  0
  -27.8925  -11.2982   18.8910 H   0  0  0  0  0  0
  -27.4048  -12.5632   17.7911 H   0  0  0  0  0  0
  -27.6331  -14.2652   19.4764 H   0  0  0  0  0  0
  -28.7103  -12.1860   21.4329 H   0  0  0  0  0  0
  -28.4006  -13.8651   21.8003 H   0  0  0  0  0  0
  -25.2782   -9.5709   22.4741 H   0  0  0  0  0  0
  -24.0020   -7.4654   22.7441 H   0  0  0  0  0  0
  -21.0831   -8.8822   19.8954 H   0  0  0  0  0  0
  -22.3689  -10.9718   19.6194 H   0  0  0  0  0  0
  -21.2026   -7.6152   23.9712 H   0  0  0  0  0  0
  -21.1468   -6.0519   25.9064 H   0  0  0  0  0  0
  -22.0601   -2.7597   23.2839 H   0  0  0  0  0  0
  -22.4145  -11.9897   22.4829 H   0  0  0  0  0  0
  -21.1155  -13.1251   22.2708 H   0  0  0  0  0  0
  -24.6681  -15.8553   20.5204 H   0  0  0  0  0  0
  -26.2694  -15.6120   20.0357 H   0  0  0  0  0  0
  -26.7212  -32.5384   23.1060 H   0  0  0  0  0  0
  -25.0068  -33.9679   25.0384 H   0  0  0  0  0  0
  -22.7330  -31.2990   21.3955 H   0  0  0  0  0  0
  -23.3736  -35.9643   23.3300 H   0  0  0  0  0  0
  -24.3580  -36.8897   22.2048 H   0  0  0  0  0  0
  -23.7279  -37.6501   23.6650 H   0  0  0  0  0  0
  -26.1375  -31.5020   20.6242 H   0  0  0  0  0  0
  -26.8556  -30.7894   22.0386 H   0  0  0  0  0  0
  -28.1104  -28.8410   21.2666 H   0  0  0  0  0  0
  -25.9639  -25.9613   18.8633 H   0  0  0  0  0  0
  -23.9994  -27.3574   18.9140 H   0  0  0  0  0  0
  -23.7914  -30.5955   19.4057 H   0  0  0  0  0  0
  -22.7719  -29.2570   19.8439 H   0  0  0  0  0  0
  -25.1296  -36.1909   25.0809 H   0  0  0  0  0  0
  -21.0010  -28.3317   24.1362 H   0  0  0  0  0  0
  -20.5684  -26.2324   23.3627 H   0  0  0  0  0  0
  -21.6664  -26.7442   22.1210 H   0  0  0  0  0  0
  -19.6931  -25.6292   21.1265 H   0  0  0  0  0  0
  -19.6715  -27.3179   20.6732 H   0  0  0  0  0  0
  -17.4210  -26.6663   21.4041 H   0  0  0  0  0  0
  -18.0360  -26.0110   22.9041 H   0  0  0  0  0  0
  -19.7940  -30.7288   24.2275 H   0  0  0  0  0  0
  -17.5016  -31.6271   24.5175 H   0  0  0  0  0  0
  -15.5357  -30.3002   23.7650 H   0  0  0  0  0  0
  -15.8689  -28.0844   22.7050 H   0  0  0  0  0  0
  -24.5829  -30.7223   25.7812 H   0  0  0  0  0  0
  -24.8993  -32.3024   26.4882 H   0  0  0  0  0  0
  -25.7987  -30.8976   27.0259 H   0  0  0  0  0  0
  -26.2885  -29.6718   24.1294 H   0  0  0  0  0  0
  -27.3848  -29.7210   25.4879 H   0  0  0  0  0  0
  -27.8837  -30.4119   23.9626 H   0  0  0  0  0  0
  -27.2674  -33.3571   26.2128 H   0  0  0  0  0  0
  -28.3833  -32.6935   25.0290 H   0  0  0  0  0  0
  -28.0800  -31.8421   26.5355 H   0  0  0  0  0  0
  -28.2621  -38.0079   24.7458 H   0  0  0  0  0  0
  -28.1067  -36.2611   24.6326 H   0  0  0  0  0  0
  -27.2313  -37.1495   25.8868 H   0  0  0  0  0  0
  -20.9408  -29.8772   21.6844 H   0  0  0  0  0  0
  -26.0182  -38.2823   24.1382 H   0  0  0  0  0  0
  -28.9216  -18.2664   16.9368 H   0  0  0  0  0  0
  -28.8456  -20.4701   17.9628 H   0  0  0  0  0  0
  -29.4451  -16.2443   18.2104 H   0  0  0  0  0  0
  -29.8233  -18.6684   21.7785 H   0  0  0  0  0  0
  -30.6229  -25.8285   19.7541 H   0  0  0  0  0  0
  -32.1297  -25.2063   20.5600 H   0  0  0  0  0  0
  -32.8127  -23.9419   22.0596 H   0  0  0  0  0  0
  -32.7390  -22.1792   22.5489 H   0  0  0  0  0  0
  -27.1254  -24.5977   19.7877 H   0  0  0  0  0  0
  -29.9130  -21.3921   22.5063 H   0  0  0  0  0  0
  -31.1753  -20.7376   21.4823 H   0  0  0  0  0  0
  -29.0777  -15.7009   21.4120 H   0  0  0  0  0  0
  1 25  1  0  0  0
  1 30  2  0  0  0
  1 86  1  0  0  0
  2  3  1  0  0  0
  2 25  1  0  0  0
  2 88  1  0  0  0
  2 89  1  0  0  0
  3  4  1  0  0  0
  3 90  1  0  0  0
  3 91  1  0  0  0
  4  5  1  0  0  0
  4 92  1  0  0  0
  4 93  1  0  0  0
  5  6  1  0  0  0
  5 26  1  0  0  0
  5 94  1  0  0  0
  6 25  1  0  0  0
  6 95  1  0  0  0
  6 96  1  0  0  0
  7  8  2  0  0  0
  7 26  1  0  0  0
  7 29  1  0  0  0
  8  9  1  0  0  0
  8 22  1  0  0  0
  9 10  1  0  0  0
  9 27  2  0  0  0
 10 11  2  0  0  0
 10 15  1  0  0  0
 11 12  1  0  0  0
 11 97  1  0  0  0
 12 13  2  0  0  0
 12 98  1  0  0  0
 13 14  1  0  0  0
 13 31  1  0  0  0
 14 15  2  0  0  0
 14 99  1  0  0  0
 15100  1  0  0  0
 16 17  2  0  0  0
 16 21  1  0  0  0
 16 31  1  0  0  0
 17 18  1  0  0  0
 17101  1  0  0  0
 18 19  2  0  0  0
 18102  1  0  0  0
 19 20  1  0  0  0
 19 24  1  0  0  0
 20 21  2  0  0  0
 20103  1  0  0  0
 21 23  1  0  0  0
 22 28  1  0  0  0
 22 32  2  0  0  0
 26 27  1  0  0  0
 28104  1  0  0  0
 28105  1  0  0  0
 29106  1  0  0  0
 29107  1  0  0  0
 33 34  1  0  0  0
 33 66  1  0  0  0
 33 70  2  0  0  0
 34 36  1  0  0  0
 34 59  1  0  0  0
 34108  1  0  0  0
 35 44  2  0  0  0
 35 45  1  0  0  0
 35 68  1  0  0  0
 36 56  1  0  0  0
 36109  1  0  0  0
 37 39  1  0  0  0
 37 47  1  0  0  0
 37 66  1  0  0  0
 37110  1  0  0  0
 38 43  2  0  0  0
 38 46  1  0  0  0
 38 47  1  0  0  0
 39 64  1  0  0  0
 39 67  2  0  0  0
 40 52  1  0  0  0
 40 53  2  0  0  0
 40 58  1  0  0  0
 41111  1  0  0  0
 41112  1  0  0  0
 41113  1  0  0  0
 41 48  1  0  0  0
 42 43  1  0  0  0
 42 66  1  0  0  0
 42114  1  0  0  0
 42115  1  0  0  0
 43 44  1  0  0  0
 44116  1  0  0  0
 45 46  2  0  0  0
 45117  1  0  0  0
 46118  1  0  0  0
 47119  1  0  0  0
 47120  1  0  0  0
 48 56  1  0  0  0
 48 65  1  0  0  0
 48121  1  0  0  0
 49 50  1  0  0  0
 49 53  1  0  0  0
 49 64  1  0  0  0
 49122  1  0  0  0
 50 51  1  0  0  0
 50123  1  0  0  0
 50124  1  0  0  0
 51 52  1  0  0  0
 51125  1  0  0  0
 51126  1  0  0  0
 52127  1  0  0  0
 52128  1  0  0  0
 53 54  1  0  0  0
 54 55  2  0  0  0
 54129  1  0  0  0
 55 57  1  0  0  0
 55130  1  0  0  0
 56 69  2  0  0  0
 57 58  2  0  0  0
 57131  1  0  0  0
 58132  1  0  0  0
 59 60  1  0  0  0
 59 61  1  0  0  0
 59 62  1  0  0  0
 60133  1  0  0  0
 60134  1  0  0  0
 60135  1  0  0  0
 61136  1  0  0  0
 61137  1  0  0  0
 61138  1  0  0  0
 62139  1  0  0  0
 62140  1  0  0  0
 62141  1  0  0  0
 63 65  1  0  0  0
 63142  1  0  0  0
 63143  1  0  0  0
 63144  1  0  0  0
 64145  1  0  0  0
 65146  1  0  0  0
 68 83  1  0  0  0
 71 72  2  0  0  0
 71 73  1  0  0  0
 71147  1  0  0  0
 72 75  1  0  0  0
 72148  1  0  0  0
 73 76  2  0  0  0
 73149  1  0  0  0
 74 75  2  0  0  0
 74 76  1  0  0  0
 74150  1  0  0  0
 75 85  1  0  0  0
 76 86  1  0  0  0
 77 78  1  0  0  0
 77 79  1  0  0  0
 77 81  2  0  0  0
 78 80  1  0  0  0
 78 83  2  0  0  0
 79 82  2  0  0  0
 79 84  1  0  0  0
 80 85  1  0  0  0
 80 87  2  0  0  0
 81151  1  0  0  0
 81152  1  0  0  0
 82153  1  0  0  0
 82154  1  0  0  0
 83155  1  0  0  0
 84 85  1  0  0  0
 84156  1  0  0  0
 84157  1  0  0  0
 86158  1  0  0  0
M  ISO  4   1 100  68 101  83 101  86 100
M  END
> <chiral flag>
0

> <version>
0

> <s_m_source_file>
/data/baiqing/PycharmProjects/Reinvent-master-3.2/result/LINK_invent/BTK/process_docking_weight1_custom_product_contain_oxygen_bond_distance_aromatic_linkinvent_7_9_3/rearranged_h_0079.sdf

> <i_m_source_file_index>
29

> <r_mmod_Potential_Energy-OPLS-2005>
411.330627441406

> <r_mmod_Stretch_Energy-OPLS-2005>
167.310760498047

> <r_mmod_Bend_Energy-OPLS-2005>
180.892807006836

> <r_mmod_Torsional_Energy-OPLS-2005>
319.162628173828

> <r_mmod_Improper_Torsional_Energy-OPLS-2005>
5.39212274551392

> <r_mmod_Van_der_Waal_Energy-OPLS-2005>
169.786270141602

> <r_mmod_Electrostatic_Energy-OPLS-2005>
-327.235015869141

> <r_mmod_Solvation_Energy-OPLS-2005>
-214.652359008789

> <b_mmod_Minimization_Converged-OPLS-2005>
0

> <r_mmod_RMS_Derivative-OPLS-2005>
3.6633152961731

$$$$
29
                    3D
 Structure written by MMmdl.
158167  0  0  1  0            999 V2000
  -30.5894  -14.7898   20.4458 C   0  0  0  0  0  0
  -30.4349  -12.4788   19.4998 C   0  0  0  0  0  0
  -29.5227  -12.5316   18.2537 C   0  0  0  0  0  0
  -28.0451  -12.3508   18.6476 C   0  0  0  0  0  0
  -27.6439  -13.2417   19.8533 C   0  0  2  0  0  0
  -28.6806  -13.1846   20.9959 C   0  0  0  0  0  0
  -25.2525  -13.8212   20.5674 C   0  0  0  0  0  0
  -24.1818  -13.0449   20.9166 C   0  0  0  0  0  0
  -24.6407  -11.6924   20.8709 C   0  0  0  0  0  0
  -23.9078  -10.4303   21.0386 C   0  0  0  0  0  0
  -24.3637   -9.4226   21.9163 C   0  0  0  0  0  0
  -23.6318   -8.2263   22.0725 C   0  0  0  0  0  0
  -22.4296   -8.0304   21.3527 C   0  0  0  0  0  0
  -21.9916   -9.0277   20.4629 C   0  0  0  0  0  0
  -22.7239  -10.2160   20.3051 C   0  0  0  0  0  0
  -21.6859   -6.0748   22.5267 C   0  0  0  0  0  0
  -21.4018   -6.5642   23.8204 C   0  0  0  0  0  0
  -21.3648   -5.6795   24.9163 C   0  0  0  0  0  0
  -21.6057   -4.3060   24.7218 C   0  0  0  0  0  0
  -21.8820   -3.8144   23.4334 C   0  0  0  0  0  0
  -21.9192   -4.6969   22.3383 C   0  0  0  0  0  0
  -22.7855  -13.5237   21.1856 C   0  0  0  0  0  0
  -22.1675   -4.2163   21.0956 F   0  0  0  0  0  0
  -21.5622   -3.4526   25.7716 F   0  0  0  0  0  0
  -29.9881  -13.5447   20.4328 N   0  0  0  0  0  0
  -26.2949  -12.9423   20.3257 N   0  0  0  0  0  0
  -25.9336  -11.6553   20.5709 N   0  0  0  0  0  0
  -22.0526  -12.8232   22.0450 N   0  0  0  0  0  0
  -25.4270  -15.1924   20.4109 N   0  0  0  0  0  0
  -31.7527  -14.8938   20.0427 O   0  0  0  0  0  0
  -21.6663   -6.8901   21.4236 O   0  0  0  0  0  0
  -22.3533  -14.5528   20.6675 O   0  0  0  0  0  0
  -24.6336  -31.8512   23.1980 C   0  0  0  0  0  0
  -25.9146  -32.4737   23.8327 C   0  0  1  0  0  0
  -27.2217  -27.2141   20.1265 C   0  0  0  0  0  0
  -25.5933  -33.8534   24.2246 N   0  0  0  0  0  0
  -23.4349  -30.4748   21.5404 C   0  0  2  0  0  0
  -24.8852  -28.9203   20.1053 C   0  0  0  0  0  0
  -22.7518  -29.4570   22.4873 C   0  0  0  0  0  0
  -18.0306  -28.1408   22.8473 C   0  0  0  0  0  0
  -24.1492  -36.7287   23.2631 C   0  0  0  0  0  0
  -25.9863  -30.7438   21.3943 C   0  0  0  0  0  0
  -26.0553  -29.3626   20.7350 C   0  0  0  0  0  0
  -27.2197  -28.5184   20.7451 C   0  0  0  0  0  0
  -26.0368  -26.8758   19.4301 C   0  0  0  0  0  0
  -24.8858  -27.6877   19.4388 C   0  0  0  0  0  0
  -23.6580  -29.8138   20.1546 C   0  0  0  0  0  0
  -25.4119  -36.3054   24.0315 C   0  0  1  0  0  0
  -20.5902  -28.3712   23.1254 C   0  0  2  0  0  0
  -20.6789  -26.9420   22.5409 C   0  0  0  0  0  0
  -19.5766  -26.6386   21.5210 C   0  0  0  0  0  0
  -18.1951  -26.7942   22.1619 C   0  0  0  0  0  0
  -19.1559  -28.8882   23.2864 C   0  0  0  0  0  0
  -18.9468  -30.1472   23.8903 C   0  0  0  0  0  0
  -17.6466  -30.6595   24.0573 C   0  0  0  0  0  0
  -25.9059  -34.9419   23.5093 C   0  0  0  0  0  0
  -16.5357  -29.9101   23.6331 C   0  0  0  0  0  0
  -16.7290  -28.6522   23.0344 C   0  0  0  0  0  0
  -26.4496  -31.6581   25.0734 C   0  0  0  0  0  0
  -25.3713  -31.3810   26.1466 C   0  0  0  0  0  0
  -27.0300  -30.2949   24.6305 C   0  0  0  0  0  0
  -27.6068  -32.4309   25.7486 C   0  0  0  0  0  0
  -27.5590  -37.1799   24.8463 C   0  0  0  0  0  0
  -21.4218  -29.3041   22.3629 N   0  0  0  0  0  0
  -26.4302  -37.3749   23.9399 N   0  0  0  0  0  0
  -24.7039  -31.0425   22.0998 N   0  0  0  0  0  0
  -23.4196  -28.8099   23.2975 O   0  0  0  0  0  0
  -28.3071  -26.2858   20.1845 O   0  0  0  0  0  0
  -26.5640  -34.8896   22.4660 O   0  0  0  0  0  0
  -23.5463  -32.1357   23.7229 O   0  0  0  0  0  0
  -29.1294  -18.3525   17.9945 C   0  0  0  0  0  0
  -29.0755  -19.6270   18.5974 C   0  0  0  0  0  0
  -29.4461  -17.1928   18.7274 C   0  0  0  0  0  0
  -29.6429  -18.5829   20.7175 C   0  0  0  0  0  0
  -29.3432  -19.8198   19.9734 C   0  0  0  0  0  0
  -29.7056  -17.2430   20.1138 C   0  0  0  0  0  0
  -30.3953  -23.9632   20.7500 C   0  0  0  0  0  0
  -28.9979  -23.7760   20.3485 C   0  0  0  0  0  0
  -31.0584  -22.8682   21.4653 C   0  0  0  0  0  0
  -28.5796  -22.3253   20.0724 C   0  0  0  0  0  0
  -31.0828  -25.0556   20.3467 C   0  0  0  0  0  0
  -32.2668  -23.0117   22.0472 C   0  0  0  0  0  0
  -28.1245  -24.8504   20.0979 C   0  0  0  0  0  0
  -30.3937  -21.4975   21.5330 C   0  0  0  0  0  0
  -29.3957  -21.2444   20.4844 N   0  0  0  0  0  0
  -29.8552  -15.9219   20.8077 N   0  0  0  0  0  0
  -27.5221  -22.0871   19.4815 O   0  0  0  0  0  0
  -31.4781  -12.5973   19.2015 H   0  0  0  0  0  0
  -30.3754  -11.5046   19.9862 H   0  0  0  0  0  0
  -29.8134  -11.7676   17.5304 H   0  0  0  0  0  0
  -29.6497  -13.4935   17.7542 H   0  0  0  0  0  0
  -27.8925  -11.2982   18.8910 H   0  0  0  0  0  0
  -27.4048  -12.5632   17.7911 H   0  0  0  0  0  0
  -27.6331  -14.2652   19.4764 H   0  0  0  0  0  0
  -28.7103  -12.1860   21.4329 H   0  0  0  0  0  0
  -28.4006  -13.8651   21.8003 H   0  0  0  0  0  0
  -25.2782   -9.5709   22.4741 H   0  0  0  0  0  0
  -24.0020   -7.4654   22.7441 H   0  0  0  0  0  0
  -21.0831   -8.8822   19.8954 H   0  0  0  0  0  0
  -22.3689  -10.9718   19.6194 H   0  0  0  0  0  0
  -21.2026   -7.6152   23.9712 H   0  0  0  0  0  0
  -21.1468   -6.0519   25.9064 H   0  0  0  0  0  0
  -22.0601   -2.7597   23.2839 H   0  0  0  0  0  0
  -22.4145  -11.9897   22.4829 H   0  0  0  0  0  0
  -21.1155  -13.1251   22.2708 H   0  0  0  0  0  0
  -24.6681  -15.8553   20.5204 H   0  0  0  0  0  0
  -26.2694  -15.6120   20.0357 H   0  0  0  0  0  0
  -26.7212  -32.5384   23.1060 H   0  0  0  0  0  0
  -25.0068  -33.9679   25.0384 H   0  0  0  0  0  0
  -22.7330  -31.2990   21.3955 H   0  0  0  0  0  0
  -23.3736  -35.9643   23.3300 H   0  0  0  0  0  0
  -24.3580  -36.8897   22.2048 H   0  0  0  0  0  0
  -23.7279  -37.6501   23.6650 H   0  0  0  0  0  0
  -26.1375  -31.5020   20.6242 H   0  0  0  0  0  0
  -26.8556  -30.7894   22.0386 H   0  0  0  0  0  0
  -28.1104  -28.8410   21.2666 H   0  0  0  0  0  0
  -25.9639  -25.9613   18.8633 H   0  0  0  0  0  0
  -23.9994  -27.3574   18.9140 H   0  0  0  0  0  0
  -23.7914  -30.5955   19.4057 H   0  0  0  0  0  0
  -22.7719  -29.2570   19.8439 H   0  0  0  0  0  0
  -25.1296  -36.1909   25.0809 H   0  0  0  0  0  0
  -21.0010  -28.3317   24.1362 H   0  0  0  0  0  0
  -20.5684  -26.2324   23.3627 H   0  0  0  0  0  0
  -21.6664  -26.7442   22.1210 H   0  0  0  0  0  0
  -19.6931  -25.6292   21.1265 H   0  0  0  0  0  0
  -19.6715  -27.3179   20.6732 H   0  0  0  0  0  0
  -17.4210  -26.6663   21.4041 H   0  0  0  0  0  0
  -18.0360  -26.0110   22.9041 H   0  0  0  0  0  0
  -19.7940  -30.7288   24.2275 H   0  0  0  0  0  0
  -17.5016  -31.6271   24.5175 H   0  0  0  0  0  0
  -15.5357  -30.3002   23.7650 H   0  0  0  0  0  0
  -15.8689  -28.0844   22.7050 H   0  0  0  0  0  0
  -24.5829  -30.7223   25.7812 H   0  0  0  0  0  0
  -24.8993  -32.3024   26.4882 H   0  0  0  0  0  0
  -25.7987  -30.8976   27.0259 H   0  0  0  0  0  0
  -26.2885  -29.6718   24.1294 H   0  0  0  0  0  0
  -27.3848  -29.7210   25.4879 H   0  0  0  0  0  0
  -27.8837  -30.4119   23.9626 H   0  0  0  0  0  0
  -27.2674  -33.3571   26.2128 H   0  0  0  0  0  0
  -28.3833  -32.6935   25.0290 H   0  0  0  0  0  0
  -28.0800  -31.8421   26.5355 H   0  0  0  0  0  0
  -28.2621  -38.0079   24.7458 H   0  0  0  0  0  0
  -28.1067  -36.2611   24.6326 H   0  0  0  0  0  0
  -27.2313  -37.1495   25.8868 H   0  0  0  0  0  0
  -20.9408  -29.8772   21.6844 H   0  0  0  0  0  0
  -26.0182  -38.2823   24.1382 H   0  0  0  0  0  0
  -28.9216  -18.2664   16.9368 H   0  0  0  0  0  0
  -28.8456  -20.4701   17.9628 H   0  0  0  0  0  0
  -29.4451  -16.2443   18.2104 H   0  0  0  0  0  0
  -29.8233  -18.6684   21.7785 H   0  0  0  0  0  0
  -30.6229  -25.8285   19.7541 H   0  0  0  0  0  0
  -32.1297  -25.2063   20.5600 H   0  0  0  0  0  0
  -32.8127  -23.9419   22.0596 H   0  0  0  0  0  0
  -32.7390  -22.1792   22.5489 H   0  0  0  0  0  0
  -27.1254  -24.5977   19.7877 H   0  0  0  0  0  0
  -29.9130  -21.3921   22.5063 H   0  0  0  0  0  0
  -31.1753  -20.7376   21.4823 H   0  0  0  0  0  0
  -29.0777  -15.7009   21.4120 H   0  0  0  0  0  0
  1 25  1  0  0  0
  1 30  2  0  0  0
  1 86  1  0  0  0
  2  3  1  0  0  0
  2 25  1  0  0  0
  2 88  1  0  0  0
  2 89  1  0  0  0
  3  4  1  0  0  0
  3 90  1  0  0  0
  3 91  1  0  0  0
  4  5  1  0  0  0
  4 92  1  0  0  0
  4 93  1  0  0  0
  5  6  1  0  0  0
  5 26  1  0  0  0
  5 94  1  0  0  0
  6 25  1  0  0  0
  6 95  1  0  0  0
  6 96  1  0  0  0
  7  8  2  0  0  0
  7 26  1  0  0  0
  7 29  1  0  0  0
  8  9  1  0  0  0
  8 22  1  0  0  0
  9 10  1  0  0  0
  9 27  2  0  0  0
 10 11  2  0  0  0
 10 15  1  0  0  0
 11 12  1  0  0  0
 11 97  1  0  0  0
 12 13  2  0  0  0
 12 98  1  0  0  0
 13 14  1  0  0  0
 13 31  1  0  0  0
 14 15  2  0  0  0
 14 99  1  0  0  0
 15100  1  0  0  0
 16 17  2  0  0  0
 16 21  1  0  0  0
 16 31  1  0  0  0
 17 18  1  0  0  0
 17101  1  0  0  0
 18 19  2  0  0  0
 18102  1  0  0  0
 19 20  1  0  0  0
 19 24  1  0  0  0
 20 21  2  0  0  0
 20103  1  0  0  0
 21 23  1  0  0  0
 22 28  1  0  0  0
 22 32  2  0  0  0
 26 27  1  0  0  0
 28104  1  0  0  0
 28105  1  0  0  0
 29106  1  0  0  0
 29107  1  0  0  0
 33 34  1  0  0  0
 33 66  1  0  0  0
 33 70  2  0  0  0
 34 36  1  0  0  0
 34 59  1  0  0  0
 34108  1  0  0  0
 35 44  2  0  0  0
 35 45  1  0  0  0
 35 68  1  0  0  0
 36 56  1  0  0  0
 36109  1  0  0  0
 37 39  1  0  0  0
 37 47  1  0  0  0
 37 66  1  0  0  0
 37110  1  0  0  0
 38 43  2  0  0  0
 38 46  1  0  0  0
 38 47  1  0  0  0
 39 64  1  0  0  0
 39 67  2  0  0  0
 40 52  1  0  0  0
 40 53  2  0  0  0
 40 58  1  0  0  0
 41111  1  0  0  0
 41112  1  0  0  0
 41113  1  0  0  0
 41 48  1  0  0  0
 42 43  1  0  0  0
 42 66  1  0  0  0
 42114  1  0  0  0
 42115  1  0  0  0
 43 44  1  0  0  0
 44116  1  0  0  0
 45 46  2  0  0  0
 45117  1  0  0  0
 46118  1  0  0  0
 47119  1  0  0  0
 47120  1  0  0  0
 48 56  1  0  0  0
 48 65  1  0  0  0
 48121  1  0  0  0
 49 50  1  0  0  0
 49 53  1  0  0  0
 49 64  1  0  0  0
 49122  1  0  0  0
 50 51  1  0  0  0
 50123  1  0  0  0
 50124  1  0  0  0
 51 52  1  0  0  0
 51125  1  0  0  0
 51126  1  0  0  0
 52127  1  0  0  0
 52128  1  0  0  0
 53 54  1  0  0  0
 54 55  2  0  0  0
 54129  1  0  0  0
 55 57  1  0  0  0
 55130  1  0  0  0
 56 69  2  0  0  0
 57 58  2  0  0  0
 57131  1  0  0  0
 58132  1  0  0  0
 59 60  1  0  0  0
 59 61  1  0  0  0
 59 62  1  0  0  0
 60133  1  0  0  0
 60134  1  0  0  0
 60135  1  0  0  0
 61136  1  0  0  0
 61137  1  0  0  0
 61138  1  0  0  0
 62139  1  0  0  0
 62140  1  0  0  0
 62141  1  0  0  0
 63 65  1  0  0  0
 63142  1  0  0  0
 63143  1  0  0  0
 63144  1  0  0  0
 64145  1  0  0  0
 65146  1  0  0  0
 68 83  1  0  0  0
 71 72  2  0  0  0
 71 73  1  0  0  0
 71147  1  0  0  0
 72 75  1  0  0  0
 72148  1  0  0  0
 73 76  2  0  0  0
 73149  1  0  0  0
 74 75  2  0  0  0
 74 76  1  0  0  0
 74150  1  0  0  0
 75 85  1  0  0  0
 76 86  1  0  0  0
 77 78  1  0  0  0
 77 79  1  0  0  0
 77 81  2  0  0  0
 78 80  1  0  0  0
 78 83  2  0  0  0
 79 82  2  0  0  0
 79 84  1  0  0  0
 80 85  1  0  0  0
 80 87  2  0  0  0
 81151  1  0  0  0
 81152  1  0  0  0
 82153  1  0  0  0
 82154  1  0  0  0
 83155  1  0  0  0
 84 85  1  0  0  0
 84156  1  0  0  0
 84157  1  0  0  0
 86158  1  0  0  0
M  ISO  4   1 100  68 101  83 101  86 100
M  END
> <chiral flag>
0

> <version>
0

> <s_m_source_file>
/data/baiqing/PycharmProjects/Reinvent-master-3.2/result/LINK_invent/BTK/process_docking_weight1_custom_product_contain_oxygen_bond_distance_aromatic_linkinvent_7_9_3/rearranged_h_0079.sdf

> <i_m_source_file_index>
30

> <r_mmod_Potential_Energy-OPLS-2005>
411.330627441406

> <r_mmod_Stretch_Energy-OPLS-2005>
167.310760498047

> <r_mmod_Bend_Energy-OPLS-2005>
180.892807006836

> <r_mmod_Torsional_Energy-OPLS-2005>
319.162628173828

> <r_mmod_Improper_Torsional_Energy-OPLS-2005>
5.39212274551392

> <r_mmod_Van_der_Waal_Energy-OPLS-2005>
169.786270141602

> <r_mmod_Electrostatic_Energy-OPLS-2005>
-327.235015869141

> <r_mmod_Solvation_Energy-OPLS-2005>
-214.652359008789

> <b_mmod_Minimization_Converged-OPLS-2005>
0

> <r_mmod_RMS_Derivative-OPLS-2005>
3.6633152961731

$$$$
30
                    3D
 Structure written by MMmdl.
153161  0  0  1  0            999 V2000
  -30.5737  -14.8373   20.4335 C   0  0  0  0  0  0
  -30.4491  -12.5120   19.4760 C   0  0  0  0  0  0
  -29.5167  -12.5157   18.2397 C   0  0  0  0  0  0
  -28.0442  -12.3132   18.6519 C   0  0  0  0  0  0
  -27.6420  -13.2149   19.8463 C   0  0  2  0  0  0
  -28.6934  -13.1502   20.9770 C   0  0  0  0  0  0
  -25.2573  -13.8140   20.5730 C   0  0  0  0  0  0
  -24.1806  -13.0413   20.9139 C   0  0  0  0  0  0
  -24.6380  -11.6886   20.8715 C   0  0  0  0  0  0
  -23.9045  -10.4283   21.0396 C   0  0  0  0  0  0
  -24.3609   -9.4210   21.9173 C   0  0  0  0  0  0
  -23.6289   -8.2249   22.0760 C   0  0  0  0  0  0
  -22.4274   -8.0279   21.3546 C   0  0  0  0  0  0
  -21.9903   -9.0247   20.4649 C   0  0  0  0  0  0
  -22.7225  -10.2125   20.3044 C   0  0  0  0  0  0
  -21.6840   -6.0742   22.5283 C   0  0  0  0  0  0
  -21.4006   -6.5642   23.8215 C   0  0  0  0  0  0
  -21.3655   -5.6800   24.9178 C   0  0  0  0  0  0
  -21.6043   -4.3063   24.7228 C   0  0  0  0  0  0
  -21.8821   -3.8151   23.4348 C   0  0  0  0  0  0
  -21.9198   -4.6972   22.3405 C   0  0  0  0  0  0
  -22.7843  -13.5228   21.1812 C   0  0  0  0  0  0
  -22.1665   -4.2155   21.0985 F   0  0  0  0  0  0
  -21.5626   -3.4549   25.7744 F   0  0  0  0  0  0
  -29.9791  -13.5777   20.4026 N   0  0  0  0  0  0
  -26.2956  -12.9295   20.3295 N   0  0  0  0  0  0
  -25.9309  -11.6459   20.5743 N   0  0  0  0  0  0
  -22.0497  -12.8230   22.0389 N   0  0  0  0  0  0
  -25.4450  -15.1850   20.4309 N   0  0  0  0  0  0
  -31.7671  -14.9190   20.1180 O   0  0  0  0  0  0
  -21.6625   -6.8886   21.4248 O   0  0  0  0  0  0
  -22.3523  -14.5539   20.6685 O   0  0  0  0  0  0
  -24.6363  -31.8511   23.1950 C   0  0  0  0  0  0
  -25.9165  -32.4729   23.8316 C   0  0  1  0  0  0
  -27.2323  -27.2282   20.0977 C   0  0  0  0  0  0
  -25.5943  -33.8538   24.2219 N   0  0  0  0  0  0
  -23.4370  -30.4735   21.5411 C   0  0  2  0  0  0
  -24.8850  -28.9170   20.1110 C   0  0  0  0  0  0
  -22.7536  -29.4582   22.4901 C   0  0  0  0  0  0
  -18.0304  -28.1388   22.8476 C   0  0  0  0  0  0
  -24.1497  -36.7285   23.2645 C   0  0  0  0  0  0
  -25.9901  -30.7501   21.3825 C   0  0  0  0  0  0
  -26.0644  -29.3716   20.7165 C   0  0  0  0  0  0
  -27.2381  -28.5387   20.7018 C   0  0  0  0  0  0
  -26.0110  -26.8447   19.4926 C   0  0  0  0  0  0
  -24.8649  -27.6613   19.4916 C   0  0  0  0  0  0
  -23.6577  -29.8089   20.1587 C   0  0  0  0  0  0
  -25.4126  -36.3062   24.0317 C   0  0  1  0  0  0
  -20.5910  -28.3708   23.1250 C   0  0  2  0  0  0
  -20.6785  -26.9419   22.5397 C   0  0  0  0  0  0
  -19.5759  -26.6377   21.5209 C   0  0  0  0  0  0
  -18.1945  -26.7924   22.1628 C   0  0  0  0  0  0
  -19.1556  -28.8869   23.2853 C   0  0  0  0  0  0
  -18.9474  -30.1465   23.8872 C   0  0  0  0  0  0
  -17.6471  -30.6588   24.0556 C   0  0  0  0  0  0
  -25.9065  -34.9432   23.5073 C   0  0  0  0  0  0
  -16.5363  -29.9080   23.6334 C   0  0  0  0  0  0
  -16.7286  -28.6499   23.0355 C   0  0  0  0  0  0
  -26.4499  -31.6575   25.0736 C   0  0  0  0  0  0
  -25.3689  -31.3757   26.1432 C   0  0  0  0  0  0
  -27.0354  -30.2977   24.6275 C   0  0  0  0  0  0
  -27.6030  -32.4336   25.7520 C   0  0  0  0  0  0
  -27.5576  -37.1813   24.8464 C   0  0  0  0  0  0
  -21.4238  -29.3053   22.3639 N   0  0  0  0  0  0
  -26.4302  -37.3757   23.9390 N   0  0  0  0  0  0
  -24.7074  -31.0434   22.0948 N   0  0  0  0  0  0
  -23.4212  -28.8127   23.3027 O   0  0  0  0  0  0
  -28.3003  -26.2780   20.1492 O   0  0  0  0  0  0
  -26.5650  -34.8916   22.4649 O   0  0  0  0  0  0
  -23.5492  -32.1362   23.7208 O   0  0  0  0  0  0
  -32.0504  -19.2935   21.0512 C   0  0  0  0  0  0
  -31.5602  -17.9694   20.9867 C   0  0  0  0  0  0
  -31.2526  -20.4118   20.7213 C   0  0  0  0  0  0
  -29.4472  -18.8741   20.2209 C   0  0  0  0  0  0
  -30.2382  -17.6829   20.5768 C   0  0  0  0  0  0
  -29.9168  -20.2613   20.2931 C   0  0  0  0  0  0
  -28.3333  -25.1944   19.2160 C   0  0  0  0  0  0
  -29.6833  -16.2047   20.6663 C   0  0  0  0  0  0
  -28.6647  -23.8236   19.1665 C   0  0  0  0  0  0
  -29.2191  -22.8422   20.1897 C   0  0  0  0  0  0
  -28.4813  -23.1880   17.7838 C   0  0  0  0  0  0
  -28.4473  -16.1466   20.9379 N   0  0  0  0  0  0
  -29.1640  -21.4793   19.8451 N   0  0  0  0  0  0
  -29.7075  -23.1985   21.2641 O   0  0  0  0  0  0
  -31.4808  -12.6674   19.1572 H   0  0  0  0  0  0
  -30.4381  -11.5366   19.9662 H   0  0  0  0  0  0
  -29.8185  -11.7404   17.5334 H   0  0  0  0  0  0
  -29.6183  -13.4652   17.7119 H   0  0  0  0  0  0
  -27.9174  -11.2647   18.9247 H   0  0  0  0  0  0
  -27.3825  -12.4882   17.8023 H   0  0  0  0  0  0
  -27.6265  -14.2257   19.4418 H   0  0  0  0  0  0
  -28.7686  -12.1352   21.3704 H   0  0  0  0  0  0
  -28.4104  -13.7658   21.8304 H   0  0  0  0  0  0
  -25.2763   -9.5694   22.4726 H   0  0  0  0  0  0
  -24.0005   -7.4650   22.7493 H   0  0  0  0  0  0
  -21.0832   -8.8764   19.8955 H   0  0  0  0  0  0
  -22.3693  -10.9659   19.6145 H   0  0  0  0  0  0
  -21.1985   -7.6149   23.9723 H   0  0  0  0  0  0
  -21.1466   -6.0523   25.9081 H   0  0  0  0  0  0
  -22.0602   -2.7616   23.2845 H   0  0  0  0  0  0
  -22.4127  -11.9882   22.4742 H   0  0  0  0  0  0
  -21.1116  -13.1257   22.2606 H   0  0  0  0  0  0
  -24.7282  -15.8650   20.6559 H   0  0  0  0  0  0
  -26.3832  -15.5807   20.3990 H   0  0  0  0  0  0
  -26.7240  -32.5343   23.1064 H   0  0  0  0  0  0
  -25.0072  -33.9653   25.0351 H   0  0  0  0  0  0
  -22.7370  -31.2983   21.3930 H   0  0  0  0  0  0
  -23.3749  -35.9626   23.3308 H   0  0  0  0  0  0
  -24.3585  -36.8915   22.2060 H   0  0  0  0  0  0
  -23.7266  -37.6491   23.6674 H   0  0  0  0  0  0
  -26.1402  -31.5135   20.6173 H   0  0  0  0  0  0
  -26.8607  -30.7946   22.0251 H   0  0  0  0  0  0
  -28.1395  -28.8809   21.1898 H   0  0  0  0  0  0
  -25.9023  -25.8705   19.0386 H   0  0  0  0  0  0
  -23.9580  -27.2997   19.0269 H   0  0  0  0  0  0
  -23.7867  -30.5854   19.4044 H   0  0  0  0  0  0
  -22.7736  -29.2495   19.8468 H   0  0  0  0  0  0
  -25.1316  -36.1910   25.0811 H   0  0  0  0  0  0
  -21.0002  -28.3291   24.1374 H   0  0  0  0  0  0
  -20.5703  -26.2317   23.3612 H   0  0  0  0  0  0
  -21.6650  -26.7445   22.1187 H   0  0  0  0  0  0
  -19.6923  -25.6286   21.1256 H   0  0  0  0  0  0
  -19.6692  -27.3170   20.6728 H   0  0  0  0  0  0
  -17.4208  -26.6661   21.4041 H   0  0  0  0  0  0
  -18.0353  -26.0071   22.9033 H   0  0  0  0  0  0
  -19.7947  -30.7281   24.2236 H   0  0  0  0  0  0
  -17.5023  -31.6263   24.5159 H   0  0  0  0  0  0
  -15.5358  -30.2973   23.7659 H   0  0  0  0  0  0
  -15.8689  -28.0800   22.7087 H   0  0  0  0  0  0
  -24.5856  -30.7124   25.7747 H   0  0  0  0  0  0
  -24.8891  -32.2943   26.4821 H   0  0  0  0  0  0
  -25.7967  -30.8947   27.0234 H   0  0  0  0  0  0
  -26.2963  -29.6733   24.1245 H   0  0  0  0  0  0
  -27.3944  -29.7243   25.4831 H   0  0  0  0  0  0
  -27.8876  -30.4227   23.9593 H   0  0  0  0  0  0
  -27.2597  -33.3622   26.2089 H   0  0  0  0  0  0
  -28.3836  -32.6926   25.0358 H   0  0  0  0  0  0
  -28.0699  -31.8484   26.5449 H   0  0  0  0  0  0
  -28.2607  -38.0096   24.7467 H   0  0  0  0  0  0
  -28.1064  -36.2623   24.6345 H   0  0  0  0  0  0
  -27.2288  -37.1521   25.8869 H   0  0  0  0  0  0
  -20.9440  -29.8769   21.6824 H   0  0  0  0  0  0
  -26.0179  -38.2840   24.1351 H   0  0  0  0  0  0
  -33.0691  -19.4614   21.3719 H   0  0  0  0  0  0
  -32.2152  -17.1670   21.2943 H   0  0  0  0  0  0
  -31.6950  -21.3967   20.7735 H   0  0  0  0  0  0
  -28.4316  -18.7145   19.8884 H   0  0  0  0  0  0
  -28.0028  -25.6160   18.2757 H   0  0  0  0  0  0
  -28.1977  -23.9094   17.0168 H   0  0  0  0  0  0
  -27.7081  -22.4192   17.7981 H   0  0  0  0  0  0
  -29.4141  -22.7361   17.4421 H   0  0  0  0  0  0
  -28.0755  -17.0775   21.0820 H   0  0  0  0  0  0
  -28.5722  -21.3179   19.0417 H   0  0  0  0  0  0
  1 25  1  0  0  0
  1 30  2  0  0  0
  1 78  1  0  0  0
  2  3  1  0  0  0
  2 25  1  0  0  0
  2 85  1  0  0  0
  2 86  1  0  0  0
  3  4  1  0  0  0
  3 87  1  0  0  0
  3 88  1  0  0  0
  4  5  1  0  0  0
  4 89  1  0  0  0
  4 90  1  0  0  0
  5  6  1  0  0  0
  5 26  1  0  0  0
  5 91  1  0  0  0
  6 25  1  0  0  0
  6 92  1  0  0  0
  6 93  1  0  0  0
  7  8  2  0  0  0
  7 26  1  0  0  0
  7 29  1  0  0  0
  8  9  1  0  0  0
  8 22  1  0  0  0
  9 10  1  0  0  0
  9 27  2  0  0  0
 10 11  2  0  0  0
 10 15  1  0  0  0
 11 12  1  0  0  0
 11 94  1  0  0  0
 12 13  2  0  0  0
 12 95  1  0  0  0
 13 14  1  0  0  0
 13 31  1  0  0  0
 14 15  2  0  0  0
 14 96  1  0  0  0
 15 97  1  0  0  0
 16 17  2  0  0  0
 16 21  1  0  0  0
 16 31  1  0  0  0
 17 18  1  0  0  0
 17 98  1  0  0  0
 18 19  2  0  0  0
 18 99  1  0  0  0
 19 20  1  0  0  0
 19 24  1  0  0  0
 20 21  2  0  0  0
 20100  1  0  0  0
 21 23  1  0  0  0
 22 28  1  0  0  0
 22 32  2  0  0  0
 26 27  1  0  0  0
 28101  1  0  0  0
 28102  1  0  0  0
 29103  1  0  0  0
 29104  1  0  0  0
 33 34  1  0  0  0
 33 66  1  0  0  0
 33 70  2  0  0  0
 34 36  1  0  0  0
 34 59  1  0  0  0
 34105  1  0  0  0
 35 44  2  0  0  0
 35 45  1  0  0  0
 35 68  1  0  0  0
 36 56  1  0  0  0
 36106  1  0  0  0
 37 39  1  0  0  0
 37 47  1  0  0  0
 37 66  1  0  0  0
 37107  1  0  0  0
 38 43  2  0  0  0
 38 46  1  0  0  0
 38 47  1  0  0  0
 39 64  1  0  0  0
 39 67  2  0  0  0
 40 52  1  0  0  0
 40 53  2  0  0  0
 40 58  1  0  0  0
 41108  1  0  0  0
 41109  1  0  0  0
 41110  1  0  0  0
 41 48  1  0  0  0
 42 43  1  0  0  0
 42 66  1  0  0  0
 42111  1  0  0  0
 42112  1  0  0  0
 43 44  1  0  0  0
 44113  1  0  0  0
 45 46  2  0  0  0
 45114  1  0  0  0
 46115  1  0  0  0
 47116  1  0  0  0
 47117  1  0  0  0
 48 56  1  0  0  0
 48 65  1  0  0  0
 48118  1  0  0  0
 49 50  1  0  0  0
 49 53  1  0  0  0
 49 64  1  0  0  0
 49119  1  0  0  0
 50 51  1  0  0  0
 50120  1  0  0  0
 50121  1  0  0  0
 51 52  1  0  0  0
 51122  1  0  0  0
 51123  1  0  0  0
 52124  1  0  0  0
 52125  1  0  0  0
 53 54  1  0  0  0
 54 55  2  0  0  0
 54126  1  0  0  0
 55 57  1  0  0  0
 55127  1  0  0  0
 56 69  2  0  0  0
 57 58  2  0  0  0
 57128  1  0  0  0
 58129  1  0  0  0
 59 60  1  0  0  0
 59 61  1  0  0  0
 59 62  1  0  0  0
 60130  1  0  0  0
 60131  1  0  0  0
 60132  1  0  0  0
 61133  1  0  0  0
 61134  1  0  0  0
 61135  1  0  0  0
 62136  1  0  0  0
 62137  1  0  0  0
 62138  1  0  0  0
 63 65  1  0  0  0
 63139  1  0  0  0
 63140  1  0  0  0
 63141  1  0  0  0
 64142  1  0  0  0
 65143  1  0  0  0
 68 77  1  0  0  0
 71 72  2  0  0  0
 71 73  1  0  0  0
 71144  1  0  0  0
 72 75  1  0  0  0
 72145  1  0  0  0
 73 76  2  0  0  0
 73146  1  0  0  0
 74 75  2  0  0  0
 74 76  1  0  0  0
 74147  1  0  0  0
 75 78  1  0  0  0
 76 83  1  0  0  0
 77 79  2  0  0  0
 77148  1  0  0  0
 78 82  2  0  0  0
 79 80  1  0  0  0
 79 81  1  0  0  0
 80 83  1  0  0  0
 80 84  2  0  0  0
 81149  1  0  0  0
 81150  1  0  0  0
 81151  1  0  0  0
 82152  1  0  0  0
 83153  1  0  0  0
M  ISO  4   1 100  68 101  77 101  78 100
M  END
> <chiral flag>
0

> <version>
0

> <s_m_source_file>
/data/baiqing/PycharmProjects/Reinvent-master-3.2/result/LINK_invent/BTK/process_docking_weight1_custom_product_contain_oxygen_bond_distance_aromatic_linkinvent_7_9_3/rearranged_h_0079.sdf

> <i_m_source_file_index>
31

> <r_mmod_Potential_Energy-OPLS-2005>
445.288543701172

> <r_mmod_Stretch_Energy-OPLS-2005>
177.394577026367

> <r_mmod_Bend_Energy-OPLS-2005>
240.58918762207

> <r_mmod_Torsional_Energy-OPLS-2005>
221.879241943359

> <r_mmod_Improper_Torsional_Energy-OPLS-2005>
6.24483394622803

> <r_mmod_Van_der_Waal_Energy-OPLS-2005>
160.453109741211

> <r_mmod_Electrostatic_Energy-OPLS-2005>
-262.310882568359

> <r_mmod_Solvation_Energy-OPLS-2005>
-217.281036376953

> <b_mmod_Minimization_Converged-OPLS-2005>
0

> <r_mmod_RMS_Derivative-OPLS-2005>
2.26692295074463

$$$$
31
                    3D
 Structure written by MMmdl.
151159  0  0  1  0            999 V2000
  -30.6278  -14.5931   20.5427 C   0  0  0  0  0  0
  -30.4460  -12.3762   19.4334 C   0  0  0  0  0  0
  -29.5074  -12.5122   18.2123 C   0  0  0  0  0  0
  -28.0290  -12.3551   18.6229 C   0  0  0  0  0  0
  -27.6588  -13.2060   19.8676 C   0  0  2  0  0  0
  -28.7035  -13.0166   20.9908 C   0  0  0  0  0  0
  -25.2583  -13.8157   20.5658 C   0  0  0  0  0  0
  -24.1827  -13.0447   20.9161 C   0  0  0  0  0  0
  -24.6370  -11.6910   20.8721 C   0  0  0  0  0  0
  -23.9037  -10.4304   21.0405 C   0  0  0  0  0  0
  -24.3591   -9.4225   21.9186 C   0  0  0  0  0  0
  -23.6263   -8.2265   22.0769 C   0  0  0  0  0  0
  -22.4251   -8.0293   21.3557 C   0  0  0  0  0  0
  -21.9866   -9.0257   20.4662 C   0  0  0  0  0  0
  -22.7202  -10.2136   20.3064 C   0  0  0  0  0  0
  -21.6855   -6.0723   22.5272 C   0  0  0  0  0  0
  -21.4022   -6.5629   23.8207 C   0  0  0  0  0  0
  -21.3657   -5.6778   24.9170 C   0  0  0  0  0  0
  -21.6044   -4.3038   24.7213 C   0  0  0  0  0  0
  -21.8826   -3.8134   23.4334 C   0  0  0  0  0  0
  -21.9201   -4.6950   22.3398 C   0  0  0  0  0  0
  -22.7865  -13.5277   21.1822 C   0  0  0  0  0  0
  -22.1671   -4.2136   21.0975 F   0  0  0  0  0  0
  -21.5635   -3.4526   25.7729 F   0  0  0  0  0  0
  -30.0253  -13.3693   20.4392 N   0  0  0  0  0  0
  -26.3005  -12.9308   20.3319 N   0  0  0  0  0  0
  -25.9298  -11.6480   20.5748 N   0  0  0  0  0  0
  -22.0483  -12.8300   22.0381 N   0  0  0  0  0  0
  -25.4289  -15.1875   20.4080 N   0  0  0  0  0  0
  -31.7671  -14.8047   20.1122 O   0  0  0  0  0  0
  -21.6641   -6.8871   21.4239 O   0  0  0  0  0  0
  -22.3567  -14.5586   20.6666 O   0  0  0  0  0  0
  -24.6214  -31.8660   23.2064 C   0  0  0  0  0  0
  -25.9103  -32.4793   23.8375 C   0  0  1  0  0  0
  -27.2252  -27.3493   20.1015 C   0  0  0  0  0  0
  -25.5947  -33.8597   24.2317 N   0  0  0  0  0  0
  -23.4122  -30.4877   21.5507 C   0  0  2  0  0  0
  -24.8577  -28.9491   20.1125 C   0  0  0  0  0  0
  -22.7446  -29.4644   22.4967 C   0  0  0  0  0  0
  -18.0295  -28.1376   22.8468 C   0  0  0  0  0  0
  -24.1489  -36.7297   23.2631 C   0  0  0  0  0  0
  -25.9526  -30.8014   21.3750 C   0  0  0  0  0  0
  -26.0244  -29.4299   20.7184 C   0  0  0  0  0  0
  -27.2063  -28.6368   20.7120 C   0  0  0  0  0  0
  -26.0405  -26.9277   19.4513 C   0  0  0  0  0  0
  -24.8662  -27.7015   19.4725 C   0  0  0  0  0  0
  -23.6239  -29.8259   20.1636 C   0  0  0  0  0  0
  -25.4105  -36.3091   24.0328 C   0  0  1  0  0  0
  -20.5883  -28.3666   23.1278 C   0  0  2  0  0  0
  -20.6775  -26.9388   22.5389 C   0  0  0  0  0  0
  -19.5752  -26.6371   21.5196 C   0  0  0  0  0  0
  -18.1926  -26.7937   22.1583 C   0  0  0  0  0  0
  -19.1538  -28.8834   23.2889 C   0  0  0  0  0  0
  -18.9464  -30.1436   23.8893 C   0  0  0  0  0  0
  -17.6464  -30.6565   24.0575 C   0  0  0  0  0  0
  -25.9050  -34.9462   23.5117 C   0  0  0  0  0  0
  -16.5356  -29.9075   23.6324 C   0  0  0  0  0  0
  -16.7284  -28.6504   23.0330 C   0  0  0  0  0  0
  -26.4502  -31.6585   25.0719 C   0  0  0  0  0  0
  -25.3755  -31.3730   26.1455 C   0  0  0  0  0  0
  -27.0344  -30.3018   24.6149 C   0  0  0  0  0  0
  -27.6065  -32.4303   25.7498 C   0  0  0  0  0  0
  -27.5576  -37.1796   24.8462 C   0  0  0  0  0  0
  -21.4172  -29.3036   22.3692 N   0  0  0  0  0  0
  -26.4294  -37.3768   23.9406 N   0  0  0  0  0  0
  -24.6811  -31.0670   22.1024 N   0  0  0  0  0  0
  -23.4196  -28.8184   23.3013 O   0  0  0  0  0  0
  -28.3644  -26.5394   20.1594 O   0  0  0  0  0  0
  -26.5592  -34.8924   22.4671 O   0  0  0  0  0  0
  -23.5385  -32.1452   23.7415 O   0  0  0  0  0  0
  -29.2175  -17.7565   19.9621 C   0  0  0  0  0  0
  -30.4023  -17.7610   22.0727 C   0  0  0  0  0  0
  -28.9721  -19.1573   20.0870 C   0  0  0  0  0  0
  -30.1558  -19.1577   22.1977 C   0  0  0  0  0  0
  -29.9029  -17.0234   20.9718 C   0  0  0  0  0  0
  -29.3969  -19.8718   21.2341 C   0  0  0  0  0  0
  -29.1230  -24.1564   20.6908 C   0  0  0  0  0  0
  -28.2807  -25.1146   19.7849 C   0  0  0  0  0  0
  -29.8268  -15.5793   21.0305 N   0  0  0  0  0  0
  -29.0532  -22.7540   20.4393 N   0  0  0  0  0  0
  -29.7870  -24.6138   21.6273 O   0  0  0  0  0  0
  -29.4392  -21.9788   22.8997 O   0  0  0  0  0  0
  -27.2681  -21.4216   21.7341 O   0  0  0  0  0  0
  -28.7358  -21.5496   21.6799 S   0  0  0  0  0  0
  -31.4852  -12.5143   19.1319 H   0  0  0  0  0  0
  -30.3918  -11.3705   19.8496 H   0  0  0  0  0  0
  -29.7579  -11.7698   17.4531 H   0  0  0  0  0  0
  -29.6504  -13.4863   17.7416 H   0  0  0  0  0  0
  -27.8537  -11.3002   18.8330 H   0  0  0  0  0  0
  -27.3827  -12.6065   17.7829 H   0  0  0  0  0  0
  -27.6911  -14.2504   19.5552 H   0  0  0  0  0  0
  -28.7109  -11.9814   21.3341 H   0  0  0  0  0  0
  -28.4408  -13.6065   21.8696 H   0  0  0  0  0  0
  -25.2741   -9.5700   22.4753 H   0  0  0  0  0  0
  -23.9967   -7.4660   22.7487 H   0  0  0  0  0  0
  -21.0799   -8.8779   19.8965 H   0  0  0  0  0  0
  -22.3655  -10.9674   19.6173 H   0  0  0  0  0  0
  -21.2026   -7.6125   23.9702 H   0  0  0  0  0  0
  -21.1461   -6.0507   25.9064 H   0  0  0  0  0  0
  -22.0600   -2.7588   23.2841 H   0  0  0  0  0  0
  -22.4073  -11.9957   22.4776 H   0  0  0  0  0  0
  -21.1115  -13.1373   22.2600 H   0  0  0  0  0  0
  -24.6578  -15.8379   20.5135 H   0  0  0  0  0  0
  -26.2766  -15.6302   20.0788 H   0  0  0  0  0  0
  -26.7161  -32.5471   23.1110 H   0  0  0  0  0  0
  -25.0145  -33.9746   25.0489 H   0  0  0  0  0  0
  -22.7002  -31.3046   21.4122 H   0  0  0  0  0  0
  -23.3750  -35.9632   23.3310 H   0  0  0  0  0  0
  -24.3574  -36.8903   22.2047 H   0  0  0  0  0  0
  -23.7256  -37.6505   23.6646 H   0  0  0  0  0  0
  -26.0785  -31.5625   20.6020 H   0  0  0  0  0  0
  -26.8361  -30.8520   22.0011 H   0  0  0  0  0  0
  -28.1019  -28.9996   21.1981 H   0  0  0  0  0  0
  -25.9791  -25.9963   18.9144 H   0  0  0  0  0  0
  -23.9755  -27.3319   18.9819 H   0  0  0  0  0  0
  -23.7397  -30.6076   19.4107 H   0  0  0  0  0  0
  -22.7439  -29.2554   19.8627 H   0  0  0  0  0  0
  -25.1276  -36.1952   25.0814 H   0  0  0  0  0  0
  -20.9993  -28.3227   24.1389 H   0  0  0  0  0  0
  -20.5698  -26.2263   23.3576 H   0  0  0  0  0  0
  -21.6629  -26.7428   22.1148 H   0  0  0  0  0  0
  -19.6925  -25.6293   21.1228 H   0  0  0  0  0  0
  -19.6702  -27.3188   20.6735 H   0  0  0  0  0  0
  -17.4224  -26.6733   21.3947 H   0  0  0  0  0  0
  -18.0253  -26.0059   22.8955 H   0  0  0  0  0  0
  -19.7937  -30.7246   24.2268 H   0  0  0  0  0  0
  -17.5016  -31.6244   24.5184 H   0  0  0  0  0  0
  -15.5346  -30.2971   23.7635 H   0  0  0  0  0  0
  -15.8706  -28.0835   22.7013 H   0  0  0  0  0  0
  -24.5924  -30.7068   25.7806 H   0  0  0  0  0  0
  -24.8940  -32.2909   26.4857 H   0  0  0  0  0  0
  -25.8082  -30.8940   27.0256 H   0  0  0  0  0  0
  -26.2926  -29.6758   24.1178 H   0  0  0  0  0  0
  -27.4077  -29.7247   25.4624 H   0  0  0  0  0  0
  -27.8773  -30.4295   23.9349 H   0  0  0  0  0  0
  -27.2680  -33.3600   26.2085 H   0  0  0  0  0  0
  -28.3888  -32.6877   25.0346 H   0  0  0  0  0  0
  -28.0736  -31.8436   26.5420 H   0  0  0  0  0  0
  -28.2582  -38.0102   24.7478 H   0  0  0  0  0  0
  -28.1077  -36.2623   24.6314 H   0  0  0  0  0  0
  -27.2280  -37.1464   25.8862 H   0  0  0  0  0  0
  -20.9351  -29.8803   21.6942 H   0  0  0  0  0  0
  -26.0188  -38.2842   24.1416 H   0  0  0  0  0  0
  -28.7939  -17.2318   19.1170 H   0  0  0  0  0  0
  -30.8960  -17.2452   22.8849 H   0  0  0  0  0  0
  -28.3702  -19.6649   19.3501 H   0  0  0  0  0  0
  -30.4640  -19.6614   23.1040 H   0  0  0  0  0  0
  -27.2725  -24.7124   19.8549 H   0  0  0  0  0  0
  -28.6057  -25.0071   18.7494 H   0  0  0  0  0  0
  -28.9385  -15.2182   21.3435 H   0  0  0  0  0  0
  -28.5716  -22.4632   19.5885 H   0  0  0  0  0  0
  1 25  1  0  0  0
  1 30  2  0  0  0
  1 79  1  0  0  0
  2  3  1  0  0  0
  2 25  1  0  0  0
  2 85  1  0  0  0
  2 86  1  0  0  0
  3  4  1  0  0  0
  3 87  1  0  0  0
  3 88  1  0  0  0
  4  5  1  0  0  0
  4 89  1  0  0  0
  4 90  1  0  0  0
  5  6  1  0  0  0
  5 26  1  0  0  0
  5 91  1  0  0  0
  6 25  1  0  0  0
  6 92  1  0  0  0
  6 93  1  0  0  0
  7  8  2  0  0  0
  7 26  1  0  0  0
  7 29  1  0  0  0
  8  9  1  0  0  0
  8 22  1  0  0  0
  9 10  1  0  0  0
  9 27  2  0  0  0
 10 11  2  0  0  0
 10 15  1  0  0  0
 11 12  1  0  0  0
 11 94  1  0  0  0
 12 13  2  0  0  0
 12 95  1  0  0  0
 13 14  1  0  0  0
 13 31  1  0  0  0
 14 15  2  0  0  0
 14 96  1  0  0  0
 15 97  1  0  0  0
 16 17  2  0  0  0
 16 21  1  0  0  0
 16 31  1  0  0  0
 17 18  1  0  0  0
 17 98  1  0  0  0
 18 19  2  0  0  0
 18 99  1  0  0  0
 19 20  1  0  0  0
 19 24  1  0  0  0
 20 21  2  0  0  0
 20100  1  0  0  0
 21 23  1  0  0  0
 22 28  1  0  0  0
 22 32  2  0  0  0
 26 27  1  0  0  0
 28101  1  0  0  0
 28102  1  0  0  0
 29103  1  0  0  0
 29104  1  0  0  0
 33 34  1  0  0  0
 33 66  1  0  0  0
 33 70  2  0  0  0
 34 36  1  0  0  0
 34 59  1  0  0  0
 34105  1  0  0  0
 35 44  2  0  0  0
 35 45  1  0  0  0
 35 68  1  0  0  0
 36 56  1  0  0  0
 36106  1  0  0  0
 37 39  1  0  0  0
 37 47  1  0  0  0
 37 66  1  0  0  0
 37107  1  0  0  0
 38 43  2  0  0  0
 38 46  1  0  0  0
 38 47  1  0  0  0
 39 64  1  0  0  0
 39 67  2  0  0  0
 40 52  1  0  0  0
 40 53  2  0  0  0
 40 58  1  0  0  0
 41108  1  0  0  0
 41109  1  0  0  0
 41110  1  0  0  0
 41 48  1  0  0  0
 42 43  1  0  0  0
 42 66  1  0  0  0
 42111  1  0  0  0
 42112  1  0  0  0
 43 44  1  0  0  0
 44113  1  0  0  0
 45 46  2  0  0  0
 45114  1  0  0  0
 46115  1  0  0  0
 47116  1  0  0  0
 47117  1  0  0  0
 48 56  1  0  0  0
 48 65  1  0  0  0
 48118  1  0  0  0
 49 50  1  0  0  0
 49 53  1  0  0  0
 49 64  1  0  0  0
 49119  1  0  0  0
 50 51  1  0  0  0
 50120  1  0  0  0
 50121  1  0  0  0
 51 52  1  0  0  0
 51122  1  0  0  0
 51123  1  0  0  0
 52124  1  0  0  0
 52125  1  0  0  0
 53 54  1  0  0  0
 54 55  2  0  0  0
 54126  1  0  0  0
 55 57  1  0  0  0
 55127  1  0  0  0
 56 69  2  0  0  0
 57 58  2  0  0  0
 57128  1  0  0  0
 58129  1  0  0  0
 59 60  1  0  0  0
 59 61  1  0  0  0
 59 62  1  0  0  0
 60130  1  0  0  0
 60131  1  0  0  0
 60132  1  0  0  0
 61133  1  0  0  0
 61134  1  0  0  0
 61135  1  0  0  0
 62136  1  0  0  0
 62137  1  0  0  0
 62138  1  0  0  0
 63 65  1  0  0  0
 63139  1  0  0  0
 63140  1  0  0  0
 63141  1  0  0  0
 64142  1  0  0  0
 65143  1  0  0  0
 68 78  1  0  0  0
 71 73  2  0  0  0
 71 75  1  0  0  0
 71144  1  0  0  0
 72 74  1  0  0  0
 72 75  2  0  0  0
 72145  1  0  0  0
 73 76  1  0  0  0
 73146  1  0  0  0
 74 76  2  0  0  0
 74147  1  0  0  0
 75 79  1  0  0  0
 76 84  1  0  0  0
 77 78  1  0  0  0
 77 80  1  0  0  0
 77 81  2  0  0  0
 78148  1  0  0  0
 78149  1  0  0  0
 79150  1  0  0  0
 80151  1  0  0  0
 80 84  1  0  0  0
 82 84  2  0  0  0
 83 84  2  0  0  0
M  ISO  4   1 100  68 101  78 101  79 100
M  END
> <chiral flag>
0

> <version>
0

> <s_m_source_file>
/data/baiqing/PycharmProjects/Reinvent-master-3.2/result/LINK_invent/BTK/process_docking_weight1_custom_product_contain_oxygen_bond_distance_aromatic_linkinvent_7_9_3/rearranged_h_0079.sdf

> <i_m_source_file_index>
32

> <r_mmod_Potential_Energy-OPLS-2005>
-108.573295593262

> <r_mmod_Stretch_Energy-OPLS-2005>
62.5946311950684

> <r_mmod_Bend_Energy-OPLS-2005>
131.083267211914

> <r_mmod_Torsional_Energy-OPLS-2005>
284.260559082031

> <r_mmod_Improper_Torsional_Energy-OPLS-2005>
10.8862018585205

> <r_mmod_Van_der_Waal_Energy-OPLS-2005>
140.139663696289

> <r_mmod_Electrostatic_Energy-OPLS-2005>
-478.614807128906

> <r_mmod_Solvation_Energy-OPLS-2005>
-294.174987792969

> <b_mmod_Minimization_Converged-OPLS-2005>
0

> <r_mmod_RMS_Derivative-OPLS-2005>
3.87706613540649

$$$$
32
                    3D
 Structure written by MMmdl.
160169  0  0  1  0            999 V2000
  -30.7499  -14.4198   20.6216 C   0  0  0  0  0  0
  -30.4065  -12.2974   19.4123 C   0  0  0  0  0  0
  -29.4846  -12.5184   18.1978 C   0  0  0  0  0  0
  -28.0067  -12.3809   18.6089 C   0  0  0  0  0  0
  -27.6567  -13.2101   19.8726 C   0  0  2  0  0  0
  -28.6971  -12.9928   20.9930 C   0  0  0  0  0  0
  -25.2558  -13.8164   20.5663 C   0  0  0  0  0  0
  -24.1818  -13.0450   20.9166 C   0  0  0  0  0  0
  -24.6371  -11.6916   20.8734 C   0  0  0  0  0  0
  -23.9040  -10.4303   21.0405 C   0  0  0  0  0  0
  -24.3600   -9.4220   21.9180 C   0  0  0  0  0  0
  -23.6286   -8.2248   22.0746 C   0  0  0  0  0  0
  -22.4272   -8.0275   21.3532 C   0  0  0  0  0  0
  -21.9903   -9.0242   20.4631 C   0  0  0  0  0  0
  -22.7221  -10.2125   20.3046 C   0  0  0  0  0  0
  -21.6858   -6.0725   22.5272 C   0  0  0  0  0  0
  -21.4014   -6.5638   23.8197 C   0  0  0  0  0  0
  -21.3664   -5.6791   24.9165 C   0  0  0  0  0  0
  -21.6049   -4.3051   24.7220 C   0  0  0  0  0  0
  -21.8823   -3.8139   23.4346 C   0  0  0  0  0  0
  -21.9196   -4.6956   22.3401 C   0  0  0  0  0  0
  -22.7844  -13.5249   21.1828 C   0  0  0  0  0  0
  -22.1669   -4.2141   21.0981 F   0  0  0  0  0  0
  -21.5630   -3.4529   25.7733 F   0  0  0  0  0  0
  -30.0280  -13.2823   20.4363 N   0  0  0  0  0  0
  -26.2987  -12.9335   20.3341 N   0  0  0  0  0  0
  -25.9301  -11.6498   20.5764 N   0  0  0  0  0  0
  -22.0493  -12.8218   22.0373 N   0  0  0  0  0  0
  -25.4302  -15.1876   20.4049 N   0  0  0  0  0  0
  -31.8655  -14.5633   20.1084 O   0  0  0  0  0  0
  -21.6650   -6.8862   21.4226 O   0  0  0  0  0  0
  -22.3544  -14.5580   20.6717 O   0  0  0  0  0  0
  -24.6137  -31.8684   23.2121 C   0  0  0  0  0  0
  -25.9034  -32.4829   23.8430 C   0  0  1  0  0  0
  -27.2287  -27.4550   20.0969 C   0  0  0  0  0  0
  -25.5899  -33.8627   24.2366 N   0  0  0  0  0  0
  -23.4026  -30.4923   21.5498 C   0  0  2  0  0  0
  -24.8501  -28.9652   20.1074 C   0  0  0  0  0  0
  -22.7406  -29.4671   22.4988 C   0  0  0  0  0  0
  -18.0264  -28.1380   22.8501 C   0  0  0  0  0  0
  -24.1472  -36.7302   23.2647 C   0  0  0  0  0  0
  -25.9282  -30.8452   21.3591 C   0  0  0  0  0  0
  -26.0090  -29.4839   20.7001 C   0  0  0  0  0  0
  -27.2059  -28.7359   20.6926 C   0  0  0  0  0  0
  -26.0623  -26.9496   19.4908 C   0  0  0  0  0  0
  -24.8693  -27.6968   19.4996 C   0  0  0  0  0  0
  -23.6091  -29.8249   20.1634 C   0  0  0  0  0  0
  -25.4089  -36.3122   24.0362 C   0  0  1  0  0  0
  -20.5866  -28.3672   23.1314 C   0  0  2  0  0  0
  -20.6750  -26.9410   22.5419 C   0  0  0  0  0  0
  -19.5735  -26.6392   21.5204 C   0  0  0  0  0  0
  -18.1919  -26.7934   22.1620 C   0  0  0  0  0  0
  -19.1519  -28.8836   23.2901 C   0  0  0  0  0  0
  -18.9437  -30.1433   23.8920 C   0  0  0  0  0  0
  -17.6444  -30.6589   24.0559 C   0  0  0  0  0  0
  -25.9020  -34.9482   23.5154 C   0  0  0  0  0  0
  -16.5328  -29.9098   23.6333 C   0  0  0  0  0  0
  -16.7254  -28.6508   23.0375 C   0  0  0  0  0  0
  -26.4472  -31.6600   25.0752 C   0  0  0  0  0  0
  -25.3748  -31.3672   26.1504 C   0  0  0  0  0  0
  -27.0318  -30.3057   24.6125 C   0  0  0  0  0  0
  -27.6077  -32.4298   25.7493 C   0  0  0  0  0  0
  -27.5571  -37.1798   24.8467 C   0  0  0  0  0  0
  -21.4139  -29.3042   22.3713 N   0  0  0  0  0  0
  -26.4276  -37.3806   23.9428 N   0  0  0  0  0  0
  -24.6664  -31.0814   22.0998 N   0  0  0  0  0  0
  -23.4169  -28.8219   23.3043 O   0  0  0  0  0  0
  -28.3228  -26.6351   20.2056 O   0  0  0  0  0  0
  -26.5574  -34.8930   22.4710 O   0  0  0  0  0  0
  -23.5331  -32.1413   23.7532 O   0  0  0  0  0  0
  -30.1955  -18.7508   22.8283 C   0  0  0  0  0  0
  -28.7938  -18.0641   20.9670 C   0  0  0  0  0  0
  -29.5927  -20.0235   22.8226 C   0  0  0  0  0  0
  -28.1866  -19.3399   20.9646 C   0  0  0  0  0  0
  -29.8390  -17.7725   21.8727 C   0  0  0  0  0  0
  -28.6117  -20.3492   21.8576 C   0  0  0  0  0  0
  -27.9830  -23.9478   22.8202 C   0  0  0  0  0  0
  -28.1884  -24.6039   21.5193 C   0  0  0  0  0  0
  -27.9161  -24.6353   23.9784 C   0  0  0  0  0  0
  -28.3153  -25.9487   21.3960 C   0  0  0  0  0  0
  -30.7063  -16.5486   21.7118 C   0  0  0  0  0  0
  -28.1854  -23.7150   20.2871 C   0  0  0  0  0  0
  -27.8110  -22.4279   22.9077 C   0  0  0  0  0  0
  -28.8116  -22.3441   20.5890 C   0  0  0  0  0  0
  -28.1321  -21.6644   21.6945 N   0  0  0  0  0  0
  -30.1212  -15.4176   21.2729 N   0  0  0  0  0  0
  -31.9060  -16.6404   22.0020 O   0  0  0  0  0  0
  -31.4532  -12.3722   19.1121 H   0  0  0  0  0  0
  -30.2847  -11.2880   19.8073 H   0  0  0  0  0  0
  -29.7180  -11.8074   17.4044 H   0  0  0  0  0  0
  -29.6586  -13.5116   17.7792 H   0  0  0  0  0  0
  -27.8078  -11.3239   18.7908 H   0  0  0  0  0  0
  -27.3603  -12.6701   17.7799 H   0  0  0  0  0  0
  -27.7004  -14.2601   19.5834 H   0  0  0  0  0  0
  -28.6640  -11.9619   21.3476 H   0  0  0  0  0  0
  -28.4598  -13.6065   21.8619 H   0  0  0  0  0  0
  -25.2751   -9.5701   22.4749 H   0  0  0  0  0  0
  -23.9993   -7.4646   22.7476 H   0  0  0  0  0  0
  -21.0827   -8.8756   19.8948 H   0  0  0  0  0  0
  -22.3679  -10.9651   19.6150 H   0  0  0  0  0  0
  -21.2002   -7.6142   23.9701 H   0  0  0  0  0  0
  -21.1485   -6.0523   25.9068 H   0  0  0  0  0  0
  -22.0596   -2.7605   23.2848 H   0  0  0  0  0  0
  -22.4095  -11.9865   22.4743 H   0  0  0  0  0  0
  -21.1113  -13.1227   22.2601 H   0  0  0  0  0  0
  -24.6616  -15.8437   20.4915 H   0  0  0  0  0  0
  -26.2777  -15.6170   20.0574 H   0  0  0  0  0  0
  -26.7117  -32.5556   23.1212 H   0  0  0  0  0  0
  -25.0106  -33.9806   25.0551 H   0  0  0  0  0  0
  -22.6926  -31.3098   21.4114 H   0  0  0  0  0  0
  -23.3743  -35.9624   23.3324 H   0  0  0  0  0  0
  -24.3588  -36.8886   22.2062 H   0  0  0  0  0  0
  -23.7193  -37.6510   23.6624 H   0  0  0  0  0  0
  -26.0407  -31.6181   20.5976 H   0  0  0  0  0  0
  -26.8164  -30.8944   21.9783 H   0  0  0  0  0  0
  -28.0972  -29.1183   21.1710 H   0  0  0  0  0  0
  -26.0713  -25.9600   19.0563 H   0  0  0  0  0  0
  -23.9755  -27.2846   19.0525 H   0  0  0  0  0  0
  -23.7170  -30.6005   19.4036 H   0  0  0  0  0  0
  -22.7364  -29.2425   19.8626 H   0  0  0  0  0  0
  -25.1262  -36.2005   25.0859 H   0  0  0  0  0  0
  -20.9980  -28.3226   24.1427 H   0  0  0  0  0  0
  -20.5646  -26.2281   23.3603 H   0  0  0  0  0  0
  -21.6605  -26.7453   22.1197 H   0  0  0  0  0  0
  -19.6896  -25.6310   21.1220 H   0  0  0  0  0  0
  -19.6686  -27.3196   20.6733 H   0  0  0  0  0  0
  -17.4204  -26.6713   21.4014 H   0  0  0  0  0  0
  -18.0302  -26.0041   22.8981 H   0  0  0  0  0  0
  -19.7913  -30.7209   24.2334 H   0  0  0  0  0  0
  -17.5005  -31.6281   24.5131 H   0  0  0  0  0  0
  -15.5327  -30.2997   23.7642 H   0  0  0  0  0  0
  -15.8660  -28.0801   22.7127 H   0  0  0  0  0  0
  -24.5942  -30.7005   25.7821 H   0  0  0  0  0  0
  -24.8901  -32.2801   26.4972 H   0  0  0  0  0  0
  -25.8103  -30.8829   27.0257 H   0  0  0  0  0  0
  -26.2875  -29.6803   24.1183 H   0  0  0  0  0  0
  -27.4111  -29.7311   25.4586 H   0  0  0  0  0  0
  -27.8699  -30.4409   23.9283 H   0  0  0  0  0  0
  -27.2759  -33.3622   26.2072 H   0  0  0  0  0  0
  -28.3877  -32.6800   25.0287 H   0  0  0  0  0  0
  -28.0755  -31.8404   26.5394 H   0  0  0  0  0  0
  -28.2577  -38.0104   24.7512 H   0  0  0  0  0  0
  -28.1075  -36.2628   24.6284 H   0  0  0  0  0  0
  -27.2301  -37.1431   25.8875 H   0  0  0  0  0  0
  -20.9309  -29.8759   21.6929 H   0  0  0  0  0  0
  -26.0179  -38.2897   24.1427 H   0  0  0  0  0  0
  -30.9980  -18.5547   23.5260 H   0  0  0  0  0  0
  -28.5012  -17.3455   20.2144 H   0  0  0  0  0  0
  -29.9621  -20.7584   23.5233 H   0  0  0  0  0  0
  -27.4249  -19.5583   20.2284 H   0  0  0  0  0  0
  -28.0101  -25.7069   24.0484 H   0  0  0  0  0  0
  -27.7516  -24.1155   24.9123 H   0  0  0  0  0  0
  -28.3046  -26.6386   22.2273 H   0  0  0  0  0  0
  -28.7449  -24.1927   19.4829 H   0  0  0  0  0  0
  -27.1603  -23.6003   19.9333 H   0  0  0  0  0  0
  -26.7624  -22.2337   23.1403 H   0  0  0  0  0  0
  -28.3652  -22.0768   23.7774 H   0  0  0  0  0  0
  -29.8683  -22.4663   20.8385 H   0  0  0  0  0  0
  -28.7772  -21.7258   19.6906 H   0  0  0  0  0  0
  -29.1231  -15.3464   21.3757 H   0  0  0  0  0  0
  1 25  1  0  0  0
  1 30  2  0  0  0
  1 86  1  0  0  0
  2  3  1  0  0  0
  2 25  1  0  0  0
  2 88  1  0  0  0
  2 89  1  0  0  0
  3  4  1  0  0  0
  3 90  1  0  0  0
  3 91  1  0  0  0
  4  5  1  0  0  0
  4 92  1  0  0  0
  4 93  1  0  0  0
  5  6  1  0  0  0
  5 26  1  0  0  0
  5 94  1  0  0  0
  6 25  1  0  0  0
  6 95  1  0  0  0
  6 96  1  0  0  0
  7  8  2  0  0  0
  7 26  1  0  0  0
  7 29  1  0  0  0
  8  9  1  0  0  0
  8 22  1  0  0  0
  9 10  1  0  0  0
  9 27  2  0  0  0
 10 11  2  0  0  0
 10 15  1  0  0  0
 11 12  1  0  0  0
 11 97  1  0  0  0
 12 13  2  0  0  0
 12 98  1  0  0  0
 13 14  1  0  0  0
 13 31  1  0  0  0
 14 15  2  0  0  0
 14 99  1  0  0  0
 15100  1  0  0  0
 16 17  2  0  0  0
 16 21  1  0  0  0
 16 31  1  0  0  0
 17 18  1  0  0  0
 17101  1  0  0  0
 18 19  2  0  0  0
 18102  1  0  0  0
 19 20  1  0  0  0
 19 24  1  0  0  0
 20 21  2  0  0  0
 20103  1  0  0  0
 21 23  1  0  0  0
 22 28  1  0  0  0
 22 32  2  0  0  0
 26 27  1  0  0  0
 28104  1  0  0  0
 28105  1  0  0  0
 29106  1  0  0  0
 29107  1  0  0  0
 33 34  1  0  0  0
 33 66  1  0  0  0
 33 70  2  0  0  0
 34 36  1  0  0  0
 34 59  1  0  0  0
 34108  1  0  0  0
 35 44  2  0  0  0
 35 45  1  0  0  0
 35 68  1  0  0  0
 36 56  1  0  0  0
 36109  1  0  0  0
 37 39  1  0  0  0
 37 47  1  0  0  0
 37 66  1  0  0  0
 37110  1  0  0  0
 38 43  2  0  0  0
 38 46  1  0  0  0
 38 47  1  0  0  0
 39 64  1  0  0  0
 39 67  2  0  0  0
 40 52  1  0  0  0
 40 53  2  0  0  0
 40 58  1  0  0  0
 41111  1  0  0  0
 41112  1  0  0  0
 41113  1  0  0  0
 41 48  1  0  0  0
 42 43  1  0  0  0
 42 66  1  0  0  0
 42114  1  0  0  0
 42115  1  0  0  0
 43 44  1  0  0  0
 44116  1  0  0  0
 45 46  2  0  0  0
 45117  1  0  0  0
 46118  1  0  0  0
 47119  1  0  0  0
 47120  1  0  0  0
 48 56  1  0  0  0
 48 65  1  0  0  0
 48121  1  0  0  0
 49 50  1  0  0  0
 49 53  1  0  0  0
 49 64  1  0  0  0
 49122  1  0  0  0
 50 51  1  0  0  0
 50123  1  0  0  0
 50124  1  0  0  0
 51 52  1  0  0  0
 51125  1  0  0  0
 51126  1  0  0  0
 52127  1  0  0  0
 52128  1  0  0  0
 53 54  1  0  0  0
 54 55  2  0  0  0
 54129  1  0  0  0
 55 57  1  0  0  0
 55130  1  0  0  0
 56 69  2  0  0  0
 57 58  2  0  0  0
 57131  1  0  0  0
 58132  1  0  0  0
 59 60  1  0  0  0
 59 61  1  0  0  0
 59 62  1  0  0  0
 60133  1  0  0  0
 60134  1  0  0  0
 60135  1  0  0  0
 61136  1  0  0  0
 61137  1  0  0  0
 61138  1  0  0  0
 62139  1  0  0  0
 62140  1  0  0  0
 62141  1  0  0  0
 63 65  1  0  0  0
 63142  1  0  0  0
 63143  1  0  0  0
 63144  1  0  0  0
 64145  1  0  0  0
 65146  1  0  0  0
 68 80  1  0  0  0
 71 73  2  0  0  0
 71 75  1  0  0  0
 71147  1  0  0  0
 72 74  1  0  0  0
 72 75  2  0  0  0
 72148  1  0  0  0
 73 76  1  0  0  0
 73149  1  0  0  0
 74 76  2  0  0  0
 74150  1  0  0  0
 75 81  1  0  0  0
 76 85  1  0  0  0
 77 78  1  0  0  0
 77 79  2  0  0  0
 77 83  1  0  0  0
 78 80  2  0  0  0
 78 82  1  0  0  0
 79151  1  0  0  0
 79152  1  0  0  0
 80153  1  0  0  0
 81 86  1  0  0  0
 81 87  2  0  0  0
 82 84  1  0  0  0
 82154  1  0  0  0
 82155  1  0  0  0
 83 85  1  0  0  0
 83156  1  0  0  0
 83157  1  0  0  0
 84 85  1  0  0  0
 84158  1  0  0  0
 84159  1  0  0  0
 86160  1  0  0  0
M  ISO  4   1 100  68 101  80 101  86 100
M  END
> <chiral flag>
0

> <version>
0

> <s_m_source_file>
/data/baiqing/PycharmProjects/Reinvent-master-3.2/result/LINK_invent/BTK/process_docking_weight1_custom_product_contain_oxygen_bond_distance_aromatic_linkinvent_7_9_3/rearranged_h_0079.sdf

> <i_m_source_file_index>
33

> <r_mmod_Potential_Energy-OPLS-2005>
-44.9697456359863

> <r_mmod_Stretch_Energy-OPLS-2005>
36.7555122375488

> <r_mmod_Bend_Energy-OPLS-2005>
107.037452697754

> <r_mmod_Torsional_Energy-OPLS-2005>
291.435913085938

> <r_mmod_Improper_Torsional_Energy-OPLS-2005>
8.16358470916748

> <r_mmod_Van_der_Waal_Energy-OPLS-2005>
176.997604370117

> <r_mmod_Electrostatic_Energy-OPLS-2005>
-449.628387451172

> <r_mmod_Solvation_Energy-OPLS-2005>
-231.206527709961

> <b_mmod_Minimization_Converged-OPLS-2005>
0

> <r_mmod_RMS_Derivative-OPLS-2005>
2.8286292552948

$$$$
33
                    3D
 Structure written by MMmdl.
168177  0  0  1  0            999 V2000
  -30.5801  -14.8737   20.5172 C   0  0  0  0  0  0
  -30.4406  -12.5520   19.5018 C   0  0  0  0  0  0
  -29.5252  -12.5487   18.2549 C   0  0  0  0  0  0
  -28.0539  -12.3371   18.6572 C   0  0  0  0  0  0
  -27.6391  -13.2413   19.8466 C   0  0  2  0  0  0
  -28.6715  -13.2001   20.9898 C   0  0  0  0  0  0
  -25.2502  -13.8210   20.5677 C   0  0  0  0  0  0
  -24.1798  -13.0444   20.9188 C   0  0  0  0  0  0
  -24.6405  -11.6928   20.8729 C   0  0  0  0  0  0
  -23.9082  -10.4304   21.0401 C   0  0  0  0  0  0
  -24.3626   -9.4223   21.9180 C   0  0  0  0  0  0
  -23.6300   -8.2262   22.0756 C   0  0  0  0  0  0
  -22.4279   -8.0302   21.3551 C   0  0  0  0  0  0
  -21.9919   -9.0272   20.4648 C   0  0  0  0  0  0
  -22.7249  -10.2153   20.3054 C   0  0  0  0  0  0
  -21.6870   -6.0754   22.5285 C   0  0  0  0  0  0
  -21.4025   -6.5649   23.8218 C   0  0  0  0  0  0
  -21.3650   -5.6795   24.9174 C   0  0  0  0  0  0
  -21.6037   -4.3057   24.7229 C   0  0  0  0  0  0
  -21.8814   -3.8162   23.4341 C   0  0  0  0  0  0
  -21.9195   -4.6982   22.3402 C   0  0  0  0  0  0
  -22.7823  -13.5232   21.1835 C   0  0  0  0  0  0
  -22.1662   -4.2173   21.0982 F   0  0  0  0  0  0
  -21.5618   -3.4533   25.7735 F   0  0  0  0  0  0
  -29.9689  -13.6200   20.4321 N   0  0  0  0  0  0
  -26.2921  -12.9426   20.3225 N   0  0  0  0  0  0
  -25.9344  -11.6561   20.5724 N   0  0  0  0  0  0
  -22.0455  -12.8241   22.0393 N   0  0  0  0  0  0
  -25.4176  -15.1931   20.4112 N   0  0  0  0  0  0
  -31.7123  -14.9816   20.0293 O   0  0  0  0  0  0
  -21.6636   -6.8906   21.4254 O   0  0  0  0  0  0
  -22.3509  -14.5531   20.6670 O   0  0  0  0  0  0
  -24.6414  -31.8464   23.1916 C   0  0  0  0  0  0
  -25.9200  -32.4706   23.8294 C   0  0  1  0  0  0
  -27.2128  -27.1571   20.1470 C   0  0  0  0  0  0
  -25.5956  -33.8514   24.2214 N   0  0  0  0  0  0
  -23.4436  -30.4676   21.5359 C   0  0  2  0  0  0
  -24.8931  -28.9016   20.1072 C   0  0  0  0  0  0
  -22.7548  -29.4564   22.4862 C   0  0  0  0  0  0
  -18.0300  -28.1393   22.8477 C   0  0  0  0  0  0
  -24.1486  -36.7255   23.2640 C   0  0  0  0  0  0
  -25.9984  -30.7253   21.3903 C   0  0  0  0  0  0
  -26.0677  -29.3393   20.7307 C   0  0  0  0  0  0
  -27.2271  -28.4800   20.7404 C   0  0  0  0  0  0
  -26.0207  -26.8272   19.4645 C   0  0  0  0  0  0
  -24.8810  -27.6579   19.4601 C   0  0  0  0  0  0
  -23.6690  -29.8013   20.1532 C   0  0  0  0  0  0
  -25.4116  -36.3037   24.0318 C   0  0  1  0  0  0
  -20.5910  -28.3716   23.1235 C   0  0  2  0  0  0
  -20.6785  -26.9419   22.5402 C   0  0  0  0  0  0
  -19.5758  -26.6379   21.5211 C   0  0  0  0  0  0
  -18.1938  -26.7932   22.1620 C   0  0  0  0  0  0
  -19.1556  -28.8872   23.2849 C   0  0  0  0  0  0
  -18.9478  -30.1468   23.8870 C   0  0  0  0  0  0
  -17.6478  -30.6591   24.0558 C   0  0  0  0  0  0
  -25.9070  -34.9412   23.5077 C   0  0  0  0  0  0
  -16.5369  -29.9084   23.6340 C   0  0  0  0  0  0
  -16.7286  -28.6507   23.0355 C   0  0  0  0  0  0
  -26.4524  -31.6560   25.0729 C   0  0  0  0  0  0
  -25.3724  -31.3751   26.1438 C   0  0  0  0  0  0
  -27.0395  -30.2953   24.6319 C   0  0  0  0  0  0
  -27.6052  -32.4322   25.7519 C   0  0  0  0  0  0
  -27.5573  -37.1781   24.8459 C   0  0  0  0  0  0
  -21.4241  -29.3056   22.3608 N   0  0  0  0  0  0
  -26.4277  -37.3751   23.9415 N   0  0  0  0  0  0
  -24.7139  -31.0341   22.0943 N   0  0  0  0  0  0
  -23.4204  -28.8105   23.2999 O   0  0  0  0  0  0
  -28.2591  -26.1744   20.2484 O   0  0  0  0  0  0
  -26.5647  -34.8904   22.4651 O   0  0  0  0  0  0
  -23.5541  -32.1334   23.7147 O   0  0  0  0  0  0
  -29.4012  -19.3672   19.1767 C   0  0  0  0  0  0
  -29.6931  -17.9724   19.4511 C   0  0  0  0  0  0
  -29.1411  -20.3718   20.1759 C   0  0  0  0  0  0
  -29.2113  -19.7665   21.4699 C   0  0  0  0  0  0
  -29.7414  -17.4463   20.7736 C   0  0  0  0  0  0
  -28.4232  -22.1241   24.8659 C   0  0  0  0  0  0
  -29.8142  -21.9096   24.4820 C   0  0  0  0  0  0
  -28.0378  -23.2326   25.5231 C   0  0  0  0  0  0
  -30.8265  -22.2674   25.2917 C   0  0  0  0  0  0
  -28.6733  -21.8603   19.7431 C   0  0  0  0  0  0
  -27.3916  -21.0767   24.4710 C   0  0  0  0  0  0
  -30.1094  -21.2001   23.1672 C   0  0  0  0  0  0
  -27.9671  -19.9882   23.5413 C   0  0  0  0  0  0
  -29.8843  -15.7743   22.6171 C   0  0  0  0  0  0
  -28.8068  -23.3090   20.5042 C   0  0  0  0  0  0
  -28.0174  -24.6747   19.9275 C   0  0  0  0  0  0
  -29.4894  -18.4246   21.7222 N   0  0  0  0  0  0
  -28.9301  -20.5514   22.5950 N   0  0  0  0  0  0
  -29.9513  -15.9744   21.1587 N   0  0  0  0  0  0
  -28.1545  -21.9544   18.6275 O   0  0  0  0  0  0
  -31.4791  -12.6947   19.1989 H   0  0  0  0  0  0
  -30.4156  -11.5804   19.9980 H   0  0  0  0  0  0
  -29.8380  -11.7731   17.5545 H   0  0  0  0  0  0
  -29.6267  -13.4982   17.7275 H   0  0  0  0  0  0
  -27.9331  -11.2882   18.9303 H   0  0  0  0  0  0
  -27.3986  -12.5073   17.8018 H   0  0  0  0  0  0
  -27.6260  -14.2605   19.4587 H   0  0  0  0  0  0
  -28.7364  -12.1984   21.4187 H   0  0  0  0  0  0
  -28.3359  -13.8492   21.7959 H   0  0  0  0  0  0
  -25.2778   -9.5702   22.4744 H   0  0  0  0  0  0
  -24.0015   -7.4658   22.7481 H   0  0  0  0  0  0
  -21.0856   -8.8783   19.8949 H   0  0  0  0  0  0
  -22.3714  -10.9681   19.6148 H   0  0  0  0  0  0
  -21.2021   -7.6162   23.9732 H   0  0  0  0  0  0
  -21.1469   -6.0523   25.9075 H   0  0  0  0  0  0
  -22.0598   -2.7628   23.2836 H   0  0  0  0  0  0
  -22.4081  -11.9947   22.4847 H   0  0  0  0  0  0
  -21.1055  -13.1271   22.2536 H   0  0  0  0  0  0
  -24.6496  -15.8464   20.5236 H   0  0  0  0  0  0
  -26.2693  -15.6360   20.0906 H   0  0  0  0  0  0
  -26.7272  -32.5316   23.1025 H   0  0  0  0  0  0
  -25.0093  -33.9638   25.0356 H   0  0  0  0  0  0
  -22.7458  -31.2933   21.3838 H   0  0  0  0  0  0
  -23.3761  -35.9575   23.3280 H   0  0  0  0  0  0
  -24.3581  -36.8913   22.2063 H   0  0  0  0  0  0
  -23.7227  -37.6437   23.6696 H   0  0  0  0  0  0
  -26.1560  -31.4829   20.6209 H   0  0  0  0  0  0
  -26.8680  -30.7709   22.0343 H   0  0  0  0  0  0
  -28.1171  -28.8055   21.2601 H   0  0  0  0  0  0
  -25.9323  -25.8868   18.9423 H   0  0  0  0  0  0
  -23.9868  -27.3219   18.9536 H   0  0  0  0  0  0
  -23.8074  -30.5791   19.4013 H   0  0  0  0  0  0
  -22.7839  -29.2450   19.8396 H   0  0  0  0  0  0
  -25.1303  -36.1862   25.0809 H   0  0  0  0  0  0
  -21.0006  -28.3314   24.1354 H   0  0  0  0  0  0
  -20.5677  -26.2335   23.3623 H   0  0  0  0  0  0
  -21.6652  -26.7426   22.1204 H   0  0  0  0  0  0
  -19.6921  -25.6282   21.1259 H   0  0  0  0  0  0
  -19.6697  -27.3178   20.6734 H   0  0  0  0  0  0
  -17.4206  -26.6675   21.4023 H   0  0  0  0  0  0
  -18.0335  -26.0076   22.9020 H   0  0  0  0  0  0
  -19.7951  -30.7288   24.2228 H   0  0  0  0  0  0
  -17.5032  -31.6270   24.5158 H   0  0  0  0  0  0
  -15.5370  -30.2983   23.7675 H   0  0  0  0  0  0
  -15.8685  -28.0822   22.7084 H   0  0  0  0  0  0
  -24.5889  -30.7113   25.7767 H   0  0  0  0  0  0
  -24.8941  -32.2944   26.4832 H   0  0  0  0  0  0
  -25.8023  -30.8941   27.0237 H   0  0  0  0  0  0
  -26.3027  -29.6664   24.1315 H   0  0  0  0  0  0
  -27.3990  -29.7257   25.4899 H   0  0  0  0  0  0
  -27.8935  -30.4179   23.9655 H   0  0  0  0  0  0
  -27.2639  -33.3631   26.2056 H   0  0  0  0  0  0
  -28.3893  -32.6868   25.0377 H   0  0  0  0  0  0
  -28.0689  -31.8479   26.5477 H   0  0  0  0  0  0
  -28.2565  -38.0101   24.7538 H   0  0  0  0  0  0
  -28.1095  -36.2638   24.6245 H   0  0  0  0  0  0
  -27.2300  -37.1373   25.8860 H   0  0  0  0  0  0
  -20.9437  -29.8787   21.6806 H   0  0  0  0  0  0
  -26.0141  -38.2812   24.1443 H   0  0  0  0  0  0
  -29.3567  -19.6637   18.1390 H   0  0  0  0  0  0
  -29.8531  -17.3040   18.6169 H   0  0  0  0  0  0
  -28.7385  -24.0089   25.7960 H   0  0  0  0  0  0
  -27.0026  -23.3902   25.7910 H   0  0  0  0  0  0
  -30.6532  -22.7395   26.2485 H   0  0  0  0  0  0
  -31.8548  -22.0797   25.0167 H   0  0  0  0  0  0
  -26.5784  -21.5880   23.9539 H   0  0  0  0  0  0
  -26.9565  -20.6207   25.3616 H   0  0  0  0  0  0
  -30.8953  -20.4589   23.3248 H   0  0  0  0  0  0
  -30.5001  -21.9312   22.4589 H   0  0  0  0  0  0
  -27.1606  -19.4736   23.0163 H   0  0  0  0  0  0
  -28.4780  -19.2328   24.1408 H   0  0  0  0  0  0
  -30.6181  -16.4121   23.1127 H   0  0  0  0  0  0
  -30.0929  -14.7557   22.9528 H   0  0  0  0  0  0
  -28.8981  -16.0487   22.9920 H   0  0  0  0  0  0
  -29.8732  -23.5281   20.5307 H   0  0  0  0  0  0
  -28.5116  -23.1595   21.5425 H   0  0  0  0  0  0
  -26.9763  -24.4696   20.1761 H   0  0  0  0  0  0
  -28.0651  -24.6229   18.8399 H   0  0  0  0  0  0
  1 25  1  0  0  0
  1 30  2  0  0  0
  1 89  1  0  0  0
  2  3  1  0  0  0
  2 25  1  0  0  0
  2 91  1  0  0  0
  2 92  1  0  0  0
  3  4  1  0  0  0
  3 93  1  0  0  0
  3 94  1  0  0  0
  4  5  1  0  0  0
  4 95  1  0  0  0
  4 96  1  0  0  0
  5  6  1  0  0  0
  5 26  1  0  0  0
  5 97  1  0  0  0
  6 25  1  0  0  0
  6 98  1  0  0  0
  6 99  1  0  0  0
  7  8  2  0  0  0
  7 26  1  0  0  0
  7 29  1  0  0  0
  8  9  1  0  0  0
  8 22  1  0  0  0
  9 10  1  0  0  0
  9 27  2  0  0  0
 10 11  2  0  0  0
 10 15  1  0  0  0
 11 12  1  0  0  0
 11100  1  0  0  0
 12 13  2  0  0  0
 12101  1  0  0  0
 13 14  1  0  0  0
 13 31  1  0  0  0
 14 15  2  0  0  0
 14102  1  0  0  0
 15103  1  0  0  0
 16 17  2  0  0  0
 16 21  1  0  0  0
 16 31  1  0  0  0
 17 18  1  0  0  0
 17104  1  0  0  0
 18 19  2  0  0  0
 18105  1  0  0  0
 19 20  1  0  0  0
 19 24  1  0  0  0
 20 21  2  0  0  0
 20106  1  0  0  0
 21 23  1  0  0  0
 22 28  1  0  0  0
 22 32  2  0  0  0
 26 27  1  0  0  0
 28107  1  0  0  0
 28108  1  0  0  0
 29109  1  0  0  0
 29110  1  0  0  0
 33 34  1  0  0  0
 33 66  1  0  0  0
 33 70  2  0  0  0
 34 36  1  0  0  0
 34 59  1  0  0  0
 34111  1  0  0  0
 35 44  2  0  0  0
 35 45  1  0  0  0
 35 68  1  0  0  0
 36 56  1  0  0  0
 36112  1  0  0  0
 37 39  1  0  0  0
 37 47  1  0  0  0
 37 66  1  0  0  0
 37113  1  0  0  0
 38 43  2  0  0  0
 38 46  1  0  0  0
 38 47  1  0  0  0
 39 64  1  0  0  0
 39 67  2  0  0  0
 40 52  1  0  0  0
 40 53  2  0  0  0
 40 58  1  0  0  0
 41114  1  0  0  0
 41115  1  0  0  0
 41116  1  0  0  0
 41 48  1  0  0  0
 42 43  1  0  0  0
 42 66  1  0  0  0
 42117  1  0  0  0
 42118  1  0  0  0
 43 44  1  0  0  0
 44119  1  0  0  0
 45 46  2  0  0  0
 45120  1  0  0  0
 46121  1  0  0  0
 47122  1  0  0  0
 47123  1  0  0  0
 48 56  1  0  0  0
 48 65  1  0  0  0
 48124  1  0  0  0
 49 50  1  0  0  0
 49 53  1  0  0  0
 49 64  1  0  0  0
 49125  1  0  0  0
 50 51  1  0  0  0
 50126  1  0  0  0
 50127  1  0  0  0
 51 52  1  0  0  0
 51128  1  0  0  0
 51129  1  0  0  0
 52130  1  0  0  0
 52131  1  0  0  0
 53 54  1  0  0  0
 54 55  2  0  0  0
 54132  1  0  0  0
 55 57  1  0  0  0
 55133  1  0  0  0
 56 69  2  0  0  0
 57 58  2  0  0  0
 57134  1  0  0  0
 58135  1  0  0  0
 59 60  1  0  0  0
 59 61  1  0  0  0
 59 62  1  0  0  0
 60136  1  0  0  0
 60137  1  0  0  0
 60138  1  0  0  0
 61139  1  0  0  0
 61140  1  0  0  0
 61141  1  0  0  0
 62142  1  0  0  0
 62143  1  0  0  0
 62144  1  0  0  0
 63 65  1  0  0  0
 63145  1  0  0  0
 63146  1  0  0  0
 63147  1  0  0  0
 64148  1  0  0  0
 65149  1  0  0  0
 68 86  1  0  0  0
 71 72  2  0  0  0
 71 73  1  0  0  0
 71150  1  0  0  0
 72 75  1  0  0  0
 72151  1  0  0  0
 73 74  2  0  0  0
 73 80  1  0  0  0
 74 87  1  0  0  0
 74 88  1  0  0  0
 75 87  2  0  0  0
 75 89  1  0  0  0
 76 77  1  0  0  0
 76 78  2  0  0  0
 76 81  1  0  0  0
 77 79  2  0  0  0
 77 82  1  0  0  0
 78152  1  0  0  0
 78153  1  0  0  0
 79154  1  0  0  0
 79155  1  0  0  0
 80 85  1  0  0  0
 80 90  2  0  0  0
 81 83  1  0  0  0
 81156  1  0  0  0
 81157  1  0  0  0
 82 88  1  0  0  0
 82158  1  0  0  0
 82159  1  0  0  0
 83 88  1  0  0  0
 83160  1  0  0  0
 83161  1  0  0  0
 84 89  1  0  0  0
 84162  1  0  0  0
 84163  1  0  0  0
 84164  1  0  0  0
 85 86  1  0  0  0
 85165  1  0  0  0
 85166  1  0  0  0
 86167  1  0  0  0
 86168  1  0  0  0
M  ISO  4   1 100  68 101  86 101  89 100
M  END
> <chiral flag>
0

> <version>
0

> <s_m_source_file>
/data/baiqing/PycharmProjects/Reinvent-master-3.2/result/LINK_invent/BTK/process_docking_weight1_custom_product_contain_oxygen_bond_distance_aromatic_linkinvent_7_9_3/rearranged_h_0079.sdf

> <i_m_source_file_index>
34

> <r_mmod_Potential_Energy-OPLS-2005>
491.287017822266

> <r_mmod_Stretch_Energy-OPLS-2005>
226.29052734375

> <r_mmod_Bend_Energy-OPLS-2005>
281.695678710938

> <r_mmod_Torsional_Energy-OPLS-2005>
338.121215820312

> <r_mmod_Improper_Torsional_Energy-OPLS-2005>
7.79098129272461

> <r_mmod_Van_der_Waal_Energy-OPLS-2005>
159.772338867188

> <r_mmod_Electrostatic_Energy-OPLS-2005>
-474.157196044922

> <r_mmod_Solvation_Energy-OPLS-2005>
-204.952056884766

> <b_mmod_Minimization_Converged-OPLS-2005>
0

> <r_mmod_RMS_Derivative-OPLS-2005>
1.64437890052795

$$$$
34
                    3D
 Structure written by MMmdl.
158167  0  0  1  0            999 V2000
  -30.5676  -14.7565   20.4608 C   0  0  0  0  0  0
  -30.4477  -12.4531   19.4865 C   0  0  0  0  0  0
  -29.5235  -12.5020   18.2486 C   0  0  0  0  0  0
  -28.0449  -12.3304   18.6540 C   0  0  0  0  0  0
  -27.6467  -13.2232   19.8589 C   0  0  2  0  0  0
  -28.6909  -13.1379   20.9951 C   0  0  0  0  0  0
  -25.2524  -13.8174   20.5706 C   0  0  0  0  0  0
  -24.1811  -13.0423   20.9218 C   0  0  0  0  0  0
  -24.6388  -11.6895   20.8732 C   0  0  0  0  0  0
  -23.9047  -10.4273   21.0384 C   0  0  0  0  0  0
  -24.3604   -9.4189   21.9159 C   0  0  0  0  0  0
  -23.6289   -8.2224   22.0731 C   0  0  0  0  0  0
  -22.4262   -8.0279   21.3539 C   0  0  0  0  0  0
  -21.9882   -9.0241   20.4638 C   0  0  0  0  0  0
  -22.7207  -10.2121   20.3046 C   0  0  0  0  0  0
  -21.6860   -6.0732   22.5278 C   0  0  0  0  0  0
  -21.4024   -6.5640   23.8213 C   0  0  0  0  0  0
  -21.3655   -5.6794   24.9173 C   0  0  0  0  0  0
  -21.6048   -4.3063   24.7212 C   0  0  0  0  0  0
  -21.8816   -3.8148   23.4339 C   0  0  0  0  0  0
  -21.9185   -4.6958   22.3395 C   0  0  0  0  0  0
  -22.7832  -13.5212   21.1858 C   0  0  0  0  0  0
  -22.1656   -4.2148   21.0971 F   0  0  0  0  0  0
  -21.5611   -3.4545   25.7720 F   0  0  0  0  0  0
  -29.9936  -13.5049   20.4223 N   0  0  0  0  0  0
  -26.2956  -12.9360   20.3314 N   0  0  0  0  0  0
  -25.9327  -11.6508   20.5765 N   0  0  0  0  0  0
  -22.0461  -12.8263   22.0440 N   0  0  0  0  0  0
  -25.4172  -15.1912   20.4134 N   0  0  0  0  0  0
  -31.7514  -14.9090   20.1413 O   0  0  0  0  0  0
  -21.6639   -6.8877   21.4241 O   0  0  0  0  0  0
  -22.3533  -14.5489   20.6650 O   0  0  0  0  0  0
  -24.6328  -31.8522   23.1988 C   0  0  0  0  0  0
  -25.9136  -32.4746   23.8364 C   0  0  1  0  0  0
  -27.2388  -27.2522   20.1184 C   0  0  0  0  0  0
  -25.5920  -33.8545   24.2270 N   0  0  0  0  0  0
  -23.4345  -30.4734   21.5394 C   0  0  2  0  0  0
  -24.8894  -28.9204   20.1082 C   0  0  0  0  0  0
  -22.7527  -29.4570   22.4871 C   0  0  0  0  0  0
  -18.0305  -28.1395   22.8470 C   0  0  0  0  0  0
  -24.1480  -36.7284   23.2641 C   0  0  0  0  0  0
  -25.9847  -30.7567   21.3890 C   0  0  0  0  0  0
  -26.0618  -29.3813   20.7230 C   0  0  0  0  0  0
  -27.2360  -28.5583   20.7233 C   0  0  0  0  0  0
  -26.0366  -26.8583   19.4859 C   0  0  0  0  0  0
  -24.8831  -27.6650   19.4815 C   0  0  0  0  0  0
  -23.6610  -29.8093   20.1558 C   0  0  0  0  0  0
  -25.4104  -36.3060   24.0342 C   0  0  1  0  0  0
  -20.5913  -28.3703   23.1254 C   0  0  2  0  0  0
  -20.6782  -26.9403   22.5422 C   0  0  0  0  0  0
  -19.5772  -26.6369   21.5211 C   0  0  0  0  0  0
  -18.1946  -26.7936   22.1607 C   0  0  0  0  0  0
  -19.1561  -28.8861   23.2860 C   0  0  0  0  0  0
  -18.9476  -30.1459   23.8884 C   0  0  0  0  0  0
  -17.6473  -30.6579   24.0564 C   0  0  0  0  0  0
  -25.9051  -34.9429   23.5106 C   0  0  0  0  0  0
  -16.5365  -29.9076   23.6333 C   0  0  0  0  0  0
  -16.7291  -28.6503   23.0337 C   0  0  0  0  0  0
  -26.4486  -31.6597   25.0779 C   0  0  0  0  0  0
  -25.3702  -31.3827   26.1519 C   0  0  0  0  0  0
  -27.0339  -30.2992   24.6351 C   0  0  0  0  0  0
  -27.6055  -32.4348   25.7510 C   0  0  0  0  0  0
  -27.5582  -37.1788   24.8449 C   0  0  0  0  0  0
  -21.4231  -29.3028   22.3619 N   0  0  0  0  0  0
  -26.4283  -37.3758   23.9413 N   0  0  0  0  0  0
  -24.7021  -31.0466   22.0976 N   0  0  0  0  0  0
  -23.4201  -28.8111   23.2997 O   0  0  0  0  0  0
  -28.2954  -26.3096   20.2129 O   0  0  0  0  0  0
  -26.5622  -34.8897   22.4686 O   0  0  0  0  0  0
  -23.5459  -32.1356   23.7253 O   0  0  0  0  0  0
  -28.4673  -19.4502   20.1137 C   0  0  0  0  0  0
  -28.5289  -18.0274   20.3112 C   0  0  0  0  0  0
  -30.9001  -18.1260   20.5282 C   0  0  0  0  0  0
  -29.6263  -20.2766   20.1026 C   0  0  0  0  0  0
  -29.7444  -17.2965   20.4931 C   0  0  0  0  0  0
  -30.8440  -19.5538   20.3466 C   0  0  0  0  0  0
  -28.8425  -23.5309   17.6347 C   0  0  0  0  0  0
  -28.7925  -23.9914   19.0382 C   0  0  0  0  0  0
  -29.8018  -22.4870   17.3027 C   0  0  0  0  0  0
  -28.9451  -22.8488   20.0495 C   0  0  0  0  0  0
  -27.9520  -23.9802   16.7181 C   0  0  0  0  0  0
  -30.0179  -22.0159   16.0564 C   0  0  0  0  0  0
  -28.4873  -25.3593   19.1810 C   0  0  0  0  0  0
  -30.5404  -21.8842   18.4690 C   0  0  0  0  0  0
  -29.6281  -21.6931   19.6052 N   0  0  0  0  0  0
  -29.6984  -15.8168   20.6733 N   0  0  0  0  0  0
  -28.4748  -22.8997   21.1904 O   0  0  0  0  0  0
  -32.0136  -20.2376   20.3669 F   0  0  0  0  0  0
  -31.4884  -12.5918   19.1914 H   0  0  0  0  0  0
  -30.3973  -11.4756   19.9686 H   0  0  0  0  0  0
  -29.8067  -11.7201   17.5425 H   0  0  0  0  0  0
  -29.6616  -13.4507   17.7289 H   0  0  0  0  0  0
  -27.8891  -11.2808   18.9031 H   0  0  0  0  0  0
  -27.3938  -12.5333   17.8026 H   0  0  0  0  0  0
  -27.6419  -14.2467   19.4850 H   0  0  0  0  0  0
  -28.7293  -12.1281   21.4062 H   0  0  0  0  0  0
  -28.4200  -13.7933   21.8260 H   0  0  0  0  0  0
  -25.2737   -9.5678   22.4752 H   0  0  0  0  0  0
  -23.9981   -7.4623   22.7475 H   0  0  0  0  0  0
  -21.0781   -8.8764   19.8980 H   0  0  0  0  0  0
  -22.3621  -10.9672   19.6191 H   0  0  0  0  0  0
  -21.2034   -7.6154   23.9716 H   0  0  0  0  0  0
  -21.1487   -6.0529   25.9083 H   0  0  0  0  0  0
  -22.0588   -2.7608   23.2843 H   0  0  0  0  0  0
  -22.4084  -11.9982   22.4936 H   0  0  0  0  0  0
  -21.1080  -13.1328   22.2583 H   0  0  0  0  0  0
  -24.6282  -15.8225   20.4986 H   0  0  0  0  0  0
  -26.2345  -15.6340   20.0161 H   0  0  0  0  0  0
  -26.7209  -32.5382   23.1112 H   0  0  0  0  0  0
  -25.0069  -33.9676   25.0412 H   0  0  0  0  0  0
  -22.7313  -31.2957   21.3903 H   0  0  0  0  0  0
  -23.3737  -35.9629   23.3292 H   0  0  0  0  0  0
  -24.3575  -36.8910   22.2066 H   0  0  0  0  0  0
  -23.7231  -37.6485   23.6667 H   0  0  0  0  0  0
  -26.1417  -31.5209   20.6267 H   0  0  0  0  0  0
  -26.8538  -30.7967   22.0351 H   0  0  0  0  0  0
  -28.1271  -28.8981   21.2330 H   0  0  0  0  0  0
  -25.9606  -25.8817   19.0297 H   0  0  0  0  0  0
  -23.9815  -27.3012   19.0080 H   0  0  0  0  0  0
  -23.7989  -30.5912   19.4082 H   0  0  0  0  0  0
  -22.7790  -29.2516   19.8354 H   0  0  0  0  0  0
  -25.1287  -36.1922   25.0832 H   0  0  0  0  0  0
  -21.0014  -28.3300   24.1378 H   0  0  0  0  0  0
  -20.5655  -26.2315   23.3641 H   0  0  0  0  0  0
  -21.6654  -26.7385   22.1238 H   0  0  0  0  0  0
  -19.6922  -25.6273   21.1253 H   0  0  0  0  0  0
  -19.6733  -27.3170   20.6748 H   0  0  0  0  0  0
  -17.4221  -26.6692   21.3999 H   0  0  0  0  0  0
  -18.0330  -26.0080   22.9002 H   0  0  0  0  0  0
  -19.7942  -30.7282   24.2254 H   0  0  0  0  0  0
  -17.5017  -31.6252   24.5187 H   0  0  0  0  0  0
  -15.5367  -30.2975   23.7655 H   0  0  0  0  0  0
  -15.8692  -28.0821   22.7050 H   0  0  0  0  0  0
  -24.5845  -30.7185   25.7889 H   0  0  0  0  0  0
  -24.8935  -32.3040   26.4894 H   0  0  0  0  0  0
  -25.8013  -30.9053   27.0332 H   0  0  0  0  0  0
  -26.2973  -29.6739   24.1299 H   0  0  0  0  0  0
  -27.3876  -29.7274   25.4941 H   0  0  0  0  0  0
  -27.8907  -30.4224   23.9729 H   0  0  0  0  0  0
  -27.2666  -33.3622   26.2145 H   0  0  0  0  0  0
  -28.3817  -32.6961   25.0303 H   0  0  0  0  0  0
  -28.0800  -31.8465   26.5377 H   0  0  0  0  0  0
  -28.2604  -38.0077   24.7467 H   0  0  0  0  0  0
  -28.1072  -36.2609   24.6280 H   0  0  0  0  0  0
  -27.2320  -37.1445   25.8857 H   0  0  0  0  0  0
  -20.9425  -29.8770   21.6832 H   0  0  0  0  0  0
  -26.0165  -38.2842   24.1415 H   0  0  0  0  0  0
  -27.5044  -19.8940   19.9002 H   0  0  0  0  0  0
  -27.5970  -17.4805   20.2826 H   0  0  0  0  0  0
  -31.8658  -17.6697   20.6933 H   0  0  0  0  0  0
  -27.1915  -24.7076   16.9644 H   0  0  0  0  0  0
  -27.9286  -23.6248   15.7006 H   0  0  0  0  0  0
  -29.5146  -22.3886   15.1777 H   0  0  0  0  0  0
  -30.7250  -21.2182   15.8868 H   0  0  0  0  0  0
  -28.4315  -25.9317   18.2647 H   0  0  0  0  0  0
  -31.3547  -22.5496   18.7609 H   0  0  0  0  0  0
  -31.0053  -20.9513   18.1498 H   0  0  0  0  0  0
  -28.7766  -15.4685   20.8818 H   0  0  0  0  0  0
  1 25  1  0  0  0
  1 30  2  0  0  0
  1 86  1  0  0  0
  2  3  1  0  0  0
  2 25  1  0  0  0
  2 89  1  0  0  0
  2 90  1  0  0  0
  3  4  1  0  0  0
  3 91  1  0  0  0
  3 92  1  0  0  0
  4  5  1  0  0  0
  4 93  1  0  0  0
  4 94  1  0  0  0
  5  6  1  0  0  0
  5 26  1  0  0  0
  5 95  1  0  0  0
  6 25  1  0  0  0
  6 96  1  0  0  0
  6 97  1  0  0  0
  7  8  2  0  0  0
  7 26  1  0  0  0
  7 29  1  0  0  0
  8  9  1  0  0  0
  8 22  1  0  0  0
  9 10  1  0  0  0
  9 27  2  0  0  0
 10 11  2  0  0  0
 10 15  1  0  0  0
 11 12  1  0  0  0
 11 98  1  0  0  0
 12 13  2  0  0  0
 12 99  1  0  0  0
 13 14  1  0  0  0
 13 31  1  0  0  0
 14 15  2  0  0  0
 14100  1  0  0  0
 15101  1  0  0  0
 16 17  2  0  0  0
 16 21  1  0  0  0
 16 31  1  0  0  0
 17 18  1  0  0  0
 17102  1  0  0  0
 18 19  2  0  0  0
 18103  1  0  0  0
 19 20  1  0  0  0
 19 24  1  0  0  0
 20 21  2  0  0  0
 20104  1  0  0  0
 21 23  1  0  0  0
 22 28  1  0  0  0
 22 32  2  0  0  0
 26 27  1  0  0  0
 28105  1  0  0  0
 28106  1  0  0  0
 29107  1  0  0  0
 29108  1  0  0  0
 33 34  1  0  0  0
 33 66  1  0  0  0
 33 70  2  0  0  0
 34 36  1  0  0  0
 34 59  1  0  0  0
 34109  1  0  0  0
 35 44  2  0  0  0
 35 45  1  0  0  0
 35 68  1  0  0  0
 36 56  1  0  0  0
 36110  1  0  0  0
 37 39  1  0  0  0
 37 47  1  0  0  0
 37 66  1  0  0  0
 37111  1  0  0  0
 38 43  2  0  0  0
 38 46  1  0  0  0
 38 47  1  0  0  0
 39 64  1  0  0  0
 39 67  2  0  0  0
 40 52  1  0  0  0
 40 53  2  0  0  0
 40 58  1  0  0  0
 41112  1  0  0  0
 41113  1  0  0  0
 41114  1  0  0  0
 41 48  1  0  0  0
 42 43  1  0  0  0
 42 66  1  0  0  0
 42115  1  0  0  0
 42116  1  0  0  0
 43 44  1  0  0  0
 44117  1  0  0  0
 45 46  2  0  0  0
 45118  1  0  0  0
 46119  1  0  0  0
 47120  1  0  0  0
 47121  1  0  0  0
 48 56  1  0  0  0
 48 65  1  0  0  0
 48122  1  0  0  0
 49 50  1  0  0  0
 49 53  1  0  0  0
 49 64  1  0  0  0
 49123  1  0  0  0
 50 51  1  0  0  0
 50124  1  0  0  0
 50125  1  0  0  0
 51 52  1  0  0  0
 51126  1  0  0  0
 51127  1  0  0  0
 52128  1  0  0  0
 52129  1  0  0  0
 53 54  1  0  0  0
 54 55  2  0  0  0
 54130  1  0  0  0
 55 57  1  0  0  0
 55131  1  0  0  0
 56 69  2  0  0  0
 57 58  2  0  0  0
 57132  1  0  0  0
 58133  1  0  0  0
 59 60  1  0  0  0
 59 61  1  0  0  0
 59 62  1  0  0  0
 60134  1  0  0  0
 60135  1  0  0  0
 60136  1  0  0  0
 61137  1  0  0  0
 61138  1  0  0  0
 61139  1  0  0  0
 62140  1  0  0  0
 62141  1  0  0  0
 62142  1  0  0  0
 63 65  1  0  0  0
 63143  1  0  0  0
 63144  1  0  0  0
 63145  1  0  0  0
 64146  1  0  0  0
 65147  1  0  0  0
 68 83  1  0  0  0
 71 72  2  0  0  0
 71 74  1  0  0  0
 71148  1  0  0  0
 72 75  1  0  0  0
 72149  1  0  0  0
 73 75  2  0  0  0
 73 76  1  0  0  0
 73150  1  0  0  0
 74 76  2  0  0  0
 74 85  1  0  0  0
 75 86  1  0  0  0
 76 88  1  0  0  0
 77 78  1  0  0  0
 77 79  1  0  0  0
 77 81  2  0  0  0
 78 80  1  0  0  0
 78 83  2  0  0  0
 79 82  2  0  0  0
 79 84  1  0  0  0
 80 85  1  0  0  0
 80 87  2  0  0  0
 81151  1  0  0  0
 81152  1  0  0  0
 82153  1  0  0  0
 82154  1  0  0  0
 83155  1  0  0  0
 84 85  1  0  0  0
 84156  1  0  0  0
 84157  1  0  0  0
 86158  1  0  0  0
M  ISO  4   1 100  68 101  83 101  86 100
M  END
> <chiral flag>
0

> <version>
0

> <s_m_source_file>
/data/baiqing/PycharmProjects/Reinvent-master-3.2/result/LINK_invent/BTK/process_docking_weight1_custom_product_contain_oxygen_bond_distance_aromatic_linkinvent_7_9_3/rearranged_h_0079.sdf

> <i_m_source_file_index>
35

> <r_mmod_Potential_Energy-OPLS-2005>
419.048583984375

> <r_mmod_Stretch_Energy-OPLS-2005>
135.506500244141

> <r_mmod_Bend_Energy-OPLS-2005>
230.754440307617

> <r_mmod_Torsional_Energy-OPLS-2005>
328.096221923828

> <r_mmod_Improper_Torsional_Energy-OPLS-2005>
7.78004217147827

> <r_mmod_Van_der_Waal_Energy-OPLS-2005>
173.534133911133

> <r_mmod_Electrostatic_Energy-OPLS-2005>
-333.877471923828

> <r_mmod_Solvation_Energy-OPLS-2005>
-220.483734130859

> <b_mmod_Minimization_Converged-OPLS-2005>
0

> <r_mmod_RMS_Derivative-OPLS-2005>
3.3986279964447

$$$$
35
                    3D
 Structure written by MMmdl.
160168  0  0  1  0            999 V2000
  -30.7481  -14.4457   20.5894 C   0  0  0  0  0  0
  -30.4070  -12.3047   19.4131 C   0  0  0  0  0  0
  -29.4823  -12.4970   18.1973 C   0  0  0  0  0  0
  -28.0060  -12.3603   18.6170 C   0  0  0  0  0  0
  -27.6532  -13.2121   19.8659 C   0  0  2  0  0  0
  -28.6984  -13.0232   20.9873 C   0  0  0  0  0  0
  -25.2548  -13.8171   20.5689 C   0  0  0  0  0  0
  -24.1815  -13.0436   20.9194 C   0  0  0  0  0  0
  -24.6382  -11.6908   20.8748 C   0  0  0  0  0  0
  -23.9053  -10.4287   21.0408 C   0  0  0  0  0  0
  -24.3607   -9.4203   21.9185 C   0  0  0  0  0  0
  -23.6284   -8.2239   22.0754 C   0  0  0  0  0  0
  -22.4267   -8.0275   21.3541 C   0  0  0  0  0  0
  -21.9901   -9.0250   20.4646 C   0  0  0  0  0  0
  -22.7229  -10.2129   20.3053 C   0  0  0  0  0  0
  -21.6856   -6.0730   22.5278 C   0  0  0  0  0  0
  -21.4016   -6.5637   23.8211 C   0  0  0  0  0  0
  -21.3656   -5.6793   24.9175 C   0  0  0  0  0  0
  -21.6045   -4.3056   24.7225 C   0  0  0  0  0  0
  -21.8819   -3.8144   23.4347 C   0  0  0  0  0  0
  -21.9194   -4.6958   22.3404 C   0  0  0  0  0  0
  -22.7838  -13.5228   21.1855 C   0  0  0  0  0  0
  -22.1660   -4.2146   21.0982 F   0  0  0  0  0  0
  -21.5630   -3.4540   25.7738 F   0  0  0  0  0  0
  -30.0214  -13.3103   20.4145 N   0  0  0  0  0  0
  -26.2984  -12.9356   20.3352 N   0  0  0  0  0  0
  -25.9309  -11.6509   20.5774 N   0  0  0  0  0  0
  -22.0482  -12.8209   22.0406 N   0  0  0  0  0  0
  -25.4241  -15.1891   20.4076 N   0  0  0  0  0  0
  -31.9029  -14.5442   20.1630 O   0  0  0  0  0  0
  -21.6633   -6.8873   21.4238 O   0  0  0  0  0  0
  -22.3519  -14.5539   20.6715 O   0  0  0  0  0  0
  -24.6135  -31.8692   23.2113 C   0  0  0  0  0  0
  -25.9038  -32.4828   23.8399 C   0  0  1  0  0  0
  -27.2269  -27.4463   20.0951 C   0  0  0  0  0  0
  -25.5905  -33.8626   24.2337 N   0  0  0  0  0  0
  -23.4002  -30.4932   21.5518 C   0  0  2  0  0  0
  -24.8460  -28.9609   20.1153 C   0  0  0  0  0  0
  -22.7401  -29.4665   22.5000 C   0  0  0  0  0  0
  -18.0269  -28.1370   22.8492 C   0  0  0  0  0  0
  -24.1486  -36.7313   23.2634 C   0  0  0  0  0  0
  -25.9279  -30.8393   21.3618 C   0  0  0  0  0  0
  -26.0065  -29.4745   20.7099 C   0  0  0  0  0  0
  -27.2044  -28.7240   20.6964 C   0  0  0  0  0  0
  -26.0527  -26.9436   19.4968 C   0  0  0  0  0  0
  -24.8625  -27.6938   19.5065 C   0  0  0  0  0  0
  -23.6074  -29.8255   20.1661 C   0  0  0  0  0  0
  -25.4104  -36.3112   24.0339 C   0  0  1  0  0  0
  -20.5860  -28.3654   23.1325 C   0  0  2  0  0  0
  -20.6758  -26.9395   22.5418 C   0  0  0  0  0  0
  -19.5740  -26.6387   21.5207 C   0  0  0  0  0  0
  -18.1919  -26.7919   22.1619 C   0  0  0  0  0  0
  -19.1518  -28.8828   23.2906 C   0  0  0  0  0  0
  -18.9446  -30.1436   23.8914 C   0  0  0  0  0  0
  -17.6450  -30.6579   24.0563 C   0  0  0  0  0  0
  -25.9033  -34.9478   23.5132 C   0  0  0  0  0  0
  -16.5341  -29.9082   23.6326 C   0  0  0  0  0  0
  -16.7260  -28.6497   23.0349 C   0  0  0  0  0  0
  -26.4475  -31.6599   25.0720 C   0  0  0  0  0  0
  -25.3752  -31.3697   26.1474 C   0  0  0  0  0  0
  -27.0303  -30.3046   24.6080 C   0  0  0  0  0  0
  -27.6054  -32.4310   25.7486 C   0  0  0  0  0  0
  -27.5583  -37.1805   24.8455 C   0  0  0  0  0  0
  -21.4131  -29.3030   22.3740 N   0  0  0  0  0  0
  -26.4287  -37.3798   23.9416 N   0  0  0  0  0  0
  -24.6656  -31.0806   22.1006 N   0  0  0  0  0  0
  -23.4182  -28.8208   23.3033 O   0  0  0  0  0  0
  -28.3712  -26.6867   20.0766 O   0  0  0  0  0  0
  -26.5587  -34.8930   22.4691 O   0  0  0  0  0  0
  -23.5334  -32.1435   23.7525 O   0  0  0  0  0  0
  -30.1262  -19.9453   19.5982 C   0  0  0  0  0  0
  -28.6417  -19.9534   21.5142 C   0  0  0  0  0  0
  -30.0277  -17.9719   21.0660 C   0  0  0  0  0  0
  -30.5378  -18.6349   19.9123 C   0  0  0  0  0  0
  -29.2177  -20.6379   20.4160 C   0  0  0  0  0  0
  -29.0288  -18.6259   21.8524 C   0  0  0  0  0  0
  -28.2770  -25.4582   20.6879 C   0  0  0  0  0  0
  -30.6658  -16.6592   21.4687 C   0  0  0  0  0  0
  -28.6576  -24.3069   20.0972 C   0  0  0  0  0  0
  -28.5450  -23.0338   20.8211 C   0  0  0  0  0  0
  -31.5710  -17.9827   18.9986 C   0  0  0  0  0  0
  -27.0774  -18.3419   23.3473 C   0  0  0  0  0  0
  -28.9495  -21.9968   20.0645 N   0  0  0  0  0  0
  -28.4459  -18.0002   22.9744 N   0  0  0  0  0  0
  -30.0777  -15.5198   21.0546 N   0  0  0  0  0  0
  -31.7368  -16.6919   22.0884 O   0  0  0  0  0  0
  -28.1313  -22.9147   21.9771 O   0  0  0  0  0  0
  -29.1425  -24.3356   18.8441 O   0  0  0  0  0  0
  -31.4519  -12.3820   19.1066 H   0  0  0  0  0  0
  -30.2926  -11.3012   19.8265 H   0  0  0  0  0  0
  -29.7198  -11.7655   17.4240 H   0  0  0  0  0  0
  -29.6517  -13.4796   17.7530 H   0  0  0  0  0  0
  -27.8191  -11.3060   18.8237 H   0  0  0  0  0  0
  -27.3515  -12.6260   17.7856 H   0  0  0  0  0  0
  -27.6879  -14.2555   19.5517 H   0  0  0  0  0  0
  -28.6759  -11.9989   21.3627 H   0  0  0  0  0  0
  -28.4692  -13.6590   21.8443 H   0  0  0  0  0  0
  -25.2752   -9.5684   22.4758 H   0  0  0  0  0  0
  -23.9999   -7.4626   22.7467 H   0  0  0  0  0  0
  -21.0835   -8.8762   19.8949 H   0  0  0  0  0  0
  -22.3685  -10.9663   19.6160 H   0  0  0  0  0  0
  -21.2009   -7.6146   23.9715 H   0  0  0  0  0  0
  -21.1481   -6.0522   25.9078 H   0  0  0  0  0  0
  -22.0602   -2.7607   23.2848 H   0  0  0  0  0  0
  -22.4090  -11.9854   22.4771 H   0  0  0  0  0  0
  -21.1101  -13.1228   22.2626 H   0  0  0  0  0  0
  -24.6538  -15.8395   20.5170 H   0  0  0  0  0  0
  -26.2697  -15.6321   20.0729 H   0  0  0  0  0  0
  -26.7111  -32.5547   23.1165 H   0  0  0  0  0  0
  -25.0075  -33.9788   25.0495 H   0  0  0  0  0  0
  -22.6879  -31.3095   21.4143 H   0  0  0  0  0  0
  -23.3747  -35.9644   23.3294 H   0  0  0  0  0  0
  -24.3584  -36.8926   22.2049 H   0  0  0  0  0  0
  -23.7235  -37.6520   23.6642 H   0  0  0  0  0  0
  -26.0377  -31.6063   20.5937 H   0  0  0  0  0  0
  -26.8167  -30.8929   21.9787 H   0  0  0  0  0  0
  -28.1034  -29.1141   21.1530 H   0  0  0  0  0  0
  -26.0610  -25.9708   19.0256 H   0  0  0  0  0  0
  -23.9701  -27.2926   19.0460 H   0  0  0  0  0  0
  -23.7116  -30.5997   19.4050 H   0  0  0  0  0  0
  -22.7318  -29.2427   19.8737 H   0  0  0  0  0  0
  -25.1275  -36.1974   25.0830 H   0  0  0  0  0  0
  -20.9952  -28.3212   24.1443 H   0  0  0  0  0  0
  -20.5657  -26.2257   23.3597 H   0  0  0  0  0  0
  -21.6630  -26.7438   22.1212 H   0  0  0  0  0  0
  -19.6903  -25.6306   21.1218 H   0  0  0  0  0  0
  -19.6684  -27.3212   20.6749 H   0  0  0  0  0  0
  -17.4193  -26.6673   21.4017 H   0  0  0  0  0  0
  -18.0319  -26.0053   22.9007 H   0  0  0  0  0  0
  -19.7926  -30.7244   24.2293 H   0  0  0  0  0  0
  -17.5008  -31.6264   24.5159 H   0  0  0  0  0  0
  -15.5341  -30.2986   23.7643 H   0  0  0  0  0  0
  -15.8658  -28.0820   22.7054 H   0  0  0  0  0  0
  -24.5918  -30.7050   25.7813 H   0  0  0  0  0  0
  -24.8952  -32.2852   26.4942 H   0  0  0  0  0  0
  -25.8117  -30.8854   27.0219 H   0  0  0  0  0  0
  -26.2843  -29.6812   24.1136 H   0  0  0  0  0  0
  -27.4086  -29.7271   25.4526 H   0  0  0  0  0  0
  -27.8671  -30.4369   23.9215 H   0  0  0  0  0  0
  -27.2675  -33.3600   26.2088 H   0  0  0  0  0  0
  -28.3856  -32.6884   25.0310 H   0  0  0  0  0  0
  -28.0729  -31.8417   26.5383 H   0  0  0  0  0  0
  -28.2578  -38.0125   24.7538 H   0  0  0  0  0  0
  -28.1100  -36.2659   24.6226 H   0  0  0  0  0  0
  -27.2310  -37.1395   25.8859 H   0  0  0  0  0  0
  -20.9283  -29.8755   21.6971 H   0  0  0  0  0  0
  -26.0174  -38.2872   24.1433 H   0  0  0  0  0  0
  -30.5530  -20.4440   18.7381 H   0  0  0  0  0  0
  -27.9151  -20.4668   22.1248 H   0  0  0  0  0  0
  -27.8682  -25.5238   21.6889 H   0  0  0  0  0  0
  -31.8141  -18.6183   18.1465 H   0  0  0  0  0  0
  -31.1978  -17.0380   18.6011 H   0  0  0  0  0  0
  -32.5011  -17.7892   19.5344 H   0  0  0  0  0  0
  -26.6430  -17.5474   23.9557 H   0  0  0  0  0  0
  -26.4409  -18.4657   22.4693 H   0  0  0  0  0  0
  -27.0463  -19.2623   23.9321 H   0  0  0  0  0  0
  -29.2620  -22.3006   19.1506 H   0  0  0  0  0  0
  -28.7610  -17.0755   23.2569 H   0  0  0  0  0  0
  -29.0802  -15.5262   20.9288 H   0  0  0  0  0  0
  -29.1335  -25.2447   18.5707 H   0  0  0  0  0  0
  1 25  1  0  0  0
  1 30  2  0  0  0
  1 85  1  0  0  0
  2  3  1  0  0  0
  2 25  1  0  0  0
  2 89  1  0  0  0
  2 90  1  0  0  0
  3  4  1  0  0  0
  3 91  1  0  0  0
  3 92  1  0  0  0
  4  5  1  0  0  0
  4 93  1  0  0  0
  4 94  1  0  0  0
  5  6  1  0  0  0
  5 26  1  0  0  0
  5 95  1  0  0  0
  6 25  1  0  0  0
  6 96  1  0  0  0
  6 97  1  0  0  0
  7  8  2  0  0  0
  7 26  1  0  0  0
  7 29  1  0  0  0
  8  9  1  0  0  0
  8 22  1  0  0  0
  9 10  1  0  0  0
  9 27  2  0  0  0
 10 11  2  0  0  0
 10 15  1  0  0  0
 11 12  1  0  0  0
 11 98  1  0  0  0
 12 13  2  0  0  0
 12 99  1  0  0  0
 13 14  1  0  0  0
 13 31  1  0  0  0
 14 15  2  0  0  0
 14100  1  0  0  0
 15101  1  0  0  0
 16 17  2  0  0  0
 16 21  1  0  0  0
 16 31  1  0  0  0
 17 18  1  0  0  0
 17102  1  0  0  0
 18 19  2  0  0  0
 18103  1  0  0  0
 19 20  1  0  0  0
 19 24  1  0  0  0
 20 21  2  0  0  0
 20104  1  0  0  0
 21 23  1  0  0  0
 22 28  1  0  0  0
 22 32  2  0  0  0
 26 27  1  0  0  0
 28105  1  0  0  0
 28106  1  0  0  0
 29107  1  0  0  0
 29108  1  0  0  0
 33 34  1  0  0  0
 33 66  1  0  0  0
 33 70  2  0  0  0
 34 36  1  0  0  0
 34 59  1  0  0  0
 34109  1  0  0  0
 35 44  2  0  0  0
 35 45  1  0  0  0
 35 68  1  0  0  0
 36 56  1  0  0  0
 36110  1  0  0  0
 37 39  1  0  0  0
 37 47  1  0  0  0
 37 66  1  0  0  0
 37111  1  0  0  0
 38 43  2  0  0  0
 38 46  1  0  0  0
 38 47  1  0  0  0
 39 64  1  0  0  0
 39 67  2  0  0  0
 40 52  1  0  0  0
 40 53  2  0  0  0
 40 58  1  0  0  0
 41112  1  0  0  0
 41113  1  0  0  0
 41114  1  0  0  0
 41 48  1  0  0  0
 42 43  1  0  0  0
 42 66  1  0  0  0
 42115  1  0  0  0
 42116  1  0  0  0
 43 44  1  0  0  0
 44117  1  0  0  0
 45 46  2  0  0  0
 45118  1  0  0  0
 46119  1  0  0  0
 47120  1  0  0  0
 47121  1  0  0  0
 48 56  1  0  0  0
 48 65  1  0  0  0
 48122  1  0  0  0
 49 50  1  0  0  0
 49 53  1  0  0  0
 49 64  1  0  0  0
 49123  1  0  0  0
 50 51  1  0  0  0
 50124  1  0  0  0
 50125  1  0  0  0
 51 52  1  0  0  0
 51126  1  0  0  0
 51127  1  0  0  0
 52128  1  0  0  0
 52129  1  0  0  0
 53 54  1  0  0  0
 54 55  2  0  0  0
 54130  1  0  0  0
 55 57  1  0  0  0
 55131  1  0  0  0
 56 69  2  0  0  0
 57 58  2  0  0  0
 57132  1  0  0  0
 58133  1  0  0  0
 59 60  1  0  0  0
 59 61  1  0  0  0
 59 62  1  0  0  0
 60134  1  0  0  0
 60135  1  0  0  0
 60136  1  0  0  0
 61137  1  0  0  0
 61138  1  0  0  0
 61139  1  0  0  0
 62140  1  0  0  0
 62141  1  0  0  0
 62142  1  0  0  0
 63 65  1  0  0  0
 63143  1  0  0  0
 63144  1  0  0  0
 63145  1  0  0  0
 64146  1  0  0  0
 65147  1  0  0  0
 68 77  1  0  0  0
 71 74  2  0  0  0
 71 75  1  0  0  0
 71148  1  0  0  0
 72 75  2  0  0  0
 72 76  1  0  0  0
 72149  1  0  0  0
 73 74  1  0  0  0
 73 76  2  0  0  0
 73 78  1  0  0  0
 74 81  1  0  0  0
 75 83  1  0  0  0
 76 84  1  0  0  0
 77 79  2  0  0  0
 77150  1  0  0  0
 78 85  1  0  0  0
 78 86  2  0  0  0
 79 80  1  0  0  0
 79 88  1  0  0  0
 80 83  1  0  0  0
 80 87  2  0  0  0
 81151  1  0  0  0
 81152  1  0  0  0
 81153  1  0  0  0
 82 84  1  0  0  0
 82154  1  0  0  0
 82155  1  0  0  0
 82156  1  0  0  0
 83157  1  0  0  0
 84158  1  0  0  0
 85159  1  0  0  0
 88160  1  0  0  0
M  ISO  4   1 100  68 101  77 101  85 100
M  END
> <chiral flag>
0

> <version>
0

> <s_m_source_file>
/data/baiqing/PycharmProjects/Reinvent-master-3.2/result/LINK_invent/BTK/process_docking_weight1_custom_product_contain_oxygen_bond_distance_aromatic_linkinvent_7_9_3/rearranged_h_0079.sdf

> <i_m_source_file_index>
36

> <r_mmod_Potential_Energy-OPLS-2005>
29.6609153747559

> <r_mmod_Stretch_Energy-OPLS-2005>
39.429027557373

> <r_mmod_Bend_Energy-OPLS-2005>
108.897911071777

> <r_mmod_Torsional_Energy-OPLS-2005>
276.323120117188

> <r_mmod_Improper_Torsional_Energy-OPLS-2005>
7.74342012405396

> <r_mmod_Van_der_Waal_Energy-OPLS-2005>
170.251037597656

> <r_mmod_Electrostatic_Energy-OPLS-2005>
-344.699096679688

> <r_mmod_Solvation_Energy-OPLS-2005>
-243.606094360352

> <b_mmod_Minimization_Converged-OPLS-2005>
0

> <r_mmod_RMS_Derivative-OPLS-2005>
0.799386143684387

$$$$
36
                    3D
 Structure written by MMmdl.
161170  0  0  1  0            999 V2000
  -30.6284  -14.8810   20.3806 C   0  0  0  0  0  0
  -30.4220  -12.5542   19.4748 C   0  0  0  0  0  0
  -29.5010  -12.5120   18.2382 C   0  0  0  0  0  0
  -28.0466  -12.2887   18.6834 C   0  0  0  0  0  0
  -27.6255  -13.2434   19.8286 C   0  0  2  0  0  0
  -28.6760  -13.3046   20.9593 C   0  0  0  0  0  0
  -25.2478  -13.8187   20.5726 C   0  0  0  0  0  0
  -24.1789  -13.0443   20.9250 C   0  0  0  0  0  0
  -24.6380  -11.6921   20.8773 C   0  0  0  0  0  0
  -23.9039  -10.4300   21.0440 C   0  0  0  0  0  0
  -24.3597   -9.4196   21.9197 C   0  0  0  0  0  0
  -23.6272   -8.2228   22.0738 C   0  0  0  0  0  0
  -22.4241   -8.0290   21.3553 C   0  0  0  0  0  0
  -21.9888   -9.0260   20.4646 C   0  0  0  0  0  0
  -22.7217  -10.2145   20.3075 C   0  0  0  0  0  0
  -21.6852   -6.0730   22.5283 C   0  0  0  0  0  0
  -21.4027   -6.5647   23.8217 C   0  0  0  0  0  0
  -21.3648   -5.6798   24.9181 C   0  0  0  0  0  0
  -21.6027   -4.3059   24.7234 C   0  0  0  0  0  0
  -21.8819   -3.8146   23.4367 C   0  0  0  0  0  0
  -21.9191   -4.6956   22.3418 C   0  0  0  0  0  0
  -22.7815  -13.5212   21.1916 C   0  0  0  0  0  0
  -22.1675   -4.2152   21.0995 F   0  0  0  0  0  0
  -21.5603   -3.4540   25.7741 F   0  0  0  0  0  0
  -29.9491  -13.6726   20.3337 N   0  0  0  0  0  0
  -26.2889  -12.9423   20.3272 N   0  0  0  0  0  0
  -25.9312  -11.6558   20.5746 N   0  0  0  0  0  0
  -22.0446  -12.8216   22.0458 N   0  0  0  0  0  0
  -25.4172  -15.1922   20.4111 N   0  0  0  0  0  0
  -31.8560  -14.8151   20.2830 O   0  0  0  0  0  0
  -21.6630   -6.8882   21.4245 O   0  0  0  0  0  0
  -22.3508  -14.5513   20.6743 O   0  0  0  0  0  0
  -24.6344  -31.8456   23.1874 C   0  0  0  0  0  0
  -25.9149  -32.4681   23.8242 C   0  0  1  0  0  0
  -27.2179  -27.1939   20.1489 C   0  0  0  0  0  0
  -25.5916  -33.8477   24.2180 N   0  0  0  0  0  0
  -23.4350  -30.4626   21.5313 C   0  0  2  0  0  0
  -24.8820  -28.8970   20.1025 C   0  0  0  0  0  0
  -22.7507  -29.4567   22.4892 C   0  0  0  0  0  0
  -18.0293  -28.1372   22.8505 C   0  0  0  0  0  0
  -24.1496  -36.7239   23.2639 C   0  0  0  0  0  0
  -25.9821  -30.7395   21.3761 C   0  0  0  0  0  0
  -26.0529  -29.3568   20.7180 C   0  0  0  0  0  0
  -27.2192  -28.5195   20.7229 C   0  0  0  0  0  0
  -26.0232  -26.8090   19.5026 C   0  0  0  0  0  0
  -24.8795  -27.6363   19.4804 C   0  0  0  0  0  0
  -23.6484  -29.7813   20.1521 C   0  0  0  0  0  0
  -25.4121  -36.2998   24.0323 C   0  0  1  0  0  0
  -20.5896  -28.3669   23.1224 C   0  0  2  0  0  0
  -20.6784  -26.9411   22.5285 C   0  0  0  0  0  0
  -19.5673  -26.6380   21.5168 C   0  0  0  0  0  0
  -18.1927  -26.7873   22.1726 C   0  0  0  0  0  0
  -19.1558  -28.8855   23.2841 C   0  0  0  0  0  0
  -18.9473  -30.1473   23.8824 C   0  0  0  0  0  0
  -17.6469  -30.6592   24.0526 C   0  0  0  0  0  0
  -25.9061  -34.9386   23.5063 C   0  0  0  0  0  0
  -16.5351  -29.9071   23.6340 C   0  0  0  0  0  0
  -16.7283  -28.6479   23.0391 C   0  0  0  0  0  0
  -26.4481  -31.6525   25.0668 C   0  0  0  0  0  0
  -25.3675  -31.3809   26.1392 C   0  0  0  0  0  0
  -27.0302  -30.2891   24.6242 C   0  0  0  0  0  0
  -27.6031  -32.4286   25.7413 C   0  0  0  0  0  0
  -27.5586  -37.1746   24.8465 C   0  0  0  0  0  0
  -21.4216  -29.3023   22.3616 N   0  0  0  0  0  0
  -26.4289  -37.3716   23.9414 N   0  0  0  0  0  0
  -24.7034  -31.0376   22.0866 N   0  0  0  0  0  0
  -23.4173  -28.8145   23.3056 O   0  0  0  0  0  0
  -28.3144  -26.2910   20.2614 O   0  0  0  0  0  0
  -26.5667  -34.8873   22.4654 O   0  0  0  0  0  0
  -23.5493  -32.1309   23.7145 O   0  0  0  0  0  0
  -32.3691  -19.2287   18.3235 C   0  0  0  0  0  0
  -32.3338  -17.9011   17.9245 C   0  0  0  0  0  0
  -31.3970  -19.6912   19.2125 C   0  0  0  0  0  0
  -31.4468  -17.0276   18.5597 C   0  0  0  0  0  0
  -30.3537  -18.8914   19.7683 C   0  0  0  0  0  0
  -30.5451  -17.3956   19.6077 C   0  0  0  0  0  0
  -27.4546  -21.4546   21.7842 C   0  0  0  0  0  0
  -28.1818  -22.2009   20.7605 C   0  0  0  0  0  0
  -26.1398  -21.6672   21.9855 C   0  0  0  0  0  0
  -27.9656  -23.6017   20.7021 C   0  0  0  0  0  0
  -28.1601  -20.3367   22.5545 C   0  0  0  0  0  0
  -29.0376  -21.1953   19.8709 C   0  0  0  0  0  0
  -29.3950  -19.7098   21.8548 C   0  0  0  0  0  0
  -28.3689  -24.8417   19.7691 C   0  0  0  0  0  0
  -29.3381  -19.7540   20.3950 N   0  0  0  0  0  0
  -29.9824  -16.1462   20.2724 N   0  0  0  0  0  0
  -31.4574  -12.6815   19.1559 H   0  0  0  0  0  0
  -30.3884  -11.6101   20.0196 H   0  0  0  0  0  0
  -29.8136  -11.7249   17.5491 H   0  0  0  0  0  0
  -29.5761  -13.4518   17.6871 H   0  0  0  0  0  0
  -27.9803  -11.2551   19.0273 H   0  0  0  0  0  0
  -27.3596  -12.3753   17.8402 H   0  0  0  0  0  0
  -27.5788  -14.2331   19.3730 H   0  0  0  0  0  0
  -28.7554  -12.3470   21.4769 H   0  0  0  0  0  0
  -28.3953  -14.0458   21.7096 H   0  0  0  0  0  0
  -25.2750   -9.5689   22.4765 H   0  0  0  0  0  0
  -23.9998   -7.4617   22.7450 H   0  0  0  0  0  0
  -21.0809   -8.8774   19.8952 H   0  0  0  0  0  0
  -22.3662  -10.9686   19.6185 H   0  0  0  0  0  0
  -21.2045   -7.6165   23.9736 H   0  0  0  0  0  0
  -21.1456   -6.0531   25.9086 H   0  0  0  0  0  0
  -22.0597   -2.7610   23.2867 H   0  0  0  0  0  0
  -22.4054  -11.9897   22.4895 H   0  0  0  0  0  0
  -21.1054  -13.1264   22.2615 H   0  0  0  0  0  0
  -24.6448  -15.8444   20.5010 H   0  0  0  0  0  0
  -26.2648  -15.6273   20.0723 H   0  0  0  0  0  0
  -26.7226  -32.5300   23.0986 H   0  0  0  0  0  0
  -24.9996  -33.9590   25.0283 H   0  0  0  0  0  0
  -22.7329  -31.2853   21.3807 H   0  0  0  0  0  0
  -23.3762  -35.9572   23.3282 H   0  0  0  0  0  0
  -24.3589  -36.8872   22.2058 H   0  0  0  0  0  0
  -23.7267  -37.6439   23.6691 H   0  0  0  0  0  0
  -26.1299  -31.5004   20.6089 H   0  0  0  0  0  0
  -26.8557  -30.7865   22.0142 H   0  0  0  0  0  0
  -28.1112  -28.8678   21.2208 H   0  0  0  0  0  0
  -25.9354  -25.8344   19.0459 H   0  0  0  0  0  0
  -23.9829  -27.2788   18.9932 H   0  0  0  0  0  0
  -23.7353  -30.5424   19.3742 H   0  0  0  0  0  0
  -22.7734  -29.1871   19.8800 H   0  0  0  0  0  0
  -25.1319  -36.1810   25.0815 H   0  0  0  0  0  0
  -21.0009  -28.3214   24.1343 H   0  0  0  0  0  0
  -20.5794  -26.2275   23.3474 H   0  0  0  0  0  0
  -21.6624  -26.7487   22.0985 H   0  0  0  0  0  0
  -19.6791  -25.6309   21.1161 H   0  0  0  0  0  0
  -19.6475  -27.3203   20.6691 H   0  0  0  0  0  0
  -17.4090  -26.6517   21.4259 H   0  0  0  0  0  0
  -18.0461  -26.0079   22.9223 H   0  0  0  0  0  0
  -19.7952  -30.7335   24.2126 H   0  0  0  0  0  0
  -17.5022  -31.6291   24.5095 H   0  0  0  0  0  0
  -15.5350  -30.2963   23.7703 H   0  0  0  0  0  0
  -15.8680  -28.0772   22.7169 H   0  0  0  0  0  0
  -24.5814  -30.7194   25.7745 H   0  0  0  0  0  0
  -24.8930  -32.3042   26.4699 H   0  0  0  0  0  0
  -25.7909  -30.9065   27.0237 H   0  0  0  0  0  0
  -26.2882  -29.6603   24.1312 H   0  0  0  0  0  0
  -27.3967  -29.7187   25.4786 H   0  0  0  0  0  0
  -27.8772  -30.4084   23.9491 H   0  0  0  0  0  0
  -27.2634  -33.3626   26.1882 H   0  0  0  0  0  0
  -28.3831  -32.6766   25.0209 H   0  0  0  0  0  0
  -28.0681  -31.8496   26.5387 H   0  0  0  0  0  0
  -28.2586  -38.0053   24.7499 H   0  0  0  0  0  0
  -28.1100  -36.2585   24.6315 H   0  0  0  0  0  0
  -27.2300  -37.1409   25.8861 H   0  0  0  0  0  0
  -20.9446  -29.8695   21.6744 H   0  0  0  0  0  0
  -26.0157  -38.2781   24.1411 H   0  0  0  0  0  0
  -33.1130  -19.9030   17.9251 H   0  0  0  0  0  0
  -33.0308  -17.5382   17.1811 H   0  0  0  0  0  0
  -31.5132  -20.7348   19.4434 H   0  0  0  0  0  0
  -31.5377  -16.0055   18.2227 H   0  0  0  0  0  0
  -25.5841  -22.4026   21.4215 H   0  0  0  0  0  0
  -25.5781  -21.0893   22.7073 H   0  0  0  0  0  0
  -27.2963  -23.9755   21.4635 H   0  0  0  0  0  0
  -27.4379  -19.5366   22.7213 H   0  0  0  0  0  0
  -28.4316  -20.6997   23.5467 H   0  0  0  0  0  0
  -29.9174  -21.7750   19.6131 H   0  0  0  0  0  0
  -28.4824  -21.0799   18.9384 H   0  0  0  0  0  0
  -29.5500  -18.6879   22.2055 H   0  0  0  0  0  0
  -30.2763  -20.2730   22.1646 H   0  0  0  0  0  0
  -27.8309  -24.7520   18.8270 H   0  0  0  0  0  0
  -29.4084  -24.6660   19.4935 H   0  0  0  0  0  0
  -29.0070  -16.1845   20.5238 H   0  0  0  0  0  0
  1 25  1  0  0  0
  1 30  2  0  0  0
  1 86  1  0  0  0
  2  3  1  0  0  0
  2 25  1  0  0  0
  2 87  1  0  0  0
  2 88  1  0  0  0
  3  4  1  0  0  0
  3 89  1  0  0  0
  3 90  1  0  0  0
  4  5  1  0  0  0
  4 91  1  0  0  0
  4 92  1  0  0  0
  5  6  1  0  0  0
  5 26  1  0  0  0
  5 93  1  0  0  0
  6 25  1  0  0  0
  6 94  1  0  0  0
  6 95  1  0  0  0
  7  8  2  0  0  0
  7 26  1  0  0  0
  7 29  1  0  0  0
  8  9  1  0  0  0
  8 22  1  0  0  0
  9 10  1  0  0  0
  9 27  2  0  0  0
 10 11  2  0  0  0
 10 15  1  0  0  0
 11 12  1  0  0  0
 11 96  1  0  0  0
 12 13  2  0  0  0
 12 97  1  0  0  0
 13 14  1  0  0  0
 13 31  1  0  0  0
 14 15  2  0  0  0
 14 98  1  0  0  0
 15 99  1  0  0  0
 16 17  2  0  0  0
 16 21  1  0  0  0
 16 31  1  0  0  0
 17 18  1  0  0  0
 17100  1  0  0  0
 18 19  2  0  0  0
 18101  1  0  0  0
 19 20  1  0  0  0
 19 24  1  0  0  0
 20 21  2  0  0  0
 20102  1  0  0  0
 21 23  1  0  0  0
 22 28  1  0  0  0
 22 32  2  0  0  0
 26 27  1  0  0  0
 28103  1  0  0  0
 28104  1  0  0  0
 29105  1  0  0  0
 29106  1  0  0  0
 33 34  1  0  0  0
 33 66  1  0  0  0
 33 70  2  0  0  0
 34 36  1  0  0  0
 34 59  1  0  0  0
 34107  1  0  0  0
 35 44  2  0  0  0
 35 45  1  0  0  0
 35 68  1  0  0  0
 36 56  1  0  0  0
 36108  1  0  0  0
 37 39  1  0  0  0
 37 47  1  0  0  0
 37 66  1  0  0  0
 37109  1  0  0  0
 38 43  2  0  0  0
 38 46  1  0  0  0
 38 47  1  0  0  0
 39 64  1  0  0  0
 39 67  2  0  0  0
 40 52  1  0  0  0
 40 53  2  0  0  0
 40 58  1  0  0  0
 41110  1  0  0  0
 41111  1  0  0  0
 41112  1  0  0  0
 41 48  1  0  0  0
 42 43  1  0  0  0
 42 66  1  0  0  0
 42113  1  0  0  0
 42114  1  0  0  0
 43 44  1  0  0  0
 44115  1  0  0  0
 45 46  2  0  0  0
 45116  1  0  0  0
 46117  1  0  0  0
 47118  1  0  0  0
 47119  1  0  0  0
 48 56  1  0  0  0
 48 65  1  0  0  0
 48120  1  0  0  0
 49 50  1  0  0  0
 49 53  1  0  0  0
 49 64  1  0  0  0
 49121  1  0  0  0
 50 51  1  0  0  0
 50122  1  0  0  0
 50123  1  0  0  0
 51 52  1  0  0  0
 51124  1  0  0  0
 51125  1  0  0  0
 52126  1  0  0  0
 52127  1  0  0  0
 53 54  1  0  0  0
 54 55  2  0  0  0
 54128  1  0  0  0
 55 57  1  0  0  0
 55129  1  0  0  0
 56 69  2  0  0  0
 57 58  2  0  0  0
 57130  1  0  0  0
 58131  1  0  0  0
 59 60  1  0  0  0
 59 61  1  0  0  0
 59 62  1  0  0  0
 60132  1  0  0  0
 60133  1  0  0  0
 60134  1  0  0  0
 61135  1  0  0  0
 61136  1  0  0  0
 61137  1  0  0  0
 62138  1  0  0  0
 62139  1  0  0  0
 62140  1  0  0  0
 63 65  1  0  0  0
 63141  1  0  0  0
 63142  1  0  0  0
 63143  1  0  0  0
 64144  1  0  0  0
 65145  1  0  0  0
 68 84  1  0  0  0
 71 72  2  0  0  0
 71 73  1  0  0  0
 71146  1  0  0  0
 72 74  1  0  0  0
 72147  1  0  0  0
 73 75  2  0  0  0
 73148  1  0  0  0
 74 76  2  0  0  0
 74149  1  0  0  0
 75 76  1  0  0  0
 75 85  1  0  0  0
 76 86  1  0  0  0
 77 78  1  0  0  0
 77 79  2  0  0  0
 77 81  1  0  0  0
 78 80  2  0  0  0
 78 82  1  0  0  0
 79150  1  0  0  0
 79151  1  0  0  0
 80 84  1  0  0  0
 80152  1  0  0  0
 81 83  1  0  0  0
 81153  1  0  0  0
 81154  1  0  0  0
 82 85  1  0  0  0
 82155  1  0  0  0
 82156  1  0  0  0
 83 85  1  0  0  0
 83157  1  0  0  0
 83158  1  0  0  0
 84159  1  0  0  0
 84160  1  0  0  0
 86161  1  0  0  0
M  ISO  4   1 100  68 101  84 101  86 100
M  END
> <chiral flag>
0

> <version>
0

> <s_m_source_file>
/data/baiqing/PycharmProjects/Reinvent-master-3.2/result/LINK_invent/BTK/process_docking_weight1_custom_product_contain_oxygen_bond_distance_aromatic_linkinvent_7_9_3/rearranged_h_0079.sdf

> <i_m_source_file_index>
37

> <r_mmod_Potential_Energy-OPLS-2005>
508.839599609375

> <r_mmod_Stretch_Energy-OPLS-2005>
208.182388305664

> <r_mmod_Bend_Energy-OPLS-2005>
305.523742675781

> <r_mmod_Torsional_Energy-OPLS-2005>
299.755920410156

> <r_mmod_Improper_Torsional_Energy-OPLS-2005>
10.4412221908569

> <r_mmod_Van_der_Waal_Energy-OPLS-2005>
171.584716796875

> <r_mmod_Electrostatic_Energy-OPLS-2005>
-425.14404296875

> <r_mmod_Solvation_Energy-OPLS-2005>
-215.857009887695

> <b_mmod_Minimization_Converged-OPLS-2005>
0

> <r_mmod_RMS_Derivative-OPLS-2005>
4.13771343231201

$$$$
37
                    3D
 Structure written by MMmdl.
158166  0  0  1  0            999 V2000
  -30.7257  -14.5081   20.5106 C   0  0  0  0  0  0
  -30.4051  -12.3118   19.4474 C   0  0  0  0  0  0
  -29.4934  -12.4927   18.2175 C   0  0  0  0  0  0
  -28.0145  -12.3585   18.6262 C   0  0  0  0  0  0
  -27.6530  -13.2217   19.8659 C   0  0  2  0  0  0
  -28.6964  -13.0687   20.9970 C   0  0  0  0  0  0
  -25.2545  -13.8192   20.5691 C   0  0  0  0  0  0
  -24.1815  -13.0446   20.9189 C   0  0  0  0  0  0
  -24.6394  -11.6919   20.8749 C   0  0  0  0  0  0
  -23.9071  -10.4294   21.0408 C   0  0  0  0  0  0
  -24.3625   -9.4212   21.9186 C   0  0  0  0  0  0
  -23.6300   -8.2247   22.0755 C   0  0  0  0  0  0
  -22.4282   -8.0285   21.3547 C   0  0  0  0  0  0
  -21.9919   -9.0254   20.4646 C   0  0  0  0  0  0
  -22.7244  -10.2132   20.3054 C   0  0  0  0  0  0
  -21.6850   -6.0740   22.5279 C   0  0  0  0  0  0
  -21.4011   -6.5644   23.8215 C   0  0  0  0  0  0
  -21.3661   -5.6796   24.9175 C   0  0  0  0  0  0
  -21.6044   -4.3057   24.7224 C   0  0  0  0  0  0
  -21.8819   -3.8151   23.4344 C   0  0  0  0  0  0
  -21.9196   -4.6970   22.3400 C   0  0  0  0  0  0
  -22.7836  -13.5235   21.1849 C   0  0  0  0  0  0
  -22.1664   -4.2157   21.0976 F   0  0  0  0  0  0
  -21.5629   -3.4539   25.7737 F   0  0  0  0  0  0
  -30.0241  -13.3424   20.4300 N   0  0  0  0  0  0
  -26.2988  -12.9393   20.3346 N   0  0  0  0  0  0
  -25.9328  -11.6539   20.5783 N   0  0  0  0  0  0
  -22.0486  -12.8220   22.0405 N   0  0  0  0  0  0
  -25.4255  -15.1911   20.4083 N   0  0  0  0  0  0
  -31.8899  -14.5632   20.1164 O   0  0  0  0  0  0
  -21.6645   -6.8883   21.4240 O   0  0  0  0  0  0
  -22.3521  -14.5546   20.6706 O   0  0  0  0  0  0
  -24.6173  -31.8662   23.2099 C   0  0  0  0  0  0
  -25.9063  -32.4810   23.8403 C   0  0  1  0  0  0
  -27.2251  -27.4154   20.1069 C   0  0  0  0  0  0
  -25.5924  -33.8609   24.2340 N   0  0  0  0  0  0
  -23.4071  -30.4909   21.5494 C   0  0  2  0  0  0
  -24.8540  -28.9586   20.1104 C   0  0  0  0  0  0
  -22.7427  -29.4652   22.4970 C   0  0  0  0  0  0
  -18.0276  -28.1377   22.8488 C   0  0  0  0  0  0
  -24.1487  -36.7295   23.2640 C   0  0  0  0  0  0
  -25.9385  -30.8271   21.3666 C   0  0  0  0  0  0
  -26.0158  -29.4626   20.7097 C   0  0  0  0  0  0
  -27.2097  -28.6996   20.7020 C   0  0  0  0  0  0
  -26.0526  -26.9376   19.4859 C   0  0  0  0  0  0
  -24.8685  -27.6971   19.4911 C   0  0  0  0  0  0
  -23.6168  -29.8262   20.1627 C   0  0  0  0  0  0
  -25.4108  -36.3098   24.0343 C   0  0  1  0  0  0
  -20.5874  -28.3662   23.1306 C   0  0  2  0  0  0
  -20.6770  -26.9395   22.5410 C   0  0  0  0  0  0
  -19.5751  -26.6375   21.5207 C   0  0  0  0  0  0
  -18.1924  -26.7927   22.1610 C   0  0  0  0  0  0
  -19.1529  -28.8835   23.2895 C   0  0  0  0  0  0
  -18.9454  -30.1444   23.8904 C   0  0  0  0  0  0
  -17.6456  -30.6584   24.0566 C   0  0  0  0  0  0
  -25.9039  -34.9465   23.5132 C   0  0  0  0  0  0
  -16.5343  -29.9080   23.6333 C   0  0  0  0  0  0
  -16.7263  -28.6496   23.0349 C   0  0  0  0  0  0
  -26.4489  -31.6590   25.0731 C   0  0  0  0  0  0
  -25.3762  -31.3678   26.1483 C   0  0  0  0  0  0
  -27.0329  -30.3037   24.6106 C   0  0  0  0  0  0
  -27.6077  -32.4310   25.7479 C   0  0  0  0  0  0
  -27.5583  -37.1801   24.8466 C   0  0  0  0  0  0
  -21.4153  -29.3030   22.3711 N   0  0  0  0  0  0
  -26.4288  -37.3789   23.9420 N   0  0  0  0  0  0
  -24.6724  -31.0753   22.1004 N   0  0  0  0  0  0
  -23.4188  -28.8190   23.3020 O   0  0  0  0  0  0
  -28.3405  -26.6048   20.1535 O   0  0  0  0  0  0
  -26.5582  -34.8921   22.4684 O   0  0  0  0  0  0
  -23.5361  -32.1418   23.7486 O   0  0  0  0  0  0
  -31.9911  -18.7985   20.0532 C   0  0  0  0  0  0
  -31.0320  -19.7876   20.3141 C   0  0  0  0  0  0
  -31.6822  -17.4407   20.2399 C   0  0  0  0  0  0
  -29.4445  -18.0442   20.9611 C   0  0  0  0  0  0
  -29.7459  -19.4272   20.7670 C   0  0  0  0  0  0
  -30.4007  -17.0209   20.6905 C   0  0  0  0  0  0
  -28.7516  -20.5165   21.0996 C   0  0  0  0  0  0
  -26.7790  -22.7877   19.4271 C   0  0  0  0  0  0
  -28.7353  -24.1263   20.3483 C   0  0  0  0  0  0
  -25.3703  -23.1038   19.9141 C   0  0  0  0  0  0
  -28.1210  -25.4145   20.9514 C   0  0  0  0  0  0
  -27.9064  -22.8107   20.4689 C   0  0  2  0  0  0
  -30.0399  -15.6254   20.8736 N   0  0  0  0  0  0
  -28.7317  -21.5941   20.2923 N   0  0  0  0  0  0
  -27.9699  -20.3812   22.0416 O   0  0  0  0  0  0
  -26.9577  -22.4992   18.2395 O   0  0  0  0  0  0
  -29.8536  -24.1654   19.8198 O   0  0  0  0  0  0
  -31.4534  -12.3702   19.1496 H   0  0  0  0  0  0
  -30.2790  -11.3175   19.8780 H   0  0  0  0  0  0
  -29.7385  -11.7545   17.4527 H   0  0  0  0  0  0
  -29.6650  -13.4714   17.7665 H   0  0  0  0  0  0
  -27.8285  -11.3061   18.8399 H   0  0  0  0  0  0
  -27.3663  -12.6163   17.7878 H   0  0  0  0  0  0
  -27.6776  -14.2604   19.5361 H   0  0  0  0  0  0
  -28.6710  -12.0591   21.4095 H   0  0  0  0  0  0
  -28.4668  -13.7373   21.8282 H   0  0  0  0  0  0
  -25.2771   -9.5690   22.4762 H   0  0  0  0  0  0
  -24.0014   -7.4639   22.7472 H   0  0  0  0  0  0
  -21.0856   -8.8764   19.8947 H   0  0  0  0  0  0
  -22.3705  -10.9671   19.6161 H   0  0  0  0  0  0
  -21.1997   -7.6151   23.9720 H   0  0  0  0  0  0
  -21.1483   -6.0523   25.9079 H   0  0  0  0  0  0
  -22.0599   -2.7613   23.2837 H   0  0  0  0  0  0
  -22.4104  -11.9868   22.4770 H   0  0  0  0  0  0
  -21.1102  -13.1233   22.2613 H   0  0  0  0  0  0
  -24.6583  -15.8463   20.5105 H   0  0  0  0  0  0
  -26.2741  -15.6269   20.0702 H   0  0  0  0  0  0
  -26.7132  -32.5516   23.1166 H   0  0  0  0  0  0
  -25.0142  -33.9775   25.0532 H   0  0  0  0  0  0
  -22.6972  -31.3090   21.4103 H   0  0  0  0  0  0
  -23.3759  -35.9618   23.3292 H   0  0  0  0  0  0
  -24.3588  -36.8913   22.2057 H   0  0  0  0  0  0
  -23.7226  -37.6492   23.6656 H   0  0  0  0  0  0
  -26.0582  -31.5951   20.6015 H   0  0  0  0  0  0
  -26.8239  -30.8754   21.9882 H   0  0  0  0  0  0
  -28.1046  -29.0782   21.1763 H   0  0  0  0  0  0
  -26.0475  -25.9690   19.0072 H   0  0  0  0  0  0
  -23.9771  -27.3058   19.0200 H   0  0  0  0  0  0
  -23.7281  -30.6032   19.4056 H   0  0  0  0  0  0
  -22.7407  -29.2478   19.8633 H   0  0  0  0  0  0
  -25.1287  -36.1958   25.0837 H   0  0  0  0  0  0
  -20.9968  -28.3220   24.1427 H   0  0  0  0  0  0
  -20.5662  -26.2267   23.3597 H   0  0  0  0  0  0
  -21.6639  -26.7432   22.1205 H   0  0  0  0  0  0
  -19.6905  -25.6286   21.1228 H   0  0  0  0  0  0
  -19.6698  -27.3193   20.6746 H   0  0  0  0  0  0
  -17.4203  -26.6691   21.4001 H   0  0  0  0  0  0
  -18.0311  -26.0057   22.8990 H   0  0  0  0  0  0
  -19.7931  -30.7258   24.2273 H   0  0  0  0  0  0
  -17.5010  -31.6270   24.5159 H   0  0  0  0  0  0
  -15.5347  -30.2984   23.7660 H   0  0  0  0  0  0
  -15.8659  -28.0820   22.7067 H   0  0  0  0  0  0
  -24.5971  -30.6979   25.7827 H   0  0  0  0  0  0
  -24.8912  -32.2815   26.4928 H   0  0  0  0  0  0
  -25.8135  -30.8867   27.0241 H   0  0  0  0  0  0
  -26.2867  -29.6782   24.1188 H   0  0  0  0  0  0
  -27.4138  -29.7289   25.4557 H   0  0  0  0  0  0
  -27.8689  -30.4364   23.9237 H   0  0  0  0  0  0
  -27.2723  -33.3623   26.2056 H   0  0  0  0  0  0
  -28.3884  -32.6842   25.0292 H   0  0  0  0  0  0
  -28.0751  -31.8429   26.5388 H   0  0  0  0  0  0
  -28.2594  -38.0106   24.7536 H   0  0  0  0  0  0
  -28.1087  -36.2641   24.6262 H   0  0  0  0  0  0
  -27.2304  -37.1411   25.8870 H   0  0  0  0  0  0
  -20.9310  -29.8752   21.6936 H   0  0  0  0  0  0
  -26.0171  -38.2860   24.1442 H   0  0  0  0  0  0
  -32.9773  -19.0820   19.7121 H   0  0  0  0  0  0
  -31.3017  -20.8271   20.1827 H   0  0  0  0  0  0
  -32.4832  -16.7547   20.0209 H   0  0  0  0  0  0
  -28.4604  -17.7744   21.3195 H   0  0  0  0  0  0
  -25.3565  -24.0222   20.4978 H   0  0  0  0  0  0
  -25.0052  -22.2920   20.5424 H   0  0  0  0  0  0
  -24.6897  -23.2221   19.0709 H   0  0  0  0  0  0
  -28.5758  -25.5747   21.9286 H   0  0  0  0  0  0
  -27.0620  -25.2436   21.1436 H   0  0  0  0  0  0
  -27.4572  -22.8010   21.4636 H   0  0  0  0  0  0
  -29.0990  -15.4505   21.1931 H   0  0  0  0  0  0
  -29.3700  -21.6104   19.5103 H   0  0  0  0  0  0
  1 25  1  0  0  0
  1 30  2  0  0  0
  1 83  1  0  0  0
  2  3  1  0  0  0
  2 25  1  0  0  0
  2 88  1  0  0  0
  2 89  1  0  0  0
  3  4  1  0  0  0
  3 90  1  0  0  0
  3 91  1  0  0  0
  4  5  1  0  0  0
  4 92  1  0  0  0
  4 93  1  0  0  0
  5  6  1  0  0  0
  5 26  1  0  0  0
  5 94  1  0  0  0
  6 25  1  0  0  0
  6 95  1  0  0  0
  6 96  1  0  0  0
  7  8  2  0  0  0
  7 26  1  0  0  0
  7 29  1  0  0  0
  8  9  1  0  0  0
  8 22  1  0  0  0
  9 10  1  0  0  0
  9 27  2  0  0  0
 10 11  2  0  0  0
 10 15  1  0  0  0
 11 12  1  0  0  0
 11 97  1  0  0  0
 12 13  2  0  0  0
 12 98  1  0  0  0
 13 14  1  0  0  0
 13 31  1  0  0  0
 14 15  2  0  0  0
 14 99  1  0  0  0
 15100  1  0  0  0
 16 17  2  0  0  0
 16 21  1  0  0  0
 16 31  1  0  0  0
 17 18  1  0  0  0
 17101  1  0  0  0
 18 19  2  0  0  0
 18102  1  0  0  0
 19 20  1  0  0  0
 19 24  1  0  0  0
 20 21  2  0  0  0
 20103  1  0  0  0
 21 23  1  0  0  0
 22 28  1  0  0  0
 22 32  2  0  0  0
 26 27  1  0  0  0
 28104  1  0  0  0
 28105  1  0  0  0
 29106  1  0  0  0
 29107  1  0  0  0
 33 34  1  0  0  0
 33 66  1  0  0  0
 33 70  2  0  0  0
 34 36  1  0  0  0
 34 59  1  0  0  0
 34108  1  0  0  0
 35 44  2  0  0  0
 35 45  1  0  0  0
 35 68  1  0  0  0
 36 56  1  0  0  0
 36109  1  0  0  0
 37 39  1  0  0  0
 37 47  1  0  0  0
 37 66  1  0  0  0
 37110  1  0  0  0
 38 43  2  0  0  0
 38 46  1  0  0  0
 38 47  1  0  0  0
 39 64  1  0  0  0
 39 67  2  0  0  0
 40 52  1  0  0  0
 40 53  2  0  0  0
 40 58  1  0  0  0
 41111  1  0  0  0
 41112  1  0  0  0
 41113  1  0  0  0
 41 48  1  0  0  0
 42 43  1  0  0  0
 42 66  1  0  0  0
 42114  1  0  0  0
 42115  1  0  0  0
 43 44  1  0  0  0
 44116  1  0  0  0
 45 46  2  0  0  0
 45117  1  0  0  0
 46118  1  0  0  0
 47119  1  0  0  0
 47120  1  0  0  0
 48 56  1  0  0  0
 48 65  1  0  0  0
 48121  1  0  0  0
 49 50  1  0  0  0
 49 53  1  0  0  0
 49 64  1  0  0  0
 49122  1  0  0  0
 50 51  1  0  0  0
 50123  1  0  0  0
 50124  1  0  0  0
 51 52  1  0  0  0
 51125  1  0  0  0
 51126  1  0  0  0
 52127  1  0  0  0
 52128  1  0  0  0
 53 54  1  0  0  0
 54 55  2  0  0  0
 54129  1  0  0  0
 55 57  1  0  0  0
 55130  1  0  0  0
 56 69  2  0  0  0
 57 58  2  0  0  0
 57131  1  0  0  0
 58132  1  0  0  0
 59 60  1  0  0  0
 59 61  1  0  0  0
 59 62  1  0  0  0
 60133  1  0  0  0
 60134  1  0  0  0
 60135  1  0  0  0
 61136  1  0  0  0
 61137  1  0  0  0
 61138  1  0  0  0
 62139  1  0  0  0
 62140  1  0  0  0
 62141  1  0  0  0
 63 65  1  0  0  0
 63142  1  0  0  0
 63143  1  0  0  0
 63144  1  0  0  0
 64145  1  0  0  0
 65146  1  0  0  0
 68 81  1  0  0  0
 71 72  2  0  0  0
 71 73  1  0  0  0
 71147  1  0  0  0
 72 75  1  0  0  0
 72148  1  0  0  0
 73 76  2  0  0  0
 73149  1  0  0  0
 74 75  2  0  0  0
 74 76  1  0  0  0
 74150  1  0  0  0
 75 77  1  0  0  0
 76 83  1  0  0  0
 77 84  1  0  0  0
 77 85  2  0  0  0
 78 80  1  0  0  0
 78 82  1  0  0  0
 78 86  2  0  0  0
 79 81  1  0  0  0
 79 82  1  0  0  0
 79 87  2  0  0  0
 80151  1  0  0  0
 80152  1  0  0  0
 80153  1  0  0  0
 81154  1  0  0  0
 81155  1  0  0  0
 82 84  1  0  0  0
 82156  1  0  0  0
 83157  1  0  0  0
 84158  1  0  0  0
M  ISO  4   1 100  68 101  81 101  83 100
M  END
> <chiral flag>
0

> <version>
0

> <s_m_source_file>
/data/baiqing/PycharmProjects/Reinvent-master-3.2/result/LINK_invent/BTK/process_docking_weight1_custom_product_contain_oxygen_bond_distance_aromatic_linkinvent_7_9_3/rearranged_h_0079.sdf

> <i_m_source_file_index>
38

> <r_mmod_Potential_Energy-OPLS-2005>
-233.656036376953

> <r_mmod_Stretch_Energy-OPLS-2005>
46.9297981262207

> <r_mmod_Bend_Energy-OPLS-2005>
99.7802352905273

> <r_mmod_Torsional_Energy-OPLS-2005>
225.341659545898

> <r_mmod_Improper_Torsional_Energy-OPLS-2005>
4.48274803161621

> <r_mmod_Van_der_Waal_Energy-OPLS-2005>
153.632843017578

> <r_mmod_Electrostatic_Energy-OPLS-2005>
-535.626403808594

> <r_mmod_Solvation_Energy-OPLS-2005>
-252.071807861328

> <b_mmod_Minimization_Converged-OPLS-2005>
0

> <r_mmod_RMS_Derivative-OPLS-2005>
1.10040187835693

$$$$
38
                    3D
 Structure written by MMmdl.
160169  0  0  1  0            999 V2000
  -30.7402  -14.4904   20.4738 C   0  0  0  0  0  0
  -30.4272  -12.3038   19.4082 C   0  0  0  0  0  0
  -29.4819  -12.4331   18.1973 C   0  0  0  0  0  0
  -28.0065  -12.3142   18.6310 C   0  0  0  0  0  0
  -27.6515  -13.1873   19.8638 C   0  0  2  0  0  0
  -28.7180  -13.0658   20.9751 C   0  0  0  0  0  0
  -25.2607  -13.8110   20.5724 C   0  0  0  0  0  0
  -24.1837  -13.0432   20.9219 C   0  0  0  0  0  0
  -24.6367  -11.6892   20.8825 C   0  0  0  0  0  0
  -23.9046  -10.4290   21.0458 C   0  0  0  0  0  0
  -24.3614   -9.4196   21.9210 C   0  0  0  0  0  0
  -23.6300   -8.2228   22.0761 C   0  0  0  0  0  0
  -22.4278   -8.0284   21.3546 C   0  0  0  0  0  0
  -21.9919   -9.0253   20.4638 C   0  0  0  0  0  0
  -22.7251  -10.2126   20.3061 C   0  0  0  0  0  0
  -21.6834   -6.0763   22.5294 C   0  0  0  0  0  0
  -21.4002   -6.5666   23.8233 C   0  0  0  0  0  0
  -21.3648   -5.6802   24.9178 C   0  0  0  0  0  0
  -21.6037   -4.3066   24.7219 C   0  0  0  0  0  0
  -21.8825   -3.8163   23.4341 C   0  0  0  0  0  0
  -21.9186   -4.6989   22.3404 C   0  0  0  0  0  0
  -22.7865  -13.5263   21.1848 C   0  0  0  0  0  0
  -22.1655   -4.2182   21.0981 F   0  0  0  0  0  0
  -21.5627   -3.4538   25.7728 F   0  0  0  0  0  0
  -30.0315  -13.3337   20.3736 N   0  0  0  0  0  0
  -26.3010  -12.9215   20.3452 N   0  0  0  0  0  0
  -25.9295  -11.6412   20.5919 N   0  0  0  0  0  0
  -22.0471  -12.8237   22.0358 N   0  0  0  0  0  0
  -25.4401  -15.1818   20.4103 N   0  0  0  0  0  0
  -31.9443  -14.5599   20.2311 O   0  0  0  0  0  0
  -21.6630   -6.8896   21.4252 O   0  0  0  0  0  0
  -22.3592  -14.5589   20.6714 O   0  0  0  0  0  0
  -24.6104  -31.8718   23.2152 C   0  0  0  0  0  0
  -25.9013  -32.4843   23.8424 C   0  0  1  0  0  0
  -27.2409  -27.4683   20.0780 C   0  0  0  0  0  0
  -25.5888  -33.8640   24.2348 N   0  0  0  0  0  0
  -23.3941  -30.4963   21.5568 C   0  0  2  0  0  0
  -24.8373  -28.9649   20.1195 C   0  0  0  0  0  0
  -22.7368  -29.4680   22.5037 C   0  0  0  0  0  0
  -18.0250  -28.1355   22.8507 C   0  0  0  0  0  0
  -24.1478  -36.7314   23.2645 C   0  0  0  0  0  0
  -25.9198  -30.8456   21.3636 C   0  0  0  0  0  0
  -25.9950  -29.4825   20.7094 C   0  0  0  0  0  0
  -27.1939  -28.7412   20.6873 C   0  0  0  0  0  0
  -26.0595  -26.9573   19.4869 C   0  0  0  0  0  0
  -24.8629  -27.6986   19.5112 C   0  0  0  0  0  0
  -23.5974  -29.8284   20.1713 C   0  0  0  0  0  0
  -25.4102  -36.3126   24.0345 C   0  0  1  0  0  0
  -20.5841  -28.3634   23.1348 C   0  0  2  0  0  0
  -20.6740  -26.9382   22.5422 C   0  0  0  0  0  0
  -19.5719  -26.6373   21.5219 C   0  0  0  0  0  0
  -18.1897  -26.7911   22.1624 C   0  0  0  0  0  0
  -19.1496  -28.8806   23.2925 C   0  0  0  0  0  0
  -18.9437  -30.1417   23.8921 C   0  0  0  0  0  0
  -17.6448  -30.6580   24.0555 C   0  0  0  0  0  0
  -25.9036  -34.9490   23.5147 C   0  0  0  0  0  0
  -16.5334  -29.9078   23.6328 C   0  0  0  0  0  0
  -16.7246  -28.6485   23.0361 C   0  0  0  0  0  0
  -26.4453  -31.6613   25.0742 C   0  0  0  0  0  0
  -25.3743  -31.3702   26.1509 C   0  0  0  0  0  0
  -27.0295  -30.3070   24.6094 C   0  0  0  0  0  0
  -27.6016  -32.4347   25.7512 C   0  0  0  0  0  0
  -27.5586  -37.1814   24.8454 C   0  0  0  0  0  0
  -21.4101  -29.3023   22.3774 N   0  0  0  0  0  0
  -26.4278  -37.3821   23.9426 N   0  0  0  0  0  0
  -24.6593  -31.0844   22.1041 N   0  0  0  0  0  0
  -23.4166  -28.8217   23.3056 O   0  0  0  0  0  0
  -28.4617  -26.8290   20.0696 O   0  0  0  0  0  0
  -26.5596  -34.8934   22.4705 O   0  0  0  0  0  0
  -23.5313  -32.1451   23.7580 O   0  0  0  0  0  0
  -31.2128  -19.5003   17.9636 C   0  0  0  0  0  0
  -30.1728  -19.8449   20.0980 C   0  0  0  0  0  0
  -30.7688  -20.4066   18.9446 C   0  0  0  0  0  0
  -30.9448  -18.1236   18.0874 C   0  0  0  0  0  0
  -30.2470  -17.6768   19.2520 C   0  0  0  0  0  0
  -30.3812  -24.0428   18.6053 C   0  0  0  0  0  0
  -31.4771  -23.8224   17.7067 C   0  0  0  0  0  0
  -30.0297  -22.7601   19.1999 C   0  0  0  0  0  0
  -32.0287  -24.7257   16.8766 C   0  0  0  0  0  0
  -29.7413  -25.2105   18.8353 C   0  0  0  0  0  0
  -29.7281  -16.2636   19.3864 C   0  0  0  0  0  0
  -31.8722  -22.3831   17.7805 C   0  0  0  0  0  0
  -28.5788  -25.4391   19.7812 C   0  0  0  0  0  0
  -29.9270  -18.5263   20.2548 N   0  0  0  0  0  0
  -30.8989  -21.8238   18.7348 N   0  0  0  0  0  0
  -31.3761  -17.2897   17.0416 N   0  0  0  0  0  0
  -30.0430  -15.6335   20.5323 N   0  0  0  0  0  0
  -29.0876  -22.5328   19.9638 O   0  0  0  0  0  0
  -29.1143  -15.7445   18.4449 O   0  0  0  0  0  0
  -31.4630  -12.4126   19.0797 H   0  0  0  0  0  0
  -30.3555  -11.3160   19.8631 H   0  0  0  0  0  0
  -29.7132  -11.6584   17.4652 H   0  0  0  0  0  0
  -29.6449  -13.3815   17.6871 H   0  0  0  0  0  0
  -27.8238  -11.2651   18.8621 H   0  0  0  0  0  0
  -27.3464  -12.5597   17.7989 H   0  0  0  0  0  0
  -27.6420  -14.2137   19.5206 H   0  0  0  0  0  0
  -28.7135  -12.0686   21.4167 H   0  0  0  0  0  0
  -28.5065  -13.7652   21.7852 H   0  0  0  0  0  0
  -25.2771   -9.5670   22.4770 H   0  0  0  0  0  0
  -24.0022   -7.4610   22.7465 H   0  0  0  0  0  0
  -21.0859   -8.8780   19.8928 H   0  0  0  0  0  0
  -22.3754  -10.9669   19.6149 H   0  0  0  0  0  0
  -21.2000   -7.6179   23.9748 H   0  0  0  0  0  0
  -21.1452   -6.0521   25.9083 H   0  0  0  0  0  0
  -22.0608   -2.7629   23.2814 H   0  0  0  0  0  0
  -22.4060  -11.9839   22.4664 H   0  0  0  0  0  0
  -21.1084  -13.1260   22.2577 H   0  0  0  0  0  0
  -24.6804  -15.8470   20.5084 H   0  0  0  0  0  0
  -26.3051  -15.6117   20.1074 H   0  0  0  0  0  0
  -26.7080  -32.5562   23.1188 H   0  0  0  0  0  0
  -25.0008  -33.9797   25.0475 H   0  0  0  0  0  0
  -22.6821  -31.3140   21.4233 H   0  0  0  0  0  0
  -23.3756  -35.9627   23.3281 H   0  0  0  0  0  0
  -24.3591  -36.8951   22.2064 H   0  0  0  0  0  0
  -23.7195  -37.6500   23.6666 H   0  0  0  0  0  0
  -26.0325  -31.6171   20.6003 H   0  0  0  0  0  0
  -26.8083  -30.8935   21.9817 H   0  0  0  0  0  0
  -28.0912  -29.1495   21.1333 H   0  0  0  0  0  0
  -26.0266  -26.0095   18.9753 H   0  0  0  0  0  0
  -23.9725  -27.2938   19.0494 H   0  0  0  0  0  0
  -23.6971  -30.6044   19.4114 H   0  0  0  0  0  0
  -22.7211  -29.2458   19.8805 H   0  0  0  0  0  0
  -25.1279  -36.1993   25.0841 H   0  0  0  0  0  0
  -20.9935  -28.3169   24.1468 H   0  0  0  0  0  0
  -20.5643  -26.2237   23.3597 H   0  0  0  0  0  0
  -21.6607  -26.7425   22.1222 H   0  0  0  0  0  0
  -19.6882  -25.6291   21.1224 H   0  0  0  0  0  0
  -19.6664  -27.3195   20.6761 H   0  0  0  0  0  0
  -17.4186  -26.6674   21.4007 H   0  0  0  0  0  0
  -18.0278  -26.0025   22.8990 H   0  0  0  0  0  0
  -19.7924  -30.7209   24.2308 H   0  0  0  0  0  0
  -17.5018  -31.6275   24.5124 H   0  0  0  0  0  0
  -15.5342  -30.2994   23.7642 H   0  0  0  0  0  0
  -15.8636  -28.0817   22.7073 H   0  0  0  0  0  0
  -24.5867  -30.7105   25.7850 H   0  0  0  0  0  0
  -24.8986  -32.2852   26.5046 H   0  0  0  0  0  0
  -25.8108  -30.8799   27.0217 H   0  0  0  0  0  0
  -26.2840  -29.6846   24.1129 H   0  0  0  0  0  0
  -27.4063  -29.7288   25.4538 H   0  0  0  0  0  0
  -27.8667  -30.4412   23.9241 H   0  0  0  0  0  0
  -27.2606  -33.3626   26.2116 H   0  0  0  0  0  0
  -28.3811  -32.6955   25.0344 H   0  0  0  0  0  0
  -28.0696  -31.8468   26.5416 H   0  0  0  0  0  0
  -28.2570  -38.0148   24.7575 H   0  0  0  0  0  0
  -28.1110  -36.2687   24.6181 H   0  0  0  0  0  0
  -27.2316  -37.1342   25.8854 H   0  0  0  0  0  0
  -20.9239  -29.8767   21.7034 H   0  0  0  0  0  0
  -26.0166  -38.2891   24.1454 H   0  0  0  0  0  0
  -31.7172  -19.8460   17.0757 H   0  0  0  0  0  0
  -29.8620  -20.4542   20.9328 H   0  0  0  0  0  0
  -31.6915  -25.7499   16.8284 H   0  0  0  0  0  0
  -32.8339  -24.4453   16.2119 H   0  0  0  0  0  0
  -30.0605  -26.0935   18.3028 H   0  0  0  0  0  0
  -32.8956  -22.2811   18.1455 H   0  0  0  0  0  0
  -31.7941  -21.9534   16.7818 H   0  0  0  0  0  0
  -28.7805  -24.9414   20.7302 H   0  0  0  0  0  0
  -27.7045  -24.9570   19.3578 H   0  0  0  0  0  0
  -31.6489  -17.7047   16.1526 H   0  0  0  0  0  0
  -30.9860  -16.3572   16.9357 H   0  0  0  0  0  0
  -30.5064  -16.3271   21.0987 H   0  0  0  0  0  0
  1 25  1  0  0  0
  1 30  2  0  0  0
  1 87  1  0  0  0
  2  3  1  0  0  0
  2 25  1  0  0  0
  2 90  1  0  0  0
  2 91  1  0  0  0
  3  4  1  0  0  0
  3 92  1  0  0  0
  3 93  1  0  0  0
  4  5  1  0  0  0
  4 94  1  0  0  0
  4 95  1  0  0  0
  5  6  1  0  0  0
  5 26  1  0  0  0
  5 96  1  0  0  0
  6 25  1  0  0  0
  6 97  1  0  0  0
  6 98  1  0  0  0
  7  8  2  0  0  0
  7 26  1  0  0  0
  7 29  1  0  0  0
  8  9  1  0  0  0
  8 22  1  0  0  0
  9 10  1  0  0  0
  9 27  2  0  0  0
 10 11  2  0  0  0
 10 15  1  0  0  0
 11 12  1  0  0  0
 11 99  1  0  0  0
 12 13  2  0  0  0
 12100  1  0  0  0
 13 14  1  0  0  0
 13 31  1  0  0  0
 14 15  2  0  0  0
 14101  1  0  0  0
 15102  1  0  0  0
 16 17  2  0  0  0
 16 21  1  0  0  0
 16 31  1  0  0  0
 17 18  1  0  0  0
 17103  1  0  0  0
 18 19  2  0  0  0
 18104  1  0  0  0
 19 20  1  0  0  0
 19 24  1  0  0  0
 20 21  2  0  0  0
 20105  1  0  0  0
 21 23  1  0  0  0
 22 28  1  0  0  0
 22 32  2  0  0  0
 26 27  1  0  0  0
 28106  1  0  0  0
 28107  1  0  0  0
 29108  1  0  0  0
 29109  1  0  0  0
 33 34  1  0  0  0
 33 66  1  0  0  0
 33 70  2  0  0  0
 34 36  1  0  0  0
 34 59  1  0  0  0
 34110  1  0  0  0
 35 44  2  0  0  0
 35 45  1  0  0  0
 35 68  1  0  0  0
 36 56  1  0  0  0
 36111  1  0  0  0
 37 39  1  0  0  0
 37 47  1  0  0  0
 37 66  1  0  0  0
 37112  1  0  0  0
 38 43  2  0  0  0
 38 46  1  0  0  0
 38 47  1  0  0  0
 39 64  1  0  0  0
 39 67  2  0  0  0
 40 52  1  0  0  0
 40 53  2  0  0  0
 40 58  1  0  0  0
 41113  1  0  0  0
 41114  1  0  0  0
 41115  1  0  0  0
 41 48  1  0  0  0
 42 43  1  0  0  0
 42 66  1  0  0  0
 42116  1  0  0  0
 42117  1  0  0  0
 43 44  1  0  0  0
 44118  1  0  0  0
 45 46  2  0  0  0
 45119  1  0  0  0
 46120  1  0  0  0
 47121  1  0  0  0
 47122  1  0  0  0
 48 56  1  0  0  0
 48 65  1  0  0  0
 48123  1  0  0  0
 49 50  1  0  0  0
 49 53  1  0  0  0
 49 64  1  0  0  0
 49124  1  0  0  0
 50 51  1  0  0  0
 50125  1  0  0  0
 50126  1  0  0  0
 51 52  1  0  0  0
 51127  1  0  0  0
 51128  1  0  0  0
 52129  1  0  0  0
 52130  1  0  0  0
 53 54  1  0  0  0
 54 55  2  0  0  0
 54131  1  0  0  0
 55 57  1  0  0  0
 55132  1  0  0  0
 56 69  2  0  0  0
 57 58  2  0  0  0
 57133  1  0  0  0
 58134  1  0  0  0
 59 60  1  0  0  0
 59 61  1  0  0  0
 59 62  1  0  0  0
 60135  1  0  0  0
 60136  1  0  0  0
 60137  1  0  0  0
 61138  1  0  0  0
 61139  1  0  0  0
 61140  1  0  0  0
 62141  1  0  0  0
 62142  1  0  0  0
 62143  1  0  0  0
 63 65  1  0  0  0
 63144  1  0  0  0
 63145  1  0  0  0
 63146  1  0  0  0
 64147  1  0  0  0
 65148  1  0  0  0
 68 83  1  0  0  0
 71 73  2  0  0  0
 71 74  1  0  0  0
 71149  1  0  0  0
 72 73  1  0  0  0
 72 84  2  0  0  0
 72150  1  0  0  0
 73 85  1  0  0  0
 74 75  2  0  0  0
 74 86  1  0  0  0
 75 81  1  0  0  0
 75 84  1  0  0  0
 76 77  1  0  0  0
 76 78  1  0  0  0
 76 80  2  0  0  0
 77 79  2  0  0  0
 77 82  1  0  0  0
 78 85  1  0  0  0
 78 88  2  0  0  0
 79151  1  0  0  0
 79152  1  0  0  0
 80 83  1  0  0  0
 80153  1  0  0  0
 81 87  1  0  0  0
 81 89  2  0  0  0
 82 85  1  0  0  0
 82154  1  0  0  0
 82155  1  0  0  0
 83156  1  0  0  0
 83157  1  0  0  0
 86158  1  0  0  0
 86159  1  0  0  0
 87160  1  0  0  0
M  ISO  4   1 100  68 101  83 101  87 100
M  END
> <chiral flag>
0

> <version>
0

> <s_m_source_file>
/data/baiqing/PycharmProjects/Reinvent-master-3.2/result/LINK_invent/BTK/process_docking_weight1_custom_product_contain_oxygen_bond_distance_aromatic_linkinvent_7_9_3/rearranged_h_0079.sdf

> <i_m_source_file_index>
39

> <r_mmod_Potential_Energy-OPLS-2005>
113.243423461914

> <r_mmod_Stretch_Energy-OPLS-2005>
38.1391716003418

> <r_mmod_Bend_Energy-OPLS-2005>
178.353225708008

> <r_mmod_Torsional_Energy-OPLS-2005>
371.162963867188

> <r_mmod_Improper_Torsional_Energy-OPLS-2005>
16.8501205444336

> <r_mmod_Van_der_Waal_Energy-OPLS-2005>
176.766220092773

> <r_mmod_Electrostatic_Energy-OPLS-2005>
-479.224945068359

> <r_mmod_Solvation_Energy-OPLS-2005>
-214.815567016602

> <b_mmod_Minimization_Converged-OPLS-2005>
0

> <r_mmod_RMS_Derivative-OPLS-2005>
2.2907440662384

$$$$
39
                    3D
 Structure written by MMmdl.
163172  0  0  1  0            999 V2000
  -30.6794  -14.4944   20.5576 C   0  0  0  0  0  0
  -30.4288  -12.3149   19.4235 C   0  0  0  0  0  0
  -29.4960  -12.4994   18.2071 C   0  0  0  0  0  0
  -28.0167  -12.3609   18.6196 C   0  0  0  0  0  0
  -27.6614  -13.2050   19.8727 C   0  0  2  0  0  0
  -28.7027  -12.9874   20.9933 C   0  0  0  0  0  0
  -25.2567  -13.8143   20.5575 C   0  0  0  0  0  0
  -24.1842  -13.0437   20.9171 C   0  0  0  0  0  0
  -24.6399  -11.6905   20.8756 C   0  0  0  0  0  0
  -23.9064  -10.4295   21.0425 C   0  0  0  0  0  0
  -24.3618   -9.4207   21.9197 C   0  0  0  0  0  0
  -23.6296   -8.2240   22.0759 C   0  0  0  0  0  0
  -22.4277   -8.0279   21.3549 C   0  0  0  0  0  0
  -21.9913   -9.0254   20.4652 C   0  0  0  0  0  0
  -22.7240  -10.2136   20.3069 C   0  0  0  0  0  0
  -21.6849   -6.0741   22.5282 C   0  0  0  0  0  0
  -21.4011   -6.5645   23.8216 C   0  0  0  0  0  0
  -21.3659   -5.6798   24.9176 C   0  0  0  0  0  0
  -21.6047   -4.3062   24.7226 C   0  0  0  0  0  0
  -21.8818   -3.8153   23.4346 C   0  0  0  0  0  0
  -21.9194   -4.6970   22.3404 C   0  0  0  0  0  0
  -22.7871  -13.5247   21.1842 C   0  0  0  0  0  0
  -22.1662   -4.2160   21.0984 F   0  0  0  0  0  0
  -21.5629   -3.4542   25.7738 F   0  0  0  0  0  0
  -30.0335  -13.3009   20.4423 N   0  0  0  0  0  0
  -26.3026  -12.9319   20.3348 N   0  0  0  0  0  0
  -25.9330  -11.6485   20.5797 N   0  0  0  0  0  0
  -22.0514  -12.8241   22.0402 N   0  0  0  0  0  0
  -25.4247  -15.1836   20.3798 N   0  0  0  0  0  0
  -31.8146  -14.6742   20.1091 O   0  0  0  0  0  0
  -21.6636   -6.8881   21.4243 O   0  0  0  0  0  0
  -22.3563  -14.5562   20.6702 O   0  0  0  0  0  0
  -24.6161  -31.8658   23.2074 C   0  0  0  0  0  0
  -25.9050  -32.4813   23.8365 C   0  0  1  0  0  0
  -27.2325  -27.4157   20.1098 C   0  0  0  0  0  0
  -25.5900  -33.8607   24.2306 N   0  0  0  0  0  0
  -23.4046  -30.4898   21.5470 C   0  0  2  0  0  0
  -24.8506  -28.9504   20.1139 C   0  0  0  0  0  0
  -22.7419  -29.4650   22.4966 C   0  0  0  0  0  0
  -18.0271  -28.1390   22.8488 C   0  0  0  0  0  0
  -24.1491  -36.7308   23.2641 C   0  0  0  0  0  0
  -25.9333  -30.8297   21.3592 C   0  0  0  0  0  0
  -26.0113  -29.4620   20.7077 C   0  0  0  0  0  0
  -27.2058  -28.7050   20.6954 C   0  0  0  0  0  0
  -26.0547  -26.9201   19.5095 C   0  0  0  0  0  0
  -24.8692  -27.6811   19.5091 C   0  0  0  0  0  0
  -23.6132  -29.8191   20.1621 C   0  0  0  0  0  0
  -25.4105  -36.3104   24.0345 C   0  0  1  0  0  0
  -20.5867  -28.3664   23.1320 C   0  0  2  0  0  0
  -20.6760  -26.9400   22.5421 C   0  0  0  0  0  0
  -19.5739  -26.6388   21.5216 C   0  0  0  0  0  0
  -18.1914  -26.7929   22.1624 C   0  0  0  0  0  0
  -19.1526  -28.8838   23.2903 C   0  0  0  0  0  0
  -18.9455  -30.1441   23.8914 C   0  0  0  0  0  0
  -17.6463  -30.6586   24.0567 C   0  0  0  0  0  0
  -25.9038  -34.9471   23.5123 C   0  0  0  0  0  0
  -16.5350  -29.9094   23.6337 C   0  0  0  0  0  0
  -16.7262  -28.6521   23.0340 C   0  0  0  0  0  0
  -26.4472  -31.6590   25.0701 C   0  0  0  0  0  0
  -25.3751  -31.3693   26.1458 C   0  0  0  0  0  0
  -27.0298  -30.3040   24.6062 C   0  0  0  0  0  0
  -27.6042  -32.4301   25.7468 C   0  0  0  0  0  0
  -27.5581  -37.1798   24.8462 C   0  0  0  0  0  0
  -21.4144  -29.3036   22.3721 N   0  0  0  0  0  0
  -26.4287  -37.3792   23.9420 N   0  0  0  0  0  0
  -24.6701  -31.0753   22.0969 N   0  0  0  0  0  0
  -23.4191  -28.8190   23.3008 O   0  0  0  0  0  0
  -28.4024  -26.6818   20.1230 O   0  0  0  0  0  0
  -26.5601  -34.8924   22.4687 O   0  0  0  0  0  0
  -23.5348  -32.1393   23.7476 O   0  0  0  0  0  0
  -31.3141  -18.9999   20.6192 C   0  0  0  0  0  0
  -31.2454  -17.5898   20.6168 C   0  0  0  0  0  0
  -29.0112  -19.1298   21.3563 C   0  0  0  0  0  0
  -30.2052  -19.7979   20.9939 C   0  0  0  0  0  0
  -30.0659  -16.9193   21.0196 C   0  0  0  0  0  0
  -28.9528  -17.7101   21.4073 C   0  0  0  0  0  0
  -30.0775  -23.5043   21.1945 C   0  0  0  0  0  0
  -31.3372  -23.2022   21.8179 C   0  0  0  0  0  0
  -29.4766  -22.2233   20.8037 C   0  0  0  0  0  0
  -32.1317  -24.0572   22.4878 C   0  0  0  0  0  0
  -29.5875  -24.7609   21.0065 C   0  0  0  0  0  0
  -27.4700  -17.0857   23.1289 C   0  0  0  0  0  0
  -31.6193  -21.7445   21.6694 C   0  0  0  0  0  0
  -26.2496  -16.2303   23.4283 C   0  0  0  0  0  0
  -28.3096  -25.2567   20.3360 C   0  0  0  0  0  0
  -30.3651  -21.2268   21.1163 N   0  0  0  0  0  0
  -29.9279  -15.4884   21.0810 N   0  0  0  0  0  0
  -28.3677  -22.0541   20.2851 O   0  0  0  0  0  0
  -28.0676  -17.6792   24.0311 O   0  0  0  0  0  0
  -27.8020  -17.0797   21.8182 O   0  0  0  0  0  0
  -31.4715  -12.4212   19.1198 H   0  0  0  0  0  0
  -30.3389  -11.3042   19.8251 H   0  0  0  0  0  0
  -29.7349  -11.7660   17.4356 H   0  0  0  0  0  0
  -29.6618  -13.4799   17.7586 H   0  0  0  0  0  0
  -27.8285  -11.3055   18.8195 H   0  0  0  0  0  0
  -27.3666  -12.6307   17.7864 H   0  0  0  0  0  0
  -27.7042  -14.2525   19.5724 H   0  0  0  0  0  0
  -28.6836  -11.9499   21.3305 H   0  0  0  0  0  0
  -28.4599  -13.5809   21.8757 H   0  0  0  0  0  0
  -25.2761   -9.5681   22.4770 H   0  0  0  0  0  0
  -24.0010   -7.4628   22.7469 H   0  0  0  0  0  0
  -21.0849   -8.8775   19.8948 H   0  0  0  0  0  0
  -22.3705  -10.9680   19.6181 H   0  0  0  0  0  0
  -21.1997   -7.6149   23.9725 H   0  0  0  0  0  0
  -21.1481   -6.0523   25.9083 H   0  0  0  0  0  0
  -22.0597   -2.7615   23.2843 H   0  0  0  0  0  0
  -22.4118  -11.9898   22.4784 H   0  0  0  0  0  0
  -21.1136  -13.1279   22.2606 H   0  0  0  0  0  0
  -24.6461  -15.8283   20.4513 H   0  0  0  0  0  0
  -26.2650  -15.6173   20.0200 H   0  0  0  0  0  0
  -26.7123  -32.5531   23.1129 H   0  0  0  0  0  0
  -25.0054  -33.9750   25.0454 H   0  0  0  0  0  0
  -22.6944  -31.3073   21.4052 H   0  0  0  0  0  0
  -23.3751  -35.9648   23.3300 H   0  0  0  0  0  0
  -24.3584  -36.8923   22.2055 H   0  0  0  0  0  0
  -23.7242  -37.6516   23.6649 H   0  0  0  0  0  0
  -26.0407  -31.5948   20.5888 H   0  0  0  0  0  0
  -26.8230  -30.8867   21.9750 H   0  0  0  0  0  0
  -28.1038  -29.0972   21.1515 H   0  0  0  0  0  0
  -26.0483  -25.9485   19.0364 H   0  0  0  0  0  0
  -23.9780  -27.2809   19.0457 H   0  0  0  0  0  0
  -23.7231  -30.5926   19.4007 H   0  0  0  0  0  0
  -22.7370  -29.2408   19.8637 H   0  0  0  0  0  0
  -25.1276  -36.1957   25.0841 H   0  0  0  0  0  0
  -20.9950  -28.3229   24.1445 H   0  0  0  0  0  0
  -20.5663  -26.2273   23.3604 H   0  0  0  0  0  0
  -21.6629  -26.7438   22.1207 H   0  0  0  0  0  0
  -19.6906  -25.6304   21.1226 H   0  0  0  0  0  0
  -19.6690  -27.3211   20.6758 H   0  0  0  0  0  0
  -17.4184  -26.6689   21.4022 H   0  0  0  0  0  0
  -18.0308  -26.0076   22.9022 H   0  0  0  0  0  0
  -19.7940  -30.7252   24.2287 H   0  0  0  0  0  0
  -17.5022  -31.6271   24.5158 H   0  0  0  0  0  0
  -15.5348  -30.2998   23.7655 H   0  0  0  0  0  0
  -15.8662  -28.0844   22.7032 H   0  0  0  0  0  0
  -24.5927  -30.7033   25.7797 H   0  0  0  0  0  0
  -24.8940  -32.2850   26.4911 H   0  0  0  0  0  0
  -25.8118  -30.8861   27.0207 H   0  0  0  0  0  0
  -26.2826  -29.6807   24.1139 H   0  0  0  0  0  0
  -27.4108  -29.7266   25.4493 H   0  0  0  0  0  0
  -27.8643  -30.4365   23.9172 H   0  0  0  0  0  0
  -27.2652  -33.3584   26.2069 H   0  0  0  0  0  0
  -28.3845  -32.6877   25.0299 H   0  0  0  0  0  0
  -28.0722  -31.8417   26.5369 H   0  0  0  0  0  0
  -28.2574  -38.0118   24.7519 H   0  0  0  0  0  0
  -28.1094  -36.2637   24.6257 H   0  0  0  0  0  0
  -27.2300  -37.1415   25.8869 H   0  0  0  0  0  0
  -20.9293  -29.8777   21.6968 H   0  0  0  0  0  0
  -26.0177  -38.2873   24.1442 H   0  0  0  0  0  0
  -32.2490  -19.4602   20.3332 H   0  0  0  0  0  0
  -32.1307  -17.0465   20.3233 H   0  0  0  0  0  0
  -28.1480  -19.7006   21.6666 H   0  0  0  0  0  0
  -31.8945  -25.1035   22.6090 H   0  0  0  0  0  0
  -33.0485  -23.7122   22.9444 H   0  0  0  0  0  0
  -30.1818  -25.5803   21.3800 H   0  0  0  0  0  0
  -31.8474  -21.2840   22.6322 H   0  0  0  0  0  0
  -32.4570  -21.5984   20.9872 H   0  0  0  0  0  0
  -26.3550  -15.2487   22.9666 H   0  0  0  0  0  0
  -25.3497  -16.7037   23.0371 H   0  0  0  0  0  0
  -26.1336  -16.0922   24.5030 H   0  0  0  0  0  0
  -27.4696  -25.0156   20.9905 H   0  0  0  0  0  0
  -28.1569  -24.7408   19.3870 H   0  0  0  0  0  0
  -29.0328  -15.1705   21.4187 H   0  0  0  0  0  0
  1 25  1  0  0  0
  1 30  2  0  0  0
  1 87  1  0  0  0
  2  3  1  0  0  0
  2 25  1  0  0  0
  2 91  1  0  0  0
  2 92  1  0  0  0
  3  4  1  0  0  0
  3 93  1  0  0  0
  3 94  1  0  0  0
  4  5  1  0  0  0
  4 95  1  0  0  0
  4 96  1  0  0  0
  5  6  1  0  0  0
  5 26  1  0  0  0
  5 97  1  0  0  0
  6 25  1  0  0  0
  6 98  1  0  0  0
  6 99  1  0  0  0
  7  8  2  0  0  0
  7 26  1  0  0  0
  7 29  1  0  0  0
  8  9  1  0  0  0
  8 22  1  0  0  0
  9 10  1  0  0  0
  9 27  2  0  0  0
 10 11  2  0  0  0
 10 15  1  0  0  0
 11 12  1  0  0  0
 11100  1  0  0  0
 12 13  2  0  0  0
 12101  1  0  0  0
 13 14  1  0  0  0
 13 31  1  0  0  0
 14 15  2  0  0  0
 14102  1  0  0  0
 15103  1  0  0  0
 16 17  2  0  0  0
 16 21  1  0  0  0
 16 31  1  0  0  0
 17 18  1  0  0  0
 17104  1  0  0  0
 18 19  2  0  0  0
 18105  1  0  0  0
 19 20  1  0  0  0
 19 24  1  0  0  0
 20 21  2  0  0  0
 20106  1  0  0  0
 21 23  1  0  0  0
 22 28  1  0  0  0
 22 32  2  0  0  0
 26 27  1  0  0  0
 28107  1  0  0  0
 28108  1  0  0  0
 29109  1  0  0  0
 29110  1  0  0  0
 33 34  1  0  0  0
 33 66  1  0  0  0
 33 70  2  0  0  0
 34 36  1  0  0  0
 34 59  1  0  0  0
 34111  1  0  0  0
 35 44  2  0  0  0
 35 45  1  0  0  0
 35 68  1  0  0  0
 36 56  1  0  0  0
 36112  1  0  0  0
 37 39  1  0  0  0
 37 47  1  0  0  0
 37 66  1  0  0  0
 37113  1  0  0  0
 38 43  2  0  0  0
 38 46  1  0  0  0
 38 47  1  0  0  0
 39 64  1  0  0  0
 39 67  2  0  0  0
 40 52  1  0  0  0
 40 53  2  0  0  0
 40 58  1  0  0  0
 41114  1  0  0  0
 41115  1  0  0  0
 41116  1  0  0  0
 41 48  1  0  0  0
 42 43  1  0  0  0
 42 66  1  0  0  0
 42117  1  0  0  0
 42118  1  0  0  0
 43 44  1  0  0  0
 44119  1  0  0  0
 45 46  2  0  0  0
 45120  1  0  0  0
 46121  1  0  0  0
 47122  1  0  0  0
 47123  1  0  0  0
 48 56  1  0  0  0
 48 65  1  0  0  0
 48124  1  0  0  0
 49 50  1  0  0  0
 49 53  1  0  0  0
 49 64  1  0  0  0
 49125  1  0  0  0
 50 51  1  0  0  0
 50126  1  0  0  0
 50127  1  0  0  0
 51 52  1  0  0  0
 51128  1  0  0  0
 51129  1  0  0  0
 52130  1  0  0  0
 52131  1  0  0  0
 53 54  1  0  0  0
 54 55  2  0  0  0
 54132  1  0  0  0
 55 57  1  0  0  0
 55133  1  0  0  0
 56 69  2  0  0  0
 57 58  2  0  0  0
 57134  1  0  0  0
 58135  1  0  0  0
 59 60  1  0  0  0
 59 61  1  0  0  0
 59 62  1  0  0  0
 60136  1  0  0  0
 60137  1  0  0  0
 60138  1  0  0  0
 61139  1  0  0  0
 61140  1  0  0  0
 61141  1  0  0  0
 62142  1  0  0  0
 62143  1  0  0  0
 62144  1  0  0  0
 63 65  1  0  0  0
 63145  1  0  0  0
 63146  1  0  0  0
 63147  1  0  0  0
 64148  1  0  0  0
 65149  1  0  0  0
 68 85  1  0  0  0
 71 72  2  0  0  0
 71 74  1  0  0  0
 71150  1  0  0  0
 72 75  1  0  0  0
 72151  1  0  0  0
 73 74  2  0  0  0
 73 76  1  0  0  0
 73152  1  0  0  0
 74 86  1  0  0  0
 75 76  2  0  0  0
 75 87  1  0  0  0
 76 90  1  0  0  0
 77 78  1  0  0  0
 77 79  1  0  0  0
 77 81  2  0  0  0
 78 80  2  0  0  0
 78 83  1  0  0  0
 79 86  1  0  0  0
 79 88  2  0  0  0
 80153  1  0  0  0
 80154  1  0  0  0
 81 85  1  0  0  0
 81155  1  0  0  0
 82 84  1  0  0  0
 82 89  2  0  0  0
 82 90  1  0  0  0
 83 86  1  0  0  0
 83156  1  0  0  0
 83157  1  0  0  0
 84158  1  0  0  0
 84159  1  0  0  0
 84160  1  0  0  0
 85161  1  0  0  0
 85162  1  0  0  0
 87163  1  0  0  0
M  ISO  4   1 100  68 101  85 101  87 100
M  END
> <chiral flag>
0

> <version>
0

> <s_m_source_file>
/data/baiqing/PycharmProjects/Reinvent-master-3.2/result/LINK_invent/BTK/process_docking_weight1_custom_product_contain_oxygen_bond_distance_aromatic_linkinvent_7_9_3/rearranged_h_0079.sdf

> <i_m_source_file_index>
40

> <r_mmod_Potential_Energy-OPLS-2005>
26.8773975372314

> <r_mmod_Stretch_Energy-OPLS-2005>
46.972770690918

> <r_mmod_Bend_Energy-OPLS-2005>
167.519729614258

> <r_mmod_Torsional_Energy-OPLS-2005>
285.599700927734

> <r_mmod_Improper_Torsional_Energy-OPLS-2005>
4.23021221160889

> <r_mmod_Van_der_Waal_Energy-OPLS-2005>
149.134353637695

> <r_mmod_Electrostatic_Energy-OPLS-2005>
-423.990020751953

> <r_mmod_Solvation_Energy-OPLS-2005>
-217.819595336914

> <b_mmod_Minimization_Converged-OPLS-2005>
0

> <r_mmod_RMS_Derivative-OPLS-2005>
1.40533399581909

$$$$
40
                    3D
 Structure written by MMmdl.
160169  0  0  1  0            999 V2000
  -30.7495  -14.3820   20.5967 C   0  0  0  0  0  0
  -30.4062  -12.2654   19.4016 C   0  0  0  0  0  0
  -29.4820  -12.5307   18.1972 C   0  0  0  0  0  0
  -28.0033  -12.4010   18.6086 C   0  0  0  0  0  0
  -27.6662  -13.2118   19.8879 C   0  0  2  0  0  0
  -28.7079  -12.9522   21.0005 C   0  0  0  0  0  0
  -25.2579  -13.8176   20.5682 C   0  0  0  0  0  0
  -24.1825  -13.0442   20.9133 C   0  0  0  0  0  0
  -24.6392  -11.6916   20.8711 C   0  0  0  0  0  0
  -23.9062  -10.4298   21.0382 C   0  0  0  0  0  0
  -24.3611   -9.4214   21.9166 C   0  0  0  0  0  0
  -23.6286   -8.2247   22.0743 C   0  0  0  0  0  0
  -22.4266   -8.0287   21.3537 C   0  0  0  0  0  0
  -21.9900   -9.0258   20.4636 C   0  0  0  0  0  0
  -22.7237  -10.2132   20.3032 C   0  0  0  0  0  0
  -21.6849   -6.0743   22.5277 C   0  0  0  0  0  0
  -21.4016   -6.5643   23.8212 C   0  0  0  0  0  0
  -21.3657   -5.6787   24.9174 C   0  0  0  0  0  0
  -21.6037   -4.3047   24.7215 C   0  0  0  0  0  0
  -21.8817   -3.8151   23.4336 C   0  0  0  0  0  0
  -21.9191   -4.6970   22.3397 C   0  0  0  0  0  0
  -22.7850  -13.5234   21.1819 C   0  0  0  0  0  0
  -22.1660   -4.2157   21.0973 F   0  0  0  0  0  0
  -21.5618   -3.4526   25.7726 F   0  0  0  0  0  0
  -30.0497  -13.2279   20.4541 N   0  0  0  0  0  0
  -26.3053  -12.9368   20.3453 N   0  0  0  0  0  0
  -25.9329  -11.6516   20.5785 N   0  0  0  0  0  0
  -22.0495  -12.8210   22.0374 N   0  0  0  0  0  0
  -25.4289  -15.1899   20.4172 N   0  0  0  0  0  0
  -31.8514  -14.5653   20.0717 O   0  0  0  0  0  0
  -21.6628   -6.8887   21.4239 O   0  0  0  0  0  0
  -22.3532  -14.5561   20.6717 O   0  0  0  0  0  0
  -24.6089  -31.8725   23.2145 C   0  0  0  0  0  0
  -25.9016  -32.4839   23.8420 C   0  0  1  0  0  0
  -27.2367  -27.4835   20.0853 C   0  0  0  0  0  0
  -25.5896  -33.8643   24.2352 N   0  0  0  0  0  0
  -23.3917  -30.4965   21.5541 C   0  0  2  0  0  0
  -24.8381  -28.9623   20.1216 C   0  0  0  0  0  0
  -22.7355  -29.4687   22.5029 C   0  0  0  0  0  0
  -18.0247  -28.1354   22.8496 C   0  0  0  0  0  0
  -24.1480  -36.7337   23.2640 C   0  0  0  0  0  0
  -25.9154  -30.8511   21.3594 C   0  0  0  0  0  0
  -25.9943  -29.4871   20.7115 C   0  0  0  0  0  0
  -27.1978  -28.7549   20.6893 C   0  0  0  0  0  0
  -26.0660  -26.9587   19.4943 C   0  0  0  0  0  0
  -24.8653  -27.6931   19.5151 C   0  0  0  0  0  0
  -23.5983  -29.8255   20.1701 C   0  0  0  0  0  0
  -25.4095  -36.3132   24.0346 C   0  0  1  0  0  0
  -20.5834  -28.3641   23.1345 C   0  0  2  0  0  0
  -20.6739  -26.9386   22.5427 C   0  0  0  0  0  0
  -19.5736  -26.6377   21.5208 C   0  0  0  0  0  0
  -18.1906  -26.7907   22.1612 C   0  0  0  0  0  0
  -19.1497  -28.8809   23.2914 C   0  0  0  0  0  0
  -18.9438  -30.1415   23.8923 C   0  0  0  0  0  0
  -17.6454  -30.6585   24.0553 C   0  0  0  0  0  0
  -25.9030  -34.9495   23.5146 C   0  0  0  0  0  0
  -16.5337  -29.9096   23.6319 C   0  0  0  0  0  0
  -16.7238  -28.6495   23.0358 C   0  0  0  0  0  0
  -26.4471  -31.6604   25.0737 C   0  0  0  0  0  0
  -25.3753  -31.3713   26.1500 C   0  0  0  0  0  0
  -27.0303  -30.3045   24.6093 C   0  0  0  0  0  0
  -27.6065  -32.4293   25.7501 C   0  0  0  0  0  0
  -27.5587  -37.1811   24.8447 C   0  0  0  0  0  0
  -21.4092  -29.3030   22.3770 N   0  0  0  0  0  0
  -26.4271  -37.3825   23.9435 N   0  0  0  0  0  0
  -24.6566  -31.0861   22.1023 N   0  0  0  0  0  0
  -23.4164  -28.8228   23.3036 O   0  0  0  0  0  0
  -28.4310  -26.8156   20.0254 O   0  0  0  0  0  0
  -26.5587  -34.8941   22.4704 O   0  0  0  0  0  0
  -23.5300  -32.1466   23.7575 O   0  0  0  0  0  0
  -31.2872  -18.7356   20.1327 C   0  0  0  0  0  0
  -31.3481  -17.4056   20.5848 C   0  0  0  0  0  0
  -28.8862  -18.7472   20.4896 C   0  0  0  0  0  0
  -30.0514  -19.4238   20.0502 C   0  0  0  0  0  0
  -30.1634  -16.7185   20.9320 C   0  0  0  0  0  0
  -28.9405  -17.4069   20.9113 C   0  0  0  0  0  0
  -29.7105  -23.5572   19.3808 C   0  0  0  0  0  0
  -31.0013  -22.9630   19.0358 C   0  0  0  0  0  0
  -28.5208  -22.7099   19.0908 C   0  0  0  0  0  0
  -32.0032  -23.7080   18.5315 C   0  0  0  0  0  0
  -29.6435  -24.7556   20.0090 C   0  0  0  0  0  0
  -31.2240  -21.4712   19.2398 C   0  0  0  0  0  0
  -28.7784  -21.2143   18.8605 C   0  0  0  0  0  0
  -28.4450  -25.5033   20.5619 C   0  0  0  0  0  0
  -29.9876  -20.7468   19.5545 N   0  0  0  0  0  0
  -30.1266  -15.3463   21.2823 N   0  0  0  0  0  0
  -27.3630  -23.1234   18.9914 O   0  0  0  0  0  0
  -27.8051  -16.7599   21.2677 F   0  0  0  0  0  0
  -31.4529  -12.3358   19.0988 H   0  0  0  0  0  0
  -30.2734  -11.2458   19.7657 H   0  0  0  0  0  0
  -29.7043  -11.8409   17.3825 H   0  0  0  0  0  0
  -29.6647  -13.5336   17.8066 H   0  0  0  0  0  0
  -27.7936  -11.3440   18.7723 H   0  0  0  0  0  0
  -27.3556  -12.7143   17.7894 H   0  0  0  0  0  0
  -27.7214  -14.2681   19.6234 H   0  0  0  0  0  0
  -28.6592  -11.9115   21.3234 H   0  0  0  0  0  0
  -28.4780  -13.5397   21.8891 H   0  0  0  0  0  0
  -25.2754   -9.5687   22.4739 H   0  0  0  0  0  0
  -23.9990   -7.4635   22.7465 H   0  0  0  0  0  0
  -21.0822   -8.8778   19.8954 H   0  0  0  0  0  0
  -22.3695  -10.9659   19.6128 H   0  0  0  0  0  0
  -21.2018   -7.6150   23.9722 H   0  0  0  0  0  0
  -21.1474   -6.0513   25.9076 H   0  0  0  0  0  0
  -22.0597   -2.7612   23.2818 H   0  0  0  0  0  0
  -22.4102  -11.9845   22.4713 H   0  0  0  0  0  0
  -21.1130  -13.1251   22.2623 H   0  0  0  0  0  0
  -24.6758  -15.8467   20.5841 H   0  0  0  0  0  0
  -26.3269  -15.6438   20.2903 H   0  0  0  0  0  0
  -26.7081  -32.5573   23.1184 H   0  0  0  0  0  0
  -25.0018  -33.9807   25.0476 H   0  0  0  0  0  0
  -22.6770  -31.3111   21.4186 H   0  0  0  0  0  0
  -23.3753  -35.9658   23.3263 H   0  0  0  0  0  0
  -24.3582  -36.8986   22.2060 H   0  0  0  0  0  0
  -23.7212  -37.6528   23.6665 H   0  0  0  0  0  0
  -26.0150  -31.6175   20.5897 H   0  0  0  0  0  0
  -26.8080  -30.9081   21.9707 H   0  0  0  0  0  0
  -28.0960  -29.1661   21.1288 H   0  0  0  0  0  0
  -26.0831  -25.9984   18.9978 H   0  0  0  0  0  0
  -23.9755  -27.2851   19.0555 H   0  0  0  0  0  0
  -23.7017  -30.5984   19.4074 H   0  0  0  0  0  0
  -22.7231  -29.2415   19.8798 H   0  0  0  0  0  0
  -25.1255  -36.1999   25.0839 H   0  0  0  0  0  0
  -20.9917  -28.3197   24.1467 H   0  0  0  0  0  0
  -20.5624  -26.2252   23.3605 H   0  0  0  0  0  0
  -21.6620  -26.7430   22.1242 H   0  0  0  0  0  0
  -19.6902  -25.6292   21.1226 H   0  0  0  0  0  0
  -19.6687  -27.3186   20.6737 H   0  0  0  0  0  0
  -17.4189  -26.6652   21.4002 H   0  0  0  0  0  0
  -18.0307  -26.0030   22.8990 H   0  0  0  0  0  0
  -19.7931  -30.7186   24.2332 H   0  0  0  0  0  0
  -17.5036  -31.6277   24.5133 H   0  0  0  0  0  0
  -15.5343  -30.3015   23.7642 H   0  0  0  0  0  0
  -15.8631  -28.0822   22.7087 H   0  0  0  0  0  0
  -24.5888  -30.7101   25.7844 H   0  0  0  0  0  0
  -24.8987  -32.2878   26.4986 H   0  0  0  0  0  0
  -25.8114  -30.8850   27.0235 H   0  0  0  0  0  0
  -26.2851  -29.6800   24.1149 H   0  0  0  0  0  0
  -27.4080  -29.7281   25.4553 H   0  0  0  0  0  0
  -27.8680  -30.4350   23.9235 H   0  0  0  0  0  0
  -27.2704  -33.3579   26.2122 H   0  0  0  0  0  0
  -28.3883  -32.6862   25.0343 H   0  0  0  0  0  0
  -28.0732  -31.8379   26.5387 H   0  0  0  0  0  0
  -28.2561  -38.0154   24.7572 H   0  0  0  0  0  0
  -28.1122  -36.2690   24.6156 H   0  0  0  0  0  0
  -27.2328  -37.1338   25.8853 H   0  0  0  0  0  0
  -20.9233  -29.8776   21.7029 H   0  0  0  0  0  0
  -26.0162  -38.2898   24.1482 H   0  0  0  0  0  0
  -32.2179  -19.1951   19.8349 H   0  0  0  0  0  0
  -32.3110  -16.9191   20.6237 H   0  0  0  0  0  0
  -27.9206  -19.2240   20.5137 H   0  0  0  0  0  0
  -31.9025  -24.7694   18.3570 H   0  0  0  0  0  0
  -32.9517  -23.2568   18.2761 H   0  0  0  0  0  0
  -30.5710  -25.2729   20.2010 H   0  0  0  0  0  0
  -31.9514  -21.3698   20.0470 H   0  0  0  0  0  0
  -31.6651  -21.0536   18.3322 H   0  0  0  0  0  0
  -28.9051  -21.0540   17.7895 H   0  0  0  0  0  0
  -27.8774  -20.6746   19.1401 H   0  0  0  0  0  0
  -28.5861  -25.5871   21.6400 H   0  0  0  0  0  0
  -27.5033  -24.9803   20.4341 H   0  0  0  0  0  0
  -29.2570  -15.0498   21.7010 H   0  0  0  0  0  0
  1 25  1  0  0  0
  1 30  2  0  0  0
  1 86  1  0  0  0
  2  3  1  0  0  0
  2 25  1  0  0  0
  2 89  1  0  0  0
  2 90  1  0  0  0
  3  4  1  0  0  0
  3 91  1  0  0  0
  3 92  1  0  0  0
  4  5  1  0  0  0
  4 93  1  0  0  0
  4 94  1  0  0  0
  5  6  1  0  0  0
  5 26  1  0  0  0
  5 95  1  0  0  0
  6 25  1  0  0  0
  6 96  1  0  0  0
  6 97  1  0  0  0
  7  8  2  0  0  0
  7 26  1  0  0  0
  7 29  1  0  0  0
  8  9  1  0  0  0
  8 22  1  0  0  0
  9 10  1  0  0  0
  9 27  2  0  0  0
 10 11  2  0  0  0
 10 15  1  0  0  0
 11 12  1  0  0  0
 11 98  1  0  0  0
 12 13  2  0  0  0
 12 99  1  0  0  0
 13 14  1  0  0  0
 13 31  1  0  0  0
 14 15  2  0  0  0
 14100  1  0  0  0
 15101  1  0  0  0
 16 17  2  0  0  0
 16 21  1  0  0  0
 16 31  1  0  0  0
 17 18  1  0  0  0
 17102  1  0  0  0
 18 19  2  0  0  0
 18103  1  0  0  0
 19 20  1  0  0  0
 19 24  1  0  0  0
 20 21  2  0  0  0
 20104  1  0  0  0
 21 23  1  0  0  0
 22 28  1  0  0  0
 22 32  2  0  0  0
 26 27  1  0  0  0
 28105  1  0  0  0
 28106  1  0  0  0
 29107  1  0  0  0
 29108  1  0  0  0
 33 34  1  0  0  0
 33 66  1  0  0  0
 33 70  2  0  0  0
 34 36  1  0  0  0
 34 59  1  0  0  0
 34109  1  0  0  0
 35 44  2  0  0  0
 35 45  1  0  0  0
 35 68  1  0  0  0
 36 56  1  0  0  0
 36110  1  0  0  0
 37 39  1  0  0  0
 37 47  1  0  0  0
 37 66  1  0  0  0
 37111  1  0  0  0
 38 43  2  0  0  0
 38 46  1  0  0  0
 38 47  1  0  0  0
 39 64  1  0  0  0
 39 67  2  0  0  0
 40 52  1  0  0  0
 40 53  2  0  0  0
 40 58  1  0  0  0
 41112  1  0  0  0
 41113  1  0  0  0
 41114  1  0  0  0
 41 48  1  0  0  0
 42 43  1  0  0  0
 42 66  1  0  0  0
 42115  1  0  0  0
 42116  1  0  0  0
 43 44  1  0  0  0
 44117  1  0  0  0
 45 46  2  0  0  0
 45118  1  0  0  0
 46119  1  0  0  0
 47120  1  0  0  0
 47121  1  0  0  0
 48 56  1  0  0  0
 48 65  1  0  0  0
 48122  1  0  0  0
 49 50  1  0  0  0
 49 53  1  0  0  0
 49 64  1  0  0  0
 49123  1  0  0  0
 50 51  1  0  0  0
 50124  1  0  0  0
 50125  1  0  0  0
 51 52  1  0  0  0
 51126  1  0  0  0
 51127  1  0  0  0
 52128  1  0  0  0
 52129  1  0  0  0
 53 54  1  0  0  0
 54 55  2  0  0  0
 54130  1  0  0  0
 55 57  1  0  0  0
 55131  1  0  0  0
 56 69  2  0  0  0
 57 58  2  0  0  0
 57132  1  0  0  0
 58133  1  0  0  0
 59 60  1  0  0  0
 59 61  1  0  0  0
 59 62  1  0  0  0
 60134  1  0  0  0
 60135  1  0  0  0
 60136  1  0  0  0
 61137  1  0  0  0
 61138  1  0  0  0
 61139  1  0  0  0
 62140  1  0  0  0
 62141  1  0  0  0
 62142  1  0  0  0
 63 65  1  0  0  0
 63143  1  0  0  0
 63144  1  0  0  0
 63145  1  0  0  0
 64146  1  0  0  0
 65147  1  0  0  0
 68 84  1  0  0  0
 71 72  2  0  0  0
 71 74  1  0  0  0
 71148  1  0  0  0
 72 75  1  0  0  0
 72149  1  0  0  0
 73 74  2  0  0  0
 73 76  1  0  0  0
 73150  1  0  0  0
 74 85  1  0  0  0
 75 76  2  0  0  0
 75 86  1  0  0  0
 76 88  1  0  0  0
 77 78  1  0  0  0
 77 79  1  0  0  0
 77 81  2  0  0  0
 78 80  2  0  0  0
 78 82  1  0  0  0
 79 83  1  0  0  0
 79 87  2  0  0  0
 80151  1  0  0  0
 80152  1  0  0  0
 81 84  1  0  0  0
 81153  1  0  0  0
 82 85  1  0  0  0
 82154  1  0  0  0
 82155  1  0  0  0
 83 85  1  0  0  0
 83156  1  0  0  0
 83157  1  0  0  0
 84158  1  0  0  0
 84159  1  0  0  0
 86160  1  0  0  0
M  ISO  4   1 100  68 101  84 101  86 100
M  END
> <chiral flag>
0

> <version>
0

> <s_m_source_file>
/data/baiqing/PycharmProjects/Reinvent-master-3.2/result/LINK_invent/BTK/process_docking_weight1_custom_product_contain_oxygen_bond_distance_aromatic_linkinvent_7_9_3/rearranged_h_0079.sdf

> <i_m_source_file_index>
41

> <r_mmod_Potential_Energy-OPLS-2005>
-14.4411649703979

> <r_mmod_Stretch_Energy-OPLS-2005>
35.256950378418

> <r_mmod_Bend_Energy-OPLS-2005>
116.469573974609

> <r_mmod_Torsional_Energy-OPLS-2005>
241.04753112793

> <r_mmod_Improper_Torsional_Energy-OPLS-2005>
6.84936332702637

> <r_mmod_Van_der_Waal_Energy-OPLS-2005>
189.226318359375

> <r_mmod_Electrostatic_Energy-OPLS-2005>
-396.744354248047

> <r_mmod_Solvation_Energy-OPLS-2005>
-215.281997680664

> <b_mmod_Minimization_Converged-OPLS-2005>
0

> <r_mmod_RMS_Derivative-OPLS-2005>
1.98786509037018

$$$$
41
                    3D
 Structure written by MMmdl.
165174  0  0  1  0            999 V2000
  -30.3873  -15.3401   20.4320 C   0  0  0  0  0  0
  -30.4464  -12.8718   19.5422 C   0  0  0  0  0  0
  -29.5517  -12.6296   18.2945 C   0  0  0  0  0  0
  -28.1004  -12.3155   18.7020 C   0  0  0  0  0  0
  -27.6126  -13.2682   19.8185 C   0  0  2  0  0  0
  -28.6331  -13.3973   20.9581 C   0  0  0  0  0  0
  -25.2404  -13.8196   20.5718 C   0  0  0  0  0  0
  -24.1725  -13.0415   20.9223 C   0  0  0  0  0  0
  -24.6355  -11.6905   20.8694 C   0  0  0  0  0  0
  -23.9062  -10.4277   21.0385 C   0  0  0  0  0  0
  -24.3606   -9.4213   21.9196 C   0  0  0  0  0  0
  -23.6265   -8.2259   22.0789 C   0  0  0  0  0  0
  -22.4238   -8.0279   21.3587 C   0  0  0  0  0  0
  -21.9867   -9.0259   20.4693 C   0  0  0  0  0  0
  -22.7217  -10.2126   20.3072 C   0  0  0  0  0  0
  -21.6851   -6.0714   22.5270 C   0  0  0  0  0  0
  -21.4035   -6.5624   23.8212 C   0  0  0  0  0  0
  -21.3666   -5.6771   24.9166 C   0  0  0  0  0  0
  -21.6040   -4.3038   24.7198 C   0  0  0  0  0  0
  -21.8827   -3.8138   23.4315 C   0  0  0  0  0  0
  -21.9201   -4.6949   22.3376 C   0  0  0  0  0  0
  -22.7764  -13.5206   21.1897 C   0  0  0  0  0  0
  -22.1654   -4.2136   21.0962 F   0  0  0  0  0  0
  -21.5626   -3.4534   25.7732 F   0  0  0  0  0  0
  -29.8586  -13.9991   20.3773 N   0  0  0  0  0  0
  -26.2784  -12.9452   20.3086 N   0  0  0  0  0  0
  -25.9279  -11.6562   20.5555 N   0  0  0  0  0  0
  -22.0385  -12.8233   22.0445 N   0  0  0  0  0  0
  -25.4103  -15.1937   20.4297 N   0  0  0  0  0  0
  -31.5795  -15.3560   20.0858 O   0  0  0  0  0  0
  -21.6623   -6.8858   21.4250 O   0  0  0  0  0  0
  -22.3450  -14.5516   20.6755 O   0  0  0  0  0  0
  -24.6650  -31.8223   23.1689 C   0  0  0  0  0  0
  -25.9318  -32.4575   23.8146 C   0  0  1  0  0  0
  -27.1958  -26.8825   20.2097 C   0  0  0  0  0  0
  -25.5996  -33.8398   24.2056 N   0  0  0  0  0  0
  -23.4779  -30.4328   21.5211 C   0  0  2  0  0  0
  -24.9229  -28.8025   20.1269 C   0  0  0  0  0  0
  -22.7654  -29.4435   22.4818 C   0  0  0  0  0  0
  -18.0317  -28.1410   22.8443 C   0  0  0  0  0  0
  -24.1506  -36.7204   23.2642 C   0  0  0  0  0  0
  -26.0493  -30.6127   21.4044 C   0  0  0  0  0  0
  -26.1117  -29.1949   20.7586 C   0  0  0  0  0  0
  -27.2446  -28.2611   20.7678 C   0  0  0  0  0  0
  -25.9773  -26.6478   19.5379 C   0  0  0  0  0  0
  -24.8838  -27.5490   19.4968 C   0  0  0  0  0  0
  -23.7176  -29.7415   20.1511 C   0  0  0  0  0  0
  -25.4147  -36.2953   24.0290 C   0  0  1  0  0  0
  -20.5941  -28.3747   23.1197 C   0  0  2  0  0  0
  -20.6806  -26.9437   22.5394 C   0  0  0  0  0  0
  -19.5784  -26.6373   21.5209 C   0  0  0  0  0  0
  -18.1964  -26.7938   22.1612 C   0  0  0  0  0  0
  -19.1575  -28.8901   23.2801 C   0  0  0  0  0  0
  -18.9482  -30.1498   23.8829 C   0  0  0  0  0  0
  -17.6478  -30.6596   24.0550 C   0  0  0  0  0  0
  -25.9121  -34.9351   23.4998 C   0  0  0  0  0  0
  -16.5377  -29.9068   23.6354 C   0  0  0  0  0  0
  -16.7299  -28.6503   23.0344 C   0  0  0  0  0  0
  -26.4560  -31.6517   25.0679 C   0  0  0  0  0  0
  -25.3677  -31.3798   26.1322 C   0  0  0  0  0  0
  -27.0442  -30.2870   24.6452 C   0  0  0  0  0  0
  -27.6054  -32.4318   25.7477 C   0  0  0  0  0  0
  -27.5585  -37.1756   24.8458 C   0  0  0  0  0  0
  -21.4334  -29.3043   22.3562 N   0  0  0  0  0  0
  -26.4284  -37.3696   23.9404 N   0  0  0  0  0  0
  -24.7529  -30.9836   22.0854 N   0  0  0  0  0  0
  -23.4182  -28.8029   23.3091 O   0  0  0  0  0  0
  -28.2193  -25.7916   20.1628 O   0  0  0  0  0  0
  -26.5730  -34.8881   22.4594 O   0  0  0  0  0  0
  -23.5731  -32.1224   23.6771 O   0  0  0  0  0  0
  -31.2618  -19.9798   19.4412 C   0  0  0  0  0  0
  -30.9551  -18.6268   19.7728 C   0  0  0  0  0  0
  -28.8362  -19.4894   20.5080 C   0  0  0  0  0  0
  -29.1091  -20.9885   20.1826 C   0  0  0  0  0  0
  -30.4085  -21.1041   19.6397 C   0  0  0  0  0  0
  -29.7382  -18.2157   20.3674 C   0  0  0  0  0  0
  -31.9750  -23.7921   17.7760 C   0  0  0  0  0  0
  -32.5848  -23.9304   19.0740 C   0  0  0  0  0  0
  -32.1288  -24.6307   16.7352 C   0  0  0  0  0  0
  -33.5979  -24.7523   19.3997 C   0  0  0  0  0  0
  -28.1709  -17.2113   22.7444 C   0  0  0  0  0  0
  -29.0063  -16.4219   22.0461 C   0  0  0  0  0  0
  -31.0101  -22.6342   17.8124 C   0  0  0  0  0  0
  -31.9075  -22.9879   20.0328 C   0  0  0  0  0  0
  -28.1286  -22.4667   20.1203 C   0  0  0  0  0  0
  -28.2406  -24.2043   20.6849 C   0  0  0  0  0  0
  -30.8348  -22.3787   19.2459 N   0  0  0  0  0  0
  -29.6417  -16.6171   20.7938 N   0  0  0  0  0  0
  -31.4659  -13.0934   19.2186 H   0  0  0  0  0  0
  -30.5407  -11.9556   20.1286 H   0  0  0  0  0  0
  -29.9542  -11.8243   17.6792 H   0  0  0  0  0  0
  -29.5696  -13.5236   17.6655 H   0  0  0  0  0  0
  -28.0765  -11.2869   19.0656 H   0  0  0  0  0  0
  -27.4376  -12.3577   17.8368 H   0  0  0  0  0  0
  -27.5390  -14.2474   19.3460 H   0  0  0  0  0  0
  -28.8273  -12.4247   21.4085 H   0  0  0  0  0  0
  -28.1886  -13.9864   21.7515 H   0  0  0  0  0  0
  -25.2751   -9.5654   22.4772 H   0  0  0  0  0  0
  -23.9976   -7.4621   22.7474 H   0  0  0  0  0  0
  -21.0826   -8.8790   19.8958 H   0  0  0  0  0  0
  -22.3708  -10.9676   19.6165 H   0  0  0  0  0  0
  -21.2045   -7.6146   23.9714 H   0  0  0  0  0  0
  -21.1483   -6.0501   25.9077 H   0  0  0  0  0  0
  -22.0593   -2.7598   23.2823 H   0  0  0  0  0  0
  -22.3931  -11.9867   22.4849 H   0  0  0  0  0  0
  -21.1025  -13.1346   22.2677 H   0  0  0  0  0  0
  -24.6575  -15.8538   20.5799 H   0  0  0  0  0  0
  -26.2755  -15.6403   20.1562 H   0  0  0  0  0  0
  -26.7386  -32.5074   23.0855 H   0  0  0  0  0  0
  -25.0048  -33.9462   25.0138 H   0  0  0  0  0  0
  -22.7917  -31.2641   21.3453 H   0  0  0  0  0  0
  -23.3780  -35.9518   23.3262 H   0  0  0  0  0  0
  -24.3593  -36.8898   22.2063 H   0  0  0  0  0  0
  -23.7262  -37.6378   23.6743 H   0  0  0  0  0  0
  -26.2381  -31.3459   20.6184 H   0  0  0  0  0  0
  -26.9112  -30.6685   22.0593 H   0  0  0  0  0  0
  -28.1532  -28.5659   21.2669 H   0  0  0  0  0  0
  -25.8517  -25.6977   19.0402 H   0  0  0  0  0  0
  -23.9822  -27.2396   18.9862 H   0  0  0  0  0  0
  -23.8845  -30.5033   19.3883 H   0  0  0  0  0  0
  -22.8224  -29.2039   19.8342 H   0  0  0  0  0  0
  -25.1352  -36.1745   25.0787 H   0  0  0  0  0  0
  -21.0018  -28.3366   24.1324 H   0  0  0  0  0  0
  -20.5710  -26.2375   23.3640 H   0  0  0  0  0  0
  -21.6678  -26.7441   22.1214 H   0  0  0  0  0  0
  -19.6969  -25.6269   21.1283 H   0  0  0  0  0  0
  -19.6721  -27.3146   20.6718 H   0  0  0  0  0  0
  -17.4241  -26.6665   21.4017 H   0  0  0  0  0  0
  -18.0351  -26.0086   22.9025 H   0  0  0  0  0  0
  -19.7959  -30.7336   24.2161 H   0  0  0  0  0  0
  -17.5028  -31.6264   24.5165 H   0  0  0  0  0  0
  -15.5377  -30.2945   23.7725 H   0  0  0  0  0  0
  -15.8700  -28.0816   22.7081 H   0  0  0  0  0  0
  -24.5839  -30.7176   25.7639 H   0  0  0  0  0  0
  -24.8872  -32.3001   26.4641 H   0  0  0  0  0  0
  -25.7863  -30.9012   27.0177 H   0  0  0  0  0  0
  -26.3109  -29.6523   24.1462 H   0  0  0  0  0  0
  -27.3955  -29.7255   25.5122 H   0  0  0  0  0  0
  -27.9067  -30.4011   23.9879 H   0  0  0  0  0  0
  -27.2642  -33.3663   26.1935 H   0  0  0  0  0  0
  -28.3927  -32.6808   25.0350 H   0  0  0  0  0  0
  -28.0656  -31.8517   26.5481 H   0  0  0  0  0  0
  -28.2577  -38.0077   24.7522 H   0  0  0  0  0  0
  -28.1105  -36.2609   24.6262 H   0  0  0  0  0  0
  -27.2301  -37.1374   25.8855 H   0  0  0  0  0  0
  -20.9625  -29.8671   21.6625 H   0  0  0  0  0  0
  -26.0131  -38.2760   24.1372 H   0  0  0  0  0  0
  -32.2292  -20.1611   18.9943 H   0  0  0  0  0  0
  -31.7218  -17.8918   19.5773 H   0  0  0  0  0  0
  -27.8255  -19.3324   20.8492 H   0  0  0  0  0  0
  -32.7829  -25.4881   16.7823 H   0  0  0  0  0  0
  -31.5782  -24.4818   15.8171 H   0  0  0  0  0  0
  -34.0601  -25.4068   18.6756 H   0  0  0  0  0  0
  -33.9887  -24.7743   20.4094 H   0  0  0  0  0  0
  -27.8152  -16.8617   23.7048 H   0  0  0  0  0  0
  -27.8124  -18.1743   22.4489 H   0  0  0  0  0  0
  -29.2840  -15.5050   22.5463 H   0  0  0  0  0  0
  -31.4378  -21.7719   17.2962 H   0  0  0  0  0  0
  -30.0626  -22.8874   17.3322 H   0  0  0  0  0  0
  -31.5050  -23.5324   20.8880 H   0  0  0  0  0  0
  -32.6124  -22.2377   20.3979 H   0  0  0  0  0  0
  -27.1897  -22.1251   20.5561 H   0  0  0  0  0  0
  -27.8700  -22.5553   19.0668 H   0  0  0  0  0  0
  -29.1665  -24.1908   21.2583 H   0  0  0  0  0  0
  -27.4884  -24.2405   21.4748 H   0  0  0  0  0  0
  1 25  1  0  0  0
  1 30  2  0  0  0
  1 88  1  0  0  0
  2  3  1  0  0  0
  2 25  1  0  0  0
  2 89  1  0  0  0
  2 90  1  0  0  0
  3  4  1  0  0  0
  3 91  1  0  0  0
  3 92  1  0  0  0
  4  5  1  0  0  0
  4 93  1  0  0  0
  4 94  1  0  0  0
  5  6  1  0  0  0
  5 26  1  0  0  0
  5 95  1  0  0  0
  6 25  1  0  0  0
  6 96  1  0  0  0
  6 97  1  0  0  0
  7  8  2  0  0  0
  7 26  1  0  0  0
  7 29  1  0  0  0
  8  9  1  0  0  0
  8 22  1  0  0  0
  9 10  1  0  0  0
  9 27  2  0  0  0
 10 11  2  0  0  0
 10 15  1  0  0  0
 11 12  1  0  0  0
 11 98  1  0  0  0
 12 13  2  0  0  0
 12 99  1  0  0  0
 13 14  1  0  0  0
 13 31  1  0  0  0
 14 15  2  0  0  0
 14100  1  0  0  0
 15101  1  0  0  0
 16 17  2  0  0  0
 16 21  1  0  0  0
 16 31  1  0  0  0
 17 18  1  0  0  0
 17102  1  0  0  0
 18 19  2  0  0  0
 18103  1  0  0  0
 19 20  1  0  0  0
 19 24  1  0  0  0
 20 21  2  0  0  0
 20104  1  0  0  0
 21 23  1  0  0  0
 22 28  1  0  0  0
 22 32  2  0  0  0
 26 27  1  0  0  0
 28105  1  0  0  0
 28106  1  0  0  0
 29107  1  0  0  0
 29108  1  0  0  0
 33 34  1  0  0  0
 33 66  1  0  0  0
 33 70  2  0  0  0
 34 36  1  0  0  0
 34 59  1  0  0  0
 34109  1  0  0  0
 35 44  2  0  0  0
 35 45  1  0  0  0
 35 68  1  0  0  0
 36 56  1  0  0  0
 36110  1  0  0  0
 37 39  1  0  0  0
 37 47  1  0  0  0
 37 66  1  0  0  0
 37111  1  0  0  0
 38 43  2  0  0  0
 38 46  1  0  0  0
 38 47  1  0  0  0
 39 64  1  0  0  0
 39 67  2  0  0  0
 40 52  1  0  0  0
 40 53  2  0  0  0
 40 58  1  0  0  0
 41112  1  0  0  0
 41113  1  0  0  0
 41114  1  0  0  0
 41 48  1  0  0  0
 42 43  1  0  0  0
 42 66  1  0  0  0
 42115  1  0  0  0
 42116  1  0  0  0
 43 44  1  0  0  0
 44117  1  0  0  0
 45 46  2  0  0  0
 45118  1  0  0  0
 46119  1  0  0  0
 47120  1  0  0  0
 47121  1  0  0  0
 48 56  1  0  0  0
 48 65  1  0  0  0
 48122  1  0  0  0
 49 50  1  0  0  0
 49 53  1  0  0  0
 49 64  1  0  0  0
 49123  1  0  0  0
 50 51  1  0  0  0
 50124  1  0  0  0
 50125  1  0  0  0
 51 52  1  0  0  0
 51126  1  0  0  0
 51127  1  0  0  0
 52128  1  0  0  0
 52129  1  0  0  0
 53 54  1  0  0  0
 54 55  2  0  0  0
 54130  1  0  0  0
 55 57  1  0  0  0
 55131  1  0  0  0
 56 69  2  0  0  0
 57 58  2  0  0  0
 57132  1  0  0  0
 58133  1  0  0  0
 59 60  1  0  0  0
 59 61  1  0  0  0
 59 62  1  0  0  0
 60134  1  0  0  0
 60135  1  0  0  0
 60136  1  0  0  0
 61137  1  0  0  0
 61138  1  0  0  0
 61139  1  0  0  0
 62140  1  0  0  0
 62141  1  0  0  0
 62142  1  0  0  0
 63 65  1  0  0  0
 63143  1  0  0  0
 63144  1  0  0  0
 63145  1  0  0  0
 64146  1  0  0  0
 65147  1  0  0  0
 68 86  1  0  0  0
 71 72  2  0  0  0
 71 75  1  0  0  0
 71148  1  0  0  0
 72 76  1  0  0  0
 72149  1  0  0  0
 73 74  1  0  0  0
 73 76  2  0  0  0
 73150  1  0  0  0
 74 75  2  0  0  0
 74 85  1  0  0  0
 75 87  1  0  0  0
 76 88  1  0  0  0
 77 78  1  0  0  0
 77 79  2  0  0  0
 77 83  1  0  0  0
 78 80  2  0  0  0
 78 84  1  0  0  0
 79151  1  0  0  0
 79152  1  0  0  0
 80153  1  0  0  0
 80154  1  0  0  0
 81 82  2  0  0  0
 81155  1  0  0  0
 81156  1  0  0  0
 82 88  1  0  0  0
 82157  1  0  0  0
 83 87  1  0  0  0
 83158  1  0  0  0
 83159  1  0  0  0
 84 87  1  0  0  0
 84160  1  0  0  0
 84161  1  0  0  0
 85 86  1  0  0  0
 85162  1  0  0  0
 85163  1  0  0  0
 86164  1  0  0  0
 86165  1  0  0  0
M  ISO  4   1 100  68 101  86 101  88 100
M  END
> <chiral flag>
0

> <version>
0

> <s_m_source_file>
/data/baiqing/PycharmProjects/Reinvent-master-3.2/result/LINK_invent/BTK/process_docking_weight1_custom_product_contain_oxygen_bond_distance_aromatic_linkinvent_7_9_3/rearranged_h_0079.sdf

> <i_m_source_file_index>
42

> <r_mmod_Potential_Energy-OPLS-2005>
1749.26330566406

> <r_mmod_Stretch_Energy-OPLS-2005>
691.684143066406

> <r_mmod_Bend_Energy-OPLS-2005>
590.401550292969

> <r_mmod_Torsional_Energy-OPLS-2005>
351.094909667969

> <r_mmod_Improper_Torsional_Energy-OPLS-2005>
8.66797065734863

> <r_mmod_Van_der_Waal_Energy-OPLS-2005>
141.273239135742

> <r_mmod_Electrostatic_Energy-OPLS-2005>
-347.961669921875

> <r_mmod_Solvation_Energy-OPLS-2005>
-199.828247070312

> <b_mmod_Minimization_Converged-OPLS-2005>
0

> <r_mmod_RMS_Derivative-OPLS-2005>
4.87199258804321

$$$$
42
                    3D
 Structure written by MMmdl.
153161  0  0  1  0            999 V2000
  -30.5894  -14.7992   20.4546 C   0  0  0  0  0  0
  -30.4357  -12.4922   19.4775 C   0  0  0  0  0  0
  -29.5162  -12.5108   18.2379 C   0  0  0  0  0  0
  -28.0405  -12.3287   18.6464 C   0  0  0  0  0  0
  -27.6341  -13.2352   19.8395 C   0  0  2  0  0  0
  -28.6786  -13.1950   20.9739 C   0  0  0  0  0  0
  -25.2466  -13.8194   20.5666 C   0  0  0  0  0  0
  -24.1776  -13.0432   20.9204 C   0  0  0  0  0  0
  -24.6382  -11.6920   20.8742 C   0  0  0  0  0  0
  -23.9067  -10.4299   21.0395 C   0  0  0  0  0  0
  -24.3618   -9.4213   21.9173 C   0  0  0  0  0  0
  -23.6300   -8.2238   22.0742 C   0  0  0  0  0  0
  -22.4281   -8.0272   21.3539 C   0  0  0  0  0  0
  -21.9918   -9.0245   20.4647 C   0  0  0  0  0  0
  -22.7237  -10.2132   20.3055 C   0  0  0  0  0  0
  -21.6856   -6.0733   22.5282 C   0  0  0  0  0  0
  -21.4017   -6.5635   23.8216 C   0  0  0  0  0  0
  -21.3668   -5.6787   24.9176 C   0  0  0  0  0  0
  -21.6045   -4.3051   24.7228 C   0  0  0  0  0  0
  -21.8816   -3.8149   23.4347 C   0  0  0  0  0  0
  -21.9183   -4.6963   22.3401 C   0  0  0  0  0  0
  -22.7795  -13.5216   21.1861 C   0  0  0  0  0  0
  -22.1649   -4.2148   21.0978 F   0  0  0  0  0  0
  -21.5629   -3.4536   25.7738 F   0  0  0  0  0  0
  -29.9712  -13.5667   20.3857 N   0  0  0  0  0  0
  -26.2893  -12.9408   20.3224 N   0  0  0  0  0  0
  -25.9304  -11.6555   20.5728 N   0  0  0  0  0  0
  -22.0430  -12.8248   22.0441 N   0  0  0  0  0  0
  -25.4119  -15.1926   20.4081 N   0  0  0  0  0  0
  -31.7943  -14.8762   20.1904 O   0  0  0  0  0  0
  -21.6642   -6.8881   21.4243 O   0  0  0  0  0  0
  -22.3497  -14.5511   20.6674 O   0  0  0  0  0  0
  -24.6317  -31.8509   23.1955 C   0  0  0  0  0  0
  -25.9130  -32.4730   23.8321 C   0  0  1  0  0  0
  -27.2341  -27.2438   20.1570 C   0  0  0  0  0  0
  -25.5920  -33.8533   24.2250 N   0  0  0  0  0  0
  -23.4324  -30.4696   21.5370 C   0  0  2  0  0  0
  -24.8832  -28.9032   20.1190 C   0  0  0  0  0  0
  -22.7496  -29.4585   22.4895 C   0  0  0  0  0  0
  -18.0293  -28.1404   22.8484 C   0  0  0  0  0  0
  -24.1489  -36.7293   23.2642 C   0  0  0  0  0  0
  -25.9776  -30.7608   21.3760 C   0  0  0  0  0  0
  -26.0545  -29.3780   20.7247 C   0  0  0  0  0  0
  -27.2324  -28.5638   20.7248 C   0  0  0  0  0  0
  -26.0424  -26.8294   19.5286 C   0  0  0  0  0  0
  -24.8830  -27.6364   19.5093 C   0  0  0  0  0  0
  -23.6548  -29.7927   20.1574 C   0  0  0  0  0  0
  -25.4113  -36.3059   24.0334 C   0  0  1  0  0  0
  -20.5892  -28.3710   23.1264 C   0  0  2  0  0  0
  -20.6781  -26.9424   22.5408 C   0  0  0  0  0  0
  -19.5765  -26.6393   21.5211 C   0  0  0  0  0  0
  -18.1944  -26.7950   22.1619 C   0  0  0  0  0  0
  -19.1540  -28.8877   23.2872 C   0  0  0  0  0  0
  -18.9458  -30.1482   23.8890 C   0  0  0  0  0  0
  -17.6455  -30.6599   24.0571 C   0  0  0  0  0  0
  -25.9055  -34.9427   23.5103 C   0  0  0  0  0  0
  -16.5352  -29.9102   23.6332 C   0  0  0  0  0  0
  -16.7278  -28.6519   23.0353 C   0  0  0  0  0  0
  -26.4498  -31.6562   25.0722 C   0  0  0  0  0  0
  -25.3707  -31.3733   26.1437 C   0  0  0  0  0  0
  -27.0347  -30.2968   24.6238 C   0  0  0  0  0  0
  -27.6059  -32.4310   25.7488 C   0  0  0  0  0  0
  -27.5584  -37.1794   24.8461 C   0  0  0  0  0  0
  -21.4201  -29.3049   22.3633 N   0  0  0  0  0  0
  -26.4289  -37.3759   23.9410 N   0  0  0  0  0  0
  -24.7000  -31.0467   22.0929 N   0  0  0  0  0  0
  -23.4165  -28.8131   23.3022 O   0  0  0  0  0  0
  -28.3574  -26.3821   20.1348 O   0  0  0  0  0  0
  -26.5635  -34.8901   22.4677 O   0  0  0  0  0  0
  -23.5467  -32.1340   23.7244 O   0  0  0  0  0  0
  -31.6462  -19.1112   21.6453 C   0  0  0  0  0  0
  -30.8280  -20.1807   21.2162 C   0  0  0  0  0  0
  -31.3105  -17.7606   21.4023 C   0  0  0  0  0  0
  -29.2868  -18.5322   20.3101 C   0  0  0  0  0  0
  -29.6158  -19.9456   20.5314 C   0  0  0  0  0  0
  -30.1230  -17.4013   20.7246 C   0  0  0  0  0  0
  -28.8045  -21.1617   19.9500 C   0  0  0  0  0  0
  -28.3391  -23.6656   20.0002 C   0  0  0  0  0  0
  -27.5164  -25.0017   22.0926 C   0  0  0  0  0  0
  -28.4221  -25.0391   20.8458 C   0  0  2  0  0  0
  -29.7920  -15.9476   20.5526 N   0  0  0  0  0  0
  -28.8729  -22.4564   20.4770 N   0  0  0  0  0  0
  -28.0866  -20.9020   18.9793 O   0  0  0  0  0  0
  -27.7780  -23.7412   18.9020 O   0  0  0  0  0  0
  -31.4757  -12.6253   19.1803 H   0  0  0  0  0  0
  -30.3896  -11.5253   19.9809 H   0  0  0  0  0  0
  -29.8150  -11.7310   17.5363 H   0  0  0  0  0  0
  -29.6347  -13.4570   17.7080 H   0  0  0  0  0  0
  -27.9004  -11.2812   18.9157 H   0  0  0  0  0  0
  -27.3883  -12.5053   17.7901 H   0  0  0  0  0  0
  -27.6175  -14.2518   19.4455 H   0  0  0  0  0  0
  -28.7279  -12.2016   21.4225 H   0  0  0  0  0  0
  -28.4019  -13.8796   21.7770 H   0  0  0  0  0  0
  -25.2758   -9.5695   22.4752 H   0  0  0  0  0  0
  -24.0004   -7.4645   22.7471 H   0  0  0  0  0  0
  -21.0832   -8.8781   19.8982 H   0  0  0  0  0  0
  -22.3679  -10.9667   19.6178 H   0  0  0  0  0  0
  -21.2021   -7.6153   23.9727 H   0  0  0  0  0  0
  -21.1490   -6.0513   25.9082 H   0  0  0  0  0  0
  -22.0587   -2.7606   23.2841 H   0  0  0  0  0  0
  -22.4024  -11.9949   22.4908 H   0  0  0  0  0  0
  -21.1037  -13.1284   22.2582 H   0  0  0  0  0  0
  -24.6390  -15.8402   20.5252 H   0  0  0  0  0  0
  -26.2493  -15.6409   20.0616 H   0  0  0  0  0  0
  -26.7200  -32.5365   23.1067 H   0  0  0  0  0  0
  -25.0019  -33.9659   25.0365 H   0  0  0  0  0  0
  -22.7311  -31.2914   21.3814 H   0  0  0  0  0  0
  -23.3745  -35.9628   23.3291 H   0  0  0  0  0  0
  -24.3584  -36.8926   22.2056 H   0  0  0  0  0  0
  -23.7233  -37.6495   23.6667 H   0  0  0  0  0  0
  -26.1136  -31.5186   20.6028 H   0  0  0  0  0  0
  -26.8553  -30.8141   22.0096 H   0  0  0  0  0  0
  -28.1353  -28.9289   21.1935 H   0  0  0  0  0  0
  -26.0039  -25.8569   19.0592 H   0  0  0  0  0  0
  -23.9858  -27.2646   19.0350 H   0  0  0  0  0  0
  -23.7845  -30.5624   19.3957 H   0  0  0  0  0  0
  -22.7729  -29.2264   19.8531 H   0  0  0  0  0  0
  -25.1284  -36.1920   25.0827 H   0  0  0  0  0  0
  -20.9988  -28.3293   24.1388 H   0  0  0  0  0  0
  -20.5695  -26.2307   23.3610 H   0  0  0  0  0  0
  -21.6643  -26.7467   22.1188 H   0  0  0  0  0  0
  -19.6929  -25.6300   21.1255 H   0  0  0  0  0  0
  -19.6721  -27.3185   20.6732 H   0  0  0  0  0  0
  -17.4213  -26.6700   21.4023 H   0  0  0  0  0  0
  -18.0351  -26.0099   22.9024 H   0  0  0  0  0  0
  -19.7938  -30.7313   24.2237 H   0  0  0  0  0  0
  -17.5014  -31.6268   24.5187 H   0  0  0  0  0  0
  -15.5354  -30.3006   23.7669 H   0  0  0  0  0  0
  -15.8672  -28.0845   22.7066 H   0  0  0  0  0  0
  -24.5864  -30.7117   25.7752 H   0  0  0  0  0  0
  -24.8928  -32.2911   26.4868 H   0  0  0  0  0  0
  -25.8003  -30.8883   27.0205 H   0  0  0  0  0  0
  -26.2943  -29.6705   24.1253 H   0  0  0  0  0  0
  -27.3988  -29.7253   25.4787 H   0  0  0  0  0  0
  -27.8832  -30.4235   23.9512 H   0  0  0  0  0  0
  -27.2671  -33.3607   26.2071 H   0  0  0  0  0  0
  -28.3849  -32.6874   25.0297 H   0  0  0  0  0  0
  -28.0741  -31.8429   26.5389 H   0  0  0  0  0  0
  -28.2588  -38.0105   24.7498 H   0  0  0  0  0  0
  -28.1090  -36.2630   24.6283 H   0  0  0  0  0  0
  -27.2303  -37.1430   25.8864 H   0  0  0  0  0  0
  -20.9398  -29.8739   21.6807 H   0  0  0  0  0  0
  -26.0178  -38.2836   24.1411 H   0  0  0  0  0  0
  -32.5635  -19.3365   22.1719 H   0  0  0  0  0  0
  -31.1657  -21.1911   21.4035 H   0  0  0  0  0  0
  -31.9814  -16.9963   21.7693 H   0  0  0  0  0  0
  -28.3724  -18.3202   19.7740 H   0  0  0  0  0  0
  -26.4730  -25.2048   21.8512 H   0  0  0  0  0  0
  -27.8404  -25.7389   22.8277 H   0  0  0  0  0  0
  -27.5543  -24.0280   22.5838 H   0  0  0  0  0  0
  -29.4432  -25.0161   21.2309 H   0  0  0  0  0  0
  -28.8056  -15.7443   20.5182 H   0  0  0  0  0  0
  -29.3778  -22.5288   21.3441 H   0  0  0  0  0  0
  1 25  1  0  0  0
  1 30  2  0  0  0
  1 81  1  0  0  0
  2  3  1  0  0  0
  2 25  1  0  0  0
  2 85  1  0  0  0
  2 86  1  0  0  0
  3  4  1  0  0  0
  3 87  1  0  0  0
  3 88  1  0  0  0
  4  5  1  0  0  0
  4 89  1  0  0  0
  4 90  1  0  0  0
  5  6  1  0  0  0
  5 26  1  0  0  0
  5 91  1  0  0  0
  6 25  1  0  0  0
  6 92  1  0  0  0
  6 93  1  0  0  0
  7  8  2  0  0  0
  7 26  1  0  0  0
  7 29  1  0  0  0
  8  9  1  0  0  0
  8 22  1  0  0  0
  9 10  1  0  0  0
  9 27  2  0  0  0
 10 11  2  0  0  0
 10 15  1  0  0  0
 11 12  1  0  0  0
 11 94  1  0  0  0
 12 13  2  0  0  0
 12 95  1  0  0  0
 13 14  1  0  0  0
 13 31  1  0  0  0
 14 15  2  0  0  0
 14 96  1  0  0  0
 15 97  1  0  0  0
 16 17  2  0  0  0
 16 21  1  0  0  0
 16 31  1  0  0  0
 17 18  1  0  0  0
 17 98  1  0  0  0
 18 19  2  0  0  0
 18 99  1  0  0  0
 19 20  1  0  0  0
 19 24  1  0  0  0
 20 21  2  0  0  0
 20100  1  0  0  0
 21 23  1  0  0  0
 22 28  1  0  0  0
 22 32  2  0  0  0
 26 27  1  0  0  0
 28101  1  0  0  0
 28102  1  0  0  0
 29103  1  0  0  0
 29104  1  0  0  0
 33 34  1  0  0  0
 33 66  1  0  0  0
 33 70  2  0  0  0
 34 36  1  0  0  0
 34 59  1  0  0  0
 34105  1  0  0  0
 35 44  2  0  0  0
 35 45  1  0  0  0
 35 68  1  0  0  0
 36 56  1  0  0  0
 36106  1  0  0  0
 37 39  1  0  0  0
 37 47  1  0  0  0
 37 66  1  0  0  0
 37107  1  0  0  0
 38 43  2  0  0  0
 38 46  1  0  0  0
 38 47  1  0  0  0
 39 64  1  0  0  0
 39 67  2  0  0  0
 40 52  1  0  0  0
 40 53  2  0  0  0
 40 58  1  0  0  0
 41108  1  0  0  0
 41109  1  0  0  0
 41110  1  0  0  0
 41 48  1  0  0  0
 42 43  1  0  0  0
 42 66  1  0  0  0
 42111  1  0  0  0
 42112  1  0  0  0
 43 44  1  0  0  0
 44113  1  0  0  0
 45 46  2  0  0  0
 45114  1  0  0  0
 46115  1  0  0  0
 47116  1  0  0  0
 47117  1  0  0  0
 48 56  1  0  0  0
 48 65  1  0  0  0
 48118  1  0  0  0
 49 50  1  0  0  0
 49 53  1  0  0  0
 49 64  1  0  0  0
 49119  1  0  0  0
 50 51  1  0  0  0
 50120  1  0  0  0
 50121  1  0  0  0
 51 52  1  0  0  0
 51122  1  0  0  0
 51123  1  0  0  0
 52124  1  0  0  0
 52125  1  0  0  0
 53 54  1  0  0  0
 54 55  2  0  0  0
 54126  1  0  0  0
 55 57  1  0  0  0
 55127  1  0  0  0
 56 69  2  0  0  0
 57 58  2  0  0  0
 57128  1  0  0  0
 58129  1  0  0  0
 59 60  1  0  0  0
 59 61  1  0  0  0
 59 62  1  0  0  0
 60130  1  0  0  0
 60131  1  0  0  0
 60132  1  0  0  0
 61133  1  0  0  0
 61134  1  0  0  0
 61135  1  0  0  0
 62136  1  0  0  0
 62137  1  0  0  0
 62138  1  0  0  0
 63 65  1  0  0  0
 63139  1  0  0  0
 63140  1  0  0  0
 63141  1  0  0  0
 64142  1  0  0  0
 65143  1  0  0  0
 68 80  1  0  0  0
 71 72  2  0  0  0
 71 73  1  0  0  0
 71144  1  0  0  0
 72 75  1  0  0  0
 72145  1  0  0  0
 73 76  2  0  0  0
 73146  1  0  0  0
 74 75  2  0  0  0
 74 76  1  0  0  0
 74147  1  0  0  0
 75 77  1  0  0  0
 76 81  1  0  0  0
 77 82  1  0  0  0
 77 83  2  0  0  0
 78 80  1  0  0  0
 78 82  1  0  0  0
 78 84  2  0  0  0
 79148  1  0  0  0
 79149  1  0  0  0
 79150  1  0  0  0
 79 80  1  0  0  0
 80151  1  0  0  0
 81152  1  0  0  0
 82153  1  0  0  0
M  ISO  4   1 100  68 101  80 101  81 100
M  END
> <chiral flag>
0

> <version>
0

> <s_m_source_file>
/data/baiqing/PycharmProjects/Reinvent-master-3.2/result/LINK_invent/BTK/process_docking_weight1_custom_product_contain_oxygen_bond_distance_aromatic_linkinvent_7_9_3/rearranged_h_0079.sdf

> <i_m_source_file_index>
43

> <r_mmod_Potential_Energy-OPLS-2005>
63.645866394043

> <r_mmod_Stretch_Energy-OPLS-2005>
144.944808959961

> <r_mmod_Bend_Energy-OPLS-2005>
180.962432861328

> <r_mmod_Torsional_Energy-OPLS-2005>
256.260711669922

> <r_mmod_Improper_Torsional_Energy-OPLS-2005>
6.81774616241455

> <r_mmod_Van_der_Waal_Energy-OPLS-2005>
132.841293334961

> <r_mmod_Electrostatic_Energy-OPLS-2005>
-481.985656738281

> <r_mmod_Solvation_Energy-OPLS-2005>
-276.688293457031

> <b_mmod_Minimization_Converged-OPLS-2005>
0

> <r_mmod_RMS_Derivative-OPLS-2005>
2.70299005508423

$$$$
43
                    3D
 Structure written by MMmdl.
156165  0  0  1  0            999 V2000
  -30.5163  -14.7795   20.4403 C   0  0  0  0  0  0
  -30.4476  -12.4672   19.4737 C   0  0  0  0  0  0
  -29.5115  -12.4990   18.2411 C   0  0  0  0  0  0
  -28.0384  -12.3098   18.6577 C   0  0  0  0  0  0
  -27.6385  -13.2137   19.8524 C   0  0  2  0  0  0
  -28.6857  -13.1250   20.9858 C   0  0  0  0  0  0
  -25.2495  -13.8155   20.5667 C   0  0  0  0  0  0
  -24.1791  -13.0402   20.9233 C   0  0  0  0  0  0
  -24.6345  -11.6874   20.8757 C   0  0  0  0  0  0
  -23.9017  -10.4259   21.0410 C   0  0  0  0  0  0
  -24.3579   -9.4176   21.9179 C   0  0  0  0  0  0
  -23.6269   -8.2214   22.0738 C   0  0  0  0  0  0
  -22.4253   -8.0250   21.3530 C   0  0  0  0  0  0
  -21.9863   -9.0220   20.4646 C   0  0  0  0  0  0
  -22.7182  -10.2099   20.3068 C   0  0  0  0  0  0
  -21.6856   -6.0706   22.5276 C   0  0  0  0  0  0
  -21.4016   -6.5627   23.8200 C   0  0  0  0  0  0
  -21.3656   -5.6789   24.9174 C   0  0  0  0  0  0
  -21.6061   -4.3048   24.7224 C   0  0  0  0  0  0
  -21.8827   -3.8124   23.4348 C   0  0  0  0  0  0
  -21.9184   -4.6936   22.3401 C   0  0  0  0  0  0
  -22.7824  -13.5196   21.1878 C   0  0  0  0  0  0
  -22.1663   -4.2122   21.0979 F   0  0  0  0  0  0
  -21.5606   -3.4529   25.7731 F   0  0  0  0  0  0
  -29.9817  -13.5097   20.4113 N   0  0  0  0  0  0
  -26.2901  -12.9317   20.3278 N   0  0  0  0  0  0
  -25.9275  -11.6487   20.5795 N   0  0  0  0  0  0
  -22.0457  -12.8233   22.0456 N   0  0  0  0  0  0
  -25.4143  -15.1888   20.3973 N   0  0  0  0  0  0
  -31.7014  -14.9633   20.1383 O   0  0  0  0  0  0
  -21.6631   -6.8839   21.4232 O   0  0  0  0  0  0
  -22.3519  -14.5471   20.6669 O   0  0  0  0  0  0
  -24.6309  -31.8543   23.1977 C   0  0  0  0  0  0
  -25.9137  -32.4745   23.8318 C   0  0  1  0  0  0
  -27.2210  -27.2663   20.1032 C   0  0  0  0  0  0
  -25.5934  -33.8542   24.2239 N   0  0  0  0  0  0
  -23.4263  -30.4797   21.5405 C   0  0  2  0  0  0
  -24.8731  -28.9291   20.1055 C   0  0  0  0  0  0
  -22.7500  -29.4606   22.4879 C   0  0  0  0  0  0
  -18.0313  -28.1394   22.8475 C   0  0  0  0  0  0
  -24.1489  -36.7279   23.2635 C   0  0  0  0  0  0
  -25.9738  -30.7674   21.3759 C   0  0  0  0  0  0
  -26.0467  -29.3905   20.7158 C   0  0  0  0  0  0
  -27.2224  -28.5691   20.7118 C   0  0  0  0  0  0
  -26.0125  -26.8662   19.4870 C   0  0  0  0  0  0
  -24.8593  -27.6722   19.4850 C   0  0  0  0  0  0
  -23.6426  -29.8176   20.1560 C   0  0  0  0  0  0
  -25.4109  -36.3053   24.0329 C   0  0  1  0  0  0
  -20.5914  -28.3712   23.1240 C   0  0  2  0  0  0
  -20.6799  -26.9421   22.5395 C   0  0  0  0  0  0
  -19.5783  -26.6383   21.5203 C   0  0  0  0  0  0
  -18.1964  -26.7935   22.1622 C   0  0  0  0  0  0
  -19.1569  -28.8869   23.2859 C   0  0  0  0  0  0
  -18.9484  -30.1467   23.8886 C   0  0  0  0  0  0
  -17.6485  -30.6577   24.0571 C   0  0  0  0  0  0
  -25.9062  -34.9422   23.5092 C   0  0  0  0  0  0
  -16.5375  -29.9084   23.6326 C   0  0  0  0  0  0
  -16.7304  -28.6508   23.0333 C   0  0  0  0  0  0
  -26.4509  -31.6554   25.0695 C   0  0  0  0  0  0
  -25.3741  -31.3733   26.1433 C   0  0  0  0  0  0
  -27.0346  -30.2956   24.6184 C   0  0  0  0  0  0
  -27.6078  -32.4289   25.7451 C   0  0  0  0  0  0
  -27.5579  -37.1777   24.8457 C   0  0  0  0  0  0
  -21.4212  -29.3043   22.3610 N   0  0  0  0  0  0
  -26.4277  -37.3755   23.9422 N   0  0  0  0  0  0
  -24.6968  -31.0509   22.0955 N   0  0  0  0  0  0
  -23.4181  -28.8167   23.2998 O   0  0  0  0  0  0
  -28.2864  -26.3332   20.1686 O   0  0  0  0  0  0
  -26.5654  -34.8913   22.4654 O   0  0  0  0  0  0
  -23.5449  -32.1370   23.7274 O   0  0  0  0  0  0
  -30.5081  -19.5778   20.0213 C   0  0  0  0  0  0
  -30.6629  -18.1582   20.2172 C   0  0  0  0  0  0
  -28.3018  -17.9793   20.5322 C   0  0  0  0  0  0
  -29.2501  -20.2529   20.0653 C   0  0  0  0  0  0
  -29.5567  -17.2905   20.4627 C   0  0  0  0  0  0
  -28.1422  -19.3944   20.3239 C   0  0  0  0  0  0
  -28.6188  -23.9450   19.1452 C   0  0  0  0  0  0
  -28.6526  -23.2152   17.8957 C   0  0  0  0  0  0
  -28.8514  -22.8796   20.1827 C   0  0  0  0  0  0
  -28.3056  -23.6821   16.6794 C   0  0  0  0  0  0
  -28.3913  -25.3264   19.1781 C   0  0  0  0  0  0
  -29.0311  -21.7820   18.1150 C   0  0  0  0  0  0
  -29.0813  -21.6445   19.5639 N   0  0  0  0  0  0
  -26.8580  -19.9351   20.2884 N   0  0  0  0  0  0
  -29.5972  -15.8062   20.6258 N   0  0  0  0  0  0
  -28.8532  -23.0508   21.4036 O   0  0  0  0  0  0
  -31.4807  -12.6345   19.1661 H   0  0  0  0  0  0
  -30.4257  -11.4868   19.9529 H   0  0  0  0  0  0
  -29.7894  -11.7252   17.5249 H   0  0  0  0  0  0
  -29.6276  -13.4545   17.7256 H   0  0  0  0  0  0
  -27.9105  -11.2603   18.9306 H   0  0  0  0  0  0
  -27.3756  -12.4824   17.8091 H   0  0  0  0  0  0
  -27.6277  -14.2319   19.4652 H   0  0  0  0  0  0
  -28.7305  -12.1114   21.3912 H   0  0  0  0  0  0
  -28.4098  -13.7718   21.8213 H   0  0  0  0  0  0
  -25.2707   -9.5655   22.4762 H   0  0  0  0  0  0
  -23.9955   -7.4615   22.7470 H   0  0  0  0  0  0
  -21.0762   -8.8740   19.8987 H   0  0  0  0  0  0
  -22.3607  -10.9642   19.6194 H   0  0  0  0  0  0
  -21.2028   -7.6141   23.9695 H   0  0  0  0  0  0
  -21.1478   -6.0524   25.9072 H   0  0  0  0  0  0
  -22.0600   -2.7582   23.2879 H   0  0  0  0  0  0
  -22.4067  -11.9914   22.4916 H   0  0  0  0  0  0
  -21.1092  -13.1308   22.2670 H   0  0  0  0  0  0
  -24.6099  -15.8048   20.4432 H   0  0  0  0  0  0
  -26.1894  -15.5922   19.8899 H   0  0  0  0  0  0
  -26.7199  -32.5391   23.1059 H   0  0  0  0  0  0
  -25.0015  -33.9646   25.0350 H   0  0  0  0  0  0
  -22.7239  -31.3034   21.3991 H   0  0  0  0  0  0
  -23.3737  -35.9626   23.3292 H   0  0  0  0  0  0
  -24.3586  -36.8909   22.2055 H   0  0  0  0  0  0
  -23.7267  -37.6483   23.6669 H   0  0  0  0  0  0
  -26.1111  -31.5271   20.6056 H   0  0  0  0  0  0
  -26.8515  -30.8143   22.0080 H   0  0  0  0  0  0
  -28.1146  -28.9140   21.2137 H   0  0  0  0  0  0
  -25.9245  -25.8888   19.0363 H   0  0  0  0  0  0
  -23.9552  -27.3039   19.0202 H   0  0  0  0  0  0
  -23.7676  -30.5972   19.4042 H   0  0  0  0  0  0
  -22.7597  -29.2556   19.8469 H   0  0  0  0  0  0
  -25.1285  -36.1887   25.0824 H   0  0  0  0  0  0
  -21.0028  -28.3323   24.1363 H   0  0  0  0  0  0
  -20.5700  -26.2337   23.3611 H   0  0  0  0  0  0
  -21.6672  -26.7427   22.1211 H   0  0  0  0  0  0
  -19.6944  -25.6302   21.1226 H   0  0  0  0  0  0
  -19.6716  -27.3202   20.6745 H   0  0  0  0  0  0
  -17.4219  -26.6667   21.4031 H   0  0  0  0  0  0
  -18.0382  -26.0080   22.9032 H   0  0  0  0  0  0
  -19.7956  -30.7295   24.2240 H   0  0  0  0  0  0
  -17.5029  -31.6253   24.5207 H   0  0  0  0  0  0
  -15.5375  -30.2985   23.7647 H   0  0  0  0  0  0
  -15.8709  -28.0830   22.7026 H   0  0  0  0  0  0
  -24.5858  -30.7165   25.7749 H   0  0  0  0  0  0
  -24.9031  -32.2934   26.4897 H   0  0  0  0  0  0
  -25.8052  -30.8833   27.0172 H   0  0  0  0  0  0
  -26.2919  -29.6693   24.1235 H   0  0  0  0  0  0
  -27.4045  -29.7240   25.4705 H   0  0  0  0  0  0
  -27.8795  -30.4219   23.9419 H   0  0  0  0  0  0
  -27.2681  -33.3560   26.2078 H   0  0  0  0  0  0
  -28.3850  -32.6885   25.0255 H   0  0  0  0  0  0
  -28.0791  -31.8385   26.5319 H   0  0  0  0  0  0
  -28.2579  -38.0087   24.7498 H   0  0  0  0  0  0
  -28.1088  -36.2617   24.6259 H   0  0  0  0  0  0
  -27.2313  -37.1401   25.8863 H   0  0  0  0  0  0
  -20.9407  -29.8716   21.6770 H   0  0  0  0  0  0
  -26.0145  -38.2816   24.1444 H   0  0  0  0  0  0
  -31.3833  -20.1628   19.7725 H   0  0  0  0  0  0
  -31.6531  -17.7341   20.1502 H   0  0  0  0  0  0
  -27.4036  -17.3980   20.7064 H   0  0  0  0  0  0
  -27.9790  -24.6928   16.4955 H   0  0  0  0  0  0
  -28.3265  -23.0249   15.8220 H   0  0  0  0  0  0
  -28.2668  -25.8271   18.2286 H   0  0  0  0  0  0
  -29.9987  -21.5558   17.6650 H   0  0  0  0  0  0
  -28.2757  -21.1173   17.6909 H   0  0  0  0  0  0
  -26.0926  -19.2957   20.0995 H   0  0  0  0  0  0
  -26.7571  -20.7982   19.7648 H   0  0  0  0  0  0
  -28.6888  -15.4101   20.8149 H   0  0  0  0  0  0
  1 25  1  0  0  0
  1 30  2  0  0  0
  1 85  1  0  0  0
  2  3  1  0  0  0
  2 25  1  0  0  0
  2 87  1  0  0  0
  2 88  1  0  0  0
  3  4  1  0  0  0
  3 89  1  0  0  0
  3 90  1  0  0  0
  4  5  1  0  0  0
  4 91  1  0  0  0
  4 92  1  0  0  0
  5  6  1  0  0  0
  5 26  1  0  0  0
  5 93  1  0  0  0
  6 25  1  0  0  0
  6 94  1  0  0  0
  6 95  1  0  0  0
  7  8  2  0  0  0
  7 26  1  0  0  0
  7 29  1  0  0  0
  8  9  1  0  0  0
  8 22  1  0  0  0
  9 10  1  0  0  0
  9 27  2  0  0  0
 10 11  2  0  0  0
 10 15  1  0  0  0
 11 12  1  0  0  0
 11 96  1  0  0  0
 12 13  2  0  0  0
 12 97  1  0  0  0
 13 14  1  0  0  0
 13 31  1  0  0  0
 14 15  2  0  0  0
 14 98  1  0  0  0
 15 99  1  0  0  0
 16 17  2  0  0  0
 16 21  1  0  0  0
 16 31  1  0  0  0
 17 18  1  0  0  0
 17100  1  0  0  0
 18 19  2  0  0  0
 18101  1  0  0  0
 19 20  1  0  0  0
 19 24  1  0  0  0
 20 21  2  0  0  0
 20102  1  0  0  0
 21 23  1  0  0  0
 22 28  1  0  0  0
 22 32  2  0  0  0
 26 27  1  0  0  0
 28103  1  0  0  0
 28104  1  0  0  0
 29105  1  0  0  0
 29106  1  0  0  0
 33 34  1  0  0  0
 33 66  1  0  0  0
 33 70  2  0  0  0
 34 36  1  0  0  0
 34 59  1  0  0  0
 34107  1  0  0  0
 35 44  2  0  0  0
 35 45  1  0  0  0
 35 68  1  0  0  0
 36 56  1  0  0  0
 36108  1  0  0  0
 37 39  1  0  0  0
 37 47  1  0  0  0
 37 66  1  0  0  0
 37109  1  0  0  0
 38 43  2  0  0  0
 38 46  1  0  0  0
 38 47  1  0  0  0
 39 64  1  0  0  0
 39 67  2  0  0  0
 40 52  1  0  0  0
 40 53  2  0  0  0
 40 58  1  0  0  0
 41110  1  0  0  0
 41111  1  0  0  0
 41112  1  0  0  0
 41 48  1  0  0  0
 42 43  1  0  0  0
 42 66  1  0  0  0
 42113  1  0  0  0
 42114  1  0  0  0
 43 44  1  0  0  0
 44115  1  0  0  0
 45 46  2  0  0  0
 45116  1  0  0  0
 46117  1  0  0  0
 47118  1  0  0  0
 47119  1  0  0  0
 48 56  1  0  0  0
 48 65  1  0  0  0
 48120  1  0  0  0
 49 50  1  0  0  0
 49 53  1  0  0  0
 49 64  1  0  0  0
 49121  1  0  0  0
 50 51  1  0  0  0
 50122  1  0  0  0
 50123  1  0  0  0
 51 52  1  0  0  0
 51124  1  0  0  0
 51125  1  0  0  0
 52126  1  0  0  0
 52127  1  0  0  0
 53 54  1  0  0  0
 54 55  2  0  0  0
 54128  1  0  0  0
 55 57  1  0  0  0
 55129  1  0  0  0
 56 69  2  0  0  0
 57 58  2  0  0  0
 57130  1  0  0  0
 58131  1  0  0  0
 59 60  1  0  0  0
 59 61  1  0  0  0
 59 62  1  0  0  0
 60132  1  0  0  0
 60133  1  0  0  0
 60134  1  0  0  0
 61135  1  0  0  0
 61136  1  0  0  0
 61137  1  0  0  0
 62138  1  0  0  0
 62139  1  0  0  0
 62140  1  0  0  0
 63 65  1  0  0  0
 63141  1  0  0  0
 63142  1  0  0  0
 63143  1  0  0  0
 64144  1  0  0  0
 65145  1  0  0  0
 68 81  1  0  0  0
 71 72  2  0  0  0
 71 74  1  0  0  0
 71146  1  0  0  0
 72 75  1  0  0  0
 72147  1  0  0  0
 73 75  2  0  0  0
 73 76  1  0  0  0
 73148  1  0  0  0
 74 76  2  0  0  0
 74 83  1  0  0  0
 75 85  1  0  0  0
 76 84  1  0  0  0
 77 78  1  0  0  0
 77 79  1  0  0  0
 77 81  2  0  0  0
 78 80  2  0  0  0
 78 82  1  0  0  0
 79 83  1  0  0  0
 79 86  2  0  0  0
 80149  1  0  0  0
 80150  1  0  0  0
 81151  1  0  0  0
 82 83  1  0  0  0
 82152  1  0  0  0
 82153  1  0  0  0
 84154  1  0  0  0
 84155  1  0  0  0
 85156  1  0  0  0
M  ISO  4   1 100  68 101  81 101  85 100
M  END
> <chiral flag>
0

> <version>
0

> <s_m_source_file>
/data/baiqing/PycharmProjects/Reinvent-master-3.2/result/LINK_invent/BTK/process_docking_weight1_custom_product_contain_oxygen_bond_distance_aromatic_linkinvent_7_9_3/rearranged_h_0079.sdf

> <i_m_source_file_index>
44

> <r_mmod_Potential_Energy-OPLS-2005>
358.3896484375

> <r_mmod_Stretch_Energy-OPLS-2005>
115.793884277344

> <r_mmod_Bend_Energy-OPLS-2005>
250.365341186523

> <r_mmod_Torsional_Energy-OPLS-2005>
303.773345947266

> <r_mmod_Improper_Torsional_Energy-OPLS-2005>
13.3254108428955

> <r_mmod_Van_der_Waal_Energy-OPLS-2005>
137.500335693359

> <r_mmod_Electrostatic_Energy-OPLS-2005>
-325.418426513672

> <r_mmod_Solvation_Energy-OPLS-2005>
-237.925064086914

> <b_mmod_Minimization_Converged-OPLS-2005>
0

> <r_mmod_RMS_Derivative-OPLS-2005>
4.46383094787598

$$$$
44
                    3D
 Structure written by MMmdl.
156164  0  0  1  0            999 V2000
  -30.6577  -14.5316   20.5352 C   0  0  0  0  0  0
  -30.4310  -12.3275   19.4349 C   0  0  0  0  0  0
  -29.5013  -12.5091   18.2152 C   0  0  0  0  0  0
  -28.0215  -12.3672   18.6236 C   0  0  0  0  0  0
  -27.6616  -13.2085   19.8768 C   0  0  2  0  0  0
  -28.7039  -13.0006   20.9989 C   0  0  0  0  0  0
  -25.2590  -13.8157   20.5677 C   0  0  0  0  0  0
  -24.1845  -13.0436   20.9175 C   0  0  0  0  0  0
  -24.6402  -11.6905   20.8741 C   0  0  0  0  0  0
  -23.9068  -10.4291   21.0413 C   0  0  0  0  0  0
  -24.3620   -9.4204   21.9188 C   0  0  0  0  0  0
  -23.6301   -8.2241   22.0755 C   0  0  0  0  0  0
  -22.4282   -8.0288   21.3546 C   0  0  0  0  0  0
  -21.9917   -9.0255   20.4645 C   0  0  0  0  0  0
  -22.7243  -10.2139   20.3063 C   0  0  0  0  0  0
  -21.6851   -6.0739   22.5282 C   0  0  0  0  0  0
  -21.4013   -6.5641   23.8216 C   0  0  0  0  0  0
  -21.3658   -5.6796   24.9175 C   0  0  0  0  0  0
  -21.6048   -4.3058   24.7225 C   0  0  0  0  0  0
  -21.8816   -3.8150   23.4345 C   0  0  0  0  0  0
  -21.9190   -4.6967   22.3402 C   0  0  0  0  0  0
  -22.7867  -13.5243   21.1840 C   0  0  0  0  0  0
  -22.1660   -4.2153   21.0979 F   0  0  0  0  0  0
  -21.5631   -3.4542   25.7737 F   0  0  0  0  0  0
  -30.0327  -13.3211   20.4478 N   0  0  0  0  0  0
  -26.3028  -12.9327   20.3371 N   0  0  0  0  0  0
  -25.9330  -11.6488   20.5778 N   0  0  0  0  0  0
  -22.0507  -12.8234   22.0394 N   0  0  0  0  0  0
  -25.4313  -15.1880   20.4073 N   0  0  0  0  0  0
  -31.7977  -14.7153   20.0993 O   0  0  0  0  0  0
  -21.6643   -6.8891   21.4243 O   0  0  0  0  0  0
  -22.3549  -14.5541   20.6689 O   0  0  0  0  0  0
  -24.6175  -31.8662   23.2081 C   0  0  0  0  0  0
  -25.9056  -32.4819   23.8383 C   0  0  1  0  0  0
  -27.2334  -27.3983   20.1008 C   0  0  0  0  0  0
  -25.5894  -33.8614   24.2313 N   0  0  0  0  0  0
  -23.4068  -30.4912   21.5489 C   0  0  2  0  0  0
  -24.8529  -28.9554   20.1128 C   0  0  0  0  0  0
  -22.7424  -29.4651   22.4963 C   0  0  0  0  0  0
  -18.0276  -28.1375   22.8493 C   0  0  0  0  0  0
  -24.1486  -36.7313   23.2637 C   0  0  0  0  0  0
  -25.9403  -30.8214   21.3675 C   0  0  0  0  0  0
  -26.0145  -29.4534   20.7143 C   0  0  0  0  0  0
  -27.2036  -28.6827   20.7048 C   0  0  0  0  0  0
  -26.0511  -26.9337   19.4778 C   0  0  0  0  0  0
  -24.8693  -27.6969   19.4907 C   0  0  0  0  0  0
  -23.6160  -29.8249   20.1635 C   0  0  0  0  0  0
  -25.4107  -36.3106   24.0335 C   0  0  1  0  0  0
  -20.5870  -28.3662   23.1310 C   0  0  2  0  0  0
  -20.6763  -26.9389   22.5422 C   0  0  0  0  0  0
  -19.5736  -26.6382   21.5219 C   0  0  0  0  0  0
  -18.1913  -26.7921   22.1630 C   0  0  0  0  0  0
  -19.1526  -28.8833   23.2903 C   0  0  0  0  0  0
  -18.9449  -30.1443   23.8910 C   0  0  0  0  0  0
  -17.6451  -30.6581   24.0566 C   0  0  0  0  0  0
  -25.9036  -34.9474   23.5128 C   0  0  0  0  0  0
  -16.5345  -29.9085   23.6326 C   0  0  0  0  0  0
  -16.7266  -28.6503   23.0346 C   0  0  0  0  0  0
  -26.4469  -31.6600   25.0721 C   0  0  0  0  0  0
  -25.3728  -31.3723   26.1467 C   0  0  0  0  0  0
  -27.0300  -30.3035   24.6122 C   0  0  0  0  0  0
  -27.6047  -32.4315   25.7475 C   0  0  0  0  0  0
  -27.5583  -37.1806   24.8462 C   0  0  0  0  0  0
  -21.4147  -29.3032   22.3711 N   0  0  0  0  0  0
  -26.4296  -37.3792   23.9407 N   0  0  0  0  0  0
  -24.6734  -31.0746   22.0992 N   0  0  0  0  0  0
  -23.4189  -28.8178   23.3002 O   0  0  0  0  0  0
  -28.4075  -26.6571   20.1339 O   0  0  0  0  0  0
  -26.5610  -34.8929   22.4693 O   0  0  0  0  0  0
  -23.5361  -32.1409   23.7471 O   0  0  0  0  0  0
  -28.4882  -18.9974   20.4988 C   0  0  0  0  0  0
  -30.7733  -19.0199   19.7042 C   0  0  0  0  0  0
  -28.6443  -17.6463   20.9002 C   0  0  0  0  0  0
  -30.9327  -17.6646   20.1001 C   0  0  0  0  0  0
  -29.5419  -19.6963   19.8737 C   0  0  0  0  0  0
  -29.8531  -16.9416   20.6728 C   0  0  0  0  0  0
  -29.2810  -21.0045   19.1706 C   0  0  0  0  0  0
  -29.2816  -22.8747   20.7240 C   0  0  0  0  0  0
  -29.0736  -24.3957   20.9578 C   0  0  0  0  0  0
  -29.6988  -22.0852   21.9641 C   0  0  0  0  0  0
  -28.3841  -25.2283   19.8490 C   0  0  0  0  0  0
  -29.1427  -22.3132   19.5703 N   0  0  0  0  0  0
  -29.8869  -15.5402   21.0166 N   0  0  0  0  0  0
  -29.1301  -20.8770   17.8934 N   0  3  0  0  0  0
  -29.4292  -24.9631   22.0002 O   0  0  0  0  0  0
  -31.4745  -12.4356   19.1323 H   0  0  0  0  0  0
  -30.3411  -11.3181   19.8411 H   0  0  0  0  0  0
  -29.7450  -11.7824   17.4395 H   0  0  0  0  0  0
  -29.6658  -13.4914   17.7703 H   0  0  0  0  0  0
  -27.8321  -11.3111   18.8197 H   0  0  0  0  0  0
  -27.3744  -12.6436   17.7905 H   0  0  0  0  0  0
  -27.7002  -14.2552   19.5753 H   0  0  0  0  0  0
  -28.6875  -11.9656   21.3441 H   0  0  0  0  0  0
  -28.4612  -13.6001   21.8769 H   0  0  0  0  0  0
  -25.2774   -9.5673   22.4748 H   0  0  0  0  0  0
  -24.0003   -7.4636   22.7482 H   0  0  0  0  0  0
  -21.0843   -8.8783   19.8955 H   0  0  0  0  0  0
  -22.3713  -10.9676   19.6171 H   0  0  0  0  0  0
  -21.2003   -7.6153   23.9718 H   0  0  0  0  0  0
  -21.1487   -6.0528   25.9080 H   0  0  0  0  0  0
  -22.0596   -2.7614   23.2847 H   0  0  0  0  0  0
  -22.4130  -11.9895   22.4778 H   0  0  0  0  0  0
  -21.1131  -13.1270   22.2611 H   0  0  0  0  0  0
  -24.6604  -15.8410   20.5016 H   0  0  0  0  0  0
  -26.2679  -15.6160   20.0337 H   0  0  0  0  0  0
  -26.7129  -32.5515   23.1145 H   0  0  0  0  0  0
  -25.0027  -33.9770   25.0447 H   0  0  0  0  0  0
  -22.6956  -31.3083   21.4102 H   0  0  0  0  0  0
  -23.3749  -35.9648   23.3305 H   0  0  0  0  0  0
  -24.3584  -36.8924   22.2054 H   0  0  0  0  0  0
  -23.7240  -37.6518   23.6651 H   0  0  0  0  0  0
  -26.0592  -31.5860   20.5986 H   0  0  0  0  0  0
  -26.8256  -30.8733   21.9892 H   0  0  0  0  0  0
  -28.0984  -29.0640   21.1760 H   0  0  0  0  0  0
  -26.0078  -25.9890   18.9598 H   0  0  0  0  0  0
  -23.9787  -27.3127   19.0117 H   0  0  0  0  0  0
  -23.7240  -30.6001   19.4046 H   0  0  0  0  0  0
  -22.7396  -29.2455   19.8678 H   0  0  0  0  0  0
  -25.1286  -36.1974   25.0832 H   0  0  0  0  0  0
  -20.9975  -28.3236   24.1423 H   0  0  0  0  0  0
  -20.5662  -26.2266   23.3611 H   0  0  0  0  0  0
  -21.6628  -26.7419   22.1210 H   0  0  0  0  0  0
  -19.6889  -25.6298   21.1231 H   0  0  0  0  0  0
  -19.6682  -27.3214   20.6763 H   0  0  0  0  0  0
  -17.4183  -26.6677   21.4029 H   0  0  0  0  0  0
  -18.0307  -26.0064   22.9025 H   0  0  0  0  0  0
  -19.7924  -30.7257   24.2280 H   0  0  0  0  0  0
  -17.5006  -31.6265   24.5159 H   0  0  0  0  0  0
  -15.5346  -30.2987   23.7649 H   0  0  0  0  0  0
  -15.8665  -28.0840   22.7039 H   0  0  0  0  0  0
  -24.5888  -30.7088   25.7799 H   0  0  0  0  0  0
  -24.8941  -32.2894   26.4912 H   0  0  0  0  0  0
  -25.8075  -30.8882   27.0222 H   0  0  0  0  0  0
  -26.2856  -29.6792   24.1172 H   0  0  0  0  0  0
  -27.4047  -29.7279   25.4594 H   0  0  0  0  0  0
  -27.8696  -30.4336   23.9292 H   0  0  0  0  0  0
  -27.2671  -33.3608   26.2069 H   0  0  0  0  0  0
  -28.3841  -32.6881   25.0289 H   0  0  0  0  0  0
  -28.0726  -31.8424   26.5370 H   0  0  0  0  0  0
  -28.2605  -38.0099   24.7515 H   0  0  0  0  0  0
  -28.1074  -36.2635   24.6282 H   0  0  0  0  0  0
  -27.2301  -37.1449   25.8864 H   0  0  0  0  0  0
  -20.9295  -29.8776   21.6960 H   0  0  0  0  0  0
  -26.0186  -38.2871   24.1412 H   0  0  0  0  0  0
  -27.5312  -19.4830   20.6070 H   0  0  0  0  0  0
  -31.5846  -19.5297   19.2092 H   0  0  0  0  0  0
  -27.7952  -17.1409   21.3394 H   0  0  0  0  0  0
  -31.8829  -17.1872   19.9129 H   0  0  0  0  0  0
  -29.8298  -22.7165   22.8422 H   0  0  0  0  0  0
  -30.6530  -21.5898   21.7897 H   0  0  0  0  0  0
  -28.9412  -21.3455   22.2201 H   0  0  0  0  0  0
  -27.3814  -24.8191   19.7640 H   0  0  0  0  0  0
  -28.8892  -25.0462   18.9005 H   0  0  0  0  0  0
  -29.0407  -15.1966   21.4444 H   0  0  0  0  0  0
  -29.1963  -19.9807   17.4153 H   0  0  0  0  0  0
  -28.9430  -21.6724   17.2919 H   0  0  0  0  0  0
  1 25  1  0  0  0
  1 30  2  0  0  0
  1 83  1  0  0  0
  2  3  1  0  0  0
  2 25  1  0  0  0
  2 86  1  0  0  0
  2 87  1  0  0  0
  3  4  1  0  0  0
  3 88  1  0  0  0
  3 89  1  0  0  0
  4  5  1  0  0  0
  4 90  1  0  0  0
  4 91  1  0  0  0
  5  6  1  0  0  0
  5 26  1  0  0  0
  5 92  1  0  0  0
  6 25  1  0  0  0
  6 93  1  0  0  0
  6 94  1  0  0  0
  7  8  2  0  0  0
  7 26  1  0  0  0
  7 29  1  0  0  0
  8  9  1  0  0  0
  8 22  1  0  0  0
  9 10  1  0  0  0
  9 27  2  0  0  0
 10 11  2  0  0  0
 10 15  1  0  0  0
 11 12  1  0  0  0
 11 95  1  0  0  0
 12 13  2  0  0  0
 12 96  1  0  0  0
 13 14  1  0  0  0
 13 31  1  0  0  0
 14 15  2  0  0  0
 14 97  1  0  0  0
 15 98  1  0  0  0
 16 17  2  0  0  0
 16 21  1  0  0  0
 16 31  1  0  0  0
 17 18  1  0  0  0
 17 99  1  0  0  0
 18 19  2  0  0  0
 18100  1  0  0  0
 19 20  1  0  0  0
 19 24  1  0  0  0
 20 21  2  0  0  0
 20101  1  0  0  0
 21 23  1  0  0  0
 22 28  1  0  0  0
 22 32  2  0  0  0
 26 27  1  0  0  0
 28102  1  0  0  0
 28103  1  0  0  0
 29104  1  0  0  0
 29105  1  0  0  0
 33 34  1  0  0  0
 33 66  1  0  0  0
 33 70  2  0  0  0
 34 36  1  0  0  0
 34 59  1  0  0  0
 34106  1  0  0  0
 35 44  2  0  0  0
 35 45  1  0  0  0
 35 68  1  0  0  0
 36 56  1  0  0  0
 36107  1  0  0  0
 37 39  1  0  0  0
 37 47  1  0  0  0
 37 66  1  0  0  0
 37108  1  0  0  0
 38 43  2  0  0  0
 38 46  1  0  0  0
 38 47  1  0  0  0
 39 64  1  0  0  0
 39 67  2  0  0  0
 40 52  1  0  0  0
 40 53  2  0  0  0
 40 58  1  0  0  0
 41109  1  0  0  0
 41110  1  0  0  0
 41111  1  0  0  0
 41 48  1  0  0  0
 42 43  1  0  0  0
 42 66  1  0  0  0
 42112  1  0  0  0
 42113  1  0  0  0
 43 44  1  0  0  0
 44114  1  0  0  0
 45 46  2  0  0  0
 45115  1  0  0  0
 46116  1  0  0  0
 47117  1  0  0  0
 47118  1  0  0  0
 48 56  1  0  0  0
 48 65  1  0  0  0
 48119  1  0  0  0
 49 50  1  0  0  0
 49 53  1  0  0  0
 49 64  1  0  0  0
 49120  1  0  0  0
 50 51  1  0  0  0
 50121  1  0  0  0
 50122  1  0  0  0
 51 52  1  0  0  0
 51123  1  0  0  0
 51124  1  0  0  0
 52125  1  0  0  0
 52126  1  0  0  0
 53 54  1  0  0  0
 54 55  2  0  0  0
 54127  1  0  0  0
 55 57  1  0  0  0
 55128  1  0  0  0
 56 69  2  0  0  0
 57 58  2  0  0  0
 57129  1  0  0  0
 58130  1  0  0  0
 59 60  1  0  0  0
 59 61  1  0  0  0
 59 62  1  0  0  0
 60131  1  0  0  0
 60132  1  0  0  0
 60133  1  0  0  0
 61134  1  0  0  0
 61135  1  0  0  0
 61136  1  0  0  0
 62137  1  0  0  0
 62138  1  0  0  0
 62139  1  0  0  0
 63 65  1  0  0  0
 63140  1  0  0  0
 63141  1  0  0  0
 63142  1  0  0  0
 64143  1  0  0  0
 65144  1  0  0  0
 68 81  1  0  0  0
 71 73  2  0  0  0
 71 75  1  0  0  0
 71145  1  0  0  0
 72 74  1  0  0  0
 72 75  2  0  0  0
 72146  1  0  0  0
 73 76  1  0  0  0
 73147  1  0  0  0
 74 76  2  0  0  0
 74148  1  0  0  0
 75 77  1  0  0  0
 76 83  1  0  0  0
 77 82  1  0  0  0
 77 84  2  0  0  0
 78 79  1  0  0  0
 78 80  1  0  0  0
 78 82  2  0  0  0
 79 81  1  0  0  0
 79 85  2  0  0  0
 80149  1  0  0  0
 80150  1  0  0  0
 80151  1  0  0  0
 81152  1  0  0  0
 81153  1  0  0  0
 83154  1  0  0  0
 84155  1  0  0  0
 84156  1  0  0  0
M  CHG  1  84   1
M  ISO  4   1 100  68 101  81 101  83 100
M  END
> <chiral flag>
0

> <version>
0

> <s_m_source_file>
/data/baiqing/PycharmProjects/Reinvent-master-3.2/result/LINK_invent/BTK/process_docking_weight1_custom_product_contain_oxygen_bond_distance_aromatic_linkinvent_7_9_3/rearranged_h_0079.sdf

> <i_m_source_file_index>
45

> <r_mmod_Potential_Energy-OPLS-2005>
36.460205078125

> <r_mmod_Stretch_Energy-OPLS-2005>
56.4751243591309

> <r_mmod_Bend_Energy-OPLS-2005>
149.986206054688

> <r_mmod_Torsional_Energy-OPLS-2005>
240.209274291992

> <r_mmod_Improper_Torsional_Energy-OPLS-2005>
6.19827508926392

> <r_mmod_Van_der_Waal_Energy-OPLS-2005>
155.58561706543

> <r_mmod_Electrostatic_Energy-OPLS-2005>
-99.8755874633789

> <r_mmod_Solvation_Energy-OPLS-2005>
-491.814025878906

> <b_mmod_Minimization_Converged-OPLS-2005>
0

> <r_mmod_RMS_Derivative-OPLS-2005>
1.75113570690155

$$$$
45
                    3D
 Structure written by MMmdl.
151159  0  0  1  0            999 V2000
  -30.6998  -14.5291   20.5356 C   0  0  0  0  0  0
  -30.4199  -12.3306   19.4404 C   0  0  0  0  0  0
  -29.4967  -12.4938   18.2154 C   0  0  0  0  0  0
  -28.0192  -12.3503   18.6294 C   0  0  0  0  0  0
  -27.6559  -13.2141   19.8671 C   0  0  2  0  0  0
  -28.7000  -13.0482   20.9953 C   0  0  0  0  0  0
  -25.2567  -13.8175   20.5682 C   0  0  0  0  0  0
  -24.1830  -13.0444   20.9187 C   0  0  0  0  0  0
  -24.6395  -11.6913   20.8744 C   0  0  0  0  0  0
  -23.9064  -10.4294   21.0408 C   0  0  0  0  0  0
  -24.3614   -9.4208   21.9185 C   0  0  0  0  0  0
  -23.6289   -8.2243   22.0756 C   0  0  0  0  0  0
  -22.4272   -8.0281   21.3544 C   0  0  0  0  0  0
  -21.9907   -9.0255   20.4648 C   0  0  0  0  0  0
  -22.7236  -10.2135   20.3058 C   0  0  0  0  0  0
  -21.6854   -6.0734   22.5277 C   0  0  0  0  0  0
  -21.4014   -6.5639   23.8210 C   0  0  0  0  0  0
  -21.3658   -5.6791   24.9172 C   0  0  0  0  0  0
  -21.6044   -4.3054   24.7223 C   0  0  0  0  0  0
  -21.8819   -3.8145   23.4345 C   0  0  0  0  0  0
  -21.9191   -4.6960   22.3402 C   0  0  0  0  0  0
  -22.7851  -13.5235   21.1843 C   0  0  0  0  0  0
  -22.1661   -4.2146   21.0980 F   0  0  0  0  0  0
  -21.5628   -3.4539   25.7738 F   0  0  0  0  0  0
  -30.0244  -13.3484   20.4308 N   0  0  0  0  0  0
  -26.3001  -12.9356   20.3344 N   0  0  0  0  0  0
  -25.9324  -11.6512   20.5774 N   0  0  0  0  0  0
  -22.0494  -12.8228   22.0402 N   0  0  0  0  0  0
  -25.4285  -15.1893   20.4082 N   0  0  0  0  0  0
  -31.8484  -14.6492   20.1036 O   0  0  0  0  0  0
  -21.6639   -6.8877   21.4240 O   0  0  0  0  0  0
  -22.3535  -14.5539   20.6692 O   0  0  0  0  0  0
  -24.6189  -31.8653   23.2094 C   0  0  0  0  0  0
  -25.9062  -32.4814   23.8395 C   0  0  1  0  0  0
  -27.2254  -27.4007   20.1044 C   0  0  0  0  0  0
  -25.5903  -33.8613   24.2321 N   0  0  0  0  0  0
  -23.4094  -30.4905   21.5500 C   0  0  2  0  0  0
  -24.8574  -28.9608   20.1077 C   0  0  0  0  0  0
  -22.7439  -29.4647   22.4967 C   0  0  0  0  0  0
  -18.0277  -28.1387   22.8488 C   0  0  0  0  0  0
  -24.1484  -36.7311   23.2640 C   0  0  0  0  0  0
  -25.9432  -30.8217   21.3694 C   0  0  0  0  0  0
  -26.0215  -29.4567   20.7107 C   0  0  0  0  0  0
  -27.2123  -28.6844   20.7074 C   0  0  0  0  0  0
  -26.0485  -26.9414   19.4719 C   0  0  0  0  0  0
  -24.8676  -27.7041   19.4816 C   0  0  0  0  0  0
  -23.6198  -29.8292   20.1627 C   0  0  0  0  0  0
  -25.4108  -36.3109   24.0338 C   0  0  1  0  0  0
  -20.5870  -28.3680   23.1302 C   0  0  2  0  0  0
  -20.6766  -26.9411   22.5417 C   0  0  0  0  0  0
  -19.5744  -26.6390   21.5215 C   0  0  0  0  0  0
  -18.1922  -26.7930   22.1624 C   0  0  0  0  0  0
  -19.1527  -28.8851   23.2889 C   0  0  0  0  0  0
  -18.9459  -30.1453   23.8905 C   0  0  0  0  0  0
  -17.6460  -30.6590   24.0568 C   0  0  0  0  0  0
  -25.9037  -34.9473   23.5127 C   0  0  0  0  0  0
  -16.5350  -29.9095   23.6327 C   0  0  0  0  0  0
  -16.7265  -28.6511   23.0348 C   0  0  0  0  0  0
  -26.4476  -31.6603   25.0734 C   0  0  0  0  0  0
  -25.3735  -31.3722   26.1481 C   0  0  0  0  0  0
  -27.0310  -30.3037   24.6139 C   0  0  0  0  0  0
  -27.6051  -32.4329   25.7492 C   0  0  0  0  0  0
  -27.5582  -37.1810   24.8466 C   0  0  0  0  0  0
  -21.4163  -29.3038   22.3706 N   0  0  0  0  0  0
  -26.4293  -37.3794   23.9413 N   0  0  0  0  0  0
  -24.6754  -31.0730   22.1011 N   0  0  0  0  0  0
  -23.4189  -28.8181   23.3020 O   0  0  0  0  0  0
  -28.3209  -26.5526   20.1647 O   0  0  0  0  0  0
  -26.5603  -34.8927   22.4691 O   0  0  0  0  0  0
  -23.5371  -32.1419   23.7464 O   0  0  0  0  0  0
  -32.0504  -18.7731   21.2200 C   0  0  0  0  0  0
  -31.0542  -19.7666   21.1725 C   0  0  0  0  0  0
  -31.7109  -17.4083   21.1505 C   0  0  0  0  0  0
  -29.3668  -18.0176   20.9709 C   0  0  0  0  0  0
  -29.6935  -19.4090   21.0479 C   0  0  0  0  0  0
  -30.3624  -16.9976   21.0114 C   0  0  0  0  0  0
  -28.6825  -24.1200   20.4187 C   0  0  0  0  0  0
  -28.0360  -25.2898   20.6760 C   0  0  0  0  0  0
  -28.6024  -20.4684   21.1232 C   0  0  0  0  0  0
  -28.1499  -22.8685   20.9909 C   0  0  0  0  0  0
  -29.9811  -15.6013   20.9640 N   0  0  0  0  0  0
  -28.9146  -21.7570   20.7995 N   0  0  0  0  0  0
  -27.4722  -20.0949   21.4595 O   0  0  0  0  0  0
  -27.0725  -22.8401   21.5993 O   0  0  0  0  0  0
  -31.4652  -12.4170   19.1387 H   0  0  0  0  0  0
  -30.3182  -11.3323   19.8688 H   0  0  0  0  0  0
  -29.7443  -11.7516   17.4554 H   0  0  0  0  0  0
  -29.6582  -13.4699   17.7552 H   0  0  0  0  0  0
  -27.8413  -11.2971   18.8503 H   0  0  0  0  0  0
  -27.3662  -12.5981   17.7917 H   0  0  0  0  0  0
  -27.6841  -14.2531   19.5383 H   0  0  0  0  0  0
  -28.6870  -12.0285   21.3828 H   0  0  0  0  0  0
  -28.4621  -13.6904   21.8445 H   0  0  0  0  0  0
  -25.2762   -9.5680   22.4758 H   0  0  0  0  0  0
  -23.9996   -7.4635   22.7479 H   0  0  0  0  0  0
  -21.0836   -8.8774   19.8956 H   0  0  0  0  0  0
  -22.3695  -10.9672   19.6165 H   0  0  0  0  0  0
  -21.2011   -7.6148   23.9711 H   0  0  0  0  0  0
  -21.1480   -6.0525   25.9074 H   0  0  0  0  0  0
  -22.0601   -2.7608   23.2848 H   0  0  0  0  0  0
  -22.4106  -11.9888   22.4789 H   0  0  0  0  0  0
  -21.1116  -13.1258   22.2619 H   0  0  0  0  0  0
  -24.6613  -15.8443   20.5146 H   0  0  0  0  0  0
  -26.2753  -15.6259   20.0668 H   0  0  0  0  0  0
  -26.7132  -32.5519   23.1158 H   0  0  0  0  0  0
  -25.0049  -33.9767   25.0464 H   0  0  0  0  0  0
  -22.6997  -31.3087   21.4120 H   0  0  0  0  0  0
  -23.3740  -35.9648   23.3310 H   0  0  0  0  0  0
  -24.3576  -36.8921   22.2053 H   0  0  0  0  0  0
  -23.7241  -37.6524   23.6645 H   0  0  0  0  0  0
  -26.0626  -31.5891   20.6036 H   0  0  0  0  0  0
  -26.8278  -30.8715   21.9923 H   0  0  0  0  0  0
  -28.1045  -29.0505   21.1955 H   0  0  0  0  0  0
  -26.0363  -25.9710   18.9951 H   0  0  0  0  0  0
  -23.9751  -27.3175   19.0090 H   0  0  0  0  0  0
  -23.7306  -30.6074   19.4069 H   0  0  0  0  0  0
  -22.7423  -29.2528   19.8638 H   0  0  0  0  0  0
  -25.1281  -36.1976   25.0829 H   0  0  0  0  0  0
  -20.9959  -28.3255   24.1423 H   0  0  0  0  0  0
  -20.5681  -26.2290   23.3615 H   0  0  0  0  0  0
  -21.6638  -26.7457   22.1207 H   0  0  0  0  0  0
  -19.6911  -25.6307   21.1239 H   0  0  0  0  0  0
  -19.6685  -27.3205   20.6751 H   0  0  0  0  0  0
  -17.4196  -26.6682   21.4022 H   0  0  0  0  0  0
  -18.0313  -26.0072   22.9020 H   0  0  0  0  0  0
  -19.7937  -30.7260   24.2281 H   0  0  0  0  0  0
  -17.5018  -31.6268   24.5174 H   0  0  0  0  0  0
  -15.5351  -30.3002   23.7648 H   0  0  0  0  0  0
  -15.8661  -28.0836   22.7057 H   0  0  0  0  0  0
  -24.5912  -30.7061   25.7823 H   0  0  0  0  0  0
  -24.8925  -32.2883   26.4918 H   0  0  0  0  0  0
  -25.8087  -30.8910   27.0248 H   0  0  0  0  0  0
  -26.2867  -29.6797   24.1179 H   0  0  0  0  0  0
  -27.4045  -29.7278   25.4616 H   0  0  0  0  0  0
  -27.8713  -30.4341   23.9317 H   0  0  0  0  0  0
  -27.2666  -33.3617   26.2095 H   0  0  0  0  0  0
  -28.3839  -32.6914   25.0306 H   0  0  0  0  0  0
  -28.0737  -31.8444   26.5391 H   0  0  0  0  0  0
  -28.2611  -38.0095   24.7503 H   0  0  0  0  0  0
  -28.1066  -36.2630   24.6298 H   0  0  0  0  0  0
  -27.2299  -37.1467   25.8869 H   0  0  0  0  0  0
  -20.9332  -29.8774   21.6936 H   0  0  0  0  0  0
  -26.0185  -38.2874   24.1407 H   0  0  0  0  0  0
  -33.0871  -19.0595   21.3337 H   0  0  0  0  0  0
  -31.3511  -20.8017   21.2680 H   0  0  0  0  0  0
  -32.5135  -16.6894   21.2249 H   0  0  0  0  0  0
  -28.3264  -17.7318   20.8967 H   0  0  0  0  0  0
  -29.5545  -24.1133   19.7816 H   0  0  0  0  0  0
  -27.1737  -25.3184   21.3322 H   0  0  0  0  0  0
  -29.0185  -15.3952   21.1827 H   0  0  0  0  0  0
  -29.8253  -21.8975   20.3947 H   0  0  0  0  0  0
  1 25  1  0  0  0
  1 30  2  0  0  0
  1 81  1  0  0  0
  2  3  1  0  0  0
  2 25  1  0  0  0
  2 85  1  0  0  0
  2 86  1  0  0  0
  3  4  1  0  0  0
  3 87  1  0  0  0
  3 88  1  0  0  0
  4  5  1  0  0  0
  4 89  1  0  0  0
  4 90  1  0  0  0
  5  6  1  0  0  0
  5 26  1  0  0  0
  5 91  1  0  0  0
  6 25  1  0  0  0
  6 92  1  0  0  0
  6 93  1  0  0  0
  7  8  2  0  0  0
  7 26  1  0  0  0
  7 29  1  0  0  0
  8  9  1  0  0  0
  8 22  1  0  0  0
  9 10  1  0  0  0
  9 27  2  0  0  0
 10 11  2  0  0  0
 10 15  1  0  0  0
 11 12  1  0  0  0
 11 94  1  0  0  0
 12 13  2  0  0  0
 12 95  1  0  0  0
 13 14  1  0  0  0
 13 31  1  0  0  0
 14 15  2  0  0  0
 14 96  1  0  0  0
 15 97  1  0  0  0
 16 17  2  0  0  0
 16 21  1  0  0  0
 16 31  1  0  0  0
 17 18  1  0  0  0
 17 98  1  0  0  0
 18 19  2  0  0  0
 18 99  1  0  0  0
 19 20  1  0  0  0
 19 24  1  0  0  0
 20 21  2  0  0  0
 20100  1  0  0  0
 21 23  1  0  0  0
 22 28  1  0  0  0
 22 32  2  0  0  0
 26 27  1  0  0  0
 28101  1  0  0  0
 28102  1  0  0  0
 29103  1  0  0  0
 29104  1  0  0  0
 33 34  1  0  0  0
 33 66  1  0  0  0
 33 70  2  0  0  0
 34 36  1  0  0  0
 34 59  1  0  0  0
 34105  1  0  0  0
 35 44  2  0  0  0
 35 45  1  0  0  0
 35 68  1  0  0  0
 36 56  1  0  0  0
 36106  1  0  0  0
 37 39  1  0  0  0
 37 47  1  0  0  0
 37 66  1  0  0  0
 37107  1  0  0  0
 38 43  2  0  0  0
 38 46  1  0  0  0
 38 47  1  0  0  0
 39 64  1  0  0  0
 39 67  2  0  0  0
 40 52  1  0  0  0
 40 53  2  0  0  0
 40 58  1  0  0  0
 41108  1  0  0  0
 41109  1  0  0  0
 41110  1  0  0  0
 41 48  1  0  0  0
 42 43  1  0  0  0
 42 66  1  0  0  0
 42111  1  0  0  0
 42112  1  0  0  0
 43 44  1  0  0  0
 44113  1  0  0  0
 45 46  2  0  0  0
 45114  1  0  0  0
 46115  1  0  0  0
 47116  1  0  0  0
 47117  1  0  0  0
 48 56  1  0  0  0
 48 65  1  0  0  0
 48118  1  0  0  0
 49 50  1  0  0  0
 49 53  1  0  0  0
 49 64  1  0  0  0
 49119  1  0  0  0
 50 51  1  0  0  0
 50120  1  0  0  0
 50121  1  0  0  0
 51 52  1  0  0  0
 51122  1  0  0  0
 51123  1  0  0  0
 52124  1  0  0  0
 52125  1  0  0  0
 53 54  1  0  0  0
 54 55  2  0  0  0
 54126  1  0  0  0
 55 57  1  0  0  0
 55127  1  0  0  0
 56 69  2  0  0  0
 57 58  2  0  0  0
 57128  1  0  0  0
 58129  1  0  0  0
 59 60  1  0  0  0
 59 61  1  0  0  0
 59 62  1  0  0  0
 60130  1  0  0  0
 60131  1  0  0  0
 60132  1  0  0  0
 61133  1  0  0  0
 61134  1  0  0  0
 61135  1  0  0  0
 62136  1  0  0  0
 62137  1  0  0  0
 62138  1  0  0  0
 63 65  1  0  0  0
 63139  1  0  0  0
 63140  1  0  0  0
 63141  1  0  0  0
 64142  1  0  0  0
 65143  1  0  0  0
 68 78  1  0  0  0
 71 72  2  0  0  0
 71 73  1  0  0  0
 71144  1  0  0  0
 72 75  1  0  0  0
 72145  1  0  0  0
 73 76  2  0  0  0
 73146  1  0  0  0
 74 75  2  0  0  0
 74 76  1  0  0  0
 74147  1  0  0  0
 75 79  1  0  0  0
 76 81  1  0  0  0
 77 78  2  0  0  0
 77 80  1  0  0  0
 77148  1  0  0  0
 78149  1  0  0  0
 79 82  1  0  0  0
 79 83  2  0  0  0
 80 82  1  0  0  0
 80 84  2  0  0  0
 81150  1  0  0  0
 82151  1  0  0  0
M  ISO  4   1 100  68 101  78 101  81 100
M  END
> <chiral flag>
0

> <version>
0

> <s_m_source_file>
/data/baiqing/PycharmProjects/Reinvent-master-3.2/result/LINK_invent/BTK/process_docking_weight1_custom_product_contain_oxygen_bond_distance_aromatic_linkinvent_7_9_3/rearranged_h_0079.sdf

> <i_m_source_file_index>
46

> <r_mmod_Potential_Energy-OPLS-2005>
-161.249298095703

> <r_mmod_Stretch_Energy-OPLS-2005>
50.0151405334473

> <r_mmod_Bend_Energy-OPLS-2005>
105.001197814941

> <r_mmod_Torsional_Energy-OPLS-2005>
225.467010498047

> <r_mmod_Improper_Torsional_Energy-OPLS-2005>
4.86862850189209

> <r_mmod_Van_der_Waal_Energy-OPLS-2005>
171.109878540039

> <r_mmod_Electrostatic_Energy-OPLS-2005>
-482.067230224609

> <r_mmod_Solvation_Energy-OPLS-2005>
-260.986633300781

> <b_mmod_Minimization_Converged-OPLS-2005>
0

> <r_mmod_RMS_Derivative-OPLS-2005>
0.669173657894135

$$$$
46
                    3D
 Structure written by MMmdl.
157165  0  0  1  0            999 V2000
  -30.5896  -14.7430   20.4596 C   0  0  0  0  0  0
  -30.4357  -12.4548   19.4873 C   0  0  0  0  0  0
  -29.5085  -12.5013   18.2518 C   0  0  0  0  0  0
  -28.0372  -12.3199   18.6684 C   0  0  0  0  0  0
  -27.6442  -13.2298   19.8592 C   0  0  2  0  0  0
  -28.6822  -13.1565   21.0012 C   0  0  0  0  0  0
  -25.2540  -13.8230   20.5729 C   0  0  0  0  0  0
  -24.1813  -13.0464   20.9239 C   0  0  0  0  0  0
  -24.6391  -11.6939   20.8770 C   0  0  0  0  0  0
  -23.9082  -10.4297   21.0422 C   0  0  0  0  0  0
  -24.3634   -9.4197   21.9179 C   0  0  0  0  0  0
  -23.6318   -8.2227   22.0729 C   0  0  0  0  0  0
  -22.4296   -8.0280   21.3531 C   0  0  0  0  0  0
  -21.9944   -9.0257   20.4631 C   0  0  0  0  0  0
  -22.7274  -10.2136   20.3057 C   0  0  0  0  0  0
  -21.6840   -6.0746   22.5293 C   0  0  0  0  0  0
  -21.3991   -6.5644   23.8232 C   0  0  0  0  0  0
  -21.3656   -5.6801   24.9185 C   0  0  0  0  0  0
  -21.6062   -4.3070   24.7243 C   0  0  0  0  0  0
  -21.8810   -3.8157   23.4360 C   0  0  0  0  0  0
  -21.9182   -4.6973   22.3409 C   0  0  0  0  0  0
  -22.7830  -13.5229   21.1886 C   0  0  0  0  0  0
  -22.1657   -4.2157   21.0990 F   0  0  0  0  0  0
  -21.5640   -3.4552   25.7750 F   0  0  0  0  0  0
  -29.9904  -13.5043   20.4335 N   0  0  0  0  0  0
  -26.2936  -12.9404   20.3327 N   0  0  0  0  0  0
  -25.9320  -11.6548   20.5797 N   0  0  0  0  0  0
  -22.0477  -12.8190   22.0432 N   0  0  0  0  0  0
  -25.4310  -15.1935   20.4129 N   0  0  0  0  0  0
  -31.7598  -14.8659   20.0825 O   0  0  0  0  0  0
  -21.6649   -6.8876   21.4246 O   0  0  0  0  0  0
  -22.3499  -14.5506   20.6722 O   0  0  0  0  0  0
  -24.6308  -31.8536   23.1999 C   0  0  0  0  0  0
  -25.9138  -32.4747   23.8334 C   0  0  1  0  0  0
  -27.2084  -27.2388   20.1363 C   0  0  0  0  0  0
  -25.5932  -33.8550   24.2225 N   0  0  0  0  0  0
  -23.4245  -30.4815   21.5408 C   0  0  2  0  0  0
  -24.8690  -28.9222   20.1136 C   0  0  0  0  0  0
  -22.7469  -29.4606   22.4885 C   0  0  0  0  0  0
  -18.0215  -28.1375   22.8449 C   0  0  0  0  0  0
  -24.1473  -36.7269   23.2629 C   0  0  0  0  0  0
  -25.9740  -30.7622   21.3824 C   0  0  0  0  0  0
  -26.0443  -29.3844   20.7217 C   0  0  0  0  0  0
  -27.2124  -28.5544   20.7182 C   0  0  0  0  0  0
  -26.0050  -26.8446   19.5076 C   0  0  0  0  0  0
  -24.8570  -27.6620   19.4979 C   0  0  0  0  0  0
  -23.6438  -29.8158   20.1569 C   0  0  0  0  0  0
  -25.4113  -36.3053   24.0304 C   0  0  1  0  0  0
  -20.5821  -28.3650   23.1114 C   0  0  2  0  0  0
  -20.6733  -26.9432   22.5014 C   0  0  0  0  0  0
  -19.5556  -26.6361   21.5006 C   0  0  0  0  0  0
  -18.1789  -26.8004   22.1439 C   0  0  0  0  0  0
  -19.1478  -28.8815   23.2851 C   0  0  0  0  0  0
  -18.9392  -30.1385   23.8970 C   0  0  0  0  0  0
  -17.6388  -30.6530   24.0647 C   0  0  0  0  0  0
  -25.9065  -34.9434   23.5061 C   0  0  0  0  0  0
  -16.5283  -29.9053   23.6347 C   0  0  0  0  0  0
  -16.7203  -28.6474   23.0356 C   0  0  0  0  0  0
  -26.4501  -31.6616   25.0758 C   0  0  0  0  0  0
  -25.3693  -31.3850   26.1464 C   0  0  0  0  0  0
  -27.0360  -30.3001   24.6329 C   0  0  0  0  0  0
  -27.6013  -32.4401   25.7547 C   0  0  0  0  0  0
  -27.5564  -37.1808   24.8461 C   0  0  0  0  0  0
  -21.4165  -29.3103   22.3665 N   0  0  0  0  0  0
  -26.4276  -37.3772   23.9417 N   0  0  0  0  0  0
  -24.6948  -31.0502   22.0973 N   0  0  0  0  0  0
  -23.4183  -28.8112   23.2948 O   0  0  0  0  0  0
  -28.3254  -26.3687   20.2158 O   0  0  0  0  0  0
  -26.5637  -34.8914   22.4624 O   0  0  0  0  0  0
  -23.5463  -32.1371   23.7297 O   0  0  0  0  0  0
  -29.7855  -18.5216   18.0777 C   0  0  0  0  0  0
  -29.3858  -19.6977   18.7520 C   0  0  0  0  0  0
  -29.9835  -17.3023   18.7613 C   0  0  0  0  0  0
  -29.3224  -18.4111   20.8168 C   0  0  0  0  0  0
  -29.1663  -19.7001   20.1478 C   0  0  0  0  0  0
  -29.7462  -17.1892   20.1513 C   0  0  0  0  0  0
  -28.7600  -21.0166   20.8846 C   0  0  0  0  0  0
  -27.0637  -23.6724   21.5877 C   0  0  0  0  0  0
  -29.5293  -23.9756   21.8714 C   0  0  0  0  0  0
  -28.3432  -24.9169   19.7866 C   0  0  0  0  0  0
  -28.4166  -23.6755   20.8458 C   0  0  0  0  0  0
  -29.8176  -15.8491   20.7865 N   0  0  0  0  0  0
  -28.7036  -22.2666   20.2659 N   0  0  0  0  0  0
  -28.5072  -20.9078   22.0860 O   0  0  0  0  0  0
  -31.4722  -12.5962   19.1756 H   0  0  0  0  0  0
  -30.3998  -11.4786   19.9726 H   0  0  0  0  0  0
  -29.7928  -11.7220   17.5444 H   0  0  0  0  0  0
  -29.6298  -13.4503   17.7267 H   0  0  0  0  0  0
  -27.9051  -11.2748   18.9524 H   0  0  0  0  0  0
  -27.3725  -12.4969   17.8214 H   0  0  0  0  0  0
  -27.6413  -14.2498   19.4725 H   0  0  0  0  0  0
  -28.7153  -12.1583   21.4411 H   0  0  0  0  0  0
  -28.4118  -13.8371   21.8111 H   0  0  0  0  0  0
  -25.2758   -9.5671   22.4787 H   0  0  0  0  0  0
  -24.0031   -7.4594   22.7430 H   0  0  0  0  0  0
  -21.0884   -8.8793   19.8918 H   0  0  0  0  0  0
  -22.3741  -10.9693   19.6197 H   0  0  0  0  0  0
  -21.1961   -7.6149   23.9736 H   0  0  0  0  0  0
  -21.1498   -6.0525   25.9093 H   0  0  0  0  0  0
  -22.0587   -2.7624   23.2870 H   0  0  0  0  0  0
  -22.4128  -11.9891   22.4851 H   0  0  0  0  0  0
  -21.1068  -13.1172   22.2571 H   0  0  0  0  0  0
  -24.6720  -15.8595   20.5100 H   0  0  0  0  0  0
  -26.2915  -15.6224   20.0958 H   0  0  0  0  0  0
  -26.7195  -32.5391   23.1061 H   0  0  0  0  0  0
  -25.0072  -33.9697   25.0356 H   0  0  0  0  0  0
  -22.7235  -31.3071   21.3966 H   0  0  0  0  0  0
  -23.3733  -35.9606   23.3297 H   0  0  0  0  0  0
  -24.3519  -36.8908   22.2042 H   0  0  0  0  0  0
  -23.7266  -37.6481   23.6663 H   0  0  0  0  0  0
  -26.1222  -31.5284   20.6223 H   0  0  0  0  0  0
  -26.8472  -30.8035   22.0236 H   0  0  0  0  0  0
  -28.1132  -28.8977   21.2078 H   0  0  0  0  0  0
  -25.8976  -25.8820   19.0352 H   0  0  0  0  0  0
  -23.9534  -27.3000   19.0254 H   0  0  0  0  0  0
  -23.7811  -30.5910   19.4017 H   0  0  0  0  0  0
  -22.7613  -29.2587   19.8397 H   0  0  0  0  0  0
  -25.1308  -36.1860   25.0803 H   0  0  0  0  0  0
  -20.9916  -28.3048   24.1221 H   0  0  0  0  0  0
  -20.6000  -26.2124   23.3055 H   0  0  0  0  0  0
  -21.6462  -26.7691   22.0407 H   0  0  0  0  0  0
  -19.6646  -25.6226   21.1092 H   0  0  0  0  0  0
  -19.6369  -27.3139   20.6488 H   0  0  0  0  0  0
  -17.4115  -26.7019   21.3765 H   0  0  0  0  0  0
  -18.0042  -25.9993   22.8647 H   0  0  0  0  0  0
  -19.7841  -30.7170   24.2393 H   0  0  0  0  0  0
  -17.4893  -31.6195   24.5252 H   0  0  0  0  0  0
  -15.5276  -30.2946   23.7627 H   0  0  0  0  0  0
  -15.8604  -28.0803   22.7035 H   0  0  0  0  0  0
  -24.5790  -30.7286   25.7784 H   0  0  0  0  0  0
  -24.8982  -32.3090   26.4851 H   0  0  0  0  0  0
  -25.7956  -30.9025   27.0256 H   0  0  0  0  0  0
  -26.2996  -29.6762   24.1248 H   0  0  0  0  0  0
  -27.3863  -29.7278   25.4928 H   0  0  0  0  0  0
  -27.8935  -30.4218   23.9705 H   0  0  0  0  0  0
  -27.2535  -33.3649   26.2148 H   0  0  0  0  0  0
  -28.3817  -32.7060   25.0407 H   0  0  0  0  0  0
  -28.0677  -31.8534   26.5479 H   0  0  0  0  0  0
  -28.2590  -38.0093   24.7478 H   0  0  0  0  0  0
  -28.1057  -36.2625   24.6313 H   0  0  0  0  0  0
  -27.2263  -37.1486   25.8860 H   0  0  0  0  0  0
  -20.9369  -29.8936   21.6952 H   0  0  0  0  0  0
  -26.0124  -38.2815   24.1475 H   0  0  0  0  0  0
  -29.9370  -18.5528   17.0077 H   0  0  0  0  0  0
  -29.2458  -20.5993   18.1734 H   0  0  0  0  0  0
  -30.2798  -16.4383   18.1826 H   0  0  0  0  0  0
  -29.1118  -18.3573   21.8756 H   0  0  0  0  0  0
  -26.8434  -24.6608   21.9976 H   0  0  0  0  0  0
  -26.2397  -23.4036   20.9252 H   0  0  0  0  0  0
  -27.0580  -22.9791   22.4272 H   0  0  0  0  0  0
  -29.3551  -24.9255   22.3776 H   0  0  0  0  0  0
  -30.5104  -24.0259   21.3980 H   0  0  0  0  0  0
  -29.5818  -23.2161   22.6544 H   0  0  0  0  0  0
  -27.5441  -24.7033   19.0820 H   0  0  0  0  0  0
  -29.2367  -24.8394   19.1631 H   0  0  0  0  0  0
  -29.0343  -15.6330   21.3842 H   0  0  0  0  0  0
  -28.9430  -22.2586   19.2836 H   0  0  0  0  0  0
  1 25  1  0  0  0
  1 30  2  0  0  0
  1 82  1  0  0  0
  2  3  1  0  0  0
  2 25  1  0  0  0
  2 85  1  0  0  0
  2 86  1  0  0  0
  3  4  1  0  0  0
  3 87  1  0  0  0
  3 88  1  0  0  0
  4  5  1  0  0  0
  4 89  1  0  0  0
  4 90  1  0  0  0
  5  6  1  0  0  0
  5 26  1  0  0  0
  5 91  1  0  0  0
  6 25  1  0  0  0
  6 92  1  0  0  0
  6 93  1  0  0  0
  7  8  2  0  0  0
  7 26  1  0  0  0
  7 29  1  0  0  0
  8  9  1  0  0  0
  8 22  1  0  0  0
  9 10  1  0  0  0
  9 27  2  0  0  0
 10 11  2  0  0  0
 10 15  1  0  0  0
 11 12  1  0  0  0
 11 94  1  0  0  0
 12 13  2  0  0  0
 12 95  1  0  0  0
 13 14  1  0  0  0
 13 31  1  0  0  0
 14 15  2  0  0  0
 14 96  1  0  0  0
 15 97  1  0  0  0
 16 17  2  0  0  0
 16 21  1  0  0  0
 16 31  1  0  0  0
 17 18  1  0  0  0
 17 98  1  0  0  0
 18 19  2  0  0  0
 18 99  1  0  0  0
 19 20  1  0  0  0
 19 24  1  0  0  0
 20 21  2  0  0  0
 20100  1  0  0  0
 21 23  1  0  0  0
 22 28  1  0  0  0
 22 32  2  0  0  0
 26 27  1  0  0  0
 28101  1  0  0  0
 28102  1  0  0  0
 29103  1  0  0  0
 29104  1  0  0  0
 33 34  1  0  0  0
 33 66  1  0  0  0
 33 70  2  0  0  0
 34 36  1  0  0  0
 34 59  1  0  0  0
 34105  1  0  0  0
 35 44  2  0  0  0
 35 45  1  0  0  0
 35 68  1  0  0  0
 36 56  1  0  0  0
 36106  1  0  0  0
 37 39  1  0  0  0
 37 47  1  0  0  0
 37 66  1  0  0  0
 37107  1  0  0  0
 38 43  2  0  0  0
 38 46  1  0  0  0
 38 47  1  0  0  0
 39 64  1  0  0  0
 39 67  2  0  0  0
 40 52  1  0  0  0
 40 53  2  0  0  0
 40 58  1  0  0  0
 41108  1  0  0  0
 41109  1  0  0  0
 41110  1  0  0  0
 41 48  1  0  0  0
 42 43  1  0  0  0
 42 66  1  0  0  0
 42111  1  0  0  0
 42112  1  0  0  0
 43 44  1  0  0  0
 44113  1  0  0  0
 45 46  2  0  0  0
 45114  1  0  0  0
 46115  1  0  0  0
 47116  1  0  0  0
 47117  1  0  0  0
 48 56  1  0  0  0
 48 65  1  0  0  0
 48118  1  0  0  0
 49 50  1  0  0  0
 49 53  1  0  0  0
 49 64  1  0  0  0
 49119  1  0  0  0
 50 51  1  0  0  0
 50120  1  0  0  0
 50121  1  0  0  0
 51 52  1  0  0  0
 51122  1  0  0  0
 51123  1  0  0  0
 52124  1  0  0  0
 52125  1  0  0  0
 53 54  1  0  0  0
 54 55  2  0  0  0
 54126  1  0  0  0
 55 57  1  0  0  0
 55127  1  0  0  0
 56 69  2  0  0  0
 57 58  2  0  0  0
 57128  1  0  0  0
 58129  1  0  0  0
 59 60  1  0  0  0
 59 61  1  0  0  0
 59 62  1  0  0  0
 60130  1  0  0  0
 60131  1  0  0  0
 60132  1  0  0  0
 61133  1  0  0  0
 61134  1  0  0  0
 61135  1  0  0  0
 62136  1  0  0  0
 62137  1  0  0  0
 62138  1  0  0  0
 63 65  1  0  0  0
 63139  1  0  0  0
 63140  1  0  0  0
 63141  1  0  0  0
 64142  1  0  0  0
 65143  1  0  0  0
 68 80  1  0  0  0
 71 72  2  0  0  0
 71 73  1  0  0  0
 71144  1  0  0  0
 72 75  1  0  0  0
 72145  1  0  0  0
 73 76  2  0  0  0
 73146  1  0  0  0
 74 75  2  0  0  0
 74 76  1  0  0  0
 74147  1  0  0  0
 75 77  1  0  0  0
 76 82  1  0  0  0
 77 83  1  0  0  0
 77 84  2  0  0  0
 78148  1  0  0  0
 78149  1  0  0  0
 78150  1  0  0  0
 78 81  1  0  0  0
 79 81  1  0  0  0
 79151  1  0  0  0
 79152  1  0  0  0
 79153  1  0  0  0
 80 81  1  0  0  0
 80154  1  0  0  0
 80155  1  0  0  0
 81 83  1  0  0  0
 82156  1  0  0  0
 83157  1  0  0  0
M  ISO  4   1 100  68 101  80 101  82 100
M  END
> <chiral flag>
0

> <version>
0

> <s_m_source_file>
/data/baiqing/PycharmProjects/Reinvent-master-3.2/result/LINK_invent/BTK/process_docking_weight1_custom_product_contain_oxygen_bond_distance_aromatic_linkinvent_7_9_3/rearranged_h_0079.sdf

> <i_m_source_file_index>
47

> <r_mmod_Potential_Energy-OPLS-2005>
113.811668395996

> <r_mmod_Stretch_Energy-OPLS-2005>
132.270034790039

> <r_mmod_Bend_Energy-OPLS-2005>
172.406784057617

> <r_mmod_Torsional_Energy-OPLS-2005>
235.43098449707

> <r_mmod_Improper_Torsional_Energy-OPLS-2005>
4.38888931274414

> <r_mmod_Van_der_Waal_Energy-OPLS-2005>
138.043258666992

> <r_mmod_Electrostatic_Energy-OPLS-2005>
-430.588073730469

> <r_mmod_Solvation_Energy-OPLS-2005>
-227.729644775391

> <b_mmod_Minimization_Converged-OPLS-2005>
0

> <r_mmod_RMS_Derivative-OPLS-2005>
4.6712908744812

$$$$
47
                    3D
 Structure written by MMmdl.
157166  0  0  1  0            999 V2000
  -30.6431  -14.5972   20.5198 C   0  0  0  0  0  0
  -30.4420  -12.3604   19.4559 C   0  0  0  0  0  0
  -29.5102  -12.4805   18.2293 C   0  0  0  0  0  0
  -28.0301  -12.3337   18.6381 C   0  0  0  0  0  0
  -27.6575  -13.2059   19.8660 C   0  0  2  0  0  0
  -28.7011  -13.0462   20.9952 C   0  0  0  0  0  0
  -25.2559  -13.8097   20.5623 C   0  0  0  0  0  0
  -24.1831  -13.0406   20.9183 C   0  0  0  0  0  0
  -24.6392  -11.6877   20.8758 C   0  0  0  0  0  0
  -23.9039  -10.4278   21.0419 C   0  0  0  0  0  0
  -24.3598   -9.4192   21.9192 C   0  0  0  0  0  0
  -23.6282   -8.2225   22.0762 C   0  0  0  0  0  0
  -22.4259   -8.0266   21.3557 C   0  0  0  0  0  0
  -21.9894   -9.0237   20.4655 C   0  0  0  0  0  0
  -22.7210  -10.2121   20.3060 C   0  0  0  0  0  0
  -21.6839   -6.0726   22.5280 C   0  0  0  0  0  0
  -21.4006   -6.5633   23.8211 C   0  0  0  0  0  0
  -21.3657   -5.6790   24.9176 C   0  0  0  0  0  0
  -21.6047   -4.3056   24.7231 C   0  0  0  0  0  0
  -21.8818   -3.8141   23.4354 C   0  0  0  0  0  0
  -21.9194   -4.6957   22.3404 C   0  0  0  0  0  0
  -22.7859  -13.5214   21.1846 C   0  0  0  0  0  0
  -22.1666   -4.2152   21.0985 F   0  0  0  0  0  0
  -21.5630   -3.4535   25.7743 F   0  0  0  0  0  0
  -30.0213  -13.3800   20.4366 N   0  0  0  0  0  0
  -26.3017  -12.9286   20.3331 N   0  0  0  0  0  0
  -25.9323  -11.6448   20.5775 N   0  0  0  0  0  0
  -22.0491  -12.8217   22.0396 N   0  0  0  0  0  0
  -25.4245  -15.1793   20.3908 N   0  0  0  0  0  0
  -31.8005  -14.7685   20.1301 O   0  0  0  0  0  0
  -21.6618   -6.8874   21.4246 O   0  0  0  0  0  0
  -22.3547  -14.5527   20.6700 O   0  0  0  0  0  0
  -24.6238  -31.8618   23.2050 C   0  0  0  0  0  0
  -25.9093  -32.4797   23.8381 C   0  0  1  0  0  0
  -27.2288  -27.3501   20.1167 C   0  0  0  0  0  0
  -25.5913  -33.8601   24.2295 N   0  0  0  0  0  0
  -23.4188  -30.4833   21.5463 C   0  0  2  0  0  0
  -24.8700  -28.9443   20.1067 C   0  0  0  0  0  0
  -22.7484  -29.4626   22.4958 C   0  0  0  0  0  0
  -18.0309  -28.1345   22.8518 C   0  0  0  0  0  0
  -24.1495  -36.7316   23.2633 C   0  0  0  0  0  0
  -25.9556  -30.7978   21.3775 C   0  0  0  0  0  0
  -26.0324  -29.4251   20.7256 C   0  0  0  0  0  0
  -27.2164  -28.6347   20.7309 C   0  0  0  0  0  0
  -26.0665  -26.9346   19.4379 C   0  0  0  0  0  0
  -24.8857  -27.6987   19.4602 C   0  0  0  0  0  0
  -23.6330  -29.8143   20.1614 C   0  0  0  0  0  0
  -25.4115  -36.3105   24.0333 C   0  0  1  0  0  0
  -20.5923  -28.3632   23.1225 C   0  0  2  0  0  0
  -20.6828  -26.9434   22.5144 C   0  0  0  0  0  0
  -19.5689  -26.6485   21.5056 C   0  0  0  0  0  0
  -18.1968  -26.7875   22.1690 C   0  0  0  0  0  0
  -19.1574  -28.8808   23.2870 C   0  0  0  0  0  0
  -18.9516  -30.1414   23.8887 C   0  0  0  0  0  0
  -17.6524  -30.6563   24.0579 C   0  0  0  0  0  0
  -25.9052  -34.9469   23.5120 C   0  0  0  0  0  0
  -16.5401  -29.9078   23.6357 C   0  0  0  0  0  0
  -16.7303  -28.6486   23.0394 C   0  0  0  0  0  0
  -26.4486  -31.6605   25.0741 C   0  0  0  0  0  0
  -25.3715  -31.3753   26.1467 C   0  0  0  0  0  0
  -27.0302  -30.3019   24.6175 C   0  0  0  0  0  0
  -27.6048  -32.4336   25.7503 C   0  0  0  0  0  0
  -27.5587  -37.1810   24.8457 C   0  0  0  0  0  0
  -21.4198  -29.3073   22.3720 N   0  0  0  0  0  0
  -26.4294  -37.3786   23.9412 N   0  0  0  0  0  0
  -24.6840  -31.0650   22.0991 N   0  0  0  0  0  0
  -23.4220  -28.8136   23.2997 O   0  0  0  0  0  0
  -28.3290  -26.4920   20.1308 O   0  0  0  0  0  0
  -26.5608  -34.8927   22.4681 O   0  0  0  0  0  0
  -23.5403  -32.1419   23.7384 O   0  0  0  0  0  0
  -26.4941  -18.2144   21.4776 C   0  0  0  0  0  0
  -27.6695  -17.4664   21.3888 C   0  0  0  0  0  0
  -26.4960  -19.5805   21.1764 C   0  0  0  0  0  0
  -28.8749  -19.4968   20.7225 C   0  0  0  0  0  0
  -28.8686  -18.0649   20.9521 C   0  0  0  0  0  0
  -27.6799  -20.3034   20.8511 C   0  0  0  0  0  0
  -27.7159  -24.1393   20.5360 C   0  0  0  0  0  0
  -26.3597  -23.7957   20.8751 C   0  0  0  0  0  0
  -28.4240  -22.8145   20.5637 C   0  0  0  0  0  0
  -25.4061  -24.6005   21.3791 C   0  0  0  0  0  0
  -28.3073  -25.3229   20.9188 C   0  0  0  0  0  0
  -26.1656  -22.3318   20.7716 C   0  0  0  0  0  0
  -30.0960  -17.1222   20.7366 C   0  0  0  0  0  0
  -27.5180  -21.7733   20.6783 N   0  0  0  0  0  0
  -29.8481  -15.6479   20.8662 N   0  0  0  0  0  0
  -29.6485  -22.6571   20.5098 O   0  0  0  0  0  0
  -31.4824  -12.4856   19.1535 H   0  0  0  0  0  0
  -30.3775  -11.3614   19.8924 H   0  0  0  0  0  0
  -29.7640  -11.7235   17.4852 H   0  0  0  0  0  0
  -29.6624  -13.4467   17.7463 H   0  0  0  0  0  0
  -27.8592  -11.2815   18.8683 H   0  0  0  0  0  0
  -27.3767  -12.5651   17.7959 H   0  0  0  0  0  0
  -27.6803  -14.2420   19.5275 H   0  0  0  0  0  0
  -28.7052  -12.0195   21.3600 H   0  0  0  0  0  0
  -28.4530  -13.6630   21.8598 H   0  0  0  0  0  0
  -25.2746   -9.5663   22.4767 H   0  0  0  0  0  0
  -23.9992   -7.4609   22.7478 H   0  0  0  0  0  0
  -21.0822   -8.8743   19.8969 H   0  0  0  0  0  0
  -22.3655  -10.9664   19.6174 H   0  0  0  0  0  0
  -21.1987   -7.6141   23.9710 H   0  0  0  0  0  0
  -21.1481   -6.0529   25.9081 H   0  0  0  0  0  0
  -22.0600   -2.7609   23.2849 H   0  0  0  0  0  0
  -22.4094  -11.9866   22.4780 H   0  0  0  0  0  0
  -21.1146  -13.1315   22.2644 H   0  0  0  0  0  0
  -24.6537  -15.8286   20.4880 H   0  0  0  0  0  0
  -26.2549  -15.6137   20.0123 H   0  0  0  0  0  0
  -26.7153  -32.5487   23.1136 H   0  0  0  0  0  0
  -25.0042  -33.9755   25.0422 H   0  0  0  0  0  0
  -22.7122  -31.3029   21.4021 H   0  0  0  0  0  0
  -23.3754  -35.9651   23.3295 H   0  0  0  0  0  0
  -24.3582  -36.8928   22.2045 H   0  0  0  0  0  0
  -23.7256  -37.6524   23.6650 H   0  0  0  0  0  0
  -26.0815  -31.5575   20.6064 H   0  0  0  0  0  0
  -26.8379  -30.8524   22.0015 H   0  0  0  0  0  0
  -28.1077  -28.9888   21.2295 H   0  0  0  0  0  0
  -26.0630  -25.9809   18.9322 H   0  0  0  0  0  0
  -23.9998  -27.3219   18.9670 H   0  0  0  0  0  0
  -23.7456  -30.5900   19.4029 H   0  0  0  0  0  0
  -22.7549  -29.2364   19.8634 H   0  0  0  0  0  0
  -25.1297  -36.1958   25.0820 H   0  0  0  0  0  0
  -21.0026  -28.3061   24.1333 H   0  0  0  0  0  0
  -20.5926  -26.2162   23.3226 H   0  0  0  0  0  0
  -21.6641  -26.7667   22.0715 H   0  0  0  0  0  0
  -19.6840  -25.6480   21.0879 H   0  0  0  0  0  0
  -19.6478  -27.3441   20.6688 H   0  0  0  0  0  0
  -17.4136  -26.6549   21.4226 H   0  0  0  0  0  0
  -18.0573  -26.0016   22.9140 H   0  0  0  0  0  0
  -19.8013  -30.7213   24.2254 H   0  0  0  0  0  0
  -17.5125  -31.6240   24.5219 H   0  0  0  0  0  0
  -15.5413  -30.2987   23.7748 H   0  0  0  0  0  0
  -15.8691  -28.0815   22.7145 H   0  0  0  0  0  0
  -24.5890  -30.7094   25.7815 H   0  0  0  0  0  0
  -24.8906  -32.2922   26.4880 H   0  0  0  0  0  0
  -25.8039  -30.8949   27.0249 H   0  0  0  0  0  0
  -26.2851  -29.6784   24.1207 H   0  0  0  0  0  0
  -27.3999  -29.7270   25.4678 H   0  0  0  0  0  0
  -27.8741  -30.4301   23.9388 H   0  0  0  0  0  0
  -27.2646  -33.3622   26.2102 H   0  0  0  0  0  0
  -28.3842  -32.6915   25.0321 H   0  0  0  0  0  0
  -28.0731  -31.8445   26.5396 H   0  0  0  0  0  0
  -28.2607  -38.0103   24.7502 H   0  0  0  0  0  0
  -28.1080  -36.2637   24.6286 H   0  0  0  0  0  0
  -27.2303  -37.1465   25.8855 H   0  0  0  0  0  0
  -20.9344  -29.8898   21.7047 H   0  0  0  0  0  0
  -26.0191  -38.2868   24.1381 H   0  0  0  0  0  0
  -25.5674  -17.7412   21.7683 H   0  0  0  0  0  0
  -27.6087  -16.4183   21.6451 H   0  0  0  0  0  0
  -25.5194  -20.0364   21.2196 H   0  0  0  0  0  0
  -29.8033  -19.9694   20.4361 H   0  0  0  0  0  0
  -25.5555  -25.6545   21.5584 H   0  0  0  0  0  0
  -24.4353  -24.1999   21.6376 H   0  0  0  0  0  0
  -27.8047  -25.7186   21.7899 H   0  0  0  0  0  0
  -25.5686  -22.0787   19.8936 H   0  0  0  0  0  0
  -25.6561  -22.0273   21.6844 H   0  0  0  0  0  0
  -30.4667  -17.3114   19.7269 H   0  0  0  0  0  0
  -30.8889  -17.4212   21.4217 H   0  0  0  0  0  0
  -28.9125  -15.3901   21.1346 H   0  0  0  0  0  0
  1 25  1  0  0  0
  1 30  2  0  0  0
  1 85  1  0  0  0
  2  3  1  0  0  0
  2 25  1  0  0  0
  2 87  1  0  0  0
  2 88  1  0  0  0
  3  4  1  0  0  0
  3 89  1  0  0  0
  3 90  1  0  0  0
  4  5  1  0  0  0
  4 91  1  0  0  0
  4 92  1  0  0  0
  5  6  1  0  0  0
  5 26  1  0  0  0
  5 93  1  0  0  0
  6 25  1  0  0  0
  6 94  1  0  0  0
  6 95  1  0  0  0
  7  8  2  0  0  0
  7 26  1  0  0  0
  7 29  1  0  0  0
  8  9  1  0  0  0
  8 22  1  0  0  0
  9 10  1  0  0  0
  9 27  2  0  0  0
 10 11  2  0  0  0
 10 15  1  0  0  0
 11 12  1  0  0  0
 11 96  1  0  0  0
 12 13  2  0  0  0
 12 97  1  0  0  0
 13 14  1  0  0  0
 13 31  1  0  0  0
 14 15  2  0  0  0
 14 98  1  0  0  0
 15 99  1  0  0  0
 16 17  2  0  0  0
 16 21  1  0  0  0
 16 31  1  0  0  0
 17 18  1  0  0  0
 17100  1  0  0  0
 18 19  2  0  0  0
 18101  1  0  0  0
 19 20  1  0  0  0
 19 24  1  0  0  0
 20 21  2  0  0  0
 20102  1  0  0  0
 21 23  1  0  0  0
 22 28  1  0  0  0
 22 32  2  0  0  0
 26 27  1  0  0  0
 28103  1  0  0  0
 28104  1  0  0  0
 29105  1  0  0  0
 29106  1  0  0  0
 33 34  1  0  0  0
 33 66  1  0  0  0
 33 70  2  0  0  0
 34 36  1  0  0  0
 34 59  1  0  0  0
 34107  1  0  0  0
 35 44  2  0  0  0
 35 45  1  0  0  0
 35 68  1  0  0  0
 36 56  1  0  0  0
 36108  1  0  0  0
 37 39  1  0  0  0
 37 47  1  0  0  0
 37 66  1  0  0  0
 37109  1  0  0  0
 38 43  2  0  0  0
 38 46  1  0  0  0
 38 47  1  0  0  0
 39 64  1  0  0  0
 39 67  2  0  0  0
 40 52  1  0  0  0
 40 53  2  0  0  0
 40 58  1  0  0  0
 41110  1  0  0  0
 41111  1  0  0  0
 41112  1  0  0  0
 41 48  1  0  0  0
 42 43  1  0  0  0
 42 66  1  0  0  0
 42113  1  0  0  0
 42114  1  0  0  0
 43 44  1  0  0  0
 44115  1  0  0  0
 45 46  2  0  0  0
 45116  1  0  0  0
 46117  1  0  0  0
 47118  1  0  0  0
 47119  1  0  0  0
 48 56  1  0  0  0
 48 65  1  0  0  0
 48120  1  0  0  0
 49 50  1  0  0  0
 49 53  1  0  0  0
 49 64  1  0  0  0
 49121  1  0  0  0
 50 51  1  0  0  0
 50122  1  0  0  0
 50123  1  0  0  0
 51 52  1  0  0  0
 51124  1  0  0  0
 51125  1  0  0  0
 52126  1  0  0  0
 52127  1  0  0  0
 53 54  1  0  0  0
 54 55  2  0  0  0
 54128  1  0  0  0
 55 57  1  0  0  0
 55129  1  0  0  0
 56 69  2  0  0  0
 57 58  2  0  0  0
 57130  1  0  0  0
 58131  1  0  0  0
 59 60  1  0  0  0
 59 61  1  0  0  0
 59 62  1  0  0  0
 60132  1  0  0  0
 60133  1  0  0  0
 60134  1  0  0  0
 61135  1  0  0  0
 61136  1  0  0  0
 61137  1  0  0  0
 62138  1  0  0  0
 62139  1  0  0  0
 62140  1  0  0  0
 63 65  1  0  0  0
 63141  1  0  0  0
 63142  1  0  0  0
 63143  1  0  0  0
 64144  1  0  0  0
 65145  1  0  0  0
 68 81  1  0  0  0
 71 72  2  0  0  0
 71 73  1  0  0  0
 71146  1  0  0  0
 72 75  1  0  0  0
 72147  1  0  0  0
 73 76  2  0  0  0
 73148  1  0  0  0
 74 75  2  0  0  0
 74 76  1  0  0  0
 74149  1  0  0  0
 75 83  1  0  0  0
 76 84  1  0  0  0
 77 78  1  0  0  0
 77 79  1  0  0  0
 77 81  2  0  0  0
 78 80  2  0  0  0
 78 82  1  0  0  0
 79 84  1  0  0  0
 79 86  2  0  0  0
 80150  1  0  0  0
 80151  1  0  0  0
 81152  1  0  0  0
 82 84  1  0  0  0
 82153  1  0  0  0
 82154  1  0  0  0
 83 85  1  0  0  0
 83155  1  0  0  0
 83156  1  0  0  0
 85157  1  0  0  0
M  ISO  4   1 100  68 101  81 101  85 100
M  END
> <chiral flag>
0

> <version>
0

> <s_m_source_file>
/data/baiqing/PycharmProjects/Reinvent-master-3.2/result/LINK_invent/BTK/process_docking_weight1_custom_product_contain_oxygen_bond_distance_aromatic_linkinvent_7_9_3/rearranged_h_0079.sdf

> <i_m_source_file_index>
48

> <r_mmod_Potential_Energy-OPLS-2005>
334.415069580078

> <r_mmod_Stretch_Energy-OPLS-2005>
85.4552383422852

> <r_mmod_Bend_Energy-OPLS-2005>
194.339797973633

> <r_mmod_Torsional_Energy-OPLS-2005>
413.460083007812

> <r_mmod_Improper_Torsional_Energy-OPLS-2005>
13.2401905059814

> <r_mmod_Van_der_Waal_Energy-OPLS-2005>
155.946182250977

> <r_mmod_Electrostatic_Energy-OPLS-2005>
-354.486389160156

> <r_mmod_Solvation_Energy-OPLS-2005>
-212.057373046875

> <b_mmod_Minimization_Converged-OPLS-2005>
0

> <r_mmod_RMS_Derivative-OPLS-2005>
4.1198148727417

$$$$
48
                    3D
 Structure written by MMmdl.
167176  0  0  1  0            999 V2000
  -30.7075  -14.6780   20.4588 C   0  0  0  0  0  0
  -30.3981  -12.4016   19.4935 C   0  0  0  0  0  0
  -29.5024  -12.4947   18.2422 C   0  0  0  0  0  0
  -28.0267  -12.3349   18.6447 C   0  0  0  0  0  0
  -27.6359  -13.2419   19.8414 C   0  0  2  0  0  0
  -28.6757  -13.2099   20.9814 C   0  0  0  0  0  0
  -25.2486  -13.8124   20.5666 C   0  0  0  0  0  0
  -24.1782  -13.0404   20.9207 C   0  0  0  0  0  0
  -24.6387  -11.6892   20.8750 C   0  0  0  0  0  0
  -23.9071  -10.4279   21.0418 C   0  0  0  0  0  0
  -24.3620   -9.4197   21.9194 C   0  0  0  0  0  0
  -23.6294   -8.2230   22.0758 C   0  0  0  0  0  0
  -22.4275   -8.0272   21.3542 C   0  0  0  0  0  0
  -21.9911   -9.0249   20.4647 C   0  0  0  0  0  0
  -22.7244  -10.2128   20.3064 C   0  0  0  0  0  0
  -21.6853   -6.0741   22.5286 C   0  0  0  0  0  0
  -21.4001   -6.5645   23.8220 C   0  0  0  0  0  0
  -21.3659   -5.6797   24.9183 C   0  0  0  0  0  0
  -21.6046   -4.3060   24.7230 C   0  0  0  0  0  0
  -21.8819   -3.8152   23.4352 C   0  0  0  0  0  0
  -21.9188   -4.6966   22.3408 C   0  0  0  0  0  0
  -22.7809  -13.5206   21.1890 C   0  0  0  0  0  0
  -22.1663   -4.2155   21.0985 F   0  0  0  0  0  0
  -21.5632   -3.4540   25.7747 F   0  0  0  0  0  0
  -29.9946  -13.5003   20.4094 N   0  0  0  0  0  0
  -26.2918  -12.9390   20.3253 N   0  0  0  0  0  0
  -25.9325  -11.6530   20.5743 N   0  0  0  0  0  0
  -22.0457  -12.8184   22.0441 N   0  0  0  0  0  0
  -25.4224  -15.1775   20.4027 N   0  0  0  0  0  0
  -31.8914  -14.5768   20.1456 O   0  0  0  0  0  0
  -21.6633   -6.8878   21.4245 O   0  0  0  0  0  0
  -22.3499  -14.5527   20.6760 O   0  0  0  0  0  0
  -24.6240  -31.8627   23.2044 C   0  0  0  0  0  0
  -25.9093  -32.4792   23.8369 C   0  0  1  0  0  0
  -27.2215  -27.3332   20.1092 C   0  0  0  0  0  0
  -25.5926  -33.8592   24.2291 N   0  0  0  0  0  0
  -23.4168  -30.4875   21.5472 C   0  0  2  0  0  0
  -24.8626  -28.9516   20.1071 C   0  0  0  0  0  0
  -22.7476  -29.4628   22.4941 C   0  0  0  0  0  0
  -18.0302  -28.1395   22.8477 C   0  0  0  0  0  0
  -24.1489  -36.7299   23.2642 C   0  0  0  0  0  0
  -25.9575  -30.7953   21.3756 C   0  0  0  0  0  0
  -26.0291  -29.4240   20.7199 C   0  0  0  0  0  0
  -27.2096  -28.6233   20.7197 C   0  0  0  0  0  0
  -26.0344  -26.9252   19.4531 C   0  0  0  0  0  0
  -24.8665  -27.7072   19.4653 C   0  0  0  0  0  0
  -23.6282  -29.8268   20.1608 C   0  0  0  0  0  0
  -25.4109  -36.3091   24.0339 C   0  0  1  0  0  0
  -20.5890  -28.3677   23.1296 C   0  0  2  0  0  0
  -20.6776  -26.9399   22.5424 C   0  0  0  0  0  0
  -19.5761  -26.6382   21.5216 C   0  0  0  0  0  0
  -18.1935  -26.7943   22.1616 C   0  0  0  0  0  0
  -19.1551  -28.8853   23.2884 C   0  0  0  0  0  0
  -18.9477  -30.1454   23.8903 C   0  0  0  0  0  0
  -17.6474  -30.6587   24.0554 C   0  0  0  0  0  0
  -25.9058  -34.9463   23.5123 C   0  0  0  0  0  0
  -16.5361  -29.9079   23.6328 C   0  0  0  0  0  0
  -16.7288  -28.6501   23.0340 C   0  0  0  0  0  0
  -26.4490  -31.6598   25.0729 C   0  0  0  0  0  0
  -25.3737  -31.3747   26.1473 C   0  0  0  0  0  0
  -27.0316  -30.3028   24.6159 C   0  0  0  0  0  0
  -27.6094  -32.4304   25.7471 C   0  0  0  0  0  0
  -27.5588  -37.1779   24.8460 C   0  0  0  0  0  0
  -21.4194  -29.3028   22.3688 N   0  0  0  0  0  0
  -26.4282  -37.3788   23.9432 N   0  0  0  0  0  0
  -24.6846  -31.0661   22.0985 N   0  0  0  0  0  0
  -23.4210  -28.8167   23.3012 O   0  0  0  0  0  0
  -28.3338  -26.4765   20.1792 O   0  0  0  0  0  0
  -26.5618  -34.8932   22.4683 O   0  0  0  0  0  0
  -23.5406  -32.1416   23.7381 O   0  0  0  0  0  0
  -30.8014  -19.7607   20.5989 C   0  0  0  0  0  0
  -30.2905  -21.0818   20.5632 C   0  0  0  0  0  0
  -28.5987  -18.8641   20.6553 C   0  0  0  0  0  0
  -29.9938  -18.5711   20.5887 C   0  0  0  0  0  0
  -28.0344  -20.1934   20.6588 C   0  0  0  0  0  0
  -28.9044  -21.3311   20.5540 C   0  0  0  0  0  0
  -24.7156  -20.7521   21.2392 C   0  0  0  0  0  0
  -25.3970  -19.7150   20.7699 C   0  0  0  0  0  0
  -30.6150  -17.1218   20.4734 C   0  0  0  0  0  0
  -32.0690  -17.2991   19.9997 C   0  0  0  0  0  0
  -25.9675  -21.5760   21.2949 C   0  0  0  0  0  0
  -23.2901  -21.0416   21.6497 C   0  0  0  0  0  0
  -25.0826  -18.2893   20.4195 C   0  0  0  0  0  0
  -33.1615  -17.1348   21.0542 C   0  0  0  0  0  0
  -28.0908  -25.0398   19.9318 C   0  0  0  0  0  0
  -29.0582  -23.8898   20.4381 C   0  0  0  0  0  0
  -30.0275  -15.9392   20.6974 N   0  0  0  0  0  0
  -26.6167  -20.3546   20.7619 N   0  0  0  0  0  0
  -32.3699  -17.5586   18.8298 O   0  0  0  0  0  0
  -28.3441  -22.6152   20.4161 O   0  0  0  0  0  0
  -31.4472  -12.4337   19.1972 H   0  0  0  0  0  0
  -30.2678  -11.4349   19.9842 H   0  0  0  0  0  0
  -29.7774  -11.7248   17.5200 H   0  0  0  0  0  0
  -29.6535  -13.4541   17.7441 H   0  0  0  0  0  0
  -27.8727  -11.2873   18.9058 H   0  0  0  0  0  0
  -27.3755  -12.5329   17.7931 H   0  0  0  0  0  0
  -27.6244  -14.2597   19.4512 H   0  0  0  0  0  0
  -28.6822  -12.2350   21.4716 H   0  0  0  0  0  0
  -28.4203  -13.9406   21.7501 H   0  0  0  0  0  0
  -25.2774   -9.5673   22.4752 H   0  0  0  0  0  0
  -24.0016   -7.4617   22.7461 H   0  0  0  0  0  0
  -21.0851   -8.8767   19.8940 H   0  0  0  0  0  0
  -22.3718  -10.9664   19.6159 H   0  0  0  0  0  0
  -21.1984   -7.6149   23.9726 H   0  0  0  0  0  0
  -21.1481   -6.0527   25.9086 H   0  0  0  0  0  0
  -22.0595   -2.7611   23.2857 H   0  0  0  0  0  0
  -22.4080  -11.9826   22.4796 H   0  0  0  0  0  0
  -21.1068  -13.1185   22.2657 H   0  0  0  0  0  0
  -24.6665  -15.8435   20.5061 H   0  0  0  0  0  0
  -26.2964  -15.6020   20.1214 H   0  0  0  0  0  0
  -26.7151  -32.5457   23.1112 H   0  0  0  0  0  0
  -25.0064  -33.9744   25.0427 H   0  0  0  0  0  0
  -22.7090  -31.3065   21.4049 H   0  0  0  0  0  0
  -23.3774  -35.9609   23.3279 H   0  0  0  0  0  0
  -24.3595  -36.8953   22.2066 H   0  0  0  0  0  0
  -23.7223  -37.6488   23.6677 H   0  0  0  0  0  0
  -26.0906  -31.5554   20.6044 H   0  0  0  0  0  0
  -26.8397  -30.8431   22.0024 H   0  0  0  0  0  0
  -28.0967  -28.9771   21.2251 H   0  0  0  0  0  0
  -25.9705  -25.9850   18.9269 H   0  0  0  0  0  0
  -23.9770  -27.3438   18.9694 H   0  0  0  0  0  0
  -23.7424  -30.6036   19.4047 H   0  0  0  0  0  0
  -22.7497  -29.2542   19.8573 H   0  0  0  0  0  0
  -25.1282  -36.1944   25.0830 H   0  0  0  0  0  0
  -20.9985  -28.3243   24.1416 H   0  0  0  0  0  0
  -20.5680  -26.2281   23.3620 H   0  0  0  0  0  0
  -21.6640  -26.7424   22.1205 H   0  0  0  0  0  0
  -19.6921  -25.6294   21.1242 H   0  0  0  0  0  0
  -19.6715  -27.3192   20.6744 H   0  0  0  0  0  0
  -17.4209  -26.6710   21.4006 H   0  0  0  0  0  0
  -18.0312  -26.0092   22.9018 H   0  0  0  0  0  0
  -19.7954  -30.7268   24.2269 H   0  0  0  0  0  0
  -17.5029  -31.6272   24.5157 H   0  0  0  0  0  0
  -15.5358  -30.2971   23.7673 H   0  0  0  0  0  0
  -15.8693  -28.0823   22.7038 H   0  0  0  0  0  0
  -24.5903  -30.7094   25.7818 H   0  0  0  0  0  0
  -24.8922  -32.2912   26.4893 H   0  0  0  0  0  0
  -25.8060  -30.8937   27.0256 H   0  0  0  0  0  0
  -26.2853  -29.6785   24.1224 H   0  0  0  0  0  0
  -27.4093  -29.7284   25.4632 H   0  0  0  0  0  0
  -27.8703  -30.4358   23.9321 H   0  0  0  0  0  0
  -27.2773  -33.3639   26.2029 H   0  0  0  0  0  0
  -28.3903  -32.6795   25.0269 H   0  0  0  0  0  0
  -28.0761  -31.8426   26.5392 H   0  0  0  0  0  0
  -28.2579  -38.0098   24.7539 H   0  0  0  0  0  0
  -28.1106  -36.2637   24.6220 H   0  0  0  0  0  0
  -27.2326  -37.1358   25.8865 H   0  0  0  0  0  0
  -20.9370  -29.8768   21.6914 H   0  0  0  0  0  0
  -26.0179  -38.2868   24.1449 H   0  0  0  0  0  0
  -31.8799  -19.7201   20.5948 H   0  0  0  0  0  0
  -30.9910  -21.9039   20.5200 H   0  0  0  0  0  0
  -27.9235  -18.0227   20.6993 H   0  0  0  0  0  0
  -26.3421  -21.8563   22.2810 H   0  0  0  0  0  0
  -26.0056  -22.4273   20.6150 H   0  0  0  0  0  0
  -22.6638  -20.1664   21.4790 H   0  0  0  0  0  0
  -22.8852  -21.8716   21.0703 H   0  0  0  0  0  0
  -23.2435  -21.2986   22.7081 H   0  0  0  0  0  0
  -24.0922  -18.2226   19.9693 H   0  0  0  0  0  0
  -25.0935  -17.6883   21.3280 H   0  0  0  0  0  0
  -25.8104  -17.8947   19.7111 H   0  0  0  0  0  0
  -32.7541  -16.7253   21.9785 H   0  0  0  0  0  0
  -33.6222  -18.0960   21.2767 H   0  0  0  0  0  0
  -33.9312  -16.4569   20.6869 H   0  0  0  0  0  0
  -27.1341  -24.7922   20.3921 H   0  0  0  0  0  0
  -27.9584  -24.9043   18.8569 H   0  0  0  0  0  0
  -29.3592  -24.0914   21.4668 H   0  0  0  0  0  0
  -29.9607  -23.8583   19.8276 H   0  0  0  0  0  0
  1 25  1  0  0  0
  1 30  2  0  0  0
  1 87  1  0  0  0
  2  3  1  0  0  0
  2 25  1  0  0  0
  2 91  1  0  0  0
  2 92  1  0  0  0
  3  4  1  0  0  0
  3 93  1  0  0  0
  3 94  1  0  0  0
  4  5  1  0  0  0
  4 95  1  0  0  0
  4 96  1  0  0  0
  5  6  1  0  0  0
  5 26  1  0  0  0
  5 97  1  0  0  0
  6 25  1  0  0  0
  6 98  1  0  0  0
  6 99  1  0  0  0
  7  8  2  0  0  0
  7 26  1  0  0  0
  7 29  1  0  0  0
  8  9  1  0  0  0
  8 22  1  0  0  0
  9 10  1  0  0  0
  9 27  2  0  0  0
 10 11  2  0  0  0
 10 15  1  0  0  0
 11 12  1  0  0  0
 11100  1  0  0  0
 12 13  2  0  0  0
 12101  1  0  0  0
 13 14  1  0  0  0
 13 31  1  0  0  0
 14 15  2  0  0  0
 14102  1  0  0  0
 15103  1  0  0  0
 16 17  2  0  0  0
 16 21  1  0  0  0
 16 31  1  0  0  0
 17 18  1  0  0  0
 17104  1  0  0  0
 18 19  2  0  0  0
 18105  1  0  0  0
 19 20  1  0  0  0
 19 24  1  0  0  0
 20 21  2  0  0  0
 20106  1  0  0  0
 21 23  1  0  0  0
 22 28  1  0  0  0
 22 32  2  0  0  0
 26 27  1  0  0  0
 28107  1  0  0  0
 28108  1  0  0  0
 29109  1  0  0  0
 29110  1  0  0  0
 33 34  1  0  0  0
 33 66  1  0  0  0
 33 70  2  0  0  0
 34 36  1  0  0  0
 34 59  1  0  0  0
 34111  1  0  0  0
 35 44  2  0  0  0
 35 45  1  0  0  0
 35 68  1  0  0  0
 36 56  1  0  0  0
 36112  1  0  0  0
 37 39  1  0  0  0
 37 47  1  0  0  0
 37 66  1  0  0  0
 37113  1  0  0  0
 38 43  2  0  0  0
 38 46  1  0  0  0
 38 47  1  0  0  0
 39 64  1  0  0  0
 39 67  2  0  0  0
 40 52  1  0  0  0
 40 53  2  0  0  0
 40 58  1  0  0  0
 41114  1  0  0  0
 41115  1  0  0  0
 41116  1  0  0  0
 41 48  1  0  0  0
 42 43  1  0  0  0
 42 66  1  0  0  0
 42117  1  0  0  0
 42118  1  0  0  0
 43 44  1  0  0  0
 44119  1  0  0  0
 45 46  2  0  0  0
 45120  1  0  0  0
 46121  1  0  0  0
 47122  1  0  0  0
 47123  1  0  0  0
 48 56  1  0  0  0
 48 65  1  0  0  0
 48124  1  0  0  0
 49 50  1  0  0  0
 49 53  1  0  0  0
 49 64  1  0  0  0
 49125  1  0  0  0
 50 51  1  0  0  0
 50126  1  0  0  0
 50127  1  0  0  0
 51 52  1  0  0  0
 51128  1  0  0  0
 51129  1  0  0  0
 52130  1  0  0  0
 52131  1  0  0  0
 53 54  1  0  0  0
 54 55  2  0  0  0
 54132  1  0  0  0
 55 57  1  0  0  0
 55133  1  0  0  0
 56 69  2  0  0  0
 57 58  2  0  0  0
 57134  1  0  0  0
 58135  1  0  0  0
 59 60  1  0  0  0
 59 61  1  0  0  0
 59 62  1  0  0  0
 60136  1  0  0  0
 60137  1  0  0  0
 60138  1  0  0  0
 61139  1  0  0  0
 61140  1  0  0  0
 61141  1  0  0  0
 62142  1  0  0  0
 62143  1  0  0  0
 62144  1  0  0  0
 63 65  1  0  0  0
 63145  1  0  0  0
 63146  1  0  0  0
 63147  1  0  0  0
 64148  1  0  0  0
 65149  1  0  0  0
 68 85  1  0  0  0
 71 72  2  0  0  0
 71 74  1  0  0  0
 71150  1  0  0  0
 72 76  1  0  0  0
 72151  1  0  0  0
 73 74  2  0  0  0
 73 75  1  0  0  0
 73152  1  0  0  0
 74 79  1  0  0  0
 75 76  2  0  0  0
 75 88  1  0  0  0
 76 90  1  0  0  0
 77 78  2  0  0  0
 77 81  1  0  0  0
 77 82  1  0  0  0
 78 83  1  0  0  0
 78 88  1  0  0  0
 79 80  1  0  0  0
 79 87  2  0  0  0
 80 84  1  0  0  0
 80 89  2  0  0  0
 81 88  1  0  0  0
 81153  1  0  0  0
 81154  1  0  0  0
 82155  1  0  0  0
 82156  1  0  0  0
 82157  1  0  0  0
 83158  1  0  0  0
 83159  1  0  0  0
 83160  1  0  0  0
 84161  1  0  0  0
 84162  1  0  0  0
 84163  1  0  0  0
 85 86  1  0  0  0
 85164  1  0  0  0
 85165  1  0  0  0
 86 90  1  0  0  0
 86166  1  0  0  0
 86167  1  0  0  0
M  ISO  4   1 100  68 101  85 101  87 100
M  END
> <chiral flag>
0

> <version>
0

> <s_m_source_file>
/data/baiqing/PycharmProjects/Reinvent-master-3.2/result/LINK_invent/BTK/process_docking_weight1_custom_product_contain_oxygen_bond_distance_aromatic_linkinvent_7_9_3/rearranged_h_0079.sdf

> <i_m_source_file_index>
49

> <r_mmod_Potential_Energy-OPLS-2005>
317.151153564453

> <r_mmod_Stretch_Energy-OPLS-2005>
115.049697875977

> <r_mmod_Bend_Energy-OPLS-2005>
280.050872802734

> <r_mmod_Torsional_Energy-OPLS-2005>
224.63330078125

> <r_mmod_Improper_Torsional_Energy-OPLS-2005>
4.12946605682373

> <r_mmod_Van_der_Waal_Energy-OPLS-2005>
190.334976196289

> <r_mmod_Electrostatic_Energy-OPLS-2005>
-365.744567871094

> <r_mmod_Solvation_Energy-OPLS-2005>
-193.965744018555

> <b_mmod_Minimization_Converged-OPLS-2005>
0

> <r_mmod_RMS_Derivative-OPLS-2005>
1.96643280982971

$$$$
49
                    3D
 Structure written by MMmdl.
165174  0  0  1  0            999 V2000
  -30.7086  -14.5475   20.5735 C   0  0  0  0  0  0
  -30.4302  -12.3579   19.4456 C   0  0  0  0  0  0
  -29.4992  -12.5092   18.2243 C   0  0  0  0  0  0
  -28.0256  -12.3504   18.6433 C   0  0  0  0  0  0
  -27.6594  -13.2183   19.8767 C   0  0  2  0  0  0
  -28.7051  -13.0551   21.0053 C   0  0  0  0  0  0
  -25.2551  -13.8186   20.5686 C   0  0  0  0  0  0
  -24.1828  -13.0441   20.9175 C   0  0  0  0  0  0
  -24.6401  -11.6908   20.8757 C   0  0  0  0  0  0
  -23.9069  -10.4294   21.0426 C   0  0  0  0  0  0
  -24.3609   -9.4205   21.9200 C   0  0  0  0  0  0
  -23.6273   -8.2246   22.0768 C   0  0  0  0  0  0
  -22.4258   -8.0280   21.3543 C   0  0  0  0  0  0
  -21.9901   -9.0266   20.4655 C   0  0  0  0  0  0
  -22.7244  -10.2139   20.3067 C   0  0  0  0  0  0
  -21.6850   -6.0723   22.5274 C   0  0  0  0  0  0
  -21.4016   -6.5620   23.8209 C   0  0  0  0  0  0
  -21.3660   -5.6775   24.9166 C   0  0  0  0  0  0
  -21.6040   -4.3036   24.7225 C   0  0  0  0  0  0
  -21.8812   -3.8130   23.4345 C   0  0  0  0  0  0
  -21.9187   -4.6946   22.3399 C   0  0  0  0  0  0
  -22.7835  -13.5219   21.1828 C   0  0  0  0  0  0
  -22.1650   -4.2125   21.0982 F   0  0  0  0  0  0
  -21.5632   -3.4522   25.7745 F   0  0  0  0  0  0
  -30.0302  -13.3678   20.4438 N   0  0  0  0  0  0
  -26.3019  -12.9391   20.3396 N   0  0  0  0  0  0
  -25.9341  -11.6534   20.5807 N   0  0  0  0  0  0
  -22.0479  -12.8225   22.0398 N   0  0  0  0  0  0
  -25.4253  -15.1916   20.4093 N   0  0  0  0  0  0
  -31.8472  -14.6870   20.1199 O   0  0  0  0  0  0
  -21.6619   -6.8875   21.4238 O   0  0  0  0  0  0
  -22.3521  -14.5533   20.6683 O   0  0  0  0  0  0
  -24.6155  -31.8651   23.2120 C   0  0  0  0  0  0
  -25.9043  -32.4807   23.8409 C   0  0  1  0  0  0
  -27.2197  -27.4043   20.1046 C   0  0  0  0  0  0
  -25.5891  -33.8605   24.2323 N   0  0  0  0  0  0
  -23.4060  -30.4923   21.5499 C   0  0  2  0  0  0
  -24.8544  -28.9642   20.1088 C   0  0  0  0  0  0
  -22.7406  -29.4654   22.4942 C   0  0  0  0  0  0
  -18.0284  -28.1362   22.8465 C   0  0  0  0  0  0
  -24.1494  -36.7324   23.2639 C   0  0  0  0  0  0
  -25.9398  -30.8257   21.3698 C   0  0  0  0  0  0
  -26.0192  -29.4605   20.7118 C   0  0  0  0  0  0
  -27.2087  -28.6861   20.7102 C   0  0  0  0  0  0
  -26.0429  -26.9447   19.4741 C   0  0  0  0  0  0
  -24.8626  -27.7075   19.4835 C   0  0  0  0  0  0
  -23.6158  -29.8312   20.1630 C   0  0  0  0  0  0
  -25.4112  -36.3099   24.0332 C   0  0  1  0  0  0
  -20.5877  -28.3665   23.1296 C   0  0  2  0  0  0
  -20.6780  -26.9397   22.5421 C   0  0  0  0  0  0
  -19.5776  -26.6378   21.5202 C   0  0  0  0  0  0
  -18.1935  -26.7914   22.1585 C   0  0  0  0  0  0
  -19.1536  -28.8824   23.2884 C   0  0  0  0  0  0
  -18.9473  -30.1419   23.8915 C   0  0  0  0  0  0
  -17.6477  -30.6566   24.0567 C   0  0  0  0  0  0
  -25.9034  -34.9459   23.5128 C   0  0  0  0  0  0
  -16.5355  -29.9073   23.6324 C   0  0  0  0  0  0
  -16.7279  -28.6493   23.0334 C   0  0  0  0  0  0
  -26.4469  -31.6583   25.0728 C   0  0  0  0  0  0
  -25.3741  -31.3679   26.1481 C   0  0  0  0  0  0
  -27.0305  -30.3022   24.6119 C   0  0  0  0  0  0
  -27.6041  -32.4315   25.7483 C   0  0  0  0  0  0
  -27.5581  -37.1796   24.8443 C   0  0  0  0  0  0
  -21.4137  -29.3031   22.3684 N   0  0  0  0  0  0
  -26.4279  -37.3798   23.9415 N   0  0  0  0  0  0
  -24.6730  -31.0735   22.1031 N   0  0  0  0  0  0
  -23.4157  -28.8170   23.2986 O   0  0  0  0  0  0
  -28.3102  -26.5543   20.1622 O   0  0  0  0  0  0
  -26.5604  -34.8914   22.4686 O   0  0  0  0  0  0
  -23.5335  -32.1405   23.7501 O   0  0  0  0  0  0
  -30.9750  -19.7806   21.4246 C   0  0  0  0  0  0
  -29.3447  -17.9916   21.1475 C   0  0  0  0  0  0
  -31.7043  -17.4409   21.3441 C   0  0  0  0  0  0
  -35.5265  -19.6547   21.3398 C   0  0  0  0  0  0
  -33.7726  -20.0748   22.6914 C   0  0  0  0  0  0
  -29.6337  -19.3861   21.2538 C   0  0  0  0  0  0
  -32.0043  -18.8194   21.4675 C   0  0  0  0  0  0
  -30.3668  -16.9982   21.1704 C   0  0  0  0  0  0
  -35.1086  -20.3212   22.5254 C   0  0  0  0  0  0
  -34.4281  -19.0204   20.8344 C   0  0  0  0  0  0
  -28.3041  -24.1038   20.1669 C   0  0  0  0  0  0
  -28.0153  -25.3123   20.7103 C   0  0  0  0  0  0
  -28.5250  -20.4211   21.3027 C   0  0  0  0  0  0
  -26.5054  -22.3793   19.9308 C   0  0  0  0  0  0
  -27.7679  -22.7703   20.7290 C   0  0  1  0  0  0
  -33.3358  -19.2635   21.6526 N   0  0  0  0  0  0
  -30.0043  -15.5973   21.0772 N   0  0  0  0  0  0
  -28.7433  -21.6494   20.7672 N   0  0  0  0  0  0
  -27.4476  -20.1089   21.8123 O   0  0  0  0  0  0
  -35.8950  -21.0749   23.3451 O   0  0  0  0  0  0
  -34.3151  -18.2680   19.7051 O   0  0  0  0  0  0
  -31.4731  -12.4599   19.1392 H   0  0  0  0  0  0
  -30.3465  -11.3578   19.8725 H   0  0  0  0  0  0
  -29.7527  -11.7697   17.4638 H   0  0  0  0  0  0
  -29.6469  -13.4868   17.7638 H   0  0  0  0  0  0
  -27.8644  -11.2969   18.8746 H   0  0  0  0  0  0
  -27.3639  -12.5795   17.8079 H   0  0  0  0  0  0
  -27.6867  -14.2567   19.5471 H   0  0  0  0  0  0
  -28.6989  -12.0323   21.3826 H   0  0  0  0  0  0
  -28.4584  -13.6845   21.8625 H   0  0  0  0  0  0
  -25.2751   -9.5652   22.4775 H   0  0  0  0  0  0
  -23.9956   -7.4633   22.7499 H   0  0  0  0  0  0
  -21.0821   -8.8803   19.8973 H   0  0  0  0  0  0
  -22.3715  -10.9678   19.6167 H   0  0  0  0  0  0
  -21.2012   -7.6127   23.9704 H   0  0  0  0  0  0
  -21.1486   -6.0504   25.9069 H   0  0  0  0  0  0
  -22.0593   -2.7585   23.2855 H   0  0  0  0  0  0
  -22.4091  -11.9875   22.4782 H   0  0  0  0  0  0
  -21.1099  -13.1262   22.2618 H   0  0  0  0  0  0
  -24.6560  -15.8441   20.5167 H   0  0  0  0  0  0
  -26.2709  -15.6330   20.0723 H   0  0  0  0  0  0
  -26.7096  -32.5503   23.1151 H   0  0  0  0  0  0
  -25.0016  -33.9789   25.0451 H   0  0  0  0  0  0
  -22.6973  -31.3113   21.4088 H   0  0  0  0  0  0
  -23.3745  -35.9659   23.3269 H   0  0  0  0  0  0
  -24.3604  -36.8983   22.2061 H   0  0  0  0  0  0
  -23.7251  -37.6517   23.6687 H   0  0  0  0  0  0
  -26.0582  -31.5960   20.6064 H   0  0  0  0  0  0
  -26.8230  -30.8721   21.9945 H   0  0  0  0  0  0
  -28.0994  -29.0475   21.2055 H   0  0  0  0  0  0
  -26.0259  -25.9732   19.0014 H   0  0  0  0  0  0
  -23.9675  -27.3245   19.0131 H   0  0  0  0  0  0
  -23.7241  -30.6095   19.4065 H   0  0  0  0  0  0
  -22.7372  -29.2561   19.8632 H   0  0  0  0  0  0
  -25.1276  -36.1950   25.0822 H   0  0  0  0  0  0
  -20.9987  -28.3259   24.1415 H   0  0  0  0  0  0
  -20.5693  -26.2278   23.3613 H   0  0  0  0  0  0
  -21.6651  -26.7427   22.1232 H   0  0  0  0  0  0
  -19.6987  -25.6296   21.1228 H   0  0  0  0  0  0
  -19.6755  -27.3196   20.6734 H   0  0  0  0  0  0
  -17.4230  -26.6668   21.3958 H   0  0  0  0  0  0
  -18.0325  -26.0028   22.8952 H   0  0  0  0  0  0
  -19.7949  -30.7217   24.2311 H   0  0  0  0  0  0
  -17.5037  -31.6261   24.5141 H   0  0  0  0  0  0
  -15.5363  -30.2985   23.7669 H   0  0  0  0  0  0
  -15.8666  -28.0841   22.7034 H   0  0  0  0  0  0
  -24.6028  -30.6860   25.7876 H   0  0  0  0  0  0
  -24.8772  -32.2801   26.4798 H   0  0  0  0  0  0
  -25.8128  -30.9022   27.0323 H   0  0  0  0  0  0
  -26.2854  -29.6768   24.1181 H   0  0  0  0  0  0
  -27.4086  -29.7261   25.4578 H   0  0  0  0  0  0
  -27.8683  -30.4332   23.9263 H   0  0  0  0  0  0
  -27.2666  -33.3636   26.2046 H   0  0  0  0  0  0
  -28.3854  -32.6859   25.0297 H   0  0  0  0  0  0
  -28.0711  -31.8448   26.5418 H   0  0  0  0  0  0
  -28.2557  -38.0132   24.7528 H   0  0  0  0  0  0
  -28.1121  -36.2664   24.6198 H   0  0  0  0  0  0
  -27.2317  -37.1347   25.8850 H   0  0  0  0  0  0
  -20.9308  -29.8732   21.6889 H   0  0  0  0  0  0
  -26.0158  -38.2863   24.1456 H   0  0  0  0  0  0
  -31.2225  -20.8252   21.5500 H   0  0  0  0  0  0
  -28.3114  -17.6889   21.0473 H   0  0  0  0  0  0
  -32.5198  -16.7358   21.4060 H   0  0  0  0  0  0
  -36.5168  -19.6459   20.9053 H   0  0  0  0  0  0
  -33.0840  -20.4031   23.4580 H   0  0  0  0  0  0
  -28.8820  -24.0586   19.2540 H   0  0  0  0  0  0
  -27.4512  -25.4063   21.6290 H   0  0  0  0  0  0
  -25.8729  -23.2467   19.7334 H   0  0  0  0  0  0
  -25.8872  -21.6710   20.4831 H   0  0  0  0  0  0
  -26.7522  -21.9307   18.9673 H   0  0  0  0  0  0
  -27.4560  -22.9670   21.7565 H   0  0  0  0  0  0
  -29.0490  -15.3754   21.3140 H   0  0  0  0  0  0
  -29.6531  -21.8167   20.3635 H   0  0  0  0  0  0
  -36.8039  -21.1253   23.0579 H   0  0  0  0  0  0
  -35.1675  -18.2504   19.2818 H   0  0  0  0  0  0
  1 25  1  0  0  0
  1 30  2  0  0  0
  1 87  1  0  0  0
  2  3  1  0  0  0
  2 25  1  0  0  0
  2 92  1  0  0  0
  2 93  1  0  0  0
  3  4  1  0  0  0
  3 94  1  0  0  0
  3 95  1  0  0  0
  4  5  1  0  0  0
  4 96  1  0  0  0
  4 97  1  0  0  0
  5  6  1  0  0  0
  5 26  1  0  0  0
  5 98  1  0  0  0
  6 25  1  0  0  0
  6 99  1  0  0  0
  6100  1  0  0  0
  7  8  2  0  0  0
  7 26  1  0  0  0
  7 29  1  0  0  0
  8  9  1  0  0  0
  8 22  1  0  0  0
  9 10  1  0  0  0
  9 27  2  0  0  0
 10 11  2  0  0  0
 10 15  1  0  0  0
 11 12  1  0  0  0
 11101  1  0  0  0
 12 13  2  0  0  0
 12102  1  0  0  0
 13 14  1  0  0  0
 13 31  1  0  0  0
 14 15  2  0  0  0
 14103  1  0  0  0
 15104  1  0  0  0
 16 17  2  0  0  0
 16 21  1  0  0  0
 16 31  1  0  0  0
 17 18  1  0  0  0
 17105  1  0  0  0
 18 19  2  0  0  0
 18106  1  0  0  0
 19 20  1  0  0  0
 19 24  1  0  0  0
 20 21  2  0  0  0
 20107  1  0  0  0
 21 23  1  0  0  0
 22 28  1  0  0  0
 22 32  2  0  0  0
 26 27  1  0  0  0
 28108  1  0  0  0
 28109  1  0  0  0
 29110  1  0  0  0
 29111  1  0  0  0
 33 34  1  0  0  0
 33 66  1  0  0  0
 33 70  2  0  0  0
 34 36  1  0  0  0
 34 59  1  0  0  0
 34112  1  0  0  0
 35 44  2  0  0  0
 35 45  1  0  0  0
 35 68  1  0  0  0
 36 56  1  0  0  0
 36113  1  0  0  0
 37 39  1  0  0  0
 37 47  1  0  0  0
 37 66  1  0  0  0
 37114  1  0  0  0
 38 43  2  0  0  0
 38 46  1  0  0  0
 38 47  1  0  0  0
 39 64  1  0  0  0
 39 67  2  0  0  0
 40 52  1  0  0  0
 40 53  2  0  0  0
 40 58  1  0  0  0
 41115  1  0  0  0
 41116  1  0  0  0
 41117  1  0  0  0
 41 48  1  0  0  0
 42 43  1  0  0  0
 42 66  1  0  0  0
 42118  1  0  0  0
 42119  1  0  0  0
 43 44  1  0  0  0
 44120  1  0  0  0
 45 46  2  0  0  0
 45121  1  0  0  0
 46122  1  0  0  0
 47123  1  0  0  0
 47124  1  0  0  0
 48 56  1  0  0  0
 48 65  1  0  0  0
 48125  1  0  0  0
 49 50  1  0  0  0
 49 53  1  0  0  0
 49 64  1  0  0  0
 49126  1  0  0  0
 50 51  1  0  0  0
 50127  1  0  0  0
 50128  1  0  0  0
 51 52  1  0  0  0
 51129  1  0  0  0
 51130  1  0  0  0
 52131  1  0  0  0
 52132  1  0  0  0
 53 54  1  0  0  0
 54 55  2  0  0  0
 54133  1  0  0  0
 55 57  1  0  0  0
 55134  1  0  0  0
 56 69  2  0  0  0
 57 58  2  0  0  0
 57135  1  0  0  0
 58136  1  0  0  0
 59 60  1  0  0  0
 59 61  1  0  0  0
 59 62  1  0  0  0
 60137  1  0  0  0
 60138  1  0  0  0
 60139  1  0  0  0
 61140  1  0  0  0
 61141  1  0  0  0
 61142  1  0  0  0
 62143  1  0  0  0
 62144  1  0  0  0
 62145  1  0  0  0
 63 65  1  0  0  0
 63146  1  0  0  0
 63147  1  0  0  0
 63148  1  0  0  0
 64149  1  0  0  0
 65150  1  0  0  0
 68 82  1  0  0  0
 71 76  2  0  0  0
 71 77  1  0  0  0
 71151  1  0  0  0
 72 76  1  0  0  0
 72 78  2  0  0  0
 72152  1  0  0  0
 73 77  2  0  0  0
 73 78  1  0  0  0
 73153  1  0  0  0
 74 79  1  0  0  0
 74 80  2  0  0  0
 74154  1  0  0  0
 75 79  2  0  0  0
 75 86  1  0  0  0
 75155  1  0  0  0
 76 83  1  0  0  0
 77 86  1  0  0  0
 78 87  1  0  0  0
 79 90  1  0  0  0
 80 86  1  0  0  0
 80 91  1  0  0  0
 81 82  2  0  0  0
 81 85  1  0  0  0
 81156  1  0  0  0
 82157  1  0  0  0
 83 88  1  0  0  0
 83 89  2  0  0  0
 84158  1  0  0  0
 84159  1  0  0  0
 84160  1  0  0  0
 84 85  1  0  0  0
 85 88  1  0  0  0
 85161  1  0  0  0
 87162  1  0  0  0
 88163  1  0  0  0
 90164  1  0  0  0
 91165  1  0  0  0
M  ISO  4   1 100  68 101  82 101  87 100
M  END
> <chiral flag>
0

> <version>
0

> <s_m_source_file>
/data/baiqing/PycharmProjects/Reinvent-master-3.2/result/LINK_invent/BTK/process_docking_weight1_custom_product_contain_oxygen_bond_distance_aromatic_linkinvent_7_9_3/rearranged_h_0079.sdf

> <i_m_source_file_index>
50

> <r_mmod_Potential_Energy-OPLS-2005>
-140.84001159668

> <r_mmod_Stretch_Energy-OPLS-2005>
49.7486267089844

> <r_mmod_Bend_Energy-OPLS-2005>
106.578063964844

> <r_mmod_Torsional_Energy-OPLS-2005>
238.886444091797

> <r_mmod_Improper_Torsional_Energy-OPLS-2005>
5.31885147094727

> <r_mmod_Van_der_Waal_Energy-OPLS-2005>
148.050476074219

> <r_mmod_Electrostatic_Energy-OPLS-2005>
-447.895721435547

> <r_mmod_Solvation_Energy-OPLS-2005>
-267.802459716797

> <b_mmod_Minimization_Converged-OPLS-2005>
0

> <r_mmod_RMS_Derivative-OPLS-2005>
3.06083726882935

$$$$
50
                    3D
 Structure written by MMmdl.
158167  0  0  1  0            999 V2000
  -30.6086  -14.7651   20.4316 C   0  0  0  0  0  0
  -30.4279  -12.4615   19.4840 C   0  0  0  0  0  0
  -29.5109  -12.5028   18.2416 C   0  0  0  0  0  0
  -28.0365  -12.3288   18.6525 C   0  0  0  0  0  0
  -27.6387  -13.2356   19.8476 C   0  0  2  0  0  0
  -28.6812  -13.1871   20.9856 C   0  0  0  0  0  0
  -25.2497  -13.8209   20.5698 C   0  0  0  0  0  0
  -24.1796  -13.0447   20.9215 C   0  0  0  0  0  0
  -24.6394  -11.6926   20.8754 C   0  0  0  0  0  0
  -23.9074  -10.4297   21.0411 C   0  0  0  0  0  0
  -24.3626   -9.4210   21.9185 C   0  0  0  0  0  0
  -23.6299   -8.2245   22.0751 C   0  0  0  0  0  0
  -22.4280   -8.0285   21.3541 C   0  0  0  0  0  0
  -21.9920   -9.0260   20.4642 C   0  0  0  0  0  0
  -22.7250  -10.2138   20.3055 C   0  0  0  0  0  0
  -21.6854   -6.0741   22.5279 C   0  0  0  0  0  0
  -21.4013   -6.5643   23.8214 C   0  0  0  0  0  0
  -21.3659   -5.6793   24.9177 C   0  0  0  0  0  0
  -21.6044   -4.3056   24.7224 C   0  0  0  0  0  0
  -21.8819   -3.8151   23.4344 C   0  0  0  0  0  0
  -21.9194   -4.6969   22.3402 C   0  0  0  0  0  0
  -22.7816  -13.5222   21.1874 C   0  0  0  0  0  0
  -22.1662   -4.2156   21.0978 F   0  0  0  0  0  0
  -21.5630   -3.4539   25.7736 F   0  0  0  0  0  0
  -29.9817  -13.5367   20.4032 N   0  0  0  0  0  0
  -26.2920  -12.9422   20.3267 N   0  0  0  0  0  0
  -25.9322  -11.6560   20.5748 N   0  0  0  0  0  0
  -22.0468  -12.8205   22.0428 N   0  0  0  0  0  0
  -25.4187  -15.1936   20.4118 N   0  0  0  0  0  0
  -31.8071  -14.8217   20.1417 O   0  0  0  0  0  0
  -21.6641   -6.8884   21.4240 O   0  0  0  0  0  0
  -22.3497  -14.5528   20.6723 O   0  0  0  0  0  0
  -24.6321  -31.8531   23.1956 C   0  0  0  0  0  0
  -25.9143  -32.4738   23.8309 C   0  0  1  0  0  0
  -27.2228  -27.2467   20.1220 C   0  0  0  0  0  0
  -25.5928  -33.8540   24.2230 N   0  0  0  0  0  0
  -23.4290  -30.4749   21.5391 C   0  0  2  0  0  0
  -24.8756  -28.9179   20.1078 C   0  0  0  0  0  0
  -22.7507  -29.4590   22.4898 C   0  0  0  0  0  0
  -18.0294  -28.1390   22.8477 C   0  0  0  0  0  0
  -24.1493  -36.7275   23.2640 C   0  0  0  0  0  0
  -25.9753  -30.7615   21.3765 C   0  0  0  0  0  0
  -26.0466  -29.3822   20.7181 C   0  0  0  0  0  0
  -27.2178  -28.5574   20.7161 C   0  0  0  0  0  0
  -26.0204  -26.8468   19.4955 C   0  0  0  0  0  0
  -24.8682  -27.6587   19.4880 C   0  0  0  0  0  0
  -23.6474  -29.8067   20.1556 C   0  0  0  0  0  0
  -25.4120  -36.3055   24.0320 C   0  0  1  0  0  0
  -20.5896  -28.3699   23.1264 C   0  0  2  0  0  0
  -20.6777  -26.9414   22.5408 C   0  0  0  0  0  0
  -19.5755  -26.6383   21.5209 C   0  0  0  0  0  0
  -18.1934  -26.7929   22.1621 C   0  0  0  0  0  0
  -19.1547  -28.8862   23.2865 C   0  0  0  0  0  0
  -18.9473  -30.1463   23.8882 C   0  0  0  0  0  0
  -17.6471  -30.6588   24.0563 C   0  0  0  0  0  0
  -25.9061  -34.9429   23.5079 C   0  0  0  0  0  0
  -16.5361  -29.9085   23.6334 C   0  0  0  0  0  0
  -16.7280  -28.6507   23.0343 C   0  0  0  0  0  0
  -26.4505  -31.6574   25.0711 C   0  0  0  0  0  0
  -25.3722  -31.3730   26.1427 C   0  0  0  0  0  0
  -27.0362  -30.2990   24.6213 C   0  0  0  0  0  0
  -27.6051  -32.4323   25.7486 C   0  0  0  0  0  0
  -27.5579  -37.1791   24.8465 C   0  0  0  0  0  0
  -21.4212  -29.3039   22.3646 N   0  0  0  0  0  0
  -26.4291  -37.3759   23.9408 N   0  0  0  0  0  0
  -24.6980  -31.0485   22.0932 N   0  0  0  0  0  0
  -23.4202  -28.8135   23.3005 O   0  0  0  0  0  0
  -28.3361  -26.3728   20.2115 O   0  0  0  0  0  0
  -26.5646  -34.8909   22.4657 O   0  0  0  0  0  0
  -23.5469  -32.1358   23.7249 O   0  0  0  0  0  0
  -31.3026  -18.8788   18.6709 C   0  0  0  0  0  0
  -30.5821  -19.9983   19.1269 C   0  0  0  0  0  0
  -31.0611  -17.5857   19.1699 C   0  0  0  0  0  0
  -29.3525  -18.5273   20.6145 C   0  0  0  0  0  0
  -29.5720  -19.8934   20.1093 C   0  0  0  0  0  0
  -30.0877  -17.3393   20.1661 C   0  0  0  0  0  0
  -28.9231  -22.4313   19.8587 C   0  0  0  0  0  0
  -28.4585  -23.6471   20.3427 C   0  0  0  0  0  0
  -27.4025  -22.2874   22.1879 C   0  0  0  0  0  0
  -26.2355  -22.1165   22.8306 C   0  0  0  0  0  0
  -27.8600  -23.6779   21.7375 C   0  0  0  0  0  0
  -28.3027  -21.0918   21.8500 C   0  0  0  0  0  0
  -28.4343  -25.0284   19.5346 C   0  0  0  0  0  0
  -28.8997  -21.1372   20.5101 N   0  0  0  0  0  0
  -29.8485  -15.9253   20.6140 N   0  0  0  0  0  0
  -31.4699  -12.5766   19.1819 H   0  0  0  0  0  0
  -30.3680  -11.4901   19.9775 H   0  0  0  0  0  0
  -29.7964  -11.7230   17.5340 H   0  0  0  0  0  0
  -29.6375  -13.4524   17.7190 H   0  0  0  0  0  0
  -27.8937  -11.2815   18.9216 H   0  0  0  0  0  0
  -27.3808  -12.5146   17.8007 H   0  0  0  0  0  0
  -27.6280  -14.2536   19.4575 H   0  0  0  0  0  0
  -28.7180  -12.1950   21.4383 H   0  0  0  0  0  0
  -28.4133  -13.8795   21.7849 H   0  0  0  0  0  0
  -25.2770   -9.5687   22.4759 H   0  0  0  0  0  0
  -24.0012   -7.4635   22.7468 H   0  0  0  0  0  0
  -21.0855   -8.8781   19.8943 H   0  0  0  0  0  0
  -22.3713  -10.9679   19.6164 H   0  0  0  0  0  0
  -21.2003   -7.6150   23.9720 H   0  0  0  0  0  0
  -21.1481   -6.0522   25.9079 H   0  0  0  0  0  0
  -22.0598   -2.7612   23.2842 H   0  0  0  0  0  0
  -22.4093  -11.9868   22.4811 H   0  0  0  0  0  0
  -21.1079  -13.1213   22.2630 H   0  0  0  0  0  0
  -24.6487  -15.8452   20.5187 H   0  0  0  0  0  0
  -26.2608  -15.6323   20.0621 H   0  0  0  0  0  0
  -26.7205  -32.5382   23.1042 H   0  0  0  0  0  0
  -25.0049  -33.9668   25.0356 H   0  0  0  0  0  0
  -22.7261  -31.2975   21.3917 H   0  0  0  0  0  0
  -23.3753  -35.9610   23.3297 H   0  0  0  0  0  0
  -24.3576  -36.8912   22.2057 H   0  0  0  0  0  0
  -23.7254  -37.6470   23.6679 H   0  0  0  0  0  0
  -26.1158  -31.5221   20.6071 H   0  0  0  0  0  0
  -26.8519  -30.8101   22.0109 H   0  0  0  0  0  0
  -28.1137  -28.9069   21.2101 H   0  0  0  0  0  0
  -25.9186  -25.8761   19.0382 H   0  0  0  0  0  0
  -23.9671  -27.2925   19.0156 H   0  0  0  0  0  0
  -23.7726  -30.5823   19.3990 H   0  0  0  0  0  0
  -22.7653  -29.2403   19.8509 H   0  0  0  0  0  0
  -25.1308  -36.1893   25.0812 H   0  0  0  0  0  0
  -20.9988  -28.3284   24.1388 H   0  0  0  0  0  0
  -20.5674  -26.2311   23.3615 H   0  0  0  0  0  0
  -21.6646  -26.7433   22.1208 H   0  0  0  0  0  0
  -19.6918  -25.6293   21.1245 H   0  0  0  0  0  0
  -19.6696  -27.3189   20.6735 H   0  0  0  0  0  0
  -17.4203  -26.6670   21.4025 H   0  0  0  0  0  0
  -18.0336  -26.0078   22.9027 H   0  0  0  0  0  0
  -19.7952  -30.7281   24.2238 H   0  0  0  0  0  0
  -17.5029  -31.6265   24.5174 H   0  0  0  0  0  0
  -15.5359  -30.2984   23.7672 H   0  0  0  0  0  0
  -15.8679  -28.0833   22.7051 H   0  0  0  0  0  0
  -24.5910  -30.7064   25.7753 H   0  0  0  0  0  0
  -24.8898  -32.2899   26.4823 H   0  0  0  0  0  0
  -25.8035  -30.8932   27.0223 H   0  0  0  0  0  0
  -26.2954  -29.6716   24.1237 H   0  0  0  0  0  0
  -27.4040  -29.7274   25.4743 H   0  0  0  0  0  0
  -27.8829  -30.4252   23.9461 H   0  0  0  0  0  0
  -27.2658  -33.3642   26.2021 H   0  0  0  0  0  0
  -28.3882  -32.6853   25.0326 H   0  0  0  0  0  0
  -28.0690  -31.8475   26.5439 H   0  0  0  0  0  0
  -28.2587  -38.0096   24.7513 H   0  0  0  0  0  0
  -28.1084  -36.2625   24.6289 H   0  0  0  0  0  0
  -27.2293  -37.1435   25.8867 H   0  0  0  0  0  0
  -20.9399  -29.8764   21.6851 H   0  0  0  0  0  0
  -26.0164  -38.2828   24.1415 H   0  0  0  0  0  0
  -32.0615  -19.0167   17.9138 H   0  0  0  0  0  0
  -30.8443  -20.9556   18.7035 H   0  0  0  0  0  0
  -31.6433  -16.7831   18.7430 H   0  0  0  0  0  0
  -28.5902  -18.3671   21.3607 H   0  0  0  0  0  0
  -29.3037  -22.3983   18.8476 H   0  0  0  0  0  0
  -25.5910  -22.9525   23.0619 H   0  0  0  0  0  0
  -25.9024  -21.1362   23.1400 H   0  0  0  0  0  0
  -27.0168  -24.3703   21.7537 H   0  0  0  0  0  0
  -28.6085  -24.0633   22.4304 H   0  0  0  0  0  0
  -27.7134  -20.1847   21.9797 H   0  0  0  0  0  0
  -29.1094  -21.0552   22.5836 H   0  0  0  0  0  0
  -27.7114  -24.9252   18.7297 H   0  0  0  0  0  0
  -29.3856  -25.0576   19.0030 H   0  0  0  0  0  0
  -28.9319  -15.7503   20.9974 H   0  0  0  0  0  0
  1 25  1  0  0  0
  1 30  2  0  0  0
  1 85  1  0  0  0
  2  3  1  0  0  0
  2 25  1  0  0  0
  2 86  1  0  0  0
  2 87  1  0  0  0
  3  4  1  0  0  0
  3 88  1  0  0  0
  3 89  1  0  0  0
  4  5  1  0  0  0
  4 90  1  0  0  0
  4 91  1  0  0  0
  5  6  1  0  0  0
  5 26  1  0  0  0
  5 92  1  0  0  0
  6 25  1  0  0  0
  6 93  1  0  0  0
  6 94  1  0  0  0
  7  8  2  0  0  0
  7 26  1  0  0  0
  7 29  1  0  0  0
  8  9  1  0  0  0
  8 22  1  0  0  0
  9 10  1  0  0  0
  9 27  2  0  0  0
 10 11  2  0  0  0
 10 15  1  0  0  0
 11 12  1  0  0  0
 11 95  1  0  0  0
 12 13  2  0  0  0
 12 96  1  0  0  0
 13 14  1  0  0  0
 13 31  1  0  0  0
 14 15  2  0  0  0
 14 97  1  0  0  0
 15 98  1  0  0  0
 16 17  2  0  0  0
 16 21  1  0  0  0
 16 31  1  0  0  0
 17 18  1  0  0  0
 17 99  1  0  0  0
 18 19  2  0  0  0
 18100  1  0  0  0
 19 20  1  0  0  0
 19 24  1  0  0  0
 20 21  2  0  0  0
 20101  1  0  0  0
 21 23  1  0  0  0
 22 28  1  0  0  0
 22 32  2  0  0  0
 26 27  1  0  0  0
 28102  1  0  0  0
 28103  1  0  0  0
 29104  1  0  0  0
 29105  1  0  0  0
 33 34  1  0  0  0
 33 66  1  0  0  0
 33 70  2  0  0  0
 34 36  1  0  0  0
 34 59  1  0  0  0
 34106  1  0  0  0
 35 44  2  0  0  0
 35 45  1  0  0  0
 35 68  1  0  0  0
 36 56  1  0  0  0
 36107  1  0  0  0
 37 39  1  0  0  0
 37 47  1  0  0  0
 37 66  1  0  0  0
 37108  1  0  0  0
 38 43  2  0  0  0
 38 46  1  0  0  0
 38 47  1  0  0  0
 39 64  1  0  0  0
 39 67  2  0  0  0
 40 52  1  0  0  0
 40 53  2  0  0  0
 40 58  1  0  0  0
 41109  1  0  0  0
 41110  1  0  0  0
 41111  1  0  0  0
 41 48  1  0  0  0
 42 43  1  0  0  0
 42 66  1  0  0  0
 42112  1  0  0  0
 42113  1  0  0  0
 43 44  1  0  0  0
 44114  1  0  0  0
 45 46  2  0  0  0
 45115  1  0  0  0
 46116  1  0  0  0
 47117  1  0  0  0
 47118  1  0  0  0
 48 56  1  0  0  0
 48 65  1  0  0  0
 48119  1  0  0  0
 49 50  1  0  0  0
 49 53  1  0  0  0
 49 64  1  0  0  0
 49120  1  0  0  0
 50 51  1  0  0  0
 50121  1  0  0  0
 50122  1  0  0  0
 51 52  1  0  0  0
 51123  1  0  0  0
 51124  1  0  0  0
 52125  1  0  0  0
 52126  1  0  0  0
 53 54  1  0  0  0
 54 55  2  0  0  0
 54127  1  0  0  0
 55 57  1  0  0  0
 55128  1  0  0  0
 56 69  2  0  0  0
 57 58  2  0  0  0
 57129  1  0  0  0
 58130  1  0  0  0
 59 60  1  0  0  0
 59 61  1  0  0  0
 59 62  1  0  0  0
 60131  1  0  0  0
 60132  1  0  0  0
 60133  1  0  0  0
 61134  1  0  0  0
 61135  1  0  0  0
 61136  1  0  0  0
 62137  1  0  0  0
 62138  1  0  0  0
 62139  1  0  0  0
 63 65  1  0  0  0
 63140  1  0  0  0
 63141  1  0  0  0
 63142  1  0  0  0
 64143  1  0  0  0
 65144  1  0  0  0
 68 83  1  0  0  0
 71 72  2  0  0  0
 71 73  1  0  0  0
 71145  1  0  0  0
 72 75  1  0  0  0
 72146  1  0  0  0
 73 76  2  0  0  0
 73147  1  0  0  0
 74 75  2  0  0  0
 74 76  1  0  0  0
 74148  1  0  0  0
 75 84  1  0  0  0
 76 85  1  0  0  0
 77 78  2  0  0  0
 77 84  1  0  0  0
 77149  1  0  0  0
 78 81  1  0  0  0
 78 83  1  0  0  0
 79 80  2  0  0  0
 79 81  1  0  0  0
 79 82  1  0  0  0
 80150  1  0  0  0
 80151  1  0  0  0
 81152  1  0  0  0
 81153  1  0  0  0
 82 84  1  0  0  0
 82154  1  0  0  0
 82155  1  0  0  0
 83156  1  0  0  0
 83157  1  0  0  0
 85158  1  0  0  0
M  ISO  4   1 100  68 101  83 101  85 100
M  END
> <chiral flag>
0

> <version>
0

> <s_m_source_file>
/data/baiqing/PycharmProjects/Reinvent-master-3.2/result/LINK_invent/BTK/process_docking_weight1_custom_product_contain_oxygen_bond_distance_aromatic_linkinvent_7_9_3/rearranged_h_0079.sdf

> <i_m_source_file_index>
51

> <r_mmod_Potential_Energy-OPLS-2005>
219.302169799805

> <r_mmod_Stretch_Energy-OPLS-2005>
140.028961181641

> <r_mmod_Bend_Energy-OPLS-2005>
173.183868408203

> <r_mmod_Torsional_Energy-OPLS-2005>
204.610412597656

> <r_mmod_Improper_Torsional_Energy-OPLS-2005>
4.57819890975952

> <r_mmod_Van_der_Waal_Energy-OPLS-2005>
156.635589599609

> <r_mmod_Electrostatic_Energy-OPLS-2005>
-343.583862304688

> <r_mmod_Solvation_Energy-OPLS-2005>
-209.421722412109

> <b_mmod_Minimization_Converged-OPLS-2005>
0

> <r_mmod_RMS_Derivative-OPLS-2005>
0.635339438915253

$$$$
51
                    3D
 Structure written by MMmdl.
158167  0  0  1  0            999 V2000
  -30.5894  -14.7898   20.4458 C   0  0  0  0  0  0
  -30.4349  -12.4788   19.4998 C   0  0  0  0  0  0
  -29.5227  -12.5316   18.2537 C   0  0  0  0  0  0
  -28.0451  -12.3508   18.6476 C   0  0  0  0  0  0
  -27.6439  -13.2417   19.8533 C   0  0  2  0  0  0
  -28.6806  -13.1846   20.9959 C   0  0  0  0  0  0
  -25.2525  -13.8212   20.5674 C   0  0  0  0  0  0
  -24.1818  -13.0449   20.9166 C   0  0  0  0  0  0
  -24.6407  -11.6924   20.8709 C   0  0  0  0  0  0
  -23.9078  -10.4303   21.0386 C   0  0  0  0  0  0
  -24.3637   -9.4226   21.9163 C   0  0  0  0  0  0
  -23.6318   -8.2263   22.0725 C   0  0  0  0  0  0
  -22.4296   -8.0304   21.3527 C   0  0  0  0  0  0
  -21.9916   -9.0277   20.4629 C   0  0  0  0  0  0
  -22.7239  -10.2160   20.3051 C   0  0  0  0  0  0
  -21.6859   -6.0748   22.5267 C   0  0  0  0  0  0
  -21.4018   -6.5642   23.8204 C   0  0  0  0  0  0
  -21.3648   -5.6795   24.9163 C   0  0  0  0  0  0
  -21.6057   -4.3060   24.7218 C   0  0  0  0  0  0
  -21.8820   -3.8144   23.4334 C   0  0  0  0  0  0
  -21.9192   -4.6969   22.3383 C   0  0  0  0  0  0
  -22.7855  -13.5237   21.1856 C   0  0  0  0  0  0
  -22.1675   -4.2163   21.0956 F   0  0  0  0  0  0
  -21.5622   -3.4526   25.7716 F   0  0  0  0  0  0
  -29.9881  -13.5447   20.4328 N   0  0  0  0  0  0
  -26.2949  -12.9423   20.3257 N   0  0  0  0  0  0
  -25.9336  -11.6553   20.5709 N   0  0  0  0  0  0
  -22.0526  -12.8232   22.0450 N   0  0  0  0  0  0
  -25.4270  -15.1924   20.4109 N   0  0  0  0  0  0
  -31.7527  -14.8938   20.0427 O   0  0  0  0  0  0
  -21.6663   -6.8901   21.4236 O   0  0  0  0  0  0
  -22.3533  -14.5528   20.6675 O   0  0  0  0  0  0
  -24.6336  -31.8512   23.1980 C   0  0  0  0  0  0
  -25.9146  -32.4737   23.8327 C   0  0  1  0  0  0
  -27.2217  -27.2141   20.1265 C   0  0  0  0  0  0
  -25.5933  -33.8534   24.2246 N   0  0  0  0  0  0
  -23.4349  -30.4748   21.5404 C   0  0  2  0  0  0
  -24.8852  -28.9203   20.1053 C   0  0  0  0  0  0
  -22.7518  -29.4570   22.4873 C   0  0  0  0  0  0
  -18.0306  -28.1408   22.8473 C   0  0  0  0  0  0
  -24.1492  -36.7287   23.2631 C   0  0  0  0  0  0
  -25.9863  -30.7438   21.3943 C   0  0  0  0  0  0
  -26.0553  -29.3626   20.7350 C   0  0  0  0  0  0
  -27.2197  -28.5184   20.7451 C   0  0  0  0  0  0
  -26.0368  -26.8758   19.4301 C   0  0  0  0  0  0
  -24.8858  -27.6877   19.4388 C   0  0  0  0  0  0
  -23.6580  -29.8138   20.1546 C   0  0  0  0  0  0
  -25.4119  -36.3054   24.0315 C   0  0  1  0  0  0
  -20.5902  -28.3712   23.1254 C   0  0  2  0  0  0
  -20.6789  -26.9420   22.5409 C   0  0  0  0  0  0
  -19.5766  -26.6386   21.5210 C   0  0  0  0  0  0
  -18.1951  -26.7942   22.1619 C   0  0  0  0  0  0
  -19.1559  -28.8882   23.2864 C   0  0  0  0  0  0
  -18.9468  -30.1472   23.8903 C   0  0  0  0  0  0
  -17.6466  -30.6595   24.0573 C   0  0  0  0  0  0
  -25.9059  -34.9419   23.5093 C   0  0  0  0  0  0
  -16.5357  -29.9101   23.6331 C   0  0  0  0  0  0
  -16.7290  -28.6522   23.0344 C   0  0  0  0  0  0
  -26.4496  -31.6581   25.0734 C   0  0  0  0  0  0
  -25.3713  -31.3810   26.1466 C   0  0  0  0  0  0
  -27.0300  -30.2949   24.6305 C   0  0  0  0  0  0
  -27.6068  -32.4309   25.7486 C   0  0  0  0  0  0
  -27.5590  -37.1799   24.8463 C   0  0  0  0  0  0
  -21.4218  -29.3041   22.3629 N   0  0  0  0  0  0
  -26.4302  -37.3749   23.9399 N   0  0  0  0  0  0
  -24.7039  -31.0425   22.0998 N   0  0  0  0  0  0
  -23.4196  -28.8099   23.2975 O   0  0  0  0  0  0
  -28.3071  -26.2858   20.1845 O   0  0  0  0  0  0
  -26.5640  -34.8896   22.4660 O   0  0  0  0  0  0
  -23.5463  -32.1357   23.7229 O   0  0  0  0  0  0
  -29.1294  -18.3525   17.9945 C   0  0  0  0  0  0
  -29.0755  -19.6270   18.5974 C   0  0  0  0  0  0
  -29.4461  -17.1928   18.7274 C   0  0  0  0  0  0
  -29.6429  -18.5829   20.7175 C   0  0  0  0  0  0
  -29.3432  -19.8198   19.9734 C   0  0  0  0  0  0
  -29.7056  -17.2430   20.1138 C   0  0  0  0  0  0
  -30.3953  -23.9632   20.7500 C   0  0  0  0  0  0
  -28.9979  -23.7760   20.3485 C   0  0  0  0  0  0
  -31.0584  -22.8682   21.4653 C   0  0  0  0  0  0
  -28.5796  -22.3253   20.0724 C   0  0  0  0  0  0
  -31.0828  -25.0556   20.3467 C   0  0  0  0  0  0
  -32.2668  -23.0117   22.0472 C   0  0  0  0  0  0
  -28.1245  -24.8504   20.0979 C   0  0  0  0  0  0
  -30.3937  -21.4975   21.5330 C   0  0  0  0  0  0
  -29.3957  -21.2444   20.4844 N   0  0  0  0  0  0
  -29.8552  -15.9219   20.8077 N   0  0  0  0  0  0
  -27.5221  -22.0871   19.4815 O   0  0  0  0  0  0
  -31.4781  -12.5973   19.2015 H   0  0  0  0  0  0
  -30.3754  -11.5046   19.9862 H   0  0  0  0  0  0
  -29.8134  -11.7676   17.5304 H   0  0  0  0  0  0
  -29.6497  -13.4935   17.7542 H   0  0  0  0  0  0
  -27.8925  -11.2982   18.8910 H   0  0  0  0  0  0
  -27.4048  -12.5632   17.7911 H   0  0  0  0  0  0
  -27.6331  -14.2652   19.4764 H   0  0  0  0  0  0
  -28.7103  -12.1860   21.4329 H   0  0  0  0  0  0
  -28.4006  -13.8651   21.8003 H   0  0  0  0  0  0
  -25.2782   -9.5709   22.4741 H   0  0  0  0  0  0
  -24.0020   -7.4654   22.7441 H   0  0  0  0  0  0
  -21.0831   -8.8822   19.8954 H   0  0  0  0  0  0
  -22.3689  -10.9718   19.6194 H   0  0  0  0  0  0
  -21.2026   -7.6152   23.9712 H   0  0  0  0  0  0
  -21.1468   -6.0519   25.9064 H   0  0  0  0  0  0
  -22.0601   -2.7597   23.2839 H   0  0  0  0  0  0
  -22.4145  -11.9897   22.4829 H   0  0  0  0  0  0
  -21.1155  -13.1251   22.2708 H   0  0  0  0  0  0
  -24.6681  -15.8553   20.5204 H   0  0  0  0  0  0
  -26.2694  -15.6120   20.0357 H   0  0  0  0  0  0
  -26.7212  -32.5384   23.1060 H   0  0  0  0  0  0
  -25.0068  -33.9679   25.0384 H   0  0  0  0  0  0
  -22.7330  -31.2990   21.3955 H   0  0  0  0  0  0
  -23.3736  -35.9643   23.3300 H   0  0  0  0  0  0
  -24.3580  -36.8897   22.2048 H   0  0  0  0  0  0
  -23.7279  -37.6501   23.6650 H   0  0  0  0  0  0
  -26.1375  -31.5020   20.6242 H   0  0  0  0  0  0
  -26.8556  -30.7894   22.0386 H   0  0  0  0  0  0
  -28.1104  -28.8410   21.2666 H   0  0  0  0  0  0
  -25.9639  -25.9613   18.8633 H   0  0  0  0  0  0
  -23.9994  -27.3574   18.9140 H   0  0  0  0  0  0
  -23.7914  -30.5955   19.4057 H   0  0  0  0  0  0
  -22.7719  -29.2570   19.8439 H   0  0  0  0  0  0
  -25.1296  -36.1909   25.0809 H   0  0  0  0  0  0
  -21.0010  -28.3317   24.1362 H   0  0  0  0  0  0
  -20.5684  -26.2324   23.3627 H   0  0  0  0  0  0
  -21.6664  -26.7442   22.1210 H   0  0  0  0  0  0
  -19.6931  -25.6292   21.1265 H   0  0  0  0  0  0
  -19.6715  -27.3179   20.6732 H   0  0  0  0  0  0
  -17.4210  -26.6663   21.4041 H   0  0  0  0  0  0
  -18.0360  -26.0110   22.9041 H   0  0  0  0  0  0
  -19.7940  -30.7288   24.2275 H   0  0  0  0  0  0
  -17.5016  -31.6271   24.5175 H   0  0  0  0  0  0
  -15.5357  -30.3002   23.7650 H   0  0  0  0  0  0
  -15.8689  -28.0844   22.7050 H   0  0  0  0  0  0
  -24.5829  -30.7223   25.7812 H   0  0  0  0  0  0
  -24.8993  -32.3024   26.4882 H   0  0  0  0  0  0
  -25.7987  -30.8976   27.0259 H   0  0  0  0  0  0
  -26.2885  -29.6718   24.1294 H   0  0  0  0  0  0
  -27.3848  -29.7210   25.4879 H   0  0  0  0  0  0
  -27.8837  -30.4119   23.9626 H   0  0  0  0  0  0
  -27.2674  -33.3571   26.2128 H   0  0  0  0  0  0
  -28.3833  -32.6935   25.0290 H   0  0  0  0  0  0
  -28.0800  -31.8421   26.5355 H   0  0  0  0  0  0
  -28.2621  -38.0079   24.7458 H   0  0  0  0  0  0
  -28.1067  -36.2611   24.6326 H   0  0  0  0  0  0
  -27.2313  -37.1495   25.8868 H   0  0  0  0  0  0
  -20.9408  -29.8772   21.6844 H   0  0  0  0  0  0
  -26.0182  -38.2823   24.1382 H   0  0  0  0  0  0
  -28.9216  -18.2664   16.9368 H   0  0  0  0  0  0
  -28.8456  -20.4701   17.9628 H   0  0  0  0  0  0
  -29.4451  -16.2443   18.2104 H   0  0  0  0  0  0
  -29.8233  -18.6684   21.7785 H   0  0  0  0  0  0
  -30.6229  -25.8285   19.7541 H   0  0  0  0  0  0
  -32.1297  -25.2063   20.5600 H   0  0  0  0  0  0
  -32.8127  -23.9419   22.0596 H   0  0  0  0  0  0
  -32.7390  -22.1792   22.5489 H   0  0  0  0  0  0
  -27.1254  -24.5977   19.7877 H   0  0  0  0  0  0
  -29.9130  -21.3921   22.5063 H   0  0  0  0  0  0
  -31.1753  -20.7376   21.4823 H   0  0  0  0  0  0
  -29.0777  -15.7009   21.4120 H   0  0  0  0  0  0
  1 25  1  0  0  0
  1 30  2  0  0  0
  1 86  1  0  0  0
  2  3  1  0  0  0
  2 25  1  0  0  0
  2 88  1  0  0  0
  2 89  1  0  0  0
  3  4  1  0  0  0
  3 90  1  0  0  0
  3 91  1  0  0  0
  4  5  1  0  0  0
  4 92  1  0  0  0
  4 93  1  0  0  0
  5  6  1  0  0  0
  5 26  1  0  0  0
  5 94  1  0  0  0
  6 25  1  0  0  0
  6 95  1  0  0  0
  6 96  1  0  0  0
  7  8  2  0  0  0
  7 26  1  0  0  0
  7 29  1  0  0  0
  8  9  1  0  0  0
  8 22  1  0  0  0
  9 10  1  0  0  0
  9 27  2  0  0  0
 10 11  2  0  0  0
 10 15  1  0  0  0
 11 12  1  0  0  0
 11 97  1  0  0  0
 12 13  2  0  0  0
 12 98  1  0  0  0
 13 14  1  0  0  0
 13 31  1  0  0  0
 14 15  2  0  0  0
 14 99  1  0  0  0
 15100  1  0  0  0
 16 17  2  0  0  0
 16 21  1  0  0  0
 16 31  1  0  0  0
 17 18  1  0  0  0
 17101  1  0  0  0
 18 19  2  0  0  0
 18102  1  0  0  0
 19 20  1  0  0  0
 19 24  1  0  0  0
 20 21  2  0  0  0
 20103  1  0  0  0
 21 23  1  0  0  0
 22 28  1  0  0  0
 22 32  2  0  0  0
 26 27  1  0  0  0
 28104  1  0  0  0
 28105  1  0  0  0
 29106  1  0  0  0
 29107  1  0  0  0
 33 34  1  0  0  0
 33 66  1  0  0  0
 33 70  2  0  0  0
 34 36  1  0  0  0
 34 59  1  0  0  0
 34108  1  0  0  0
 35 44  2  0  0  0
 35 45  1  0  0  0
 35 68  1  0  0  0
 36 56  1  0  0  0
 36109  1  0  0  0
 37 39  1  0  0  0
 37 47  1  0  0  0
 37 66  1  0  0  0
 37110  1  0  0  0
 38 43  2  0  0  0
 38 46  1  0  0  0
 38 47  1  0  0  0
 39 64  1  0  0  0
 39 67  2  0  0  0
 40 52  1  0  0  0
 40 53  2  0  0  0
 40 58  1  0  0  0
 41111  1  0  0  0
 41112  1  0  0  0
 41113  1  0  0  0
 41 48  1  0  0  0
 42 43  1  0  0  0
 42 66  1  0  0  0
 42114  1  0  0  0
 42115  1  0  0  0
 43 44  1  0  0  0
 44116  1  0  0  0
 45 46  2  0  0  0
 45117  1  0  0  0
 46118  1  0  0  0
 47119  1  0  0  0
 47120  1  0  0  0
 48 56  1  0  0  0
 48 65  1  0  0  0
 48121  1  0  0  0
 49 50  1  0  0  0
 49 53  1  0  0  0
 49 64  1  0  0  0
 49122  1  0  0  0
 50 51  1  0  0  0
 50123  1  0  0  0
 50124  1  0  0  0
 51 52  1  0  0  0
 51125  1  0  0  0
 51126  1  0  0  0
 52127  1  0  0  0
 52128  1  0  0  0
 53 54  1  0  0  0
 54 55  2  0  0  0
 54129  1  0  0  0
 55 57  1  0  0  0
 55130  1  0  0  0
 56 69  2  0  0  0
 57 58  2  0  0  0
 57131  1  0  0  0
 58132  1  0  0  0
 59 60  1  0  0  0
 59 61  1  0  0  0
 59 62  1  0  0  0
 60133  1  0  0  0
 60134  1  0  0  0
 60135  1  0  0  0
 61136  1  0  0  0
 61137  1  0  0  0
 61138  1  0  0  0
 62139  1  0  0  0
 62140  1  0  0  0
 62141  1  0  0  0
 63 65  1  0  0  0
 63142  1  0  0  0
 63143  1  0  0  0
 63144  1  0  0  0
 64145  1  0  0  0
 65146  1  0  0  0
 68 83  1  0  0  0
 71 72  2  0  0  0
 71 73  1  0  0  0
 71147  1  0  0  0
 72 75  1  0  0  0
 72148  1  0  0  0
 73 76  2  0  0  0
 73149  1  0  0  0
 74 75  2  0  0  0
 74 76  1  0  0  0
 74150  1  0  0  0
 75 85  1  0  0  0
 76 86  1  0  0  0
 77 78  1  0  0  0
 77 79  1  0  0  0
 77 81  2  0  0  0
 78 80  1  0  0  0
 78 83  2  0  0  0
 79 82  2  0  0  0
 79 84  1  0  0  0
 80 85  1  0  0  0
 80 87  2  0  0  0
 81151  1  0  0  0
 81152  1  0  0  0
 82153  1  0  0  0
 82154  1  0  0  0
 83155  1  0  0  0
 84 85  1  0  0  0
 84156  1  0  0  0
 84157  1  0  0  0
 86158  1  0  0  0
M  ISO  4   1 100  68 101  83 101  86 100
M  END
> <chiral flag>
0

> <version>
0

> <s_m_source_file>
/data/baiqing/PycharmProjects/Reinvent-master-3.2/result/LINK_invent/BTK/process_docking_weight1_custom_product_contain_oxygen_bond_distance_aromatic_linkinvent_7_9_3/rearranged_h_0079.sdf

> <i_m_source_file_index>
52

> <r_mmod_Potential_Energy-OPLS-2005>
411.330627441406

> <r_mmod_Stretch_Energy-OPLS-2005>
167.310760498047

> <r_mmod_Bend_Energy-OPLS-2005>
180.892807006836

> <r_mmod_Torsional_Energy-OPLS-2005>
319.162628173828

> <r_mmod_Improper_Torsional_Energy-OPLS-2005>
5.39212274551392

> <r_mmod_Van_der_Waal_Energy-OPLS-2005>
169.786270141602

> <r_mmod_Electrostatic_Energy-OPLS-2005>
-327.235015869141

> <r_mmod_Solvation_Energy-OPLS-2005>
-214.652359008789

> <b_mmod_Minimization_Converged-OPLS-2005>
0

> <r_mmod_RMS_Derivative-OPLS-2005>
3.6633152961731

$$$$
52
                    3D
 Structure written by MMmdl.
159167  0  0  1  0            999 V2000
  -30.6436  -14.5770   20.5395 C   0  0  0  0  0  0
  -30.4423  -12.3646   19.4323 C   0  0  0  0  0  0
  -29.5031  -12.5111   18.2141 C   0  0  0  0  0  0
  -28.0260  -12.3487   18.6284 C   0  0  0  0  0  0
  -27.6581  -13.2027   19.8699 C   0  0  2  0  0  0
  -28.7056  -13.0166   20.9923 C   0  0  0  0  0  0
  -25.2554  -13.8111   20.5687 C   0  0  0  0  0  0
  -24.1816  -13.0392   20.9180 C   0  0  0  0  0  0
  -24.6388  -11.6870   20.8739 C   0  0  0  0  0  0
  -23.9058  -10.4266   21.0410 C   0  0  0  0  0  0
  -24.3612   -9.4186   21.9188 C   0  0  0  0  0  0
  -23.6284   -8.2226   22.0759 C   0  0  0  0  0  0
  -22.4265   -8.0272   21.3548 C   0  0  0  0  0  0
  -21.9902   -9.0243   20.4647 C   0  0  0  0  0  0
  -22.7234  -10.2117   20.3055 C   0  0  0  0  0  0
  -21.6848   -6.0731   22.5281 C   0  0  0  0  0  0
  -21.4010   -6.5636   23.8214 C   0  0  0  0  0  0
  -21.3656   -5.6791   24.9177 C   0  0  0  0  0  0
  -21.6045   -4.3055   24.7229 C   0  0  0  0  0  0
  -21.8820   -3.8144   23.4350 C   0  0  0  0  0  0
  -21.9189   -4.6959   22.3405 C   0  0  0  0  0  0
  -22.7841  -13.5199   21.1850 C   0  0  0  0  0  0
  -22.1657   -4.2146   21.0981 F   0  0  0  0  0  0
  -21.5631   -3.4538   25.7741 F   0  0  0  0  0  0
  -30.0295  -13.3587   20.4387 N   0  0  0  0  0  0
  -26.3004  -12.9292   20.3348 N   0  0  0  0  0  0
  -25.9316  -11.6456   20.5766 N   0  0  0  0  0  0
  -22.0486  -12.8199   22.0415 N   0  0  0  0  0  0
  -25.4181  -15.1825   20.4143 N   0  0  0  0  0  0
  -31.7815  -14.7837   20.1066 O   0  0  0  0  0  0
  -21.6629   -6.8872   21.4243 O   0  0  0  0  0  0
  -22.3526  -14.5512   20.6705 O   0  0  0  0  0  0
  -24.6210  -31.8634   23.2056 C   0  0  0  0  0  0
  -25.9075  -32.4800   23.8372 C   0  0  1  0  0  0
  -27.2412  -27.3844   20.0879 C   0  0  0  0  0  0
  -25.5906  -33.8600   24.2299 N   0  0  0  0  0  0
  -23.4126  -30.4871   21.5472 C   0  0  2  0  0  0
  -24.8608  -28.9494   20.1106 C   0  0  0  0  0  0
  -22.7447  -29.4640   22.4956 C   0  0  0  0  0  0
  -18.0280  -28.1381   22.8491 C   0  0  0  0  0  0
  -24.1489  -36.7308   23.2638 C   0  0  0  0  0  0
  -25.9485  -30.8134   21.3668 C   0  0  0  0  0  0
  -26.0272  -29.4464   20.7064 C   0  0  0  0  0  0
  -27.2196  -28.6727   20.6897 C   0  0  0  0  0  0
  -26.0433  -26.9109   19.5029 C   0  0  0  0  0  0
  -24.8666  -27.6830   19.5042 C   0  0  0  0  0  0
  -23.6244  -29.8216   20.1620 C   0  0  0  0  0  0
  -25.4112  -36.3099   24.0333 C   0  0  1  0  0  0
  -20.5876  -28.3680   23.1297 C   0  0  2  0  0  0
  -20.6769  -26.9408   22.5414 C   0  0  0  0  0  0
  -19.5747  -26.6386   21.5211 C   0  0  0  0  0  0
  -18.1925  -26.7926   22.1624 C   0  0  0  0  0  0
  -19.1531  -28.8846   23.2891 C   0  0  0  0  0  0
  -18.9457  -30.1450   23.8905 C   0  0  0  0  0  0
  -17.6459  -30.6585   24.0567 C   0  0  0  0  0  0
  -25.9044  -34.9466   23.5117 C   0  0  0  0  0  0
  -16.5350  -29.9087   23.6326 C   0  0  0  0  0  0
  -16.7269  -28.6504   23.0348 C   0  0  0  0  0  0
  -26.4481  -31.6595   25.0721 C   0  0  0  0  0  0
  -25.3731  -31.3710   26.1456 C   0  0  0  0  0  0
  -27.0321  -30.3032   24.6132 C   0  0  0  0  0  0
  -27.6047  -32.4323   25.7487 C   0  0  0  0  0  0
  -27.5584  -37.1807   24.8463 C   0  0  0  0  0  0
  -21.4166  -29.3040   22.3697 N   0  0  0  0  0  0
  -26.4295  -37.3788   23.9409 N   0  0  0  0  0  0
  -24.6794  -31.0691   22.0980 N   0  0  0  0  0  0
  -23.4193  -28.8177   23.3015 O   0  0  0  0  0  0
  -28.3674  -26.5648   20.1536 O   0  0  0  0  0  0
  -26.5614  -34.8926   22.4683 O   0  0  0  0  0  0
  -23.5385  -32.1405   23.7417 O   0  0  0  0  0  0
  -30.5657  -19.3209   21.0845 C   0  0  0  0  0  0
  -30.8128  -17.9141   21.1608 C   0  0  0  0  0  0
  -28.3783  -18.8833   20.1519 C   0  0  0  0  0  0
  -29.3219  -19.8287   20.6188 C   0  0  0  0  0  0
  -29.8211  -16.9760   20.7683 C   0  0  0  0  0  0
  -28.6194  -17.4934   20.2346 C   0  0  0  0  0  0
  -28.9129  -21.2661   20.7188 C   0  0  0  0  0  0
  -29.0001  -24.5356   19.1778 C   0  0  0  0  0  0
  -29.1903  -23.6876   17.9331 C   0  0  0  0  0  0
  -30.6101  -24.5052   21.1658 C   0  0  0  0  0  0
  -29.4029  -23.8175   20.5063 C   0  0  2  0  0  0
  -28.5339  -25.7314   19.0087 N   0  0  0  0  0  0
  -29.8629  -15.5595   21.0479 N   0  0  0  0  0  0
  -29.6774  -22.3305   20.3689 N   0  0  0  0  0  0
  -27.6986  -21.5180   21.2063 N   0  3  0  0  0  0
  -27.6524  -16.6366   19.8355 F   0  0  0  0  0  0
  -31.4817  -12.4959   19.1261 H   0  0  0  0  0  0
  -30.3781  -11.3586   19.8496 H   0  0  0  0  0  0
  -29.7583  -11.7748   17.4507 H   0  0  0  0  0  0
  -29.6474  -13.4900   17.7541 H   0  0  0  0  0  0
  -27.8564  -11.2932   18.8440 H   0  0  0  0  0  0
  -27.3703  -12.5965   17.7929 H   0  0  0  0  0  0
  -27.6863  -14.2404   19.5447 H   0  0  0  0  0  0
  -28.7074  -11.9823   21.3391 H   0  0  0  0  0  0
  -28.4503  -13.6124   21.8698 H   0  0  0  0  0  0
  -25.2760   -9.5659   22.4757 H   0  0  0  0  0  0
  -23.9992   -7.4617   22.7478 H   0  0  0  0  0  0
  -21.0834   -8.8765   19.8952 H   0  0  0  0  0  0
  -22.3703  -10.9658   19.6160 H   0  0  0  0  0  0
  -21.2004   -7.6146   23.9716 H   0  0  0  0  0  0
  -21.1477   -6.0522   25.9079 H   0  0  0  0  0  0
  -22.0602   -2.7606   23.2852 H   0  0  0  0  0  0
  -22.4098  -11.9853   22.4789 H   0  0  0  0  0  0
  -21.1111  -13.1236   22.2634 H   0  0  0  0  0  0
  -24.6477  -15.8308   20.5268 H   0  0  0  0  0  0
  -26.2733  -15.6396   20.1079 H   0  0  0  0  0  0
  -26.7144  -32.5495   23.1131 H   0  0  0  0  0  0
  -25.0044  -33.9755   25.0436 H   0  0  0  0  0  0
  -22.7040  -31.3058   21.4062 H   0  0  0  0  0  0
  -23.3754  -35.9639   23.3298 H   0  0  0  0  0  0
  -24.3581  -36.8932   22.2054 H   0  0  0  0  0  0
  -23.7244  -37.6511   23.6661 H   0  0  0  0  0  0
  -26.0700  -31.5810   20.6012 H   0  0  0  0  0  0
  -26.8323  -30.8631   21.9914 H   0  0  0  0  0  0
  -28.1168  -29.0481   21.1616 H   0  0  0  0  0  0
  -26.0022  -25.9274   19.0575 H   0  0  0  0  0  0
  -23.9676  -27.2896   19.0500 H   0  0  0  0  0  0
  -23.7371  -30.5982   19.4044 H   0  0  0  0  0  0
  -22.7466  -29.2458   19.8628 H   0  0  0  0  0  0
  -25.1290  -36.1958   25.0826 H   0  0  0  0  0  0
  -20.9971  -28.3253   24.1417 H   0  0  0  0  0  0
  -20.5666  -26.2289   23.3609 H   0  0  0  0  0  0
  -21.6639  -26.7438   22.1212 H   0  0  0  0  0  0
  -19.6909  -25.6298   21.1234 H   0  0  0  0  0  0
  -19.6685  -27.3200   20.6745 H   0  0  0  0  0  0
  -17.4196  -26.6677   21.4026 H   0  0  0  0  0  0
  -18.0326  -26.0063   22.9016 H   0  0  0  0  0  0
  -19.7933  -30.7263   24.2280 H   0  0  0  0  0  0
  -17.5014  -31.6264   24.5171 H   0  0  0  0  0  0
  -15.5351  -30.2995   23.7642 H   0  0  0  0  0  0
  -15.8668  -28.0827   22.7058 H   0  0  0  0  0  0
  -24.5903  -30.7063   25.7784 H   0  0  0  0  0  0
  -24.8923  -32.2870   26.4904 H   0  0  0  0  0  0
  -25.8070  -30.8873   27.0217 H   0  0  0  0  0  0
  -26.2881  -29.6785   24.1174 H   0  0  0  0  0  0
  -27.4065  -29.7277   25.4609 H   0  0  0  0  0  0
  -27.8727  -30.4340   23.9312 H   0  0  0  0  0  0
  -27.2660  -33.3615   26.2082 H   0  0  0  0  0  0
  -28.3847  -32.6897   25.0308 H   0  0  0  0  0  0
  -28.0728  -31.8438   26.5389 H   0  0  0  0  0  0
  -28.2595  -38.0111   24.7521 H   0  0  0  0  0  0
  -28.1088  -36.2643   24.6277 H   0  0  0  0  0  0
  -27.2302  -37.1444   25.8865 H   0  0  0  0  0  0
  -20.9332  -29.8777   21.6928 H   0  0  0  0  0  0
  -26.0182  -38.2865   24.1415 H   0  0  0  0  0  0
  -31.3132  -20.0073   21.4586 H   0  0  0  0  0  0
  -31.7402  -17.5624   21.5901 H   0  0  0  0  0  0
  -27.4224  -19.2147   19.7733 H   0  0  0  0  0  0
  -30.2185  -23.3325   17.8676 H   0  0  0  0  0  0
  -28.9769  -24.2610   17.0307 H   0  0  0  0  0  0
  -28.5186  -22.8297   17.9518 H   0  0  0  0  0  0
  -30.3286  -25.4731   21.5812 H   0  0  0  0  0  0
  -31.4168  -24.6751   20.4521 H   0  0  0  0  0  0
  -31.0091  -23.9074   21.9851 H   0  0  0  0  0  0
  -28.5650  -23.9402   21.1929 H   0  0  0  0  0  0
  -28.9667  -15.1932   21.3270 H   0  0  0  0  0  0
  -30.5544  -22.0943   19.9216 H   0  0  0  0  0  0
  -27.1421  -20.7481   21.5463 H   0  0  0  0  0  0
  -27.3364  -22.4483   21.3165 H   0  0  0  0  0  0
  1 25  1  0  0  0
  1 30  2  0  0  0
  1 83  1  0  0  0
  2  3  1  0  0  0
  2 25  1  0  0  0
  2 87  1  0  0  0
  2 88  1  0  0  0
  3  4  1  0  0  0
  3 89  1  0  0  0
  3 90  1  0  0  0
  4  5  1  0  0  0
  4 91  1  0  0  0
  4 92  1  0  0  0
  5  6  1  0  0  0
  5 26  1  0  0  0
  5 93  1  0  0  0
  6 25  1  0  0  0
  6 94  1  0  0  0
  6 95  1  0  0  0
  7  8  2  0  0  0
  7 26  1  0  0  0
  7 29  1  0  0  0
  8  9  1  0  0  0
  8 22  1  0  0  0
  9 10  1  0  0  0
  9 27  2  0  0  0
 10 11  2  0  0  0
 10 15  1  0  0  0
 11 12  1  0  0  0
 11 96  1  0  0  0
 12 13  2  0  0  0
 12 97  1  0  0  0
 13 14  1  0  0  0
 13 31  1  0  0  0
 14 15  2  0  0  0
 14 98  1  0  0  0
 15 99  1  0  0  0
 16 17  2  0  0  0
 16 21  1  0  0  0
 16 31  1  0  0  0
 17 18  1  0  0  0
 17100  1  0  0  0
 18 19  2  0  0  0
 18101  1  0  0  0
 19 20  1  0  0  0
 19 24  1  0  0  0
 20 21  2  0  0  0
 20102  1  0  0  0
 21 23  1  0  0  0
 22 28  1  0  0  0
 22 32  2  0  0  0
 26 27  1  0  0  0
 28103  1  0  0  0
 28104  1  0  0  0
 29105  1  0  0  0
 29106  1  0  0  0
 33 34  1  0  0  0
 33 66  1  0  0  0
 33 70  2  0  0  0
 34 36  1  0  0  0
 34 59  1  0  0  0
 34107  1  0  0  0
 35 44  2  0  0  0
 35 45  1  0  0  0
 35 68  1  0  0  0
 36 56  1  0  0  0
 36108  1  0  0  0
 37 39  1  0  0  0
 37 47  1  0  0  0
 37 66  1  0  0  0
 37109  1  0  0  0
 38 43  2  0  0  0
 38 46  1  0  0  0
 38 47  1  0  0  0
 39 64  1  0  0  0
 39 67  2  0  0  0
 40 52  1  0  0  0
 40 53  2  0  0  0
 40 58  1  0  0  0
 41110  1  0  0  0
 41111  1  0  0  0
 41112  1  0  0  0
 41 48  1  0  0  0
 42 43  1  0  0  0
 42 66  1  0  0  0
 42113  1  0  0  0
 42114  1  0  0  0
 43 44  1  0  0  0
 44115  1  0  0  0
 45 46  2  0  0  0
 45116  1  0  0  0
 46117  1  0  0  0
 47118  1  0  0  0
 47119  1  0  0  0
 48 56  1  0  0  0
 48 65  1  0  0  0
 48120  1  0  0  0
 49 50  1  0  0  0
 49 53  1  0  0  0
 49 64  1  0  0  0
 49121  1  0  0  0
 50 51  1  0  0  0
 50122  1  0  0  0
 50123  1  0  0  0
 51 52  1  0  0  0
 51124  1  0  0  0
 51125  1  0  0  0
 52126  1  0  0  0
 52127  1  0  0  0
 53 54  1  0  0  0
 54 55  2  0  0  0
 54128  1  0  0  0
 55 57  1  0  0  0
 55129  1  0  0  0
 56 69  2  0  0  0
 57 58  2  0  0  0
 57130  1  0  0  0
 58131  1  0  0  0
 59 60  1  0  0  0
 59 61  1  0  0  0
 59 62  1  0  0  0
 60132  1  0  0  0
 60133  1  0  0  0
 60134  1  0  0  0
 61135  1  0  0  0
 61136  1  0  0  0
 61137  1  0  0  0
 62138  1  0  0  0
 62139  1  0  0  0
 62140  1  0  0  0
 63 65  1  0  0  0
 63141  1  0  0  0
 63142  1  0  0  0
 63143  1  0  0  0
 64144  1  0  0  0
 65145  1  0  0  0
 68 82  1  0  0  0
 71 72  2  0  0  0
 71 74  1  0  0  0
 71146  1  0  0  0
 72 75  1  0  0  0
 72147  1  0  0  0
 73 74  2  0  0  0
 73 76  1  0  0  0
 73148  1  0  0  0
 74 77  1  0  0  0
 75 76  2  0  0  0
 75 83  1  0  0  0
 76 86  1  0  0  0
 77 84  1  0  0  0
 77 85  2  0  0  0
 78 79  1  0  0  0
 78 81  1  0  0  0
 78 82  2  0  0  0
 79149  1  0  0  0
 79150  1  0  0  0
 79151  1  0  0  0
 80152  1  0  0  0
 80153  1  0  0  0
 80154  1  0  0  0
 80 81  1  0  0  0
 81 84  1  0  0  0
 81155  1  0  0  0
 83156  1  0  0  0
 84157  1  0  0  0
 85158  1  0  0  0
 85159  1  0  0  0
M  CHG  1  85   1
M  ISO  4   1 100  68 101  82 101  83 100
M  END
> <chiral flag>
0

> <version>
0

> <s_m_source_file>
/data/baiqing/PycharmProjects/Reinvent-master-3.2/result/LINK_invent/BTK/process_docking_weight1_custom_product_contain_oxygen_bond_distance_aromatic_linkinvent_7_9_3/rearranged_h_0079.sdf

> <i_m_source_file_index>
53

> <r_mmod_Potential_Energy-OPLS-2005>
-332.350646972656

> <r_mmod_Stretch_Energy-OPLS-2005>
57.2108726501465

> <r_mmod_Bend_Energy-OPLS-2005>
131.046081542969

> <r_mmod_Torsional_Energy-OPLS-2005>
233.704208374023

> <r_mmod_Improper_Torsional_Energy-OPLS-2005>
6.57826566696167

> <r_mmod_Van_der_Waal_Energy-OPLS-2005>
152.309875488281

> <r_mmod_Electrostatic_Energy-OPLS-2005>
-508.138092041016

> <r_mmod_Solvation_Energy-OPLS-2005>
-434.322326660156

> <b_mmod_Minimization_Converged-OPLS-2005>
0

> <r_mmod_RMS_Derivative-OPLS-2005>
0.408107787370682

$$$$
53
                    3D
 Structure written by MMmdl.
158167  0  0  1  0            999 V2000
  -30.6102  -14.7651   20.4285 C   0  0  0  0  0  0
  -30.4272  -12.4614   19.4829 C   0  0  0  0  0  0
  -29.5102  -12.5025   18.2408 C   0  0  0  0  0  0
  -28.0362  -12.3284   18.6528 C   0  0  0  0  0  0
  -27.6387  -13.2359   19.8478 C   0  0  2  0  0  0
  -28.6822  -13.1890   20.9850 C   0  0  0  0  0  0
  -25.2499  -13.8210   20.5706 C   0  0  0  0  0  0
  -24.1794  -13.0447   20.9208 C   0  0  0  0  0  0
  -24.6393  -11.6926   20.8751 C   0  0  0  0  0  0
  -23.9074  -10.4298   21.0407 C   0  0  0  0  0  0
  -24.3623   -9.4212   21.9184 C   0  0  0  0  0  0
  -23.6297   -8.2247   22.0754 C   0  0  0  0  0  0
  -22.4279   -8.0284   21.3544 C   0  0  0  0  0  0
  -21.9917   -9.0257   20.4645 C   0  0  0  0  0  0
  -22.7247  -10.2136   20.3055 C   0  0  0  0  0  0
  -21.6856   -6.0737   22.5279 C   0  0  0  0  0  0
  -21.4014   -6.5640   23.8211 C   0  0  0  0  0  0
  -21.3659   -5.6794   24.9174 C   0  0  0  0  0  0
  -21.6045   -4.3056   24.7225 C   0  0  0  0  0  0
  -21.8819   -3.8147   23.4346 C   0  0  0  0  0  0
  -21.9193   -4.6964   22.3403 C   0  0  0  0  0  0
  -22.7815  -13.5224   21.1867 C   0  0  0  0  0  0
  -22.1663   -4.2151   21.0980 F   0  0  0  0  0  0
  -21.5629   -3.4539   25.7738 F   0  0  0  0  0  0
  -29.9817  -13.5379   20.4003 N   0  0  0  0  0  0
  -26.2924  -12.9425   20.3278 N   0  0  0  0  0  0
  -25.9323  -11.6561   20.5755 N   0  0  0  0  0  0
  -22.0468  -12.8207   22.0423 N   0  0  0  0  0  0
  -25.4190  -15.1934   20.4135 N   0  0  0  0  0  0
  -31.8095  -14.8174   20.1440 O   0  0  0  0  0  0
  -21.6642   -6.8880   21.4240 O   0  0  0  0  0  0
  -22.3498  -14.5532   20.6720 O   0  0  0  0  0  0
  -24.6323  -31.8524   23.1955 C   0  0  0  0  0  0
  -25.9142  -32.4733   23.8303 C   0  0  1  0  0  0
  -27.2220  -27.2474   20.1208 C   0  0  0  0  0  0
  -25.5934  -33.8537   24.2226 N   0  0  0  0  0  0
  -23.4289  -30.4745   21.5392 C   0  0  2  0  0  0
  -24.8752  -28.9180   20.1075 C   0  0  0  0  0  0
  -22.7503  -29.4584   22.4896 C   0  0  0  0  0  0
  -18.0288  -28.1396   22.8475 C   0  0  0  0  0  0
  -24.1492  -36.7274   23.2641 C   0  0  0  0  0  0
  -25.9752  -30.7612   21.3757 C   0  0  0  0  0  0
  -26.0463  -29.3824   20.7174 C   0  0  0  0  0  0
  -27.2177  -28.5577   20.7150 C   0  0  0  0  0  0
  -26.0200  -26.8471   19.4948 C   0  0  0  0  0  0
  -24.8676  -27.6592   19.4878 C   0  0  0  0  0  0
  -23.6463  -29.8063   20.1558 C   0  0  0  0  0  0
  -25.4120  -36.3054   24.0323 C   0  0  1  0  0  0
  -20.5895  -28.3699   23.1267 C   0  0  2  0  0  0
  -20.6775  -26.9415   22.5408 C   0  0  0  0  0  0
  -19.5752  -26.6383   21.5210 C   0  0  0  0  0  0
  -18.1929  -26.7933   22.1621 C   0  0  0  0  0  0
  -19.1545  -28.8865   23.2862 C   0  0  0  0  0  0
  -18.9470  -30.1466   23.8879 C   0  0  0  0  0  0
  -17.6471  -30.6592   24.0565 C   0  0  0  0  0  0
  -25.9063  -34.9426   23.5080 C   0  0  0  0  0  0
  -16.5359  -29.9088   23.6343 C   0  0  0  0  0  0
  -16.7276  -28.6514   23.0345 C   0  0  0  0  0  0
  -26.4507  -31.6572   25.0705 C   0  0  0  0  0  0
  -25.3724  -31.3731   26.1424 C   0  0  0  0  0  0
  -27.0367  -30.2990   24.6206 C   0  0  0  0  0  0
  -27.6052  -32.4322   25.7486 C   0  0  0  0  0  0
  -27.5575  -37.1790   24.8466 C   0  0  0  0  0  0
  -21.4210  -29.3040   22.3649 N   0  0  0  0  0  0
  -26.4289  -37.3759   23.9411 N   0  0  0  0  0  0
  -24.6981  -31.0478   22.0934 N   0  0  0  0  0  0
  -23.4200  -28.8124   23.2996 O   0  0  0  0  0  0
  -28.3356  -26.3741   20.2081 O   0  0  0  0  0  0
  -26.5638  -34.8907   22.4649 O   0  0  0  0  0  0
  -23.5473  -32.1358   23.7247 O   0  0  0  0  0  0
  -31.4353  -18.9507   18.8737 C   0  0  0  0  0  0
  -30.6536  -20.0422   19.2947 C   0  0  0  0  0  0
  -31.1740  -17.6395   19.3096 C   0  0  0  0  0  0
  -29.5582  -19.8938   20.1756 C   0  0  0  0  0  0
  -30.1143  -17.3490   20.1998 C   0  0  0  0  0  0
  -29.3106  -18.5023   20.6137 C   0  0  0  0  0  0
  -28.8852  -22.4218   19.8792 C   0  0  0  0  0  0
  -28.4438  -23.6508   20.3551 C   0  0  0  0  0  0
  -27.4084  -22.3340   22.2369 C   0  0  0  0  0  0
  -26.2483  -22.1808   22.8965 C   0  0  0  0  0  0
  -27.8684  -23.7124   21.7577 C   0  0  0  0  0  0
  -28.2968  -21.1290   21.9050 C   0  0  0  0  0  0
  -28.4309  -25.0263   19.5371 C   0  0  0  0  0  0
  -28.8529  -21.1339   20.5453 N   0  0  0  0  0  0
  -29.8507  -15.9252   20.5986 N   0  0  0  0  0  0
  -28.2647  -18.2299   21.4308 F   0  0  0  0  0  0
  -31.4696  -12.5755   19.1810 H   0  0  0  0  0  0
  -30.3667  -11.4908   19.9774 H   0  0  0  0  0  0
  -29.7955  -11.7216   17.5345 H   0  0  0  0  0  0
  -29.6371  -13.4515   17.7171 H   0  0  0  0  0  0
  -27.8942  -11.2814   18.9225 H   0  0  0  0  0  0
  -27.3801  -12.5144   17.8017 H   0  0  0  0  0  0
  -27.6279  -14.2538   19.4577 H   0  0  0  0  0  0
  -28.7203  -12.1983   21.4400 H   0  0  0  0  0  0
  -28.4161  -13.8837   21.7833 H   0  0  0  0  0  0
  -25.2766   -9.5689   22.4760 H   0  0  0  0  0  0
  -24.0008   -7.4637   22.7473 H   0  0  0  0  0  0
  -21.0850   -8.8774   19.8946 H   0  0  0  0  0  0
  -22.3706  -10.9674   19.6163 H   0  0  0  0  0  0
  -21.2004   -7.6147   23.9716 H   0  0  0  0  0  0
  -21.1482   -6.0523   25.9078 H   0  0  0  0  0  0
  -22.0598   -2.7609   23.2846 H   0  0  0  0  0  0
  -22.4094  -11.9866   22.4799 H   0  0  0  0  0  0
  -21.1082  -13.1217   22.2633 H   0  0  0  0  0  0
  -24.6530  -15.8471   20.5328 H   0  0  0  0  0  0
  -26.2675  -15.6371   20.0873 H   0  0  0  0  0  0
  -26.7198  -32.5377   23.1030 H   0  0  0  0  0  0
  -25.0071  -33.9663   25.0367 H   0  0  0  0  0  0
  -22.7263  -31.2976   21.3914 H   0  0  0  0  0  0
  -23.3750  -35.9610   23.3301 H   0  0  0  0  0  0
  -24.3576  -36.8910   22.2056 H   0  0  0  0  0  0
  -23.7251  -37.6474   23.6676 H   0  0  0  0  0  0
  -26.1143  -31.5212   20.6054 H   0  0  0  0  0  0
  -26.8525  -30.8100   22.0093 H   0  0  0  0  0  0
  -28.1134  -28.9073   21.2090 H   0  0  0  0  0  0
  -25.9189  -25.8765   19.0371 H   0  0  0  0  0  0
  -23.9665  -27.2936   19.0149 H   0  0  0  0  0  0
  -23.7692  -30.5815   19.3984 H   0  0  0  0  0  0
  -22.7642  -29.2389   19.8524 H   0  0  0  0  0  0
  -25.1302  -36.1889   25.0815 H   0  0  0  0  0  0
  -20.9985  -28.3279   24.1390 H   0  0  0  0  0  0
  -20.5680  -26.2307   23.3613 H   0  0  0  0  0  0
  -21.6640  -26.7437   22.1199 H   0  0  0  0  0  0
  -19.6921  -25.6291   21.1245 H   0  0  0  0  0  0
  -19.6697  -27.3189   20.6735 H   0  0  0  0  0  0
  -17.4201  -26.6678   21.4021 H   0  0  0  0  0  0
  -18.0329  -26.0084   22.9028 H   0  0  0  0  0  0
  -19.7949  -30.7285   24.2234 H   0  0  0  0  0  0
  -17.5028  -31.6270   24.5166 H   0  0  0  0  0  0
  -15.5360  -30.2985   23.7680 H   0  0  0  0  0  0
  -15.8675  -28.0836   22.7054 H   0  0  0  0  0  0
  -24.5916  -30.7057   25.7753 H   0  0  0  0  0  0
  -24.8897  -32.2905   26.4805 H   0  0  0  0  0  0
  -25.8038  -30.8944   27.0226 H   0  0  0  0  0  0
  -26.2959  -29.6718   24.1231 H   0  0  0  0  0  0
  -27.4053  -29.7269   25.4730 H   0  0  0  0  0  0
  -27.8829  -30.4261   23.9450 H   0  0  0  0  0  0
  -27.2654  -33.3644   26.2012 H   0  0  0  0  0  0
  -28.3890  -32.6849   25.0331 H   0  0  0  0  0  0
  -28.0685  -31.8481   26.5449 H   0  0  0  0  0  0
  -28.2583  -38.0095   24.7507 H   0  0  0  0  0  0
  -28.1078  -36.2621   24.6294 H   0  0  0  0  0  0
  -27.2289  -37.1442   25.8868 H   0  0  0  0  0  0
  -20.9396  -29.8771   21.6863 H   0  0  0  0  0  0
  -26.0161  -38.2830   24.1416 H   0  0  0  0  0  0
  -32.2600  -19.1251   18.1969 H   0  0  0  0  0  0
  -30.9363  -21.0172   18.9285 H   0  0  0  0  0  0
  -31.8109  -16.8618   18.9181 H   0  0  0  0  0  0
  -29.2539  -22.3692   18.8639 H   0  0  0  0  0  0
  -25.6124  -23.0245   23.1223 H   0  0  0  0  0  0
  -25.9123  -21.2073   23.2236 H   0  0  0  0  0  0
  -27.0302  -24.4111   21.7753 H   0  0  0  0  0  0
  -28.6309  -24.1049   22.4311 H   0  0  0  0  0  0
  -27.7002  -20.2396   22.0874 H   0  0  0  0  0  0
  -29.1244  -21.1085   22.6158 H   0  0  0  0  0  0
  -27.7120  -24.9227   18.7286 H   0  0  0  0  0  0
  -29.3851  -25.0478   19.0103 H   0  0  0  0  0  0
  -28.9233  -15.7629   20.9608 H   0  0  0  0  0  0
  1 25  1  0  0  0
  1 30  2  0  0  0
  1 85  1  0  0  0
  2  3  1  0  0  0
  2 25  1  0  0  0
  2 87  1  0  0  0
  2 88  1  0  0  0
  3  4  1  0  0  0
  3 89  1  0  0  0
  3 90  1  0  0  0
  4  5  1  0  0  0
  4 91  1  0  0  0
  4 92  1  0  0  0
  5  6  1  0  0  0
  5 26  1  0  0  0
  5 93  1  0  0  0
  6 25  1  0  0  0
  6 94  1  0  0  0
  6 95  1  0  0  0
  7  8  2  0  0  0
  7 26  1  0  0  0
  7 29  1  0  0  0
  8  9  1  0  0  0
  8 22  1  0  0  0
  9 10  1  0  0  0
  9 27  2  0  0  0
 10 11  2  0  0  0
 10 15  1  0  0  0
 11 12  1  0  0  0
 11 96  1  0  0  0
 12 13  2  0  0  0
 12 97  1  0  0  0
 13 14  1  0  0  0
 13 31  1  0  0  0
 14 15  2  0  0  0
 14 98  1  0  0  0
 15 99  1  0  0  0
 16 17  2  0  0  0
 16 21  1  0  0  0
 16 31  1  0  0  0
 17 18  1  0  0  0
 17100  1  0  0  0
 18 19  2  0  0  0
 18101  1  0  0  0
 19 20  1  0  0  0
 19 24  1  0  0  0
 20 21  2  0  0  0
 20102  1  0  0  0
 21 23  1  0  0  0
 22 28  1  0  0  0
 22 32  2  0  0  0
 26 27  1  0  0  0
 28103  1  0  0  0
 28104  1  0  0  0
 29105  1  0  0  0
 29106  1  0  0  0
 33 34  1  0  0  0
 33 66  1  0  0  0
 33 70  2  0  0  0
 34 36  1  0  0  0
 34 59  1  0  0  0
 34107  1  0  0  0
 35 44  2  0  0  0
 35 45  1  0  0  0
 35 68  1  0  0  0
 36 56  1  0  0  0
 36108  1  0  0  0
 37 39  1  0  0  0
 37 47  1  0  0  0
 37 66  1  0  0  0
 37109  1  0  0  0
 38 43  2  0  0  0
 38 46  1  0  0  0
 38 47  1  0  0  0
 39 64  1  0  0  0
 39 67  2  0  0  0
 40 52  1  0  0  0
 40 53  2  0  0  0
 40 58  1  0  0  0
 41110  1  0  0  0
 41111  1  0  0  0
 41112  1  0  0  0
 41 48  1  0  0  0
 42 43  1  0  0  0
 42 66  1  0  0  0
 42113  1  0  0  0
 42114  1  0  0  0
 43 44  1  0  0  0
 44115  1  0  0  0
 45 46  2  0  0  0
 45116  1  0  0  0
 46117  1  0  0  0
 47118  1  0  0  0
 47119  1  0  0  0
 48 56  1  0  0  0
 48 65  1  0  0  0
 48120  1  0  0  0
 49 50  1  0  0  0
 49 53  1  0  0  0
 49 64  1  0  0  0
 49121  1  0  0  0
 50 51  1  0  0  0
 50122  1  0  0  0
 50123  1  0  0  0
 51 52  1  0  0  0
 51124  1  0  0  0
 51125  1  0  0  0
 52126  1  0  0  0
 52127  1  0  0  0
 53 54  1  0  0  0
 54 55  2  0  0  0
 54128  1  0  0  0
 55 57  1  0  0  0
 55129  1  0  0  0
 56 69  2  0  0  0
 57 58  2  0  0  0
 57130  1  0  0  0
 58131  1  0  0  0
 59 60  1  0  0  0
 59 61  1  0  0  0
 59 62  1  0  0  0
 60132  1  0  0  0
 60133  1  0  0  0
 60134  1  0  0  0
 61135  1  0  0  0
 61136  1  0  0  0
 61137  1  0  0  0
 62138  1  0  0  0
 62139  1  0  0  0
 62140  1  0  0  0
 63 65  1  0  0  0
 63141  1  0  0  0
 63142  1  0  0  0
 63143  1  0  0  0
 64144  1  0  0  0
 65145  1  0  0  0
 68 83  1  0  0  0
 71 72  2  0  0  0
 71 73  1  0  0  0
 71146  1  0  0  0
 72 74  1  0  0  0
 72147  1  0  0  0
 73 75  2  0  0  0
 73148  1  0  0  0
 74 76  2  0  0  0
 74 84  1  0  0  0
 75 76  1  0  0  0
 75 85  1  0  0  0
 76 86  1  0  0  0
 77 78  2  0  0  0
 77 84  1  0  0  0
 77149  1  0  0  0
 78 81  1  0  0  0
 78 83  1  0  0  0
 79 80  2  0  0  0
 79 81  1  0  0  0
 79 82  1  0  0  0
 80150  1  0  0  0
 80151  1  0  0  0
 81152  1  0  0  0
 81153  1  0  0  0
 82 84  1  0  0  0
 82154  1  0  0  0
 82155  1  0  0  0
 83156  1  0  0  0
 83157  1  0  0  0
 85158  1  0  0  0
M  ISO  4   1 100  68 101  83 101  85 100
M  END
> <chiral flag>
0

> <version>
0

> <s_m_source_file>
/data/baiqing/PycharmProjects/Reinvent-master-3.2/result/LINK_invent/BTK/process_docking_weight1_custom_product_contain_oxygen_bond_distance_aromatic_linkinvent_7_9_3/rearranged_h_0079.sdf

> <i_m_source_file_index>
54

> <r_mmod_Potential_Energy-OPLS-2005>
239.869415283203

> <r_mmod_Stretch_Energy-OPLS-2005>
142.616882324219

> <r_mmod_Bend_Energy-OPLS-2005>
174.802825927734

> <r_mmod_Torsional_Energy-OPLS-2005>
205.761459350586

> <r_mmod_Improper_Torsional_Energy-OPLS-2005>
4.76548480987549

> <r_mmod_Van_der_Waal_Energy-OPLS-2005>
158.547607421875

> <r_mmod_Electrostatic_Energy-OPLS-2005>
-340.888366699219

> <r_mmod_Solvation_Energy-OPLS-2005>
-198.91911315918

> <b_mmod_Minimization_Converged-OPLS-2005>
0

> <r_mmod_RMS_Derivative-OPLS-2005>
0.71670013666153

$$$$
54
                    3D
 Structure written by MMmdl.
159168  0  0  1  0            999 V2000
  -30.5779  -14.6308   20.5889 C   0  0  0  0  0  0
  -30.4532  -12.4097   19.4661 C   0  0  0  0  0  0
  -29.5188  -12.4942   18.2353 C   0  0  0  0  0  0
  -28.0456  -12.3059   18.6496 C   0  0  0  0  0  0
  -27.6516  -13.1914   19.8599 C   0  0  2  0  0  0
  -28.6803  -13.0282   20.9994 C   0  0  0  0  0  0
  -25.2473  -13.8051   20.5460 C   0  0  0  0  0  0
  -24.1776  -13.0391   20.9149 C   0  0  0  0  0  0
  -24.6354  -11.6864   20.8765 C   0  0  0  0  0  0
  -23.9018  -10.4278   21.0434 C   0  0  0  0  0  0
  -24.3560   -9.4172   21.9195 C   0  0  0  0  0  0
  -23.6259   -8.2214   22.0761 C   0  0  0  0  0  0
  -22.4241   -8.0258   21.3519 C   0  0  0  0  0  0
  -21.9861   -9.0241   20.4653 C   0  0  0  0  0  0
  -22.7193  -10.2114   20.3092 C   0  0  0  0  0  0
  -21.6817   -6.0707   22.5274 C   0  0  0  0  0  0
  -21.3974   -6.5633   23.8204 C   0  0  0  0  0  0
  -21.3642   -5.6795   24.9186 C   0  0  0  0  0  0
  -21.6017   -4.3051   24.7250 C   0  0  0  0  0  0
  -21.8801   -3.8135   23.4377 C   0  0  0  0  0  0
  -21.9193   -4.6943   22.3418 C   0  0  0  0  0  0
  -22.7803  -13.5246   21.1865 C   0  0  0  0  0  0
  -22.1680   -4.2110   21.1009 F   0  0  0  0  0  0
  -21.5608   -3.4563   25.7768 F   0  0  0  0  0  0
  -29.9884  -13.4071   20.4494 N   0  0  0  0  0  0
  -26.2904  -12.9222   20.3181 N   0  0  0  0  0  0
  -25.9266  -11.6422   20.5743 N   0  0  0  0  0  0
  -22.0483  -12.8228   22.0475 N   0  0  0  0  0  0
  -25.4163  -15.1753   20.3527 N   0  0  0  0  0  0
  -31.7462  -14.8273   20.2385 O   0  0  0  0  0  0
  -21.6655   -6.8823   21.4217 O   0  0  0  0  0  0
  -22.3546  -14.5593   20.6766 O   0  0  0  0  0  0
  -24.6176  -31.8594   23.2069 C   0  0  0  0  0  0
  -25.9039  -32.4797   23.8375 C   0  0  1  0  0  0
  -27.2463  -27.3542   20.1202 C   0  0  0  0  0  0
  -25.5874  -33.8599   24.2325 N   0  0  0  0  0  0
  -23.4109  -30.4848   21.5450 C   0  0  2  0  0  0
  -24.8599  -28.9270   20.1265 C   0  0  0  0  0  0
  -22.7430  -29.4643   22.4962 C   0  0  0  0  0  0
  -18.0244  -28.1405   22.8460 C   0  0  0  0  0  0
  -24.1485  -36.7304   23.2639 C   0  0  0  0  0  0
  -25.9472  -30.8012   21.3734 C   0  0  0  0  0  0
  -26.0186  -29.4219   20.7347 C   0  0  0  0  0  0
  -27.2028  -28.6388   20.7369 C   0  0  0  0  0  0
  -26.0774  -26.9054   19.4711 C   0  0  0  0  0  0
  -24.8870  -27.6680   19.4940 C   0  0  0  0  0  0
  -23.6267  -29.8040   20.1641 C   0  0  0  0  0  0
  -25.4111  -36.3105   24.0357 C   0  0  1  0  0  0
  -20.5878  -28.3587   23.1219 C   0  0  2  0  0  0
  -20.6748  -26.9412   22.5111 C   0  0  0  0  0  0
  -19.5614  -26.6457   21.5020 C   0  0  0  0  0  0
  -18.1845  -26.8000   22.1555 C   0  0  0  0  0  0
  -19.1544  -28.8766   23.2913 C   0  0  0  0  0  0
  -18.9508  -30.1310   23.9076 C   0  0  0  0  0  0
  -17.6545  -30.6465   24.0806 C   0  0  0  0  0  0
  -25.9032  -34.9466   23.5154 C   0  0  0  0  0  0
  -16.5409  -29.9091   23.6456 C   0  0  0  0  0  0
  -16.7254  -28.6563   23.0350 C   0  0  0  0  0  0
  -26.4456  -31.6600   25.0713 C   0  0  0  0  0  0
  -25.3743  -31.3698   26.1470 C   0  0  0  0  0  0
  -27.0310  -30.3044   24.6165 C   0  0  0  0  0  0
  -27.6042  -32.4294   25.7458 C   0  0  0  0  0  0
  -27.5603  -37.1813   24.8479 C   0  0  0  0  0  0
  -21.4152  -29.3000   22.3668 N   0  0  0  0  0  0
  -26.4306  -37.3797   23.9422 N   0  0  0  0  0  0
  -24.6757  -31.0677   22.0991 N   0  0  0  0  0  0
  -23.4202  -28.8168   23.2982 O   0  0  0  0  0  0
  -28.4662  -26.6757   20.0917 O   0  0  0  0  0  0
  -26.5601  -34.8922   22.4719 O   0  0  0  0  0  0
  -23.5339  -32.1324   23.7447 O   0  0  0  0  0  0
  -30.1061  -19.7336   22.2649 C   0  0  0  0  0  0
  -29.4859  -18.1465   20.5261 C   0  0  0  0  0  0
  -30.4156  -17.3182   22.6212 C   0  0  0  0  0  0
  -29.5547  -19.5131   20.9821 C   0  0  0  0  0  0
  -30.4884  -18.6532   23.0878 C   0  0  0  0  0  0
  -29.9426  -17.0328   21.3136 C   0  0  0  0  0  0
  -26.9898  -21.8661   20.1742 C   0  0  0  0  0  0
  -28.0362  -22.8505   20.2975 C   0  0  0  0  0  0
  -25.6665  -22.0932   20.2523 C   0  0  0  0  0  0
  -27.8074  -24.2106   20.2585 C   0  0  0  0  0  0
  -28.8368  -25.3005   20.2344 C   0  0  0  0  0  0
  -27.5662  -20.4799   19.9938 C   0  0  0  0  0  0
  -29.3481  -22.0481   20.3880 C   0  0  0  0  0  0
  -29.0084  -20.5984   20.2162 N   0  0  0  0  0  0
  -30.8855  -18.9419   24.3930 N   0  0  0  0  0  0
  -29.7167  -15.6510   20.9107 N   0  0  0  0  0  0
  -30.0375  -25.0261   20.3036 O   0  0  0  0  0  0
  -31.4923  -12.5674   19.1738 H   0  0  0  0  0  0
  -30.4256  -11.4131   19.9089 H   0  0  0  0  0  0
  -29.8018  -11.7345   17.5070 H   0  0  0  0  0  0
  -29.6334  -13.4592   17.7395 H   0  0  0  0  0  0
  -27.9209  -11.2547   18.9121 H   0  0  0  0  0  0
  -27.3874  -12.4914   17.8024 H   0  0  0  0  0  0
  -27.6806  -14.2266   19.5139 H   0  0  0  0  0  0
  -28.7043  -11.9931   21.3505 H   0  0  0  0  0  0
  -28.4167  -13.6296   21.8733 H   0  0  0  0  0  0
  -25.2729   -9.5649   22.4744 H   0  0  0  0  0  0
  -23.9979   -7.4580   22.7421 H   0  0  0  0  0  0
  -21.0815   -8.8751   19.8936 H   0  0  0  0  0  0
  -22.3666  -10.9657   19.6200 H   0  0  0  0  0  0
  -21.1935   -7.6159   23.9688 H   0  0  0  0  0  0
  -21.1497   -6.0549   25.9070 H   0  0  0  0  0  0
  -22.0612   -2.7610   23.2905 H   0  0  0  0  0  0
  -22.4280  -12.0021   22.4946 H   0  0  0  0  0  0
  -21.1112  -13.1169   22.2856 H   0  0  0  0  0  0
  -24.5872  -15.7584   20.3380 H   0  0  0  0  0  0
  -26.1401  -15.5196   19.7357 H   0  0  0  0  0  0
  -26.7130  -32.5473   23.1126 H   0  0  0  0  0  0
  -25.0054  -33.9750   25.0495 H   0  0  0  0  0  0
  -22.7005  -31.3042   21.3994 H   0  0  0  0  0  0
  -23.3763  -35.9631   23.3319 H   0  0  0  0  0  0
  -24.3585  -36.8880   22.2058 H   0  0  0  0  0  0
  -23.7247  -37.6523   23.6625 H   0  0  0  0  0  0
  -26.0709  -31.5527   20.5921 H   0  0  0  0  0  0
  -26.8338  -30.8553   21.9981 H   0  0  0  0  0  0
  -28.0972  -29.0263   21.2065 H   0  0  0  0  0  0
  -26.0699  -25.9829   18.9108 H   0  0  0  0  0  0
  -24.0054  -27.2911   18.9952 H   0  0  0  0  0  0
  -23.7317  -30.5710   19.3959 H   0  0  0  0  0  0
  -22.7498  -29.2227   19.8701 H   0  0  0  0  0  0
  -25.1291  -36.1977   25.0865 H   0  0  0  0  0  0
  -21.0032  -28.2981   24.1290 H   0  0  0  0  0  0
  -20.5875  -26.2075   23.3176 H   0  0  0  0  0  0
  -21.6546  -26.7682   22.0661 H   0  0  0  0  0  0
  -19.6702  -25.6443   21.0832 H   0  0  0  0  0  0
  -19.6390  -27.3358   20.6622 H   0  0  0  0  0  0
  -17.4082  -26.6859   21.3984 H   0  0  0  0  0  0
  -18.0297  -26.0112   22.8938 H   0  0  0  0  0  0
  -19.7990  -30.6971   24.2669 H   0  0  0  0  0  0
  -17.5156  -31.6023   24.5684 H   0  0  0  0  0  0
  -15.5414  -30.3005   23.7942 H   0  0  0  0  0  0
  -15.8596  -28.1004   22.7000 H   0  0  0  0  0  0
  -24.5875  -30.7066   25.7829 H   0  0  0  0  0  0
  -24.8930  -32.2814   26.5018 H   0  0  0  0  0  0
  -25.8056  -30.8790   27.0207 H   0  0  0  0  0  0
  -26.2854  -29.6779   24.1222 H   0  0  0  0  0  0
  -27.4059  -29.7323   25.4682 H   0  0  0  0  0  0
  -27.8719  -30.4382   23.9351 H   0  0  0  0  0  0
  -27.2701  -33.3588   26.2123 H   0  0  0  0  0  0
  -28.3802  -32.6882   25.0219 H   0  0  0  0  0  0
  -28.0798  -31.8349   26.5294 H   0  0  0  0  0  0
  -28.2643  -38.0089   24.7500 H   0  0  0  0  0  0
  -28.1047  -36.2609   24.6296 H   0  0  0  0  0  0
  -27.2306  -37.1497   25.8878 H   0  0  0  0  0  0
  -20.9355  -29.8605   21.6780 H   0  0  0  0  0  0
  -26.0195  -38.2897   24.1333 H   0  0  0  0  0  0
  -30.1786  -20.7292   22.6815 H   0  0  0  0  0  0
  -29.0435  -17.9550   19.5594 H   0  0  0  0  0  0
  -30.6699  -16.5120   23.2939 H   0  0  0  0  0  0
  -25.2477  -23.0720   20.4194 H   0  0  0  0  0  0
  -24.9722  -21.2705   20.1589 H   0  0  0  0  0  0
  -26.7856  -24.5302   20.2039 H   0  0  0  0  0  0
  -27.3526  -20.1084   18.9880 H   0  0  0  0  0  0
  -27.1097  -19.7920   20.7091 H   0  0  0  0  0  0
  -29.8619  -22.2678   21.3220 H   0  0  0  0  0  0
  -29.9969  -22.3620   19.5692 H   0  0  0  0  0  0
  -30.4884  -19.7945   24.7848 H   0  0  0  0  0  0
  -30.8816  -18.1911   25.0757 H   0  0  0  0  0  0
  -28.7513  -15.3588   20.9724 H   0  0  0  0  0  0
  1 25  1  0  0  0
  1 30  2  0  0  0
  1 86  1  0  0  0
  2  3  1  0  0  0
  2 25  1  0  0  0
  2 88  1  0  0  0
  2 89  1  0  0  0
  3  4  1  0  0  0
  3 90  1  0  0  0
  3 91  1  0  0  0
  4  5  1  0  0  0
  4 92  1  0  0  0
  4 93  1  0  0  0
  5  6  1  0  0  0
  5 26  1  0  0  0
  5 94  1  0  0  0
  6 25  1  0  0  0
  6 95  1  0  0  0
  6 96  1  0  0  0
  7  8  2  0  0  0
  7 26  1  0  0  0
  7 29  1  0  0  0
  8  9  1  0  0  0
  8 22  1  0  0  0
  9 10  1  0  0  0
  9 27  2  0  0  0
 10 11  2  0  0  0
 10 15  1  0  0  0
 11 12  1  0  0  0
 11 97  1  0  0  0
 12 13  2  0  0  0
 12 98  1  0  0  0
 13 14  1  0  0  0
 13 31  1  0  0  0
 14 15  2  0  0  0
 14 99  1  0  0  0
 15100  1  0  0  0
 16 17  2  0  0  0
 16 21  1  0  0  0
 16 31  1  0  0  0
 17 18  1  0  0  0
 17101  1  0  0  0
 18 19  2  0  0  0
 18102  1  0  0  0
 19 20  1  0  0  0
 19 24  1  0  0  0
 20 21  2  0  0  0
 20103  1  0  0  0
 21 23  1  0  0  0
 22 28  1  0  0  0
 22 32  2  0  0  0
 26 27  1  0  0  0
 28104  1  0  0  0
 28105  1  0  0  0
 29106  1  0  0  0
 29107  1  0  0  0
 33 34  1  0  0  0
 33 66  1  0  0  0
 33 70  2  0  0  0
 34 36  1  0  0  0
 34 59  1  0  0  0
 34108  1  0  0  0
 35 44  2  0  0  0
 35 45  1  0  0  0
 35 68  1  0  0  0
 36 56  1  0  0  0
 36109  1  0  0  0
 37 39  1  0  0  0
 37 47  1  0  0  0
 37 66  1  0  0  0
 37110  1  0  0  0
 38 43  2  0  0  0
 38 46  1  0  0  0
 38 47  1  0  0  0
 39 64  1  0  0  0
 39 67  2  0  0  0
 40 52  1  0  0  0
 40 53  2  0  0  0
 40 58  1  0  0  0
 41111  1  0  0  0
 41112  1  0  0  0
 41113  1  0  0  0
 41 48  1  0  0  0
 42 43  1  0  0  0
 42 66  1  0  0  0
 42114  1  0  0  0
 42115  1  0  0  0
 43 44  1  0  0  0
 44116  1  0  0  0
 45 46  2  0  0  0
 45117  1  0  0  0
 46118  1  0  0  0
 47119  1  0  0  0
 47120  1  0  0  0
 48 56  1  0  0  0
 48 65  1  0  0  0
 48121  1  0  0  0
 49 50  1  0  0  0
 49 53  1  0  0  0
 49 64  1  0  0  0
 49122  1  0  0  0
 50 51  1  0  0  0
 50123  1  0  0  0
 50124  1  0  0  0
 51 52  1  0  0  0
 51125  1  0  0  0
 51126  1  0  0  0
 52127  1  0  0  0
 52128  1  0  0  0
 53 54  1  0  0  0
 54 55  2  0  0  0
 54129  1  0  0  0
 55 57  1  0  0  0
 55130  1  0  0  0
 56 69  2  0  0  0
 57 58  2  0  0  0
 57131  1  0  0  0
 58132  1  0  0  0
 59 60  1  0  0  0
 59 61  1  0  0  0
 59 62  1  0  0  0
 60133  1  0  0  0
 60134  1  0  0  0
 60135  1  0  0  0
 61136  1  0  0  0
 61137  1  0  0  0
 61138  1  0  0  0
 62139  1  0  0  0
 62140  1  0  0  0
 62141  1  0  0  0
 63 65  1  0  0  0
 63142  1  0  0  0
 63143  1  0  0  0
 63144  1  0  0  0
 64145  1  0  0  0
 65146  1  0  0  0
 68 81  1  0  0  0
 71 74  2  0  0  0
 71 75  1  0  0  0
 71147  1  0  0  0
 72 74  1  0  0  0
 72 76  2  0  0  0
 72148  1  0  0  0
 73 75  2  0  0  0
 73 76  1  0  0  0
 73149  1  0  0  0
 74 84  1  0  0  0
 75 85  1  0  0  0
 76 86  1  0  0  0
 77 78  1  0  0  0
 77 79  2  0  0  0
 77 82  1  0  0  0
 78 80  2  0  0  0
 78 83  1  0  0  0
 79150  1  0  0  0
 79151  1  0  0  0
 80 81  1  0  0  0
 80152  1  0  0  0
 81 87  2  0  0  0
 82 84  1  0  0  0
 82153  1  0  0  0
 82154  1  0  0  0
 83 84  1  0  0  0
 83155  1  0  0  0
 83156  1  0  0  0
 85157  1  0  0  0
 85158  1  0  0  0
 86159  1  0  0  0
M  ISO  4   1 100  68 101  81 101  86 100
M  END
> <chiral flag>
0

> <version>
0

> <s_m_source_file>
/data/baiqing/PycharmProjects/Reinvent-master-3.2/result/LINK_invent/BTK/process_docking_weight1_custom_product_contain_oxygen_bond_distance_aromatic_linkinvent_7_9_3/rearranged_h_0079.sdf

> <i_m_source_file_index>
55

> <r_mmod_Potential_Energy-OPLS-2005>
194.333953857422

> <r_mmod_Stretch_Energy-OPLS-2005>
74.9322052001953

> <r_mmod_Bend_Energy-OPLS-2005>
226.893478393555

> <r_mmod_Torsional_Energy-OPLS-2005>
259.641357421875

> <r_mmod_Improper_Torsional_Energy-OPLS-2005>
18.4388542175293

> <r_mmod_Van_der_Waal_Energy-OPLS-2005>
144.246932983398

> <r_mmod_Electrostatic_Energy-OPLS-2005>
-313.256408691406

> <r_mmod_Solvation_Energy-OPLS-2005>
-258.235778808594

> <b_mmod_Minimization_Converged-OPLS-2005>
0

> <r_mmod_RMS_Derivative-OPLS-2005>
7.51752853393555

$$$$
55
                    3D
 Structure written by MMmdl.
154162  0  0  1  0            999 V2000
  -30.6373  -14.6324   20.4672 C   0  0  0  0  0  0
  -30.4264  -12.3900   19.4506 C   0  0  0  0  0  0
  -29.4998  -12.5219   18.2214 C   0  0  0  0  0  0
  -28.0220  -12.3642   18.6294 C   0  0  0  0  0  0
  -27.6473  -13.2284   19.8624 C   0  0  2  0  0  0
  -28.6941  -13.0885   20.9904 C   0  0  0  0  0  0
  -25.2532  -13.8206   20.5694 C   0  0  0  0  0  0
  -24.1811  -13.0453   20.9189 C   0  0  0  0  0  0
  -24.6395  -11.6931   20.8739 C   0  0  0  0  0  0
  -23.9070  -10.4303   21.0393 C   0  0  0  0  0  0
  -24.3629   -9.4210   21.9162 C   0  0  0  0  0  0
  -23.6309   -8.2233   22.0735 C   0  0  0  0  0  0
  -22.4295   -8.0273   21.3532 C   0  0  0  0  0  0
  -21.9923   -9.0239   20.4635 C   0  0  0  0  0  0
  -22.7245  -10.2122   20.3045 C   0  0  0  0  0  0
  -21.6854   -6.0736   22.5270 C   0  0  0  0  0  0
  -21.4018   -6.5637   23.8203 C   0  0  0  0  0  0
  -21.3661   -5.6786   24.9169 C   0  0  0  0  0  0
  -21.6057   -4.3052   24.7220 C   0  0  0  0  0  0
  -21.8822   -3.8136   23.4340 C   0  0  0  0  0  0
  -21.9187   -4.6961   22.3399 C   0  0  0  0  0  0
  -22.7822  -13.5224   21.1840 C   0  0  0  0  0  0
  -22.1645   -4.2146   21.0980 F   0  0  0  0  0  0
  -21.5634   -3.4540   25.7728 F   0  0  0  0  0  0
  -30.0096  -13.4158   20.4276 N   0  0  0  0  0  0
  -26.2962  -12.9393   20.3341 N   0  0  0  0  0  0
  -25.9327  -11.6542   20.5773 N   0  0  0  0  0  0
  -22.0461  -12.8230   22.0412 N   0  0  0  0  0  0
  -25.4272  -15.1937   20.4104 N   0  0  0  0  0  0
  -31.8163  -14.7476   20.1177 O   0  0  0  0  0  0
  -21.6642   -6.8889   21.4240 O   0  0  0  0  0  0
  -22.3491  -14.5495   20.6640 O   0  0  0  0  0  0
  -24.6238  -31.8606   23.2028 C   0  0  0  0  0  0
  -25.9094  -32.4772   23.8362 C   0  0  1  0  0  0
  -27.2245  -27.3535   20.1199 C   0  0  0  0  0  0
  -25.5915  -33.8572   24.2278 N   0  0  0  0  0  0
  -23.4176  -30.4841   21.5423 C   0  0  2  0  0  0
  -24.8687  -28.9455   20.1042 C   0  0  0  0  0  0
  -22.7486  -29.4619   22.4912 C   0  0  0  0  0  0
  -18.0287  -28.1417   22.8467 C   0  0  0  0  0  0
  -24.1500  -36.7312   23.2631 C   0  0  0  0  0  0
  -25.9548  -30.8074   21.3675 C   0  0  0  0  0  0
  -26.0337  -29.4348   20.7134 C   0  0  0  0  0  0
  -27.2186  -28.6460   20.7177 C   0  0  0  0  0  0
  -26.0452  -26.9011   19.4966 C   0  0  0  0  0  0
  -24.8744  -27.6836   19.4865 C   0  0  0  0  0  0
  -23.6327  -29.8210   20.1551 C   0  0  0  0  0  0
  -25.4115  -36.3075   24.0322 C   0  0  1  0  0  0
  -20.5884  -28.3707   23.1294 C   0  0  2  0  0  0
  -20.6789  -26.9433   22.5421 C   0  0  0  0  0  0
  -19.5763  -26.6400   21.5229 C   0  0  0  0  0  0
  -18.1936  -26.7956   22.1624 C   0  0  0  0  0  0
  -19.1531  -28.8881   23.2871 C   0  0  0  0  0  0
  -18.9464  -30.1479   23.8892 C   0  0  0  0  0  0
  -17.6458  -30.6608   24.0578 C   0  0  0  0  0  0
  -25.9054  -34.9438   23.5099 C   0  0  0  0  0  0
  -16.5351  -29.9116   23.6324 C   0  0  0  0  0  0
  -16.7271  -28.6547   23.0315 C   0  0  0  0  0  0
  -26.4462  -31.6577   25.0726 C   0  0  0  0  0  0
  -25.3702  -31.3738   26.1466 C   0  0  0  0  0  0
  -27.0289  -30.2998   24.6162 C   0  0  0  0  0  0
  -27.6020  -32.4305   25.7498 C   0  0  0  0  0  0
  -27.5584  -37.1797   24.8440 C   0  0  0  0  0  0
  -21.4197  -29.3041   22.3681 N   0  0  0  0  0  0
  -26.4276  -37.3780   23.9412 N   0  0  0  0  0  0
  -24.6835  -31.0659   22.0958 N   0  0  0  0  0  0
  -23.4236  -28.8150   23.2969 O   0  0  0  0  0  0
  -28.3011  -26.4730   20.1637 O   0  0  0  0  0  0
  -26.5621  -34.8900   22.4669 O   0  0  0  0  0  0
  -23.5402  -32.1370   23.7378 O   0  0  0  0  0  0
  -29.4552  -18.2769   20.6720 C   0  0  0  0  0  0
  -30.0529  -19.5722   18.6939 C   0  0  0  0  0  0
  -30.4735  -17.1633   18.7614 C   0  0  0  0  0  0
  -29.5051  -19.5565   19.9987 C   0  0  0  0  0  0
  -29.9536  -17.0596   20.0761 C   0  0  0  0  0  0
  -30.5264  -18.3957   18.0890 C   0  0  0  0  0  0
  -28.2093  -25.4919   21.1520 C   0  0  0  0  0  0
  -28.9510  -20.8644   20.6044 C   0  0  0  0  0  0
  -28.5165  -24.1463   21.1749 C   0  0  0  0  0  0
  -29.0671  -23.3929   20.0075 C   0  0  0  0  0  0
  -28.2904  -23.4533   22.5058 C   0  0  0  0  0  0
  -29.8659  -15.7425   20.7162 N   0  0  0  0  0  0
  -29.2769  -22.0273   19.9519 N   0  0  0  0  0  0
  -28.2408  -20.7750   21.6058 O   0  0  0  0  0  0
  -29.4360  -24.0034   19.0013 O   0  0  0  0  0  0
  -31.0293  -18.4563   16.8322 F   0  0  0  0  0  0
  -31.4683  -12.5036   19.1476 H   0  0  0  0  0  0
  -30.3534  -11.3922   19.8865 H   0  0  0  0  0  0
  -29.7646  -11.7815   17.4655 H   0  0  0  0  0  0
  -29.6448  -13.4995   17.7566 H   0  0  0  0  0  0
  -27.8526  -11.3090   18.8469 H   0  0  0  0  0  0
  -27.3704  -12.6063   17.7877 H   0  0  0  0  0  0
  -27.6609  -14.2652   19.5233 H   0  0  0  0  0  0
  -28.7006  -12.0677   21.3741 H   0  0  0  0  0  0
  -28.4515  -13.7333   21.8357 H   0  0  0  0  0  0
  -25.2766   -9.5681   22.4754 H   0  0  0  0  0  0
  -24.0005   -7.4633   22.7479 H   0  0  0  0  0  0
  -21.0831   -8.8775   19.8973 H   0  0  0  0  0  0
  -22.3687  -10.9664   19.6167 H   0  0  0  0  0  0
  -21.2010   -7.6151   23.9712 H   0  0  0  0  0  0
  -21.1486   -6.0517   25.9080 H   0  0  0  0  0  0
  -22.0599   -2.7602   23.2831 H   0  0  0  0  0  0
  -22.4047  -11.9908   22.4865 H   0  0  0  0  0  0
  -21.1087  -13.1255   22.2605 H   0  0  0  0  0  0
  -24.6741  -15.8619   20.5388 H   0  0  0  0  0  0
  -26.2855  -15.6199   20.0850 H   0  0  0  0  0  0
  -26.7186  -32.5449   23.1135 H   0  0  0  0  0  0
  -25.0059  -33.9741   25.0416 H   0  0  0  0  0  0
  -22.7070  -31.3014   21.4020 H   0  0  0  0  0  0
  -23.3757  -35.9649   23.3250 H   0  0  0  0  0  0
  -24.3600  -36.8987   22.2054 H   0  0  0  0  0  0
  -23.7263  -37.6504   23.6690 H   0  0  0  0  0  0
  -26.0809  -31.5735   20.5997 H   0  0  0  0  0  0
  -26.8373  -30.8572   21.9934 H   0  0  0  0  0  0
  -28.1133  -29.0073   21.2060 H   0  0  0  0  0  0
  -26.0292  -25.9212   19.0403 H   0  0  0  0  0  0
  -23.9801  -27.3099   19.0058 H   0  0  0  0  0  0
  -23.7435  -30.5999   19.3992 H   0  0  0  0  0  0
  -22.7572  -29.2426   19.8562 H   0  0  0  0  0  0
  -25.1292  -36.1898   25.0812 H   0  0  0  0  0  0
  -20.9964  -28.3294   24.1422 H   0  0  0  0  0  0
  -20.5732  -26.2309   23.3619 H   0  0  0  0  0  0
  -21.6659  -26.7491   22.1195 H   0  0  0  0  0  0
  -19.6935  -25.6310   21.1270 H   0  0  0  0  0  0
  -19.6735  -27.3208   20.6761 H   0  0  0  0  0  0
  -17.4219  -26.6688   21.4020 H   0  0  0  0  0  0
  -18.0326  -26.0119   22.9040 H   0  0  0  0  0  0
  -19.7936  -30.7295   24.2276 H   0  0  0  0  0  0
  -17.5011  -31.6280   24.5198 H   0  0  0  0  0  0
  -15.5350  -30.3021   23.7658 H   0  0  0  0  0  0
  -15.8664  -28.0893   22.6988 H   0  0  0  0  0  0
  -24.5866  -30.7088   25.7811 H   0  0  0  0  0  0
  -24.8908  -32.2927   26.4857 H   0  0  0  0  0  0
  -25.8020  -30.8942   27.0264 H   0  0  0  0  0  0
  -26.2873  -29.6772   24.1148 H   0  0  0  0  0  0
  -27.3960  -29.7196   25.4636 H   0  0  0  0  0  0
  -27.8740  -30.4275   23.9395 H   0  0  0  0  0  0
  -27.2624  -33.3597   26.2084 H   0  0  0  0  0  0
  -28.3828  -32.6889   25.0333 H   0  0  0  0  0  0
  -28.0699  -31.8437   26.5414 H   0  0  0  0  0  0
  -28.2538  -38.0152   24.7534 H   0  0  0  0  0  0
  -28.1138  -36.2680   24.6180 H   0  0  0  0  0  0
  -27.2317  -37.1339   25.8843 H   0  0  0  0  0  0
  -20.9378  -29.8749   21.6878 H   0  0  0  0  0  0
  -26.0144  -38.2836   24.1459 H   0  0  0  0  0  0
  -29.0248  -18.2358   21.6647 H   0  0  0  0  0  0
  -30.1139  -20.4817   18.1129 H   0  0  0  0  0  0
  -30.8314  -16.2905   18.2351 H   0  0  0  0  0  0
  -27.8203  -25.9488   22.0540 H   0  0  0  0  0  0
  -28.1879  -24.1686   23.3226 H   0  0  0  0  0  0
  -29.1264  -22.8031   22.7643 H   0  0  0  0  0  0
  -27.3598  -22.8866   22.4782 H   0  0  0  0  0  0
  -29.0115  -15.5607   21.2221 H   0  0  0  0  0  0
  -29.7927  -21.8069   19.1186 H   0  0  0  0  0  0
  1 25  1  0  0  0
  1 30  2  0  0  0
  1 82  1  0  0  0
  2  3  1  0  0  0
  2 25  1  0  0  0
  2 87  1  0  0  0
  2 88  1  0  0  0
  3  4  1  0  0  0
  3 89  1  0  0  0
  3 90  1  0  0  0
  4  5  1  0  0  0
  4 91  1  0  0  0
  4 92  1  0  0  0
  5  6  1  0  0  0
  5 26  1  0  0  0
  5 93  1  0  0  0
  6 25  1  0  0  0
  6 94  1  0  0  0
  6 95  1  0  0  0
  7  8  2  0  0  0
  7 26  1  0  0  0
  7 29  1  0  0  0
  8  9  1  0  0  0
  8 22  1  0  0  0
  9 10  1  0  0  0
  9 27  2  0  0  0
 10 11  2  0  0  0
 10 15  1  0  0  0
 11 12  1  0  0  0
 11 96  1  0  0  0
 12 13  2  0  0  0
 12 97  1  0  0  0
 13 14  1  0  0  0
 13 31  1  0  0  0
 14 15  2  0  0  0
 14 98  1  0  0  0
 15 99  1  0  0  0
 16 17  2  0  0  0
 16 21  1  0  0  0
 16 31  1  0  0  0
 17 18  1  0  0  0
 17100  1  0  0  0
 18 19  2  0  0  0
 18101  1  0  0  0
 19 20  1  0  0  0
 19 24  1  0  0  0
 20 21  2  0  0  0
 20102  1  0  0  0
 21 23  1  0  0  0
 22 28  1  0  0  0
 22 32  2  0  0  0
 26 27  1  0  0  0
 28103  1  0  0  0
 28104  1  0  0  0
 29105  1  0  0  0
 29106  1  0  0  0
 33 34  1  0  0  0
 33 66  1  0  0  0
 33 70  2  0  0  0
 34 36  1  0  0  0
 34 59  1  0  0  0
 34107  1  0  0  0
 35 44  2  0  0  0
 35 45  1  0  0  0
 35 68  1  0  0  0
 36 56  1  0  0  0
 36108  1  0  0  0
 37 39  1  0  0  0
 37 47  1  0  0  0
 37 66  1  0  0  0
 37109  1  0  0  0
 38 43  2  0  0  0
 38 46  1  0  0  0
 38 47  1  0  0  0
 39 64  1  0  0  0
 39 67  2  0  0  0
 40 52  1  0  0  0
 40 53  2  0  0  0
 40 58  1  0  0  0
 41110  1  0  0  0
 41111  1  0  0  0
 41112  1  0  0  0
 41 48  1  0  0  0
 42 43  1  0  0  0
 42 66  1  0  0  0
 42113  1  0  0  0
 42114  1  0  0  0
 43 44  1  0  0  0
 44115  1  0  0  0
 45 46  2  0  0  0
 45116  1  0  0  0
 46117  1  0  0  0
 47118  1  0  0  0
 47119  1  0  0  0
 48 56  1  0  0  0
 48 65  1  0  0  0
 48120  1  0  0  0
 49 50  1  0  0  0
 49 53  1  0  0  0
 49 64  1  0  0  0
 49121  1  0  0  0
 50 51  1  0  0  0
 50122  1  0  0  0
 50123  1  0  0  0
 51 52  1  0  0  0
 51124  1  0  0  0
 51125  1  0  0  0
 52126  1  0  0  0
 52127  1  0  0  0
 53 54  1  0  0  0
 54 55  2  0  0  0
 54128  1  0  0  0
 55 57  1  0  0  0
 55129  1  0  0  0
 56 69  2  0  0  0
 57 58  2  0  0  0
 57130  1  0  0  0
 58131  1  0  0  0
 59 60  1  0  0  0
 59 61  1  0  0  0
 59 62  1  0  0  0
 60132  1  0  0  0
 60133  1  0  0  0
 60134  1  0  0  0
 61135  1  0  0  0
 61136  1  0  0  0
 61137  1  0  0  0
 62138  1  0  0  0
 62139  1  0  0  0
 62140  1  0  0  0
 63 65  1  0  0  0
 63141  1  0  0  0
 63142  1  0  0  0
 63143  1  0  0  0
 64144  1  0  0  0
 65145  1  0  0  0
 68 77  1  0  0  0
 71 74  2  0  0  0
 71 75  1  0  0  0
 71146  1  0  0  0
 72 74  1  0  0  0
 72 76  2  0  0  0
 72147  1  0  0  0
 73 75  2  0  0  0
 73 76  1  0  0  0
 73148  1  0  0  0
 74 78  1  0  0  0
 75 82  1  0  0  0
 76 86  1  0  0  0
 77 79  2  0  0  0
 77149  1  0  0  0
 78 83  1  0  0  0
 78 84  2  0  0  0
 79 80  1  0  0  0
 79 81  1  0  0  0
 80 83  1  0  0  0
 80 85  2  0  0  0
 81150  1  0  0  0
 81151  1  0  0  0
 81152  1  0  0  0
 82153  1  0  0  0
 83154  1  0  0  0
M  ISO  4   1 100  68 101  77 101  82 100
M  END
> <chiral flag>
0

> <version>
0

> <s_m_source_file>
/data/baiqing/PycharmProjects/Reinvent-master-3.2/result/LINK_invent/BTK/process_docking_weight1_custom_product_contain_oxygen_bond_distance_aromatic_linkinvent_7_9_3/rearranged_h_0079.sdf

> <i_m_source_file_index>
56

> <r_mmod_Potential_Energy-OPLS-2005>
-20.2695827484131

> <r_mmod_Stretch_Energy-OPLS-2005>
75.67919921875

> <r_mmod_Bend_Energy-OPLS-2005>
201.811386108398

> <r_mmod_Torsional_Energy-OPLS-2005>
264.14453125

> <r_mmod_Improper_Torsional_Energy-OPLS-2005>
5.84358596801758

> <r_mmod_Van_der_Waal_Energy-OPLS-2005>
155.944351196289

> <r_mmod_Electrostatic_Energy-OPLS-2005>
-533.459350585938

> <r_mmod_Solvation_Energy-OPLS-2005>
-235.926651000977

> <b_mmod_Minimization_Converged-OPLS-2005>
0

> <r_mmod_RMS_Derivative-OPLS-2005>
3.46767425537109

$$$$
56
                    3D
 Structure written by MMmdl.
166175  0  0  1  0            999 V2000
  -30.6770  -14.5885   20.6216 C   0  0  0  0  0  0
  -30.4306  -12.3885   19.4788 C   0  0  0  0  0  0
  -29.5138  -12.5346   18.2421 C   0  0  0  0  0  0
  -28.0342  -12.3655   18.6355 C   0  0  0  0  0  0
  -27.6568  -13.2171   19.8751 C   0  0  2  0  0  0
  -28.6842  -13.0287   21.0098 C   0  0  0  0  0  0
  -25.2558  -13.8172   20.5667 C   0  0  0  0  0  0
  -24.1812  -13.0442   20.9149 C   0  0  0  0  0  0
  -24.6375  -11.6923   20.8710 C   0  0  0  0  0  0
  -23.9050  -10.4303   21.0387 C   0  0  0  0  0  0
  -24.3611   -9.4226   21.9172 C   0  0  0  0  0  0
  -23.6284   -8.2262   22.0747 C   0  0  0  0  0  0
  -22.4268   -8.0286   21.3543 C   0  0  0  0  0  0
  -21.9906   -9.0255   20.4644 C   0  0  0  0  0  0
  -22.7226  -10.2136   20.3040 C   0  0  0  0  0  0
  -21.6860   -6.0736   22.5274 C   0  0  0  0  0  0
  -21.4017   -6.5635   23.8210 C   0  0  0  0  0  0
  -21.3663   -5.6785   24.9169 C   0  0  0  0  0  0
  -21.6041   -4.3050   24.7219 C   0  0  0  0  0  0
  -21.8823   -3.8147   23.4341 C   0  0  0  0  0  0
  -21.9191   -4.6962   22.3397 C   0  0  0  0  0  0
  -22.7844  -13.5244   21.1833 C   0  0  0  0  0  0
  -22.1660   -4.2148   21.0979 F   0  0  0  0  0  0
  -21.5625   -3.4539   25.7734 F   0  0  0  0  0  0
  -30.0176  -13.3862   20.4909 N   0  0  0  0  0  0
  -26.2986  -12.9359   20.3314 N   0  0  0  0  0  0
  -25.9308  -11.6517   20.5733 N   0  0  0  0  0  0
  -22.0506  -12.8223   22.0398 N   0  0  0  0  0  0
  -25.4301  -15.1897   20.4106 N   0  0  0  0  0  0
  -31.7796  -14.7514   20.0864 O   0  0  0  0  0  0
  -21.6648   -6.8882   21.4236 O   0  0  0  0  0  0
  -22.3534  -14.5576   20.6709 O   0  0  0  0  0  0
  -24.6215  -31.8610   23.2018 C   0  0  0  0  0  0
  -25.9088  -32.4770   23.8343 C   0  0  1  0  0  0
  -27.2314  -27.3531   20.1131 C   0  0  0  0  0  0
  -25.5906  -33.8581   24.2251 N   0  0  0  0  0  0
  -23.4122  -30.4824   21.5440 C   0  0  2  0  0  0
  -24.8581  -28.9372   20.1169 C   0  0  0  0  0  0
  -22.7434  -29.4635   22.4960 C   0  0  0  0  0  0
  -18.0262  -28.1390   22.8497 C   0  0  0  0  0  0
  -24.1475  -36.7301   23.2637 C   0  0  0  0  0  0
  -25.9484  -30.8031   21.3656 C   0  0  0  0  0  0
  -26.0233  -29.4320   20.7110 C   0  0  0  0  0  0
  -27.2095  -28.6510   20.7003 C   0  0  0  0  0  0
  -26.0395  -26.8900   19.5103 C   0  0  0  0  0  0
  -24.8663  -27.6689   19.5128 C   0  0  0  0  0  0
  -23.6208  -29.8088   20.1625 C   0  0  0  0  0  0
  -25.4102  -36.3074   24.0316 C   0  0  1  0  0  0
  -20.5858  -28.3681   23.1306 C   0  0  2  0  0  0
  -20.6750  -26.9408   22.5421 C   0  0  0  0  0  0
  -19.5727  -26.6382   21.5226 C   0  0  0  0  0  0
  -18.1905  -26.7934   22.1639 C   0  0  0  0  0  0
  -19.1516  -28.8857   23.2892 C   0  0  0  0  0  0
  -18.9459  -30.1464   23.8897 C   0  0  0  0  0  0
  -17.6464  -30.6593   24.0575 C   0  0  0  0  0  0
  -25.9044  -34.9448   23.5079 C   0  0  0  0  0  0
  -16.5345  -29.9100   23.6349 C   0  0  0  0  0  0
  -16.7258  -28.6518   23.0373 C   0  0  0  0  0  0
  -26.4473  -31.6601   25.0738 C   0  0  0  0  0  0
  -25.3701  -31.3782   26.1478 C   0  0  0  0  0  0
  -27.0333  -30.3019   24.6222 C   0  0  0  0  0  0
  -27.5995  -32.4380   25.7518 C   0  0  0  0  0  0
  -27.5559  -37.1794   24.8464 C   0  0  0  0  0  0
  -21.4159  -29.3042   22.3720 N   0  0  0  0  0  0
  -26.4269  -37.3779   23.9404 N   0  0  0  0  0  0
  -24.6798  -31.0652   22.0942 N   0  0  0  0  0  0
  -23.4182  -28.8182   23.3032 O   0  0  0  0  0  0
  -28.4036  -26.5936   20.1292 O   0  0  0  0  0  0
  -26.5637  -34.8924   22.4663 O   0  0  0  0  0  0
  -23.5388  -32.1414   23.7350 O   0  0  0  0  0  0
  -29.1233  -18.0122   18.4475 C   0  0  0  0  0  0
  -28.8817  -19.2348   19.1050 C   0  0  0  0  0  0
  -29.5076  -16.8573   19.1584 C   0  0  0  0  0  0
  -29.4983  -18.1699   21.1941 C   0  0  0  0  0  0
  -29.0520  -19.3549   20.5047 C   0  0  0  0  0  0
  -29.7008  -16.8842   20.5630 C   0  0  0  0  0  0
  -28.2845  -23.0243   21.5922 C   0  0  0  0  0  0
  -27.8802  -22.6787   22.9471 C   0  0  0  0  0  0
  -28.7907  -21.8959   20.7371 C   0  0  0  0  0  0
  -28.1567  -23.4583   24.0122 C   0  0  0  0  0  0
  -30.7264  -14.9327   24.8128 C   0  0  0  0  0  0
  -28.1353  -24.3419   21.2147 C   0  0  0  0  0  0
  -30.8088  -14.8703   23.4676 C   0  0  0  0  0  0
  -29.8337  -15.5846   22.6359 C   0  0  0  0  0  0
  -27.1658  -21.3776   23.1192 C   0  0  0  0  0  0
  -28.0698  -20.2918   22.5512 C   0  0  0  0  0  0
  -28.4095  -25.1373   19.9268 C   0  0  0  0  0  0
  -28.6590  -20.5852   21.2208 N   0  0  0  0  0  0
  -30.0705  -15.6417   21.2874 N   0  0  0  0  0  0
  -29.3229  -22.1236   19.6449 O   0  0  0  0  0  0
  -28.8149  -16.0892   23.1249 O   0  0  0  0  0  0
  -31.4768  -12.4970   19.1852 H   0  0  0  0  0  0
  -30.3494  -11.3825   19.8947 H   0  0  0  0  0  0
  -29.7873  -11.7985   17.4840 H   0  0  0  0  0  0
  -29.6642  -13.5159   17.7872 H   0  0  0  0  0  0
  -27.8653  -11.3086   18.8481 H   0  0  0  0  0  0
  -27.3890  -12.6161   17.7936 H   0  0  0  0  0  0
  -27.6930  -14.2623   19.5668 H   0  0  0  0  0  0
  -28.6860  -11.9934   21.3541 H   0  0  0  0  0  0
  -28.3728  -13.6055   21.8755 H   0  0  0  0  0  0
  -25.2756   -9.5702   22.4743 H   0  0  0  0  0  0
  -23.9994   -7.4657   22.7475 H   0  0  0  0  0  0
  -21.0840   -8.8781   19.8948 H   0  0  0  0  0  0
  -22.3699  -10.9671   19.6149 H   0  0  0  0  0  0
  -21.2022   -7.6152   23.9710 H   0  0  0  0  0  0
  -21.1474   -6.0523   25.9070 H   0  0  0  0  0  0
  -22.0598   -2.7611   23.2846 H   0  0  0  0  0  0
  -22.4143  -11.9873   22.4730 H   0  0  0  0  0  0
  -21.1127  -13.1243   22.2646 H   0  0  0  0  0  0
  -24.6693  -15.8486   20.5306 H   0  0  0  0  0  0
  -26.2976  -15.6322   20.1328 H   0  0  0  0  0  0
  -26.7162  -32.5438   23.1083 H   0  0  0  0  0  0
  -25.0042  -33.9731   25.0385 H   0  0  0  0  0  0
  -22.7064  -31.3022   21.3946 H   0  0  0  0  0  0
  -23.3726  -35.9645   23.3335 H   0  0  0  0  0  0
  -24.3547  -36.8934   22.2046 H   0  0  0  0  0  0
  -23.7245  -37.6517   23.6668 H   0  0  0  0  0  0
  -26.0740  -31.5667   20.5979 H   0  0  0  0  0  0
  -26.8308  -30.8509   21.9929 H   0  0  0  0  0  0
  -28.1086  -29.0290   21.1657 H   0  0  0  0  0  0
  -25.9817  -25.9255   19.0306 H   0  0  0  0  0  0
  -23.9677  -27.2797   19.0537 H   0  0  0  0  0  0
  -23.7279  -30.5776   19.3969 H   0  0  0  0  0  0
  -22.7456  -29.2278   19.8699 H   0  0  0  0  0  0
  -25.1253  -36.1908   25.0800 H   0  0  0  0  0  0
  -20.9937  -28.3243   24.1435 H   0  0  0  0  0  0
  -20.5671  -26.2276   23.3608 H   0  0  0  0  0  0
  -21.6606  -26.7449   22.1183 H   0  0  0  0  0  0
  -19.6902  -25.6296   21.1261 H   0  0  0  0  0  0
  -19.6676  -27.3192   20.6765 H   0  0  0  0  0  0
  -17.4159  -26.6708   21.4037 H   0  0  0  0  0  0
  -18.0292  -26.0055   22.9016 H   0  0  0  0  0  0
  -19.7943  -30.7279   24.2241 H   0  0  0  0  0  0
  -17.5028  -31.6271   24.5184 H   0  0  0  0  0  0
  -15.5361  -30.3012   23.7677 H   0  0  0  0  0  0
  -15.8652  -28.0845   22.7097 H   0  0  0  0  0  0
  -24.5812  -30.7188   25.7835 H   0  0  0  0  0  0
  -24.8958  -32.2989   26.4902 H   0  0  0  0  0  0
  -25.8005  -30.8958   27.0262 H   0  0  0  0  0  0
  -26.2940  -29.6782   24.1188 H   0  0  0  0  0  0
  -27.3973  -29.7251   25.4737 H   0  0  0  0  0  0
  -27.8819  -30.4309   23.9495 H   0  0  0  0  0  0
  -27.2546  -33.3665   26.2085 H   0  0  0  0  0  0
  -28.3819  -32.7014   25.0383 H   0  0  0  0  0  0
  -28.0658  -31.8545   26.5472 H   0  0  0  0  0  0
  -28.2561  -38.0099   24.7484 H   0  0  0  0  0  0
  -28.1065  -36.2624   24.6293 H   0  0  0  0  0  0
  -27.2286  -37.1456   25.8874 H   0  0  0  0  0  0
  -20.9318  -29.8801   21.6973 H   0  0  0  0  0  0
  -26.0159  -38.2855   24.1422 H   0  0  0  0  0  0
  -28.9785  -17.9478   17.3778 H   0  0  0  0  0  0
  -28.5241  -20.0650   18.5130 H   0  0  0  0  0  0
  -29.6363  -15.9472   18.5900 H   0  0  0  0  0  0
  -29.6632  -18.2509   22.2570 H   0  0  0  0  0  0
  -28.6946  -24.3925   23.9203 H   0  0  0  0  0  0
  -27.8589  -23.1700   25.0095 H   0  0  0  0  0  0
  -31.4413  -14.4177   25.4365 H   0  0  0  0  0  0
  -29.9548  -15.4984   25.3206 H   0  0  0  0  0  0
  -27.7159  -25.0045   21.9565 H   0  0  0  0  0  0
  -31.6156  -14.2912   23.0392 H   0  0  0  0  0  0
  -26.2230  -21.4183   22.5704 H   0  0  0  0  0  0
  -26.9248  -21.1777   24.1643 H   0  0  0  0  0  0
  -27.4869  -19.3698   22.5109 H   0  0  0  0  0  0
  -28.8881  -20.1159   23.2505 H   0  0  0  0  0  0
  -27.7353  -24.8113   19.1401 H   0  0  0  0  0  0
  -29.4063  -24.8687   19.5771 H   0  0  0  0  0  0
  1 25  1  0  0  0
  1 30  2  0  0  0
  1 89  1  0  0  0
  2  3  1  0  0  0
  2 25  1  0  0  0
  2 92  1  0  0  0
  2 93  1  0  0  0
  3  4  1  0  0  0
  3 94  1  0  0  0
  3 95  1  0  0  0
  4  5  1  0  0  0
  4 96  1  0  0  0
  4 97  1  0  0  0
  5  6  1  0  0  0
  5 26  1  0  0  0
  5 98  1  0  0  0
  6 25  1  0  0  0
  6 99  1  0  0  0
  6100  1  0  0  0
  7  8  2  0  0  0
  7 26  1  0  0  0
  7 29  1  0  0  0
  8  9  1  0  0  0
  8 22  1  0  0  0
  9 10  1  0  0  0
  9 27  2  0  0  0
 10 11  2  0  0  0
 10 15  1  0  0  0
 11 12  1  0  0  0
 11101  1  0  0  0
 12 13  2  0  0  0
 12102  1  0  0  0
 13 14  1  0  0  0
 13 31  1  0  0  0
 14 15  2  0  0  0
 14103  1  0  0  0
 15104  1  0  0  0
 16 17  2  0  0  0
 16 21  1  0  0  0
 16 31  1  0  0  0
 17 18  1  0  0  0
 17105  1  0  0  0
 18 19  2  0  0  0
 18106  1  0  0  0
 19 20  1  0  0  0
 19 24  1  0  0  0
 20 21  2  0  0  0
 20107  1  0  0  0
 21 23  1  0  0  0
 22 28  1  0  0  0
 22 32  2  0  0  0
 26 27  1  0  0  0
 28108  1  0  0  0
 28109  1  0  0  0
 29110  1  0  0  0
 29111  1  0  0  0
 33 34  1  0  0  0
 33 66  1  0  0  0
 33 70  2  0  0  0
 34 36  1  0  0  0
 34 59  1  0  0  0
 34112  1  0  0  0
 35 44  2  0  0  0
 35 45  1  0  0  0
 35 68  1  0  0  0
 36 56  1  0  0  0
 36113  1  0  0  0
 37 39  1  0  0  0
 37 47  1  0  0  0
 37 66  1  0  0  0
 37114  1  0  0  0
 38 43  2  0  0  0
 38 46  1  0  0  0
 38 47  1  0  0  0
 39 64  1  0  0  0
 39 67  2  0  0  0
 40 52  1  0  0  0
 40 53  2  0  0  0
 40 58  1  0  0  0
 41115  1  0  0  0
 41116  1  0  0  0
 41117  1  0  0  0
 41 48  1  0  0  0
 42 43  1  0  0  0
 42 66  1  0  0  0
 42118  1  0  0  0
 42119  1  0  0  0
 43 44  1  0  0  0
 44120  1  0  0  0
 45 46  2  0  0  0
 45121  1  0  0  0
 46122  1  0  0  0
 47123  1  0  0  0
 47124  1  0  0  0
 48 56  1  0  0  0
 48 65  1  0  0  0
 48125  1  0  0  0
 49 50  1  0  0  0
 49 53  1  0  0  0
 49 64  1  0  0  0
 49126  1  0  0  0
 50 51  1  0  0  0
 50127  1  0  0  0
 50128  1  0  0  0
 51 52  1  0  0  0
 51129  1  0  0  0
 51130  1  0  0  0
 52131  1  0  0  0
 52132  1  0  0  0
 53 54  1  0  0  0
 54 55  2  0  0  0
 54133  1  0  0  0
 55 57  1  0  0  0
 55134  1  0  0  0
 56 69  2  0  0  0
 57 58  2  0  0  0
 57135  1  0  0  0
 58136  1  0  0  0
 59 60  1  0  0  0
 59 61  1  0  0  0
 59 62  1  0  0  0
 60137  1  0  0  0
 60138  1  0  0  0
 60139  1  0  0  0
 61140  1  0  0  0
 61141  1  0  0  0
 61142  1  0  0  0
 62143  1  0  0  0
 62144  1  0  0  0
 62145  1  0  0  0
 63 65  1  0  0  0
 63146  1  0  0  0
 63147  1  0  0  0
 63148  1  0  0  0
 64149  1  0  0  0
 65150  1  0  0  0
 68 87  1  0  0  0
 71 72  2  0  0  0
 71 73  1  0  0  0
 71151  1  0  0  0
 72 75  1  0  0  0
 72152  1  0  0  0
 73 76  2  0  0  0
 73153  1  0  0  0
 74 75  2  0  0  0
 74 76  1  0  0  0
 74154  1  0  0  0
 75 88  1  0  0  0
 76 89  1  0  0  0
 77 78  1  0  0  0
 77 79  1  0  0  0
 77 82  2  0  0  0
 78 80  2  0  0  0
 78 85  1  0  0  0
 79 88  1  0  0  0
 79 90  2  0  0  0
 80155  1  0  0  0
 80156  1  0  0  0
 81 83  2  0  0  0
 81157  1  0  0  0
 81158  1  0  0  0
 82 87  1  0  0  0
 82159  1  0  0  0
 83 84  1  0  0  0
 83160  1  0  0  0
 84 89  1  0  0  0
 84 91  2  0  0  0
 85 86  1  0  0  0
 85161  1  0  0  0
 85162  1  0  0  0
 86 88  1  0  0  0
 86163  1  0  0  0
 86164  1  0  0  0
 87165  1  0  0  0
 87166  1  0  0  0
M  ISO  4   1 100  68 101  87 101  89 100
M  END
> <chiral flag>
0

> <version>
0

> <s_m_source_file>
/data/baiqing/PycharmProjects/Reinvent-master-3.2/result/LINK_invent/BTK/process_docking_weight1_custom_product_contain_oxygen_bond_distance_aromatic_linkinvent_7_9_3/rearranged_h_0079.sdf

> <i_m_source_file_index>
57

> <r_mmod_Potential_Energy-OPLS-2005>
361.257385253906

> <r_mmod_Stretch_Energy-OPLS-2005>
100.365364074707

> <r_mmod_Bend_Energy-OPLS-2005>
172.27717590332

> <r_mmod_Torsional_Energy-OPLS-2005>
353.502014160156

> <r_mmod_Improper_Torsional_Energy-OPLS-2005>
2.80820441246033

> <r_mmod_Van_der_Waal_Energy-OPLS-2005>
199.211303710938

> <r_mmod_Electrostatic_Energy-OPLS-2005>
-305.967529296875

> <r_mmod_Solvation_Energy-OPLS-2005>
-190.80403137207

> <b_mmod_Minimization_Converged-OPLS-2005>
0

> <r_mmod_RMS_Derivative-OPLS-2005>
3.21419215202332

$$$$
57
                    3D
 Structure written by MMmdl.
149158  0  0  1  0            999 V2000
  -30.5639  -14.7604   20.4789 C   0  0  0  0  0  0
  -30.4515  -12.4672   19.4704 C   0  0  0  0  0  0
  -29.5179  -12.5198   18.2378 C   0  0  0  0  0  0
  -28.0434  -12.3350   18.6499 C   0  0  0  0  0  0
  -27.6499  -13.2224   19.8598 C   0  0  2  0  0  0
  -28.6950  -13.1194   20.9935 C   0  0  0  0  0  0
  -25.2552  -13.8172   20.5689 C   0  0  0  0  0  0
  -24.1828  -13.0435   20.9205 C   0  0  0  0  0  0
  -24.6402  -11.6907   20.8746 C   0  0  0  0  0  0
  -23.9071  -10.4290   21.0408 C   0  0  0  0  0  0
  -24.3620   -9.4204   21.9185 C   0  0  0  0  0  0
  -23.6293   -8.2241   22.0754 C   0  0  0  0  0  0
  -22.4275   -8.0281   21.3544 C   0  0  0  0  0  0
  -21.9913   -9.0256   20.4647 C   0  0  0  0  0  0
  -22.7243  -10.2134   20.3057 C   0  0  0  0  0  0
  -21.6853   -6.0736   22.5279 C   0  0  0  0  0  0
  -21.4014   -6.5640   23.8212 C   0  0  0  0  0  0
  -21.3659   -5.6793   24.9175 C   0  0  0  0  0  0
  -21.6044   -4.3055   24.7226 C   0  0  0  0  0  0
  -21.8819   -3.8147   23.4347 C   0  0  0  0  0  0
  -21.9192   -4.6964   22.3403 C   0  0  0  0  0  0
  -22.7849  -13.5226   21.1862 C   0  0  0  0  0  0
  -22.1661   -4.2149   21.0980 F   0  0  0  0  0  0
  -21.5629   -3.4539   25.7738 F   0  0  0  0  0  0
  -29.9987  -13.5030   20.4277 N   0  0  0  0  0  0
  -26.2976  -12.9359   20.3301 N   0  0  0  0  0  0
  -25.9332  -11.6512   20.5753 N   0  0  0  0  0  0
  -22.0489  -12.8219   22.0417 N   0  0  0  0  0  0
  -25.4262  -15.1893   20.4085 N   0  0  0  0  0  0
  -31.7239  -14.9412   20.0959 O   0  0  0  0  0  0
  -21.6639   -6.8879   21.4241 O   0  0  0  0  0  0
  -22.3537  -14.5533   20.6707 O   0  0  0  0  0  0
  -24.6328  -31.8540   23.1976 C   0  0  0  0  0  0
  -25.9144  -32.4750   23.8329 C   0  0  1  0  0  0
  -27.2247  -27.2544   20.1320 C   0  0  0  0  0  0
  -25.5931  -33.8553   24.2248 N   0  0  0  0  0  0
  -23.4318  -30.4756   21.5406 C   0  0  2  0  0  0
  -24.8834  -28.9231   20.1087 C   0  0  0  0  0  0
  -22.7518  -29.4592   22.4901 C   0  0  0  0  0  0
  -18.0296  -28.1387   22.8484 C   0  0  0  0  0  0
  -24.1490  -36.7283   23.2641 C   0  0  0  0  0  0
  -25.9792  -30.7637   21.3813 C   0  0  0  0  0  0
  -26.0554  -29.3854   20.7234 C   0  0  0  0  0  0
  -27.2313  -28.5627   20.7273 C   0  0  0  0  0  0
  -26.0346  -26.8681   19.4786 C   0  0  0  0  0  0
  -24.8782  -27.6718   19.4742 C   0  0  0  0  0  0
  -23.6528  -29.8094   20.1571 C   0  0  0  0  0  0
  -25.4118  -36.3067   24.0324 C   0  0  1  0  0  0
  -20.5901  -28.3703   23.1261 C   0  0  2  0  0  0
  -20.6782  -26.9417   22.5406 C   0  0  0  0  0  0
  -19.5755  -26.6382   21.5213 C   0  0  0  0  0  0
  -18.1937  -26.7928   22.1628 C   0  0  0  0  0  0
  -19.1550  -28.8863   23.2867 C   0  0  0  0  0  0
  -18.9469  -30.1462   23.8886 C   0  0  0  0  0  0
  -17.6468  -30.6588   24.0561 C   0  0  0  0  0  0
  -25.9058  -34.9437   23.5090 C   0  0  0  0  0  0
  -16.5359  -29.9084   23.6332 C   0  0  0  0  0  0
  -16.7281  -28.6501   23.0354 C   0  0  0  0  0  0
  -26.4506  -31.6580   25.0725 C   0  0  0  0  0  0
  -25.3721  -31.3735   26.1438 C   0  0  0  0  0  0
  -27.0361  -30.2995   24.6228 C   0  0  0  0  0  0
  -27.6048  -32.4331   25.7505 C   0  0  0  0  0  0
  -27.5576  -37.1801   24.8468 C   0  0  0  0  0  0
  -21.4221  -29.3045   22.3647 N   0  0  0  0  0  0
  -26.4293  -37.3765   23.9403 N   0  0  0  0  0  0
  -24.7001  -31.0491   22.0961 N   0  0  0  0  0  0
  -23.4208  -28.8133   23.3009 O   0  0  0  0  0  0
  -28.2712  -26.2989   20.1830 O   0  0  0  0  0  0
  -26.5635  -34.8915   22.4662 O   0  0  0  0  0  0
  -23.5471  -32.1367   23.7258 O   0  0  0  0  0  0
  -30.5996  -18.1515   20.0350 C   0  0  0  0  0  0
  -30.3705  -19.5775   19.9775 C   0  0  0  0  0  0
  -28.6141  -18.0042   21.2917 C   0  0  0  0  0  0
  -29.6940  -17.2868   20.7141 C   0  0  0  0  0  0
  -29.2496  -20.2248   20.5886 C   0  0  0  0  0  0
  -28.4291  -23.7063   20.5761 C   0  0  0  0  0  0
  -27.8956  -22.4979   21.2019 C   0  0  0  0  0  0
  -27.9282  -25.0074   20.6955 C   0  0  0  0  0  0
  -29.5329  -22.8250   19.9129 C   0  0  0  0  0  0
  -28.4147  -19.3605   21.2344 N   0  0  0  0  0  0
  -28.8870  -21.6757   20.6192 N   0  0  0  0  0  0
  -29.7200  -15.7985   20.8417 N   0  0  0  0  0  0
  -26.9375  -22.3541   21.9353 O   0  0  0  0  0  0
  -31.4876  -12.6218   19.1644 H   0  0  0  0  0  0
  -30.4217  -11.4810   19.9362 H   0  0  0  0  0  0
  -29.8028  -11.7535   17.5157 H   0  0  0  0  0  0
  -29.6371  -13.4777   17.7291 H   0  0  0  0  0  0
  -27.9018  -11.2839   18.9041 H   0  0  0  0  0  0
  -27.3850  -12.5339   17.8034 H   0  0  0  0  0  0
  -27.6539  -14.2499   19.4956 H   0  0  0  0  0  0
  -28.7359  -12.1030   21.3879 H   0  0  0  0  0  0
  -28.4195  -13.7539   21.8372 H   0  0  0  0  0  0
  -25.2765   -9.5678   22.4760 H   0  0  0  0  0  0
  -24.0002   -7.4631   22.7473 H   0  0  0  0  0  0
  -21.0844   -8.8777   19.8953 H   0  0  0  0  0  0
  -22.3704  -10.9675   19.6168 H   0  0  0  0  0  0
  -21.2006   -7.6148   23.9715 H   0  0  0  0  0  0
  -21.1481   -6.0523   25.9077 H   0  0  0  0  0  0
  -22.0599   -2.7610   23.2847 H   0  0  0  0  0  0
  -22.4105  -11.9881   22.4807 H   0  0  0  0  0  0
  -21.1106  -13.1244   22.2620 H   0  0  0  0  0  0
  -24.6513  -15.8374   20.5003 H   0  0  0  0  0  0
  -26.2563  -15.6191   20.0217 H   0  0  0  0  0  0
  -26.7213  -32.5402   23.1073 H   0  0  0  0  0  0
  -25.0064  -33.9687   25.0384 H   0  0  0  0  0  0
  -22.7288  -31.2982   21.3929 H   0  0  0  0  0  0
  -23.3749  -35.9619   23.3310 H   0  0  0  0  0  0
  -24.3575  -36.8901   22.2054 H   0  0  0  0  0  0
  -23.7251  -37.6489   23.6664 H   0  0  0  0  0  0
  -26.1202  -31.5239   20.6118 H   0  0  0  0  0  0
  -26.8554  -30.8133   22.0162 H   0  0  0  0  0  0
  -28.1251  -28.9056   21.2293 H   0  0  0  0  0  0
  -25.9860  -25.9030   18.9941 H   0  0  0  0  0  0
  -23.9830  -27.3124   18.9855 H   0  0  0  0  0  0
  -23.7768  -30.5859   19.4013 H   0  0  0  0  0  0
  -22.7718  -29.2420   19.8515 H   0  0  0  0  0  0
  -25.1304  -36.1913   25.0817 H   0  0  0  0  0  0
  -20.9994  -28.3282   24.1382 H   0  0  0  0  0  0
  -20.5682  -26.2314   23.3614 H   0  0  0  0  0  0
  -21.6649  -26.7436   22.1199 H   0  0  0  0  0  0
  -19.6916  -25.6291   21.1248 H   0  0  0  0  0  0
  -19.6689  -27.3189   20.6739 H   0  0  0  0  0  0
  -17.4204  -26.6671   21.4033 H   0  0  0  0  0  0
  -18.0341  -26.0072   22.9028 H   0  0  0  0  0  0
  -19.7946  -30.7282   24.2248 H   0  0  0  0  0  0
  -17.5022  -31.6267   24.5165 H   0  0  0  0  0  0
  -15.5359  -30.2982   23.7662 H   0  0  0  0  0  0
  -15.8682  -28.0817   22.7073 H   0  0  0  0  0  0
  -24.5892  -30.7092   25.7760 H   0  0  0  0  0  0
  -24.8918  -32.2907   26.4855 H   0  0  0  0  0  0
  -25.8027  -30.8911   27.0221 H   0  0  0  0  0  0
  -26.2956  -29.6734   24.1236 H   0  0  0  0  0  0
  -27.4020  -29.7266   25.4759 H   0  0  0  0  0  0
  -27.8843  -30.4266   23.9496 H   0  0  0  0  0  0
  -27.2642  -33.3634   26.2065 H   0  0  0  0  0  0
  -28.3868  -32.6890   25.0343 H   0  0  0  0  0  0
  -28.0706  -31.8470   26.5438 H   0  0  0  0  0  0
  -28.2602  -38.0089   24.7497 H   0  0  0  0  0  0
  -28.1063  -36.2618   24.6319 H   0  0  0  0  0  0
  -27.2289  -37.1480   25.8870 H   0  0  0  0  0  0
  -20.9412  -29.8769   21.6849 H   0  0  0  0  0  0
  -26.0171  -38.2842   24.1391 H   0  0  0  0  0  0
  -31.4662  -17.7359   19.5419 H   0  0  0  0  0  0
  -31.0874  -20.1855   19.4443 H   0  0  0  0  0  0
  -27.8508  -17.4611   21.8296 H   0  0  0  0  0  0
  -27.0617  -25.1119   21.3361 H   0  0  0  0  0  0
  -30.5624  -22.9705   20.2432 H   0  0  0  0  0  0
  -29.4956  -22.7007   18.8297 H   0  0  0  0  0  0
  -28.8611  -15.4251   21.2192 H   0  0  0  0  0  0
  1 25  1  0  0  0
  1 30  2  0  0  0
  1 82  1  0  0  0
  2  3  1  0  0  0
  2 25  1  0  0  0
  2 84  1  0  0  0
  2 85  1  0  0  0
  3  4  1  0  0  0
  3 86  1  0  0  0
  3 87  1  0  0  0
  4  5  1  0  0  0
  4 88  1  0  0  0
  4 89  1  0  0  0
  5  6  1  0  0  0
  5 26  1  0  0  0
  5 90  1  0  0  0
  6 25  1  0  0  0
  6 91  1  0  0  0
  6 92  1  0  0  0
  7  8  2  0  0  0
  7 26  1  0  0  0
  7 29  1  0  0  0
  8  9  1  0  0  0
  8 22  1  0  0  0
  9 10  1  0  0  0
  9 27  2  0  0  0
 10 11  2  0  0  0
 10 15  1  0  0  0
 11 12  1  0  0  0
 11 93  1  0  0  0
 12 13  2  0  0  0
 12 94  1  0  0  0
 13 14  1  0  0  0
 13 31  1  0  0  0
 14 15  2  0  0  0
 14 95  1  0  0  0
 15 96  1  0  0  0
 16 17  2  0  0  0
 16 21  1  0  0  0
 16 31  1  0  0  0
 17 18  1  0  0  0
 17 97  1  0  0  0
 18 19  2  0  0  0
 18 98  1  0  0  0
 19 20  1  0  0  0
 19 24  1  0  0  0
 20 21  2  0  0  0
 20 99  1  0  0  0
 21 23  1  0  0  0
 22 28  1  0  0  0
 22 32  2  0  0  0
 26 27  1  0  0  0
 28100  1  0  0  0
 28101  1  0  0  0
 29102  1  0  0  0
 29103  1  0  0  0
 33 34  1  0  0  0
 33 66  1  0  0  0
 33 70  2  0  0  0
 34 36  1  0  0  0
 34 59  1  0  0  0
 34104  1  0  0  0
 35 44  2  0  0  0
 35 45  1  0  0  0
 35 68  1  0  0  0
 36 56  1  0  0  0
 36105  1  0  0  0
 37 39  1  0  0  0
 37 47  1  0  0  0
 37 66  1  0  0  0
 37106  1  0  0  0
 38 43  2  0  0  0
 38 46  1  0  0  0
 38 47  1  0  0  0
 39 64  1  0  0  0
 39 67  2  0  0  0
 40 52  1  0  0  0
 40 53  2  0  0  0
 40 58  1  0  0  0
 41107  1  0  0  0
 41108  1  0  0  0
 41109  1  0  0  0
 41 48  1  0  0  0
 42 43  1  0  0  0
 42 66  1  0  0  0
 42110  1  0  0  0
 42111  1  0  0  0
 43 44  1  0  0  0
 44112  1  0  0  0
 45 46  2  0  0  0
 45113  1  0  0  0
 46114  1  0  0  0
 47115  1  0  0  0
 47116  1  0  0  0
 48 56  1  0  0  0
 48 65  1  0  0  0
 48117  1  0  0  0
 49 50  1  0  0  0
 49 53  1  0  0  0
 49 64  1  0  0  0
 49118  1  0  0  0
 50 51  1  0  0  0
 50119  1  0  0  0
 50120  1  0  0  0
 51 52  1  0  0  0
 51121  1  0  0  0
 51122  1  0  0  0
 52123  1  0  0  0
 52124  1  0  0  0
 53 54  1  0  0  0
 54 55  2  0  0  0
 54125  1  0  0  0
 55 57  1  0  0  0
 55126  1  0  0  0
 56 69  2  0  0  0
 57 58  2  0  0  0
 57127  1  0  0  0
 58128  1  0  0  0
 59 60  1  0  0  0
 59 61  1  0  0  0
 59 62  1  0  0  0
 60129  1  0  0  0
 60130  1  0  0  0
 60131  1  0  0  0
 61132  1  0  0  0
 61133  1  0  0  0
 61134  1  0  0  0
 62135  1  0  0  0
 62136  1  0  0  0
 62137  1  0  0  0
 63 65  1  0  0  0
 63138  1  0  0  0
 63139  1  0  0  0
 63140  1  0  0  0
 64141  1  0  0  0
 65142  1  0  0  0
 68 78  1  0  0  0
 71 72  2  0  0  0
 71 74  1  0  0  0
 71143  1  0  0  0
 72 75  1  0  0  0
 72144  1  0  0  0
 73 74  2  0  0  0
 73 80  1  0  0  0
 73145  1  0  0  0
 74 82  1  0  0  0
 75 80  2  0  0  0
 75 81  1  0  0  0
 76 77  1  0  0  0
 76 78  2  0  0  0
 76 79  1  0  0  0
 77 81  1  0  0  0
 77 83  2  0  0  0
 78146  1  0  0  0
 79 81  1  0  0  0
 79147  1  0  0  0
 79148  1  0  0  0
 82149  1  0  0  0
M  ISO  4   1 100  68 101  78 101  82 100
M  END
> <chiral flag>
0

> <version>
0

> <s_m_source_file>
/data/baiqing/PycharmProjects/Reinvent-master-3.2/result/LINK_invent/BTK/process_docking_weight1_custom_product_contain_oxygen_bond_distance_aromatic_linkinvent_7_9_3/rearranged_h_0079.sdf

> <i_m_source_file_index>
58

> <r_mmod_Potential_Energy-OPLS-2005>
36.0407409667969

> <r_mmod_Stretch_Energy-OPLS-2005>
111.041244506836

> <r_mmod_Bend_Energy-OPLS-2005>
270.770294189453

> <r_mmod_Torsional_Energy-OPLS-2005>
219.047058105469

> <r_mmod_Improper_Torsional_Energy-OPLS-2005>
3.77540755271912

> <r_mmod_Van_der_Waal_Energy-OPLS-2005>
136.365432739258

> <r_mmod_Electrostatic_Energy-OPLS-2005>
-565.516479492188

> <r_mmod_Solvation_Energy-OPLS-2005>
-236.174240112305

> <b_mmod_Minimization_Converged-OPLS-2005>
0

> <r_mmod_RMS_Derivative-OPLS-2005>
0.172405228018761

$$$$
58
                    3D
 Structure written by MMmdl.
151159  0  0  1  0            999 V2000
  -30.6906  -14.5436   20.5184 C   0  0  0  0  0  0
  -30.4169  -12.3364   19.4421 C   0  0  0  0  0  0
  -29.4948  -12.4932   18.2154 C   0  0  0  0  0  0
  -28.0179  -12.3464   18.6291 C   0  0  0  0  0  0
  -27.6522  -13.2143   19.8630 C   0  0  2  0  0  0
  -28.6954  -13.0591   20.9924 C   0  0  0  0  0  0
  -25.2560  -13.8180   20.5685 C   0  0  0  0  0  0
  -24.1831  -13.0443   20.9204 C   0  0  0  0  0  0
  -24.6393  -11.6912   20.8751 C   0  0  0  0  0  0
  -23.9061  -10.4295   21.0414 C   0  0  0  0  0  0
  -24.3615   -9.4208   21.9189 C   0  0  0  0  0  0
  -23.6294   -8.2241   22.0755 C   0  0  0  0  0  0
  -22.4277   -8.0279   21.3543 C   0  0  0  0  0  0
  -21.9910   -9.0253   20.4647 C   0  0  0  0  0  0
  -22.7234  -10.2136   20.3061 C   0  0  0  0  0  0
  -21.6850   -6.0740   22.5282 C   0  0  0  0  0  0
  -21.4011   -6.5645   23.8216 C   0  0  0  0  0  0
  -21.3658   -5.6796   24.9177 C   0  0  0  0  0  0
  -21.6042   -4.3059   24.7226 C   0  0  0  0  0  0
  -21.8818   -3.8153   23.4348 C   0  0  0  0  0  0
  -21.9194   -4.6969   22.3405 C   0  0  0  0  0  0
  -22.7854  -13.5236   21.1859 C   0  0  0  0  0  0
  -22.1668   -4.2157   21.0983 F   0  0  0  0  0  0
  -21.5624   -3.4542   25.7739 F   0  0  0  0  0  0
  -30.0174  -13.3598   20.4248 N   0  0  0  0  0  0
  -26.2982  -12.9356   20.3322 N   0  0  0  0  0  0
  -25.9318  -11.6510   20.5765 N   0  0  0  0  0  0
  -22.0494  -12.8225   22.0410 N   0  0  0  0  0  0
  -25.4269  -15.1898   20.4069 N   0  0  0  0  0  0
  -31.8622  -14.6296   20.1391 O   0  0  0  0  0  0
  -21.6636   -6.8881   21.4243 O   0  0  0  0  0  0
  -22.3542  -14.5542   20.6706 O   0  0  0  0  0  0
  -24.6187  -31.8658   23.2076 C   0  0  0  0  0  0
  -25.9066  -32.4811   23.8389 C   0  0  1  0  0  0
  -27.2264  -27.3991   20.1074 C   0  0  0  0  0  0
  -25.5906  -33.8612   24.2318 N   0  0  0  0  0  0
  -23.4089  -30.4896   21.5483 C   0  0  2  0  0  0
  -24.8568  -28.9541   20.1112 C   0  0  0  0  0  0
  -22.7431  -29.4658   22.4970 C   0  0  0  0  0  0
  -18.0290  -28.1364   22.8494 C   0  0  0  0  0  0
  -24.1487  -36.7311   23.2639 C   0  0  0  0  0  0
  -25.9423  -30.8215   21.3664 C   0  0  0  0  0  0
  -26.0205  -29.4544   20.7113 C   0  0  0  0  0  0
  -27.2130  -28.6854   20.7044 C   0  0  0  0  0  0
  -26.0483  -26.9276   19.4913 C   0  0  0  0  0  0
  -24.8673  -27.6919   19.4945 C   0  0  0  0  0  0
  -23.6195  -29.8234   20.1629 C   0  0  0  0  0  0
  -25.4108  -36.3108   24.0337 C   0  0  1  0  0  0
  -20.5882  -28.3669   23.1306 C   0  0  2  0  0  0
  -20.6785  -26.9407   22.5396 C   0  0  0  0  0  0
  -19.5752  -26.6388   21.5205 C   0  0  0  0  0  0
  -18.1937  -26.7911   22.1627 C   0  0  0  0  0  0
  -19.1536  -28.8828   23.2902 C   0  0  0  0  0  0
  -18.9459  -30.1434   23.8909 C   0  0  0  0  0  0
  -17.6460  -30.6569   24.0561 C   0  0  0  0  0  0
  -25.9037  -34.9473   23.5123 C   0  0  0  0  0  0
  -16.5356  -29.9069   23.6320 C   0  0  0  0  0  0
  -16.7279  -28.6483   23.0351 C   0  0  0  0  0  0
  -26.4476  -31.6597   25.0728 C   0  0  0  0  0  0
  -25.3734  -31.3705   26.1467 C   0  0  0  0  0  0
  -27.0312  -30.3037   24.6121 C   0  0  0  0  0  0
  -27.6052  -32.4316   25.7488 C   0  0  0  0  0  0
  -27.5580  -37.1812   24.8466 C   0  0  0  0  0  0
  -21.4151  -29.3058   22.3722 N   0  0  0  0  0  0
  -26.4295  -37.3792   23.9407 N   0  0  0  0  0  0
  -24.6749  -31.0737   22.0988 N   0  0  0  0  0  0
  -23.4189  -28.8195   23.3022 O   0  0  0  0  0  0
  -28.3369  -26.5726   20.1332 O   0  0  0  0  0  0
  -26.5602  -34.8928   22.4687 O   0  0  0  0  0  0
  -23.5369  -32.1422   23.7451 O   0  0  0  0  0  0
  -27.0654  -18.7001   21.9071 C   0  0  0  0  0  0
  -28.0272  -17.6939   21.6921 C   0  0  0  0  0  0
  -27.3270  -20.0358   21.5454 C   0  0  0  0  0  0
  -29.5146  -19.3702   20.7285 C   0  0  0  0  0  0
  -29.2664  -18.0069   21.0890 C   0  0  0  0  0  0
  -28.5641  -20.4059   20.9649 C   0  0  0  0  0  0
  -28.6670  -24.1499   20.3628 C   0  0  0  0  0  0
  -28.1433  -25.3442   20.7531 C   0  0  0  0  0  0
  -30.3327  -16.9379   20.8849 C   0  0  0  0  0  0
  -28.3471  -22.9206   21.1087 C   0  0  0  0  0  0
  -28.8376  -21.7723   20.5683 N   0  0  0  0  0  0
  -29.9434  -15.6322   20.8507 N   0  0  0  0  0  0
  -31.4986  -17.3180   20.7273 O   0  0  0  0  0  0
  -27.7024  -22.9237   22.1618 O   0  0  0  0  0  0
  -31.4619  -12.4232   19.1395 H   0  0  0  0  0  0
  -30.3159  -11.3394   19.8744 H   0  0  0  0  0  0
  -29.7464  -11.7505   17.4566 H   0  0  0  0  0  0
  -29.6521  -13.4695   17.7541 H   0  0  0  0  0  0
  -27.8437  -11.2935   18.8528 H   0  0  0  0  0  0
  -27.3640  -12.5900   17.7911 H   0  0  0  0  0  0
  -27.6762  -14.2508   19.5267 H   0  0  0  0  0  0
  -28.6831  -12.0418   21.3876 H   0  0  0  0  0  0
  -28.4574  -13.7107   21.8346 H   0  0  0  0  0  0
  -25.2757   -9.5686   22.4764 H   0  0  0  0  0  0
  -24.0003   -7.4630   22.7471 H   0  0  0  0  0  0
  -21.0842   -8.8771   19.8950 H   0  0  0  0  0  0
  -22.3692  -10.9677   19.6173 H   0  0  0  0  0  0
  -21.2002   -7.6154   23.9722 H   0  0  0  0  0  0
  -21.1480   -6.0527   25.9080 H   0  0  0  0  0  0
  -22.0597   -2.7617   23.2847 H   0  0  0  0  0  0
  -22.4102  -11.9884   22.4797 H   0  0  0  0  0  0
  -21.1116  -13.1259   22.2612 H   0  0  0  0  0  0
  -24.6498  -15.8352   20.4949 H   0  0  0  0  0  0
  -26.2566  -15.6259   20.0269 H   0  0  0  0  0  0
  -26.7137  -32.5512   23.1154 H   0  0  0  0  0  0
  -25.0056  -33.9766   25.0460 H   0  0  0  0  0  0
  -22.6998  -31.3083   21.4084 H   0  0  0  0  0  0
  -23.3746  -35.9647   23.3308 H   0  0  0  0  0  0
  -24.3580  -36.8918   22.2051 H   0  0  0  0  0  0
  -23.7242  -37.6519   23.6647 H   0  0  0  0  0  0
  -26.0607  -31.5875   20.5989 H   0  0  0  0  0  0
  -26.8271  -30.8734   21.9891 H   0  0  0  0  0  0
  -28.1090  -29.0604   21.1786 H   0  0  0  0  0  0
  -26.0400  -25.9531   19.0239 H   0  0  0  0  0  0
  -23.9740  -27.3014   19.0262 H   0  0  0  0  0  0
  -23.7293  -30.5990   19.4042 H   0  0  0  0  0  0
  -22.7426  -29.2456   19.8659 H   0  0  0  0  0  0
  -25.1287  -36.1972   25.0830 H   0  0  0  0  0  0
  -20.9986  -28.3220   24.1419 H   0  0  0  0  0  0
  -21.6651  -26.7460   22.1169 H   0  0  0  0  0  0
  -20.5709  -26.2266   23.3574 H   0  0  0  0  0  0
  -19.6915  -25.6308   21.1213 H   0  0  0  0  0  0
  -19.6673  -27.3220   20.6751 H   0  0  0  0  0  0
  -17.4205  -26.6655   21.4027 H   0  0  0  0  0  0
  -18.0350  -26.0049   22.9024 H   0  0  0  0  0  0
  -19.7934  -30.7247   24.2283 H   0  0  0  0  0  0
  -17.5012  -31.6255   24.5148 H   0  0  0  0  0  0
  -15.5355  -30.2971   23.7628 H   0  0  0  0  0  0
  -15.8683  -28.0802   22.7060 H   0  0  0  0  0  0
  -24.5909  -30.7053   25.7793 H   0  0  0  0  0  0
  -24.8924  -32.2863   26.4916 H   0  0  0  0  0  0
  -25.8080  -30.8869   27.0225 H   0  0  0  0  0  0
  -26.2865  -29.6797   24.1164 H   0  0  0  0  0  0
  -27.4064  -29.7274   25.4587 H   0  0  0  0  0  0
  -27.8708  -30.4348   23.9290 H   0  0  0  0  0  0
  -27.2672  -33.3606   26.2089 H   0  0  0  0  0  0
  -28.3846  -32.6890   25.0304 H   0  0  0  0  0  0
  -28.0737  -31.8428   26.5383 H   0  0  0  0  0  0
  -28.2609  -38.0099   24.7512 H   0  0  0  0  0  0
  -28.1069  -36.2635   24.6298 H   0  0  0  0  0  0
  -27.2303  -37.1468   25.8871 H   0  0  0  0  0  0
  -20.9311  -29.8783   21.6947 H   0  0  0  0  0  0
  -26.0186  -38.2872   24.1400 H   0  0  0  0  0  0
  -26.1157  -18.4465   22.3583 H   0  0  0  0  0  0
  -27.7968  -16.6842   22.0031 H   0  0  0  0  0  0
  -26.5515  -20.7681   21.7180 H   0  0  0  0  0  0
  -30.4629  -19.6249   20.2760 H   0  0  0  0  0  0
  -29.3102  -24.1080   19.4962 H   0  0  0  0  0  0
  -27.4949  -25.4351   21.6162 H   0  0  0  0  0  0
  -29.4729  -21.8914   19.7914 H   0  0  0  0  0  0
  -28.9720  -15.4603   21.0380 H   0  0  0  0  0  0
  1 25  1  0  0  0
  1 30  2  0  0  0
  1 82  1  0  0  0
  2  3  1  0  0  0
  2 25  1  0  0  0
  2 85  1  0  0  0
  2 86  1  0  0  0
  3  4  1  0  0  0
  3 87  1  0  0  0
  3 88  1  0  0  0
  4  5  1  0  0  0
  4 89  1  0  0  0
  4 90  1  0  0  0
  5  6  1  0  0  0
  5 26  1  0  0  0
  5 91  1  0  0  0
  6 25  1  0  0  0
  6 92  1  0  0  0
  6 93  1  0  0  0
  7  8  2  0  0  0
  7 26  1  0  0  0
  7 29  1  0  0  0
  8  9  1  0  0  0
  8 22  1  0  0  0
  9 10  1  0  0  0
  9 27  2  0  0  0
 10 11  2  0  0  0
 10 15  1  0  0  0
 11 12  1  0  0  0
 11 94  1  0  0  0
 12 13  2  0  0  0
 12 95  1  0  0  0
 13 14  1  0  0  0
 13 31  1  0  0  0
 14 15  2  0  0  0
 14 96  1  0  0  0
 15 97  1  0  0  0
 16 17  2  0  0  0
 16 21  1  0  0  0
 16 31  1  0  0  0
 17 18  1  0  0  0
 17 98  1  0  0  0
 18 19  2  0  0  0
 18 99  1  0  0  0
 19 20  1  0  0  0
 19 24  1  0  0  0
 20 21  2  0  0  0
 20100  1  0  0  0
 21 23  1  0  0  0
 22 28  1  0  0  0
 22 32  2  0  0  0
 26 27  1  0  0  0
 28101  1  0  0  0
 28102  1  0  0  0
 29103  1  0  0  0
 29104  1  0  0  0
 33 34  1  0  0  0
 33 66  1  0  0  0
 33 70  2  0  0  0
 34 36  1  0  0  0
 34 59  1  0  0  0
 34105  1  0  0  0
 35 44  2  0  0  0
 35 45  1  0  0  0
 35 68  1  0  0  0
 36 56  1  0  0  0
 36106  1  0  0  0
 37 39  1  0  0  0
 37 47  1  0  0  0
 37 66  1  0  0  0
 37107  1  0  0  0
 38 43  2  0  0  0
 38 46  1  0  0  0
 38 47  1  0  0  0
 39 64  1  0  0  0
 39 67  2  0  0  0
 40 52  1  0  0  0
 40 53  2  0  0  0
 40 58  1  0  0  0
 41108  1  0  0  0
 41109  1  0  0  0
 41110  1  0  0  0
 41 48  1  0  0  0
 42 43  1  0  0  0
 42 66  1  0  0  0
 42111  1  0  0  0
 42112  1  0  0  0
 43 44  1  0  0  0
 44113  1  0  0  0
 45 46  2  0  0  0
 45114  1  0  0  0
 46115  1  0  0  0
 47116  1  0  0  0
 47117  1  0  0  0
 48 56  1  0  0  0
 48 65  1  0  0  0
 48118  1  0  0  0
 49 50  1  0  0  0
 49 53  1  0  0  0
 49 64  1  0  0  0
 49119  1  0  0  0
 50 51  1  0  0  0
 50120  1  0  0  0
 50121  1  0  0  0
 51 52  1  0  0  0
 51122  1  0  0  0
 51123  1  0  0  0
 52124  1  0  0  0
 52125  1  0  0  0
 53 54  1  0  0  0
 54 55  2  0  0  0
 54126  1  0  0  0
 55 57  1  0  0  0
 55127  1  0  0  0
 56 69  2  0  0  0
 57 58  2  0  0  0
 57128  1  0  0  0
 58129  1  0  0  0
 59 60  1  0  0  0
 59 61  1  0  0  0
 59 62  1  0  0  0
 60130  1  0  0  0
 60131  1  0  0  0
 60132  1  0  0  0
 61133  1  0  0  0
 61134  1  0  0  0
 61135  1  0  0  0
 62136  1  0  0  0
 62137  1  0  0  0
 62138  1  0  0  0
 63 65  1  0  0  0
 63139  1  0  0  0
 63140  1  0  0  0
 63141  1  0  0  0
 64142  1  0  0  0
 65143  1  0  0  0
 68 78  1  0  0  0
 71 72  2  0  0  0
 71 73  1  0  0  0
 71144  1  0  0  0
 72 75  1  0  0  0
 72145  1  0  0  0
 73 76  2  0  0  0
 73146  1  0  0  0
 74 75  2  0  0  0
 74 76  1  0  0  0
 74147  1  0  0  0
 75 79  1  0  0  0
 76 81  1  0  0  0
 77 78  2  0  0  0
 77 80  1  0  0  0
 77148  1  0  0  0
 78149  1  0  0  0
 79 82  1  0  0  0
 79 83  2  0  0  0
 80 81  1  0  0  0
 80 84  2  0  0  0
 81150  1  0  0  0
 82151  1  0  0  0
M  ISO  4   1 100  68 101  78 101  82 100
M  END
> <chiral flag>
0

> <version>
0

> <s_m_source_file>
/data/baiqing/PycharmProjects/Reinvent-master-3.2/result/LINK_invent/BTK/process_docking_weight1_custom_product_contain_oxygen_bond_distance_aromatic_linkinvent_7_9_3/rearranged_h_0079.sdf

> <i_m_source_file_index>
59

> <r_mmod_Potential_Energy-OPLS-2005>
-149.643798828125

> <r_mmod_Stretch_Energy-OPLS-2005>
49.2140274047852

> <r_mmod_Bend_Energy-OPLS-2005>
100.441253662109

> <r_mmod_Torsional_Energy-OPLS-2005>
230.571594238281

> <r_mmod_Improper_Torsional_Energy-OPLS-2005>
5.04714965820312

> <r_mmod_Van_der_Waal_Energy-OPLS-2005>
161.360702514648

> <r_mmod_Electrostatic_Energy-OPLS-2005>
-481.779266357422

> <r_mmod_Solvation_Energy-OPLS-2005>
-240.564544677734

> <b_mmod_Minimization_Converged-OPLS-2005>
0

> <r_mmod_RMS_Derivative-OPLS-2005>
0.726689279079437

$$$$
59
                    3D
 Structure written by MMmdl.
157166  0  0  1  0            999 V2000
  -30.6843  -14.6098   20.5304 C   0  0  0  0  0  0
  -30.4144  -12.3827   19.4567 C   0  0  0  0  0  0
  -29.5076  -12.5700   18.2211 C   0  0  0  0  0  0
  -28.0296  -12.3856   18.6136 C   0  0  0  0  0  0
  -27.6559  -13.2348   19.8616 C   0  0  2  0  0  0
  -28.6904  -13.0801   20.9939 C   0  0  0  0  0  0
  -25.2601  -13.8225   20.5676 C   0  0  0  0  0  0
  -24.1842  -13.0451   20.9114 C   0  0  0  0  0  0
  -24.6485  -11.6922   20.8744 C   0  0  0  0  0  0
  -23.9219  -10.4276   21.0426 C   0  0  0  0  0  0
  -24.3741   -9.4238   21.9239 C   0  0  0  0  0  0
  -23.6366   -8.2302   22.0810 C   0  0  0  0  0  0
  -22.4376   -8.0315   21.3532 C   0  0  0  0  0  0
  -22.0062   -9.0295   20.4616 C   0  0  0  0  0  0
  -22.7436  -10.2142   20.3038 C   0  0  0  0  0  0
  -21.6863   -6.0794   22.5317 C   0  0  0  0  0  0
  -21.3998   -6.5684   23.8236 C   0  0  0  0  0  0
  -21.3619   -5.6823   24.9205 C   0  0  0  0  0  0
  -21.6035   -4.3088   24.7280 C   0  0  0  0  0  0
  -21.8811   -3.8202   23.4380 C   0  0  0  0  0  0
  -21.9193   -4.7020   22.3438 C   0  0  0  0  0  0
  -22.7865  -13.5275   21.1708 C   0  0  0  0  0  0
  -22.1680   -4.2232   21.1005 F   0  0  0  0  0  0
  -21.5608   -3.4542   25.7759 F   0  0  0  0  0  0
  -30.0183  -13.4092   20.4487 N   0  0  0  0  0  0
  -26.3036  -12.9408   20.3318 N   0  0  0  0  0  0
  -25.9407  -11.6526   20.5730 N   0  0  0  0  0  0
  -22.0475  -12.8216   22.0209 N   0  0  0  0  0  0
  -25.4389  -15.1914   20.4058 N   0  0  0  0  0  0
  -31.8034  -14.7258   20.0249 O   0  0  0  0  0  0
  -21.6659   -6.8947   21.4277 O   0  0  0  0  0  0
  -22.3581  -14.5581   20.6598 O   0  0  0  0  0  0
  -24.6258  -31.8565   23.2087 C   0  0  0  0  0  0
  -25.9192  -32.4706   23.8368 C   0  0  1  0  0  0
  -27.2519  -27.3995   20.0708 C   0  0  0  0  0  0
  -25.6078  -33.8522   24.2357 N   0  0  0  0  0  0
  -23.4095  -30.4826   21.5523 C   0  0  2  0  0  0
  -24.8559  -28.9379   20.1180 C   0  0  0  0  0  0
  -22.7402  -29.4659   22.5056 C   0  0  0  0  0  0
  -18.0229  -28.1395   22.8503 C   0  0  0  0  0  0
  -24.1480  -36.7123   23.2649 C   0  0  0  0  0  0
  -25.9397  -30.8182   21.3604 C   0  0  0  0  0  0
  -26.0207  -29.4504   20.6992 C   0  0  0  0  0  0
  -27.2192  -28.6911   20.6624 C   0  0  0  0  0  0
  -26.0590  -26.9132   19.4899 C   0  0  0  0  0  0
  -24.8705  -27.6708   19.5140 C   0  0  0  0  0  0
  -23.6158  -29.8028   20.1719 C   0  0  0  0  0  0
  -25.4131  -36.2993   24.0322 C   0  0  1  0  0  0
  -20.5814  -28.3660   23.1294 C   0  0  2  0  0  0
  -20.6747  -26.9415   22.5368 C   0  0  0  0  0  0
  -19.5719  -26.6401   21.5201 C   0  0  0  0  0  0
  -18.1873  -26.7960   22.1585 C   0  0  0  0  0  0
  -19.1496  -28.8844   23.2889 C   0  0  0  0  0  0
  -18.9465  -30.1476   23.8874 C   0  0  0  0  0  0
  -17.6462  -30.6612   24.0562 C   0  0  0  0  0  0
  -25.9083  -34.9383   23.5107 C   0  0  0  0  0  0
  -16.5333  -29.9096   23.6408 C   0  0  0  0  0  0
  -16.7230  -28.6528   23.0414 C   0  0  0  0  0  0
  -26.4667  -31.6410   25.0641 C   0  0  0  0  0  0
  -25.3945  -31.3218   26.1316 C   0  0  0  0  0  0
  -27.0615  -30.2939   24.5904 C   0  0  0  0  0  0
  -27.6198  -32.4092   25.7502 C   0  0  0  0  0  0
  -27.5560  -37.1710   24.8499 C   0  0  0  0  0  0
  -21.4121  -29.3046   22.3743 N   0  0  0  0  0  0
  -26.4246  -37.3749   23.9475 N   0  0  0  0  0  0
  -24.6762  -31.0647   22.1008 N   0  0  0  0  0  0
  -23.4134  -28.8223   23.3141 O   0  0  0  0  0  0
  -28.4203  -26.6417   20.1476 O   0  0  0  0  0  0
  -26.5594  -34.8854   22.4624 O   0  0  0  0  0  0
  -23.5468  -32.1374   23.7522 O   0  0  0  0  0  0
  -29.6240  -19.2448   23.9444 C   0  0  0  0  0  0
  -29.9468  -18.1771   23.0881 C   0  0  0  0  0  0
  -29.1709  -20.4729   23.4217 C   0  0  0  0  0  0
  -29.4204  -19.5877   21.1623 C   0  0  0  0  0  0
  -29.8687  -18.3138   21.6815 C   0  0  0  0  0  0
  -29.0300  -20.6852   22.0201 C   0  0  0  0  0  0
  -28.8526  -22.8481   20.5696 C   0  0  0  0  0  0
  -28.3037  -24.0932   20.6579 C   0  0  0  0  0  0
  -27.4490  -24.0437   21.8272 C   0  0  0  0  0  0
  -26.7965  -25.0620   22.4191 C   0  0  0  0  0  0
  -30.3076  -17.0907   20.8891 C   0  0  0  0  0  0
  -30.0217  -15.7771   21.1854 C   0  0  0  0  0  0
  -27.4307  -22.6254   22.3679 C   0  0  0  0  0  0
  -28.5102  -25.2702   19.6525 C   0  0  0  0  0  0
  -28.4640  -21.9392   21.5712 N   0  0  0  0  0  0
  -31.4661  -12.4531   19.1696 H   0  0  0  0  0  0
  -30.2912  -11.3807   19.8703 H   0  0  0  0  0  0
  -29.7893  -11.8871   17.4176 H   0  0  0  0  0  0
  -29.6467  -13.5793   17.8244 H   0  0  0  0  0  0
  -27.8623  -11.3243   18.8039 H   0  0  0  0  0  0
  -27.3846  -12.6555   17.7720 H   0  0  0  0  0  0
  -27.6759  -14.2805   19.5422 H   0  0  0  0  0  0
  -28.6713  -12.0620   21.3793 H   0  0  0  0  0  0
  -28.4128  -13.7079   21.8359 H   0  0  0  0  0  0
  -25.2915   -9.5673   22.4828 H   0  0  0  0  0  0
  -24.0022   -7.4755   22.7638 H   0  0  0  0  0  0
  -21.0997   -8.8858   19.8913 H   0  0  0  0  0  0
  -22.4025  -10.9674   19.6083 H   0  0  0  0  0  0
  -21.1970   -7.6194   23.9796 H   0  0  0  0  0  0
  -21.1391   -6.0528   25.9095 H   0  0  0  0  0  0
  -22.0592   -2.7678   23.2876 H   0  0  0  0  0  0
  -22.4076  -11.9832   22.4510 H   0  0  0  0  0  0
  -21.1063  -13.1158   22.2324 H   0  0  0  0  0  0
  -24.6784  -15.8572   20.4878 H   0  0  0  0  0  0
  -26.3170  -15.6122   20.1215 H   0  0  0  0  0  0
  -26.7233  -32.5425   23.1102 H   0  0  0  0  0  0
  -25.0435  -33.9687   25.0642 H   0  0  0  0  0  0
  -22.7014  -31.2991   21.4026 H   0  0  0  0  0  0
  -23.3847  -35.9325   23.3169 H   0  0  0  0  0  0
  -24.3606  -36.8889   22.2075 H   0  0  0  0  0  0
  -23.7039  -37.6171   23.6800 H   0  0  0  0  0  0
  -26.0559  -31.5935   20.6019 H   0  0  0  0  0  0
  -26.8263  -30.8703   21.9780 H   0  0  0  0  0  0
  -28.1196  -29.0938   21.1053 H   0  0  0  0  0  0
  -26.0096  -25.9357   19.0390 H   0  0  0  0  0  0
  -23.9701  -27.2603   19.0810 H   0  0  0  0  0  0
  -23.7126  -30.5648   19.3964 H   0  0  0  0  0  0
  -22.7445  -29.2081   19.8897 H   0  0  0  0  0  0
  -25.1320  -36.1769   25.0788 H   0  0  0  0  0  0
  -20.9892  -28.3203   24.1416 H   0  0  0  0  0  0
  -20.5718  -26.2252   23.3545 H   0  0  0  0  0  0
  -21.6601  -26.7540   22.1095 H   0  0  0  0  0  0
  -19.6872  -25.6324   21.1201 H   0  0  0  0  0  0
  -19.6648  -27.3233   20.6746 H   0  0  0  0  0  0
  -17.4177  -26.6796   21.3936 H   0  0  0  0  0  0
  -18.0200  -26.0046   22.8895 H   0  0  0  0  0  0
  -19.7935  -30.7324   24.2163 H   0  0  0  0  0  0
  -17.5017  -31.6313   24.5108 H   0  0  0  0  0  0
  -15.5341  -30.3006   23.7784 H   0  0  0  0  0  0
  -15.8601  -28.0867   22.7169 H   0  0  0  0  0  0
  -24.6312  -30.6437   25.7480 H   0  0  0  0  0  0
  -24.8966  -32.2201   26.4914 H   0  0  0  0  0  0
  -25.8367  -30.8227   26.9952 H   0  0  0  0  0  0
  -26.3154  -29.6416   24.1336 H   0  0  0  0  0  0
  -27.4948  -29.7362   25.4218 H   0  0  0  0  0  0
  -27.8698  -30.4386   23.8725 H   0  0  0  0  0  0
  -27.2948  -33.3514   26.1899 H   0  0  0  0  0  0
  -28.4211  -32.6328   25.0447 H   0  0  0  0  0  0
  -28.0615  -31.8210   26.5552 H   0  0  0  0  0  0
  -28.2421  -38.0171   24.7828 H   0  0  0  0  0  0
  -28.1207  -36.2679   24.6076 H   0  0  0  0  0  0
  -27.2245  -37.1014   25.8886 H   0  0  0  0  0  0
  -20.9298  -29.8669   21.6861 H   0  0  0  0  0  0
  -26.0036  -38.2716   24.1704 H   0  0  0  0  0  0
  -29.7256  -19.1245   25.0183 H   0  0  0  0  0  0
  -30.3017  -17.2493   23.5240 H   0  0  0  0  0  0
  -28.9528  -21.2404   24.1521 H   0  0  0  0  0  0
  -29.3417  -19.7129   20.0887 H   0  0  0  0  0  0
  -29.5281  -22.4911   19.8011 H   0  0  0  0  0  0
  -26.8615  -26.0863   22.0977 H   0  0  0  0  0  0
  -26.1829  -24.8849   23.2898 H   0  0  0  0  0  0
  -30.9897  -17.2878   20.0644 H   0  0  0  0  0  0
  -29.3180  -15.6010   21.9791 H   0  0  0  0  0  0
  -26.4434  -22.1877   22.1957 H   0  0  0  0  0  0
  -27.6105  -22.6589   23.4431 H   0  0  0  0  0  0
  -27.9125  -25.1152   18.7536 H   0  0  0  0  0  0
  -29.5333  -25.1738   19.2860 H   0  0  0  0  0  0
  1 25  1  0  0  0
  1 30  2  0  0  0
  1 82  1  0  0  0
  2  3  1  0  0  0
  2 25  1  0  0  0
  2 86  1  0  0  0
  2 87  1  0  0  0
  3  4  1  0  0  0
  3 88  1  0  0  0
  3 89  1  0  0  0
  4  5  1  0  0  0
  4 90  1  0  0  0
  4 91  1  0  0  0
  5  6  1  0  0  0
  5 26  1  0  0  0
  5 92  1  0  0  0
  6 25  1  0  0  0
  6 93  1  0  0  0
  6 94  1  0  0  0
  7  8  2  0  0  0
  7 26  1  0  0  0
  7 29  1  0  0  0
  8  9  1  0  0  0
  8 22  1  0  0  0
  9 10  1  0  0  0
  9 27  2  0  0  0
 10 11  2  0  0  0
 10 15  1  0  0  0
 11 12  1  0  0  0
 11 95  1  0  0  0
 12 13  2  0  0  0
 12 96  1  0  0  0
 13 14  1  0  0  0
 13 31  1  0  0  0
 14 15  2  0  0  0
 14 97  1  0  0  0
 15 98  1  0  0  0
 16 17  2  0  0  0
 16 21  1  0  0  0
 16 31  1  0  0  0
 17 18  1  0  0  0
 17 99  1  0  0  0
 18 19  2  0  0  0
 18100  1  0  0  0
 19 20  1  0  0  0
 19 24  1  0  0  0
 20 21  2  0  0  0
 20101  1  0  0  0
 21 23  1  0  0  0
 22 28  1  0  0  0
 22 32  2  0  0  0
 26 27  1  0  0  0
 28102  1  0  0  0
 28103  1  0  0  0
 29104  1  0  0  0
 29105  1  0  0  0
 33 34  1  0  0  0
 33 66  1  0  0  0
 33 70  2  0  0  0
 34 36  1  0  0  0
 34 59  1  0  0  0
 34106  1  0  0  0
 35 44  2  0  0  0
 35 45  1  0  0  0
 35 68  1  0  0  0
 36 56  1  0  0  0
 36107  1  0  0  0
 37 39  1  0  0  0
 37 47  1  0  0  0
 37 66  1  0  0  0
 37108  1  0  0  0
 38 43  2  0  0  0
 38 46  1  0  0  0
 38 47  1  0  0  0
 39 64  1  0  0  0
 39 67  2  0  0  0
 40 52  1  0  0  0
 40 53  2  0  0  0
 40 58  1  0  0  0
 41109  1  0  0  0
 41110  1  0  0  0
 41111  1  0  0  0
 41 48  1  0  0  0
 42 43  1  0  0  0
 42 66  1  0  0  0
 42112  1  0  0  0
 42113  1  0  0  0
 43 44  1  0  0  0
 44114  1  0  0  0
 45 46  2  0  0  0
 45115  1  0  0  0
 46116  1  0  0  0
 47117  1  0  0  0
 47118  1  0  0  0
 48 56  1  0  0  0
 48 65  1  0  0  0
 48119  1  0  0  0
 49 50  1  0  0  0
 49 53  1  0  0  0
 49 64  1  0  0  0
 49120  1  0  0  0
 50 51  1  0  0  0
 50121  1  0  0  0
 50122  1  0  0  0
 51 52  1  0  0  0
 51123  1  0  0  0
 51124  1  0  0  0
 52125  1  0  0  0
 52126  1  0  0  0
 53 54  1  0  0  0
 54 55  2  0  0  0
 54127  1  0  0  0
 55 57  1  0  0  0
 55128  1  0  0  0
 56 69  2  0  0  0
 57 58  2  0  0  0
 57129  1  0  0  0
 58130  1  0  0  0
 59 60  1  0  0  0
 59 61  1  0  0  0
 59 62  1  0  0  0
 60131  1  0  0  0
 60132  1  0  0  0
 60133  1  0  0  0
 61134  1  0  0  0
 61135  1  0  0  0
 61136  1  0  0  0
 62137  1  0  0  0
 62138  1  0  0  0
 62139  1  0  0  0
 63 65  1  0  0  0
 63140  1  0  0  0
 63141  1  0  0  0
 63142  1  0  0  0
 64143  1  0  0  0
 65144  1  0  0  0
 68 84  1  0  0  0
 71 72  2  0  0  0
 71 73  1  0  0  0
 71145  1  0  0  0
 72 75  1  0  0  0
 72146  1  0  0  0
 73 76  2  0  0  0
 73147  1  0  0  0
 74 75  2  0  0  0
 74 76  1  0  0  0
 74148  1  0  0  0
 75 81  1  0  0  0
 76 85  1  0  0  0
 77 78  2  0  0  0
 77 85  1  0  0  0
 77149  1  0  0  0
 78 79  1  0  0  0
 78 84  1  0  0  0
 79 80  2  0  0  0
 79 83  1  0  0  0
 80150  1  0  0  0
 80151  1  0  0  0
 81 82  2  0  0  0
 81152  1  0  0  0
 82153  1  0  0  0
 83 85  1  0  0  0
 83154  1  0  0  0
 83155  1  0  0  0
 84156  1  0  0  0
 84157  1  0  0  0
M  ISO  4   1 100  68 101  82 100  84 101
M  END
> <chiral flag>
0

> <version>
0

> <s_m_source_file>
/data/baiqing/PycharmProjects/Reinvent-master-3.2/result/LINK_invent/BTK/process_docking_weight1_custom_product_contain_oxygen_bond_distance_aromatic_linkinvent_7_9_3/rearranged_h_0079.sdf

> <i_m_source_file_index>
60

> <r_mmod_Potential_Energy-OPLS-2005>
174.657806396484

> <r_mmod_Stretch_Energy-OPLS-2005>
76.0191268920898

> <r_mmod_Bend_Energy-OPLS-2005>
236.856857299805

> <r_mmod_Torsional_Energy-OPLS-2005>
196.170776367188

> <r_mmod_Improper_Torsional_Energy-OPLS-2005>
4.35758352279663

> <r_mmod_Van_der_Waal_Energy-OPLS-2005>
147.917114257812

> <r_mmod_Electrostatic_Energy-OPLS-2005>
-321.496734619141

> <r_mmod_Solvation_Energy-OPLS-2005>
-195.187835693359

> <b_mmod_Minimization_Converged-OPLS-2005>
0

> <r_mmod_RMS_Derivative-OPLS-2005>
8.43092823028564

$$$$
60
                    3D
 Structure written by MMmdl.
153162  0  0  1  0            999 V2000
  -30.6216  -14.6422   20.4972 C   0  0  0  0  0  0
  -30.4441  -12.3939   19.4470 C   0  0  0  0  0  0
  -29.5089  -12.5070   18.2219 C   0  0  0  0  0  0
  -28.0324  -12.3435   18.6359 C   0  0  0  0  0  0
  -27.6560  -13.2142   19.8635 C   0  0  2  0  0  0
  -28.7032  -13.0642   20.9911 C   0  0  0  0  0  0
  -25.2582  -13.8166   20.5695 C   0  0  0  0  0  0
  -24.1838  -13.0441   20.9198 C   0  0  0  0  0  0
  -24.6401  -11.6909   20.8736 C   0  0  0  0  0  0
  -23.9065  -10.4296   21.0405 C   0  0  0  0  0  0
  -24.3616   -9.4209   21.9181 C   0  0  0  0  0  0
  -23.6289   -8.2244   22.0753 C   0  0  0  0  0  0
  -22.4267   -8.0285   21.3550 C   0  0  0  0  0  0
  -21.9907   -9.0261   20.4653 C   0  0  0  0  0  0
  -22.7238  -10.2138   20.3058 C   0  0  0  0  0  0
  -21.6854   -6.0734   22.5278 C   0  0  0  0  0  0
  -21.4015   -6.5636   23.8211 C   0  0  0  0  0  0
  -21.3660   -5.6790   24.9173 C   0  0  0  0  0  0
  -21.6044   -4.3052   24.7225 C   0  0  0  0  0  0
  -21.8819   -3.8146   23.4344 C   0  0  0  0  0  0
  -21.9194   -4.6963   22.3401 C   0  0  0  0  0  0
  -22.7857  -13.5240   21.1847 C   0  0  0  0  0  0
  -22.1663   -4.2150   21.0979 F   0  0  0  0  0  0
  -21.5627   -3.4538   25.7736 F   0  0  0  0  0  0
  -30.0200  -13.4111   20.4290 N   0  0  0  0  0  0
  -26.3007  -12.9342   20.3322 N   0  0  0  0  0  0
  -25.9327  -11.6501   20.5748 N   0  0  0  0  0  0
  -22.0493  -12.8245   22.0405 N   0  0  0  0  0  0
  -25.4299  -15.1889   20.4107 N   0  0  0  0  0  0
  -31.7808  -14.8136   20.1084 O   0  0  0  0  0  0
  -21.6637   -6.8880   21.4241 O   0  0  0  0  0  0
  -22.3555  -14.5543   20.6685 O   0  0  0  0  0  0
  -24.6290  -31.8614   23.2044 C   0  0  0  0  0  0
  -25.9132  -32.4789   23.8372 C   0  0  1  0  0  0
  -27.2149  -27.3054   20.1025 C   0  0  0  0  0  0
  -25.5938  -33.8588   24.2290 N   0  0  0  0  0  0
  -23.4228  -30.4897   21.5491 C   0  0  2  0  0  0
  -24.8662  -28.9536   20.1108 C   0  0  0  0  0  0
  -22.7496  -29.4637   22.4932 C   0  0  0  0  0  0
  -18.0297  -28.1388   22.8494 C   0  0  0  0  0  0
  -24.1488  -36.7294   23.2629 C   0  0  0  0  0  0
  -25.9693  -30.7873   21.3801 C   0  0  0  0  0  0
  -26.0407  -29.4163   20.7170 C   0  0  0  0  0  0
  -27.2191  -28.6048   20.7051 C   0  0  0  0  0  0
  -26.0092  -26.9130   19.4666 C   0  0  0  0  0  0
  -24.8533  -27.7068   19.4783 C   0  0  0  0  0  0
  -23.6373  -29.8357   20.1620 C   0  0  0  0  0  0
  -25.4105  -36.3086   24.0331 C   0  0  1  0  0  0
  -20.5900  -28.3695   23.1282 C   0  0  2  0  0  0
  -20.6783  -26.9416   22.5410 C   0  0  0  0  0  0
  -19.5749  -26.6389   21.5220 C   0  0  0  0  0  0
  -18.1934  -26.7934   22.1636 C   0  0  0  0  0  0
  -19.1549  -28.8861   23.2886 C   0  0  0  0  0  0
  -18.9465  -30.1461   23.8901 C   0  0  0  0  0  0
  -17.6461  -30.6588   24.0568 C   0  0  0  0  0  0
  -25.9052  -34.9457   23.5106 C   0  0  0  0  0  0
  -16.5354  -29.9084   23.6331 C   0  0  0  0  0  0
  -16.7284  -28.6504   23.0353 C   0  0  0  0  0  0
  -26.4496  -31.6595   25.0746 C   0  0  0  0  0  0
  -25.3715  -31.3744   26.1464 C   0  0  0  0  0  0
  -27.0331  -30.3013   24.6207 C   0  0  0  0  0  0
  -27.6061  -32.4321   25.7515 C   0  0  0  0  0  0
  -27.5594  -37.1778   24.8446 C   0  0  0  0  0  0
  -21.4207  -29.3053   22.3679 N   0  0  0  0  0  0
  -26.4274  -37.3793   23.9437 N   0  0  0  0  0  0
  -24.6930  -31.0620   22.1007 N   0  0  0  0  0  0
  -23.4221  -28.8156   23.2997 O   0  0  0  0  0  0
  -28.3079  -26.4107   20.1536 O   0  0  0  0  0  0
  -26.5625  -34.8925   22.4675 O   0  0  0  0  0  0
  -23.5448  -32.1420   23.7355 O   0  0  0  0  0  0
  -28.5834  -19.2800   20.8810 C   0  0  0  0  0  0
  -30.8854  -19.3379   20.2120 C   0  0  0  0  0  0
  -28.6616  -17.8624   20.9958 C   0  0  0  0  0  0
  -30.9617  -17.9106   20.3123 C   0  0  0  0  0  0
  -29.6928  -20.0758   20.4843 C   0  0  0  0  0  0
  -29.8437  -17.1294   20.7131 C   0  0  0  0  0  0
  -30.2905  -23.8004   20.3377 C   0  0  0  0  0  0
  -28.9656  -23.7965   20.1961 C   0  0  0  0  0  0
  -28.5452  -22.3770   20.2228 C   0  0  0  0  0  0
  -30.8414  -22.3939   20.4577 C   0  0  0  0  0  0
  -27.9681  -24.9770   19.9365 C   0  0  0  0  0  0
  -29.6369  -21.5534   20.3933 N   0  0  0  0  0  0
  -29.8000  -15.6730   20.8691 N   0  0  0  0  0  0
  -27.3823  -21.9837   20.0893 O   0  0  0  0  0  0
  -31.4836  -12.5240   19.1403 H   0  0  0  0  0  0
  -30.3852  -11.3971   19.8865 H   0  0  0  0  0  0
  -29.7719  -11.7559   17.4761 H   0  0  0  0  0  0
  -29.6499  -13.4765   17.7408 H   0  0  0  0  0  0
  -27.8696  -11.2900   18.8680 H   0  0  0  0  0  0
  -27.3777  -12.5726   17.7944 H   0  0  0  0  0  0
  -27.6756  -14.2493   19.5222 H   0  0  0  0  0  0
  -28.7157  -12.0401   21.3675 H   0  0  0  0  0  0
  -28.4481  -13.6897   21.8477 H   0  0  0  0  0  0
  -25.2759   -9.5684   22.4756 H   0  0  0  0  0  0
  -24.0002   -7.4635   22.7467 H   0  0  0  0  0  0
  -21.0838   -8.8781   19.8959 H   0  0  0  0  0  0
  -22.3695  -10.9678   19.6169 H   0  0  0  0  0  0
  -21.2007   -7.6144   23.9716 H   0  0  0  0  0  0
  -21.1480   -6.0517   25.9077 H   0  0  0  0  0  0
  -22.0597   -2.7609   23.2842 H   0  0  0  0  0  0
  -22.4094  -11.9915   22.4816 H   0  0  0  0  0  0
  -21.1110  -13.1285   22.2598 H   0  0  0  0  0  0
  -24.6606  -15.8411   20.5164 H   0  0  0  0  0  0
  -26.2684  -15.6239   20.0485 H   0  0  0  0  0  0
  -26.7205  -32.5450   23.1125 H   0  0  0  0  0  0
  -25.0064  -33.9735   25.0421 H   0  0  0  0  0  0
  -22.7170  -31.3114   21.4105 H   0  0  0  0  0  0
  -23.3768  -35.9606   23.3242 H   0  0  0  0  0  0
  -24.3600  -36.8963   22.2055 H   0  0  0  0  0  0
  -23.7215  -37.6469   23.6682 H   0  0  0  0  0  0
  -26.1051  -31.5517   20.6136 H   0  0  0  0  0  0
  -26.8482  -30.8335   22.0113 H   0  0  0  0  0  0
  -28.1175  -28.9535   21.1945 H   0  0  0  0  0  0
  -25.9035  -25.9695   18.9555 H   0  0  0  0  0  0
  -23.9534  -27.3481   18.9980 H   0  0  0  0  0  0
  -23.7611  -30.6174   19.4114 H   0  0  0  0  0  0
  -22.7555  -29.2711   19.8544 H   0  0  0  0  0  0
  -25.1269  -36.1926   25.0821 H   0  0  0  0  0  0
  -20.9999  -28.3264   24.1401 H   0  0  0  0  0  0
  -20.5695  -26.2298   23.3608 H   0  0  0  0  0  0
  -21.6648  -26.7449   22.1193 H   0  0  0  0  0  0
  -19.6903  -25.6301   21.1248 H   0  0  0  0  0  0
  -19.6676  -27.3202   20.6751 H   0  0  0  0  0  0
  -17.4201  -26.6692   21.4041 H   0  0  0  0  0  0
  -18.0324  -26.0074   22.9030 H   0  0  0  0  0  0
  -19.7936  -30.7287   24.2265 H   0  0  0  0  0  0
  -17.5011  -31.6267   24.5169 H   0  0  0  0  0  0
  -15.5353  -30.2982   23.7648 H   0  0  0  0  0  0
  -15.8690  -28.0822   22.7059 H   0  0  0  0  0  0
  -24.5894  -30.7087   25.7794 H   0  0  0  0  0  0
  -24.8893  -32.2913   26.4867 H   0  0  0  0  0  0
  -25.8021  -30.8941   27.0258 H   0  0  0  0  0  0
  -26.2911  -29.6780   24.1201 H   0  0  0  0  0  0
  -27.3989  -29.7254   25.4718 H   0  0  0  0  0  0
  -27.8802  -30.4292   23.9463 H   0  0  0  0  0  0
  -27.2679  -33.3616   26.2108 H   0  0  0  0  0  0
  -28.3862  -32.6889   25.0337 H   0  0  0  0  0  0
  -28.0743  -31.8436   26.5415 H   0  0  0  0  0  0
  -28.2534  -38.0152   24.7616 H   0  0  0  0  0  0
  -28.1165  -36.2695   24.6101 H   0  0  0  0  0  0
  -27.2343  -37.1230   25.8850 H   0  0  0  0  0  0
  -20.9376  -29.8794   21.6911 H   0  0  0  0  0  0
  -26.0145  -38.2848   24.1510 H   0  0  0  0  0  0
  -27.6419  -19.7471   21.1304 H   0  0  0  0  0  0
  -31.7774  -19.8654   19.9061 H   0  0  0  0  0  0
  -27.7744  -17.3333   21.3152 H   0  0  0  0  0  0
  -31.9003  -17.4262   20.0824 H   0  0  0  0  0  0
  -30.9218  -24.6772   20.3259 H   0  0  0  0  0  0
  -31.3675  -22.2602   21.4035 H   0  0  0  0  0  0
  -31.5213  -22.1816   19.6321 H   0  0  0  0  0  0
  -27.0898  -24.7433   20.5416 H   0  0  0  0  0  0
  -27.6837  -24.8494   18.8915 H   0  0  0  0  0  0
  -28.9111  -15.3275   21.1965 H   0  0  0  0  0  0
  1 25  1  0  0  0
  1 30  2  0  0  0
  1 83  1  0  0  0
  2  3  1  0  0  0
  2 25  1  0  0  0
  2 85  1  0  0  0
  2 86  1  0  0  0
  3  4  1  0  0  0
  3 87  1  0  0  0
  3 88  1  0  0  0
  4  5  1  0  0  0
  4 89  1  0  0  0
  4 90  1  0  0  0
  5  6  1  0  0  0
  5 26  1  0  0  0
  5 91  1  0  0  0
  6 25  1  0  0  0
  6 92  1  0  0  0
  6 93  1  0  0  0
  7  8  2  0  0  0
  7 26  1  0  0  0
  7 29  1  0  0  0
  8  9  1  0  0  0
  8 22  1  0  0  0
  9 10  1  0  0  0
  9 27  2  0  0  0
 10 11  2  0  0  0
 10 15  1  0  0  0
 11 12  1  0  0  0
 11 94  1  0  0  0
 12 13  2  0  0  0
 12 95  1  0  0  0
 13 14  1  0  0  0
 13 31  1  0  0  0
 14 15  2  0  0  0
 14 96  1  0  0  0
 15 97  1  0  0  0
 16 17  2  0  0  0
 16 21  1  0  0  0
 16 31  1  0  0  0
 17 18  1  0  0  0
 17 98  1  0  0  0
 18 19  2  0  0  0
 18 99  1  0  0  0
 19 20  1  0  0  0
 19 24  1  0  0  0
 20 21  2  0  0  0
 20100  1  0  0  0
 21 23  1  0  0  0
 22 28  1  0  0  0
 22 32  2  0  0  0
 26 27  1  0  0  0
 28101  1  0  0  0
 28102  1  0  0  0
 29103  1  0  0  0
 29104  1  0  0  0
 33 34  1  0  0  0
 33 66  1  0  0  0
 33 70  2  0  0  0
 34 36  1  0  0  0
 34 59  1  0  0  0
 34105  1  0  0  0
 35 44  2  0  0  0
 35 45  1  0  0  0
 35 68  1  0  0  0
 36 56  1  0  0  0
 36106  1  0  0  0
 37 39  1  0  0  0
 37 47  1  0  0  0
 37 66  1  0  0  0
 37107  1  0  0  0
 38 43  2  0  0  0
 38 46  1  0  0  0
 38 47  1  0  0  0
 39 64  1  0  0  0
 39 67  2  0  0  0
 40 52  1  0  0  0
 40 53  2  0  0  0
 40 58  1  0  0  0
 41108  1  0  0  0
 41109  1  0  0  0
 41110  1  0  0  0
 41 48  1  0  0  0
 42 43  1  0  0  0
 42 66  1  0  0  0
 42111  1  0  0  0
 42112  1  0  0  0
 43 44  1  0  0  0
 44113  1  0  0  0
 45 46  2  0  0  0
 45114  1  0  0  0
 46115  1  0  0  0
 47116  1  0  0  0
 47117  1  0  0  0
 48 56  1  0  0  0
 48 65  1  0  0  0
 48118  1  0  0  0
 49 50  1  0  0  0
 49 53  1  0  0  0
 49 64  1  0  0  0
 49119  1  0  0  0
 50 51  1  0  0  0
 50120  1  0  0  0
 50121  1  0  0  0
 51 52  1  0  0  0
 51122  1  0  0  0
 51123  1  0  0  0
 52124  1  0  0  0
 52125  1  0  0  0
 53 54  1  0  0  0
 54 55  2  0  0  0
 54126  1  0  0  0
 55 57  1  0  0  0
 55127  1  0  0  0
 56 69  2  0  0  0
 57 58  2  0  0  0
 57128  1  0  0  0
 58129  1  0  0  0
 59 60  1  0  0  0
 59 61  1  0  0  0
 59 62  1  0  0  0
 60130  1  0  0  0
 60131  1  0  0  0
 60132  1  0  0  0
 61133  1  0  0  0
 61134  1  0  0  0
 61135  1  0  0  0
 62136  1  0  0  0
 62137  1  0  0  0
 62138  1  0  0  0
 63 65  1  0  0  0
 63139  1  0  0  0
 63140  1  0  0  0
 63141  1  0  0  0
 64142  1  0  0  0
 65143  1  0  0  0
 68 81  1  0  0  0
 71 73  2  0  0  0
 71 75  1  0  0  0
 71144  1  0  0  0
 72 74  1  0  0  0
 72 75  2  0  0  0
 72145  1  0  0  0
 73 76  1  0  0  0
 73146  1  0  0  0
 74 76  2  0  0  0
 74147  1  0  0  0
 75 82  1  0  0  0
 76 83  1  0  0  0
 77 78  2  0  0  0
 77 80  1  0  0  0
 77148  1  0  0  0
 78 79  1  0  0  0
 78 81  1  0  0  0
 79 82  1  0  0  0
 79 84  2  0  0  0
 80 82  1  0  0  0
 80149  1  0  0  0
 80150  1  0  0  0
 81151  1  0  0  0
 81152  1  0  0  0
 83153  1  0  0  0
M  ISO  4   1 100  68 101  81 101  83 100
M  END
> <chiral flag>
0

> <version>
0

> <s_m_source_file>
/data/baiqing/PycharmProjects/Reinvent-master-3.2/result/LINK_invent/BTK/process_docking_weight1_custom_product_contain_oxygen_bond_distance_aromatic_linkinvent_7_9_3/rearranged_h_0079.sdf

> <i_m_source_file_index>
61

> <r_mmod_Potential_Energy-OPLS-2005>
162.809936523438

> <r_mmod_Stretch_Energy-OPLS-2005>
84.6652450561523

> <r_mmod_Bend_Energy-OPLS-2005>
193.848159790039

> <r_mmod_Torsional_Energy-OPLS-2005>
236.465881347656

> <r_mmod_Improper_Torsional_Energy-OPLS-2005>
4.24773979187012

> <r_mmod_Van_der_Waal_Energy-OPLS-2005>
150.174057006836

> <r_mmod_Electrostatic_Energy-OPLS-2005>
-346.300903320312

> <r_mmod_Solvation_Energy-OPLS-2005>
-214.79411315918

> <b_mmod_Minimization_Converged-OPLS-2005>
0

> <r_mmod_RMS_Derivative-OPLS-2005>
0.884415090084076

$$$$
61
                    3D
 Structure written by MMmdl.
154163  0  0  1  0            999 V2000
  -30.6195  -14.8249   20.4361 C   0  0  0  0  0  0
  -30.4255  -12.5055   19.4880 C   0  0  0  0  0  0
  -29.5105  -12.5158   18.2445 C   0  0  0  0  0  0
  -28.0402  -12.3282   18.6604 C   0  0  0  0  0  0
  -27.6352  -13.2452   19.8447 C   0  0  2  0  0  0
  -28.6808  -13.2373   20.9819 C   0  0  0  0  0  0
  -25.2485  -13.8218   20.5706 C   0  0  0  0  0  0
  -24.1792  -13.0440   20.9207 C   0  0  0  0  0  0
  -24.6395  -11.6927   20.8736 C   0  0  0  0  0  0
  -23.9073  -10.4297   21.0394 C   0  0  0  0  0  0
  -24.3622   -9.4215   21.9179 C   0  0  0  0  0  0
  -23.6299   -8.2246   22.0751 C   0  0  0  0  0  0
  -22.4286   -8.0277   21.3537 C   0  0  0  0  0  0
  -21.9917   -9.0247   20.4635 C   0  0  0  0  0  0
  -22.7242  -10.2128   20.3044 C   0  0  0  0  0  0
  -21.6855   -6.0732   22.5277 C   0  0  0  0  0  0
  -21.4016   -6.5638   23.8204 C   0  0  0  0  0  0
  -21.3662   -5.6792   24.9166 C   0  0  0  0  0  0
  -21.6046   -4.3053   24.7222 C   0  0  0  0  0  0
  -21.8825   -3.8142   23.4340 C   0  0  0  0  0  0
  -21.9194   -4.6959   22.3398 C   0  0  0  0  0  0
  -22.7810  -13.5205   21.1867 C   0  0  0  0  0  0
  -22.1667   -4.2143   21.0979 F   0  0  0  0  0  0
  -21.5627   -3.4536   25.7733 F   0  0  0  0  0  0
  -29.9724  -13.6005   20.3873 N   0  0  0  0  0  0
  -26.2913  -12.9449   20.3274 N   0  0  0  0  0  0
  -25.9332  -11.6577   20.5749 N   0  0  0  0  0  0
  -22.0460  -12.8186   22.0412 N   0  0  0  0  0  0
  -25.4153  -15.1943   20.4144 N   0  0  0  0  0  0
  -31.8170  -14.8364   20.1449 O   0  0  0  0  0  0
  -21.6649   -6.8876   21.4238 O   0  0  0  0  0  0
  -22.3491  -14.5513   20.6719 O   0  0  0  0  0  0
  -24.6382  -31.8495   23.1961 C   0  0  0  0  0  0
  -25.9185  -32.4727   23.8315 C   0  0  1  0  0  0
  -27.2165  -27.2120   20.1396 C   0  0  0  0  0  0
  -25.5970  -33.8530   24.2256 N   0  0  0  0  0  0
  -23.4390  -30.4717   21.5389 C   0  0  2  0  0  0
  -24.8911  -28.9175   20.1033 C   0  0  0  0  0  0
  -22.7541  -29.4578   22.4885 C   0  0  0  0  0  0
  -18.0296  -28.1395   22.8476 C   0  0  0  0  0  0
  -24.1486  -36.7253   23.2642 C   0  0  0  0  0  0
  -25.9895  -30.7475   21.3849 C   0  0  0  0  0  0
  -26.0651  -29.3672   20.7242 C   0  0  0  0  0  0
  -27.2335  -28.5255   20.7361 C   0  0  0  0  0  0
  -26.0278  -26.8580   19.4643 C   0  0  0  0  0  0
  -24.8803  -27.6731   19.4588 C   0  0  0  0  0  0
  -23.6624  -29.8079   20.1545 C   0  0  0  0  0  0
  -25.4113  -36.3049   24.0335 C   0  0  1  0  0  0
  -20.5906  -28.3716   23.1244 C   0  0  2  0  0  0
  -20.6781  -26.9424   22.5400 C   0  0  0  0  0  0
  -19.5763  -26.6386   21.5205 C   0  0  0  0  0  0
  -18.1942  -26.7940   22.1608 C   0  0  0  0  0  0
  -19.1550  -28.8877   23.2851 C   0  0  0  0  0  0
  -18.9469  -30.1474   23.8878 C   0  0  0  0  0  0
  -17.6467  -30.6594   24.0562 C   0  0  0  0  0  0
  -25.9062  -34.9423   23.5094 C   0  0  0  0  0  0
  -16.5356  -29.9087   23.6344 C   0  0  0  0  0  0
  -16.7278  -28.6502   23.0363 C   0  0  0  0  0  0
  -26.4546  -31.6561   25.0714 C   0  0  0  0  0  0
  -25.3762  -31.3700   26.1423 C   0  0  0  0  0  0
  -27.0418  -30.2979   24.6233 C   0  0  0  0  0  0
  -27.6096  -32.4308   25.7487 C   0  0  0  0  0  0
  -27.5573  -37.1786   24.8473 C   0  0  0  0  0  0
  -21.4241  -29.3050   22.3627 N   0  0  0  0  0  0
  -26.4286  -37.3756   23.9418 N   0  0  0  0  0  0
  -24.7081  -31.0413   22.0966 N   0  0  0  0  0  0
  -23.4208  -28.8128   23.3014 O   0  0  0  0  0  0
  -28.2142  -26.1930   20.2339 O   0  0  0  0  0  0
  -26.5613  -34.8908   22.4652 O   0  0  0  0  0  0
  -23.5517  -32.1339   23.7221 O   0  0  0  0  0  0
  -32.0672  -19.1597   20.1008 C   0  0  0  0  0  0
  -31.1760  -20.2443   20.1887 C   0  0  0  0  0  0
  -31.6400  -17.8256   20.2373 C   0  0  0  0  0  0
  -29.7955  -20.0609   20.4288 C   0  0  0  0  0  0
  -30.2860  -17.4838   20.4702 C   0  0  0  0  0  0
  -29.3792  -18.6450   20.5684 C   0  0  0  0  0  0
  -28.0760  -23.5654   20.8232 C   0  0  0  0  0  0
  -27.2393  -22.6142   21.5380 C   0  0  0  0  0  0
  -29.1511  -22.6698   20.2560 C   0  0  0  0  0  0
  -26.2426  -22.9039   22.3971 C   0  0  0  0  0  0
  -27.7557  -24.9446   20.7892 C   0  0  0  0  0  0
  -27.6643  -21.1905   21.2820 C   0  0  0  0  0  0
  -28.9386  -21.3051   20.5870 N   0  0  0  0  0  0
  -29.8945  -16.0223   20.6028 N   0  0  0  0  0  0
  -30.0954  -23.0727   19.5698 O   0  0  0  0  0  0
  -28.0729  -18.3757   20.8028 F   0  0  0  0  0  0
  -31.4668  -12.6162   19.1827 H   0  0  0  0  0  0
  -30.3703  -11.5422   19.9974 H   0  0  0  0  0  0
  -29.8052  -11.7296   17.5477 H   0  0  0  0  0  0
  -29.6252  -13.4597   17.7080 H   0  0  0  0  0  0
  -27.9110  -11.2828   18.9430 H   0  0  0  0  0  0
  -27.3792  -12.4961   17.8094 H   0  0  0  0  0  0
  -27.6115  -14.2567   19.4377 H   0  0  0  0  0  0
  -28.7354  -12.2584   21.4603 H   0  0  0  0  0  0
  -28.4033  -13.9475   21.7624 H   0  0  0  0  0  0
  -25.2767   -9.5700   22.4760 H   0  0  0  0  0  0
  -24.0007   -7.4641   22.7480 H   0  0  0  0  0  0
  -21.0848   -8.8758   19.8946 H   0  0  0  0  0  0
  -22.3695  -10.9658   19.6154 H   0  0  0  0  0  0
  -21.2012   -7.6150   23.9705 H   0  0  0  0  0  0
  -21.1478   -6.0522   25.9071 H   0  0  0  0  0  0
  -22.0602   -2.7603   23.2838 H   0  0  0  0  0  0
  -22.4086  -11.9843   22.4784 H   0  0  0  0  0  0
  -21.1073  -13.1196   22.2619 H   0  0  0  0  0  0
  -24.6465  -15.8454   20.5312 H   0  0  0  0  0  0
  -26.2637  -15.6402   20.0902 H   0  0  0  0  0  0
  -26.7251  -32.5368   23.1050 H   0  0  0  0  0  0
  -25.0187  -33.9659   25.0452 H   0  0  0  0  0  0
  -22.7388  -31.2966   21.3901 H   0  0  0  0  0  0
  -23.3765  -35.9572   23.3297 H   0  0  0  0  0  0
  -24.3581  -36.8869   22.2059 H   0  0  0  0  0  0
  -23.7217  -37.6448   23.6659 H   0  0  0  0  0  0
  -26.1319  -31.5056   20.6142 H   0  0  0  0  0  0
  -26.8648  -30.7982   22.0203 H   0  0  0  0  0  0
  -28.1222  -28.8520   21.2566 H   0  0  0  0  0  0
  -25.9646  -25.8941   18.9777 H   0  0  0  0  0  0
  -23.9851  -27.3238   18.9621 H   0  0  0  0  0  0
  -23.7897  -30.5858   19.4011 H   0  0  0  0  0  0
  -22.7808  -29.2441   19.8460 H   0  0  0  0  0  0
  -25.1301  -36.1890   25.0832 H   0  0  0  0  0  0
  -20.9997  -28.3282   24.1366 H   0  0  0  0  0  0
  -20.5674  -26.2323   23.3607 H   0  0  0  0  0  0
  -21.6643  -26.7437   22.1194 H   0  0  0  0  0  0
  -19.6916  -25.6292   21.1249 H   0  0  0  0  0  0
  -19.6711  -27.3190   20.6734 H   0  0  0  0  0  0
  -17.4217  -26.6695   21.4004 H   0  0  0  0  0  0
  -18.0332  -26.0083   22.9005 H   0  0  0  0  0  0
  -19.7946  -30.7287   24.2234 H   0  0  0  0  0  0
  -17.5026  -31.6271   24.5161 H   0  0  0  0  0  0
  -15.5356  -30.2984   23.7686 H   0  0  0  0  0  0
  -15.8673  -28.0818   22.7099 H   0  0  0  0  0  0
  -24.5998  -30.6980   25.7752 H   0  0  0  0  0  0
  -24.8888  -32.2851   26.4794 H   0  0  0  0  0  0
  -25.8094  -30.8940   27.0230 H   0  0  0  0  0  0
  -26.3026  -29.6695   24.1256 H   0  0  0  0  0  0
  -27.4095  -29.7278   25.4773 H   0  0  0  0  0  0
  -27.8901  -30.4257   23.9503 H   0  0  0  0  0  0
  -27.2733  -33.3656   26.1984 H   0  0  0  0  0  0
  -28.3948  -32.6775   25.0327 H   0  0  0  0  0  0
  -28.0715  -31.8467   26.5459 H   0  0  0  0  0  0
  -28.2588  -38.0084   24.7520 H   0  0  0  0  0  0
  -28.1064  -36.2612   24.6306 H   0  0  0  0  0  0
  -27.2287  -37.1434   25.8874 H   0  0  0  0  0  0
  -20.9443  -29.8769   21.6817 H   0  0  0  0  0  0
  -26.0154  -38.2828   24.1428 H   0  0  0  0  0  0
  -33.1178  -19.3558   19.9352 H   0  0  0  0  0  0
  -31.5987  -21.2338   20.0999 H   0  0  0  0  0  0
  -32.4111  -17.0777   20.1616 H   0  0  0  0  0  0
  -25.9318  -23.9067   22.6463 H   0  0  0  0  0  0
  -25.7096  -22.1057   22.8950 H   0  0  0  0  0  0
  -26.8704  -25.1962   21.3501 H   0  0  0  0  0  0
  -26.9303  -20.6826   20.6549 H   0  0  0  0  0  0
  -27.7759  -20.6444   22.2198 H   0  0  0  0  0  0
  -28.9145  -15.8786   20.7934 H   0  0  0  0  0  0
  1 25  1  0  0  0
  1 30  2  0  0  0
  1 84  1  0  0  0
  2  3  1  0  0  0
  2 25  1  0  0  0
  2 87  1  0  0  0
  2 88  1  0  0  0
  3  4  1  0  0  0
  3 89  1  0  0  0
  3 90  1  0  0  0
  4  5  1  0  0  0
  4 91  1  0  0  0
  4 92  1  0  0  0
  5  6  1  0  0  0
  5 26  1  0  0  0
  5 93  1  0  0  0
  6 25  1  0  0  0
  6 94  1  0  0  0
  6 95  1  0  0  0
  7  8  2  0  0  0
  7 26  1  0  0  0
  7 29  1  0  0  0
  8  9  1  0  0  0
  8 22  1  0  0  0
  9 10  1  0  0  0
  9 27  2  0  0  0
 10 11  2  0  0  0
 10 15  1  0  0  0
 11 12  1  0  0  0
 11 96  1  0  0  0
 12 13  2  0  0  0
 12 97  1  0  0  0
 13 14  1  0  0  0
 13 31  1  0  0  0
 14 15  2  0  0  0
 14 98  1  0  0  0
 15 99  1  0  0  0
 16 17  2  0  0  0
 16 21  1  0  0  0
 16 31  1  0  0  0
 17 18  1  0  0  0
 17100  1  0  0  0
 18 19  2  0  0  0
 18101  1  0  0  0
 19 20  1  0  0  0
 19 24  1  0  0  0
 20 21  2  0  0  0
 20102  1  0  0  0
 21 23  1  0  0  0
 22 28  1  0  0  0
 22 32  2  0  0  0
 26 27  1  0  0  0
 28103  1  0  0  0
 28104  1  0  0  0
 29105  1  0  0  0
 29106  1  0  0  0
 33 34  1  0  0  0
 33 66  1  0  0  0
 33 70  2  0  0  0
 34 36  1  0  0  0
 34 59  1  0  0  0
 34107  1  0  0  0
 35 44  2  0  0  0
 35 45  1  0  0  0
 35 68  1  0  0  0
 36 56  1  0  0  0
 36108  1  0  0  0
 37 39  1  0  0  0
 37 47  1  0  0  0
 37 66  1  0  0  0
 37109  1  0  0  0
 38 43  2  0  0  0
 38 46  1  0  0  0
 38 47  1  0  0  0
 39 64  1  0  0  0
 39 67  2  0  0  0
 40 52  1  0  0  0
 40 53  2  0  0  0
 40 58  1  0  0  0
 41110  1  0  0  0
 41111  1  0  0  0
 41112  1  0  0  0
 41 48  1  0  0  0
 42 43  1  0  0  0
 42 66  1  0  0  0
 42113  1  0  0  0
 42114  1  0  0  0
 43 44  1  0  0  0
 44115  1  0  0  0
 45 46  2  0  0  0
 45116  1  0  0  0
 46117  1  0  0  0
 47118  1  0  0  0
 47119  1  0  0  0
 48 56  1  0  0  0
 48 65  1  0  0  0
 48120  1  0  0  0
 49 50  1  0  0  0
 49 53  1  0  0  0
 49 64  1  0  0  0
 49121  1  0  0  0
 50 51  1  0  0  0
 50122  1  0  0  0
 50123  1  0  0  0
 51 52  1  0  0  0
 51124  1  0  0  0
 51125  1  0  0  0
 52126  1  0  0  0
 52127  1  0  0  0
 53 54  1  0  0  0
 54 55  2  0  0  0
 54128  1  0  0  0
 55 57  1  0  0  0
 55129  1  0  0  0
 56 69  2  0  0  0
 57 58  2  0  0  0
 57130  1  0  0  0
 58131  1  0  0  0
 59 60  1  0  0  0
 59 61  1  0  0  0
 59 62  1  0  0  0
 60132  1  0  0  0
 60133  1  0  0  0
 60134  1  0  0  0
 61135  1  0  0  0
 61136  1  0  0  0
 61137  1  0  0  0
 62138  1  0  0  0
 62139  1  0  0  0
 62140  1  0  0  0
 63 65  1  0  0  0
 63141  1  0  0  0
 63142  1  0  0  0
 63143  1  0  0  0
 64144  1  0  0  0
 65145  1  0  0  0
 68 81  1  0  0  0
 71 72  2  0  0  0
 71 73  1  0  0  0
 71146  1  0  0  0
 72 74  1  0  0  0
 72147  1  0  0  0
 73 75  2  0  0  0
 73148  1  0  0  0
 74 76  2  0  0  0
 74 83  1  0  0  0
 75 76  1  0  0  0
 75 84  1  0  0  0
 76 86  1  0  0  0
 77 78  1  0  0  0
 77 79  1  0  0  0
 77 81  2  0  0  0
 78 80  2  0  0  0
 78 82  1  0  0  0
 79 83  1  0  0  0
 79 85  2  0  0  0
 80149  1  0  0  0
 80150  1  0  0  0
 81151  1  0  0  0
 82 83  1  0  0  0
 82152  1  0  0  0
 82153  1  0  0  0
 84154  1  0  0  0
M  ISO  4   1 100  68 101  81 101  84 100
M  END
> <chiral flag>
0

> <version>
0

> <s_m_source_file>
/data/baiqing/PycharmProjects/Reinvent-master-3.2/result/LINK_invent/BTK/process_docking_weight1_custom_product_contain_oxygen_bond_distance_aromatic_linkinvent_7_9_3/rearranged_h_0079.sdf

> <i_m_source_file_index>
62

> <r_mmod_Potential_Energy-OPLS-2005>
448.382141113281

> <r_mmod_Stretch_Energy-OPLS-2005>
176.329833984375

> <r_mmod_Bend_Energy-OPLS-2005>
282.938720703125

> <r_mmod_Torsional_Energy-OPLS-2005>
259.542785644531

> <r_mmod_Improper_Torsional_Energy-OPLS-2005>
4.8592734336853

> <r_mmod_Van_der_Waal_Energy-OPLS-2005>
151.798980712891

> <r_mmod_Electrostatic_Energy-OPLS-2005>
-356.013366699219

> <r_mmod_Solvation_Energy-OPLS-2005>
-205.123474121094

> <b_mmod_Minimization_Converged-OPLS-2005>
0

> <r_mmod_RMS_Derivative-OPLS-2005>
1.30329775810242

$$$$
62
                    3D
 Structure written by MMmdl.
162171  0  0  1  0            999 V2000
  -30.6685  -14.5443   20.5104 C   0  0  0  0  0  0
  -30.4248  -12.3344   19.4454 C   0  0  0  0  0  0
  -29.5008  -12.5045   18.2206 C   0  0  0  0  0  0
  -28.0219  -12.3639   18.6289 C   0  0  0  0  0  0
  -27.6584  -13.2176   19.8727 C   0  0  2  0  0  0
  -28.7000  -13.0384   21.0010 C   0  0  0  0  0  0
  -25.2562  -13.8189   20.5672 C   0  0  0  0  0  0
  -24.1823  -13.0453   20.9160 C   0  0  0  0  0  0
  -24.6387  -11.6926   20.8722 C   0  0  0  0  0  0
  -23.9059  -10.4304   21.0388 C   0  0  0  0  0  0
  -24.3614   -9.4226   21.9173 C   0  0  0  0  0  0
  -23.6292   -8.2261   22.0753 C   0  0  0  0  0  0
  -22.4274   -8.0285   21.3545 C   0  0  0  0  0  0
  -21.9901   -9.0256   20.4654 C   0  0  0  0  0  0
  -22.7224  -10.2131   20.3054 C   0  0  0  0  0  0
  -21.6860   -6.0725   22.5264 C   0  0  0  0  0  0
  -21.4020   -6.5626   23.8190 C   0  0  0  0  0  0
  -21.3659   -5.6780   24.9155 C   0  0  0  0  0  0
  -21.6054   -4.3045   24.7214 C   0  0  0  0  0  0
  -21.8824   -3.8135   23.4334 C   0  0  0  0  0  0
  -21.9202   -4.6956   22.3389 C   0  0  0  0  0  0
  -22.7849  -13.5253   21.1830 C   0  0  0  0  0  0
  -22.1673   -4.2139   21.0973 F   0  0  0  0  0  0
  -21.5638   -3.4539   25.7732 F   0  0  0  0  0  0
  -30.0277  -13.3421   20.4464 N   0  0  0  0  0  0
  -26.3006  -12.9377   20.3351 N   0  0  0  0  0  0
  -25.9322  -11.6525   20.5766 N   0  0  0  0  0  0
  -22.0490  -12.8253   22.0391 N   0  0  0  0  0  0
  -25.4274  -15.1909   20.4082 N   0  0  0  0  0  0
  -31.8197  -14.6973   20.0905 O   0  0  0  0  0  0
  -21.6657   -6.8874   21.4223 O   0  0  0  0  0  0
  -22.3536  -14.5557   20.6673 O   0  0  0  0  0  0
  -24.6174  -31.8651   23.2077 C   0  0  0  0  0  0
  -25.9048  -32.4809   23.8392 C   0  0  1  0  0  0
  -27.2356  -27.3970   20.1164 C   0  0  0  0  0  0
  -25.5889  -33.8607   24.2323 N   0  0  0  0  0  0
  -23.4096  -30.4860   21.5483 C   0  0  2  0  0  0
  -24.8613  -28.9488   20.1140 C   0  0  0  0  0  0
  -22.7441  -29.4631   22.4976 C   0  0  0  0  0  0
  -18.0271  -28.1386   22.8493 C   0  0  0  0  0  0
  -24.1483  -36.7315   23.2638 C   0  0  0  0  0  0
  -25.9410  -30.8209   21.3673 C   0  0  0  0  0  0
  -26.0216  -29.4513   20.7181 C   0  0  0  0  0  0
  -27.2139  -28.6825   20.7200 C   0  0  0  0  0  0
  -26.0639  -26.9247   19.4949 C   0  0  0  0  0  0
  -24.8785  -27.6859   19.4969 C   0  0  0  0  0  0
  -23.6226  -29.8175   20.1635 C   0  0  0  0  0  0
  -25.4104  -36.3112   24.0340 C   0  0  1  0  0  0
  -20.5867  -28.3670   23.1318 C   0  0  2  0  0  0
  -20.6761  -26.9400   22.5425 C   0  0  0  0  0  0
  -19.5740  -26.6385   21.5220 C   0  0  0  0  0  0
  -18.1916  -26.7932   22.1626 C   0  0  0  0  0  0
  -19.1523  -28.8846   23.2900 C   0  0  0  0  0  0
  -18.9449  -30.1453   23.8912 C   0  0  0  0  0  0
  -17.6451  -30.6589   24.0569 C   0  0  0  0  0  0
  -25.9033  -34.9468   23.5137 C   0  0  0  0  0  0
  -16.5340  -29.9097   23.6325 C   0  0  0  0  0  0
  -16.7260  -28.6513   23.0346 C   0  0  0  0  0  0
  -26.4466  -31.6591   25.0726 C   0  0  0  0  0  0
  -25.3724  -31.3694   26.1473 C   0  0  0  0  0  0
  -27.0299  -30.3029   24.6109 C   0  0  0  0  0  0
  -27.6053  -32.4303   25.7481 C   0  0  0  0  0  0
  -27.5582  -37.1815   24.8463 C   0  0  0  0  0  0
  -21.4157  -29.3033   22.3727 N   0  0  0  0  0  0
  -26.4293  -37.3796   23.9408 N   0  0  0  0  0  0
  -24.6744  -31.0726   22.0994 N   0  0  0  0  0  0
  -23.4195  -28.8168   23.3025 O   0  0  0  0  0  0
  -28.3339  -26.5529   20.1177 O   0  0  0  0  0  0
  -26.5604  -34.8923   22.4705 O   0  0  0  0  0  0
  -23.5353  -32.1410   23.7445 O   0  0  0  0  0  0
  -29.6146  -17.9998   17.9970 C   0  0  0  0  0  0
  -29.5157  -19.2468   18.6379 C   0  0  0  0  0  0
  -29.7727  -16.8221   18.7474 C   0  0  0  0  0  0
  -29.7156  -18.1383   20.8015 C   0  0  0  0  0  0
  -29.5760  -19.3471   20.0463 C   0  0  0  0  0  0
  -29.8323  -16.8626   20.1598 C   0  0  0  0  0  0
  -29.1526  -23.5541   21.0536 C   0  0  0  0  0  0
  -28.0987  -22.7022   21.1198 C   0  0  0  0  0  0
  -30.4048  -23.0266   20.5030 C   0  0  0  0  0  0
  -31.4282  -23.8559   20.2277 C   0  0  0  0  0  0
  -29.1266  -24.8622   21.7426 C   0  0  0  0  0  0
  -28.7725  -26.1170   21.3497 C   0  0  0  0  0  0
  -28.1693  -21.2432   20.6318 C   0  0  0  0  0  0
  -30.6245  -21.5213   20.2872 C   0  0  0  0  0  0
  -26.7657  -23.0586   21.7629 C   0  0  0  0  0  0
  -29.5072  -20.6346   20.6505 N   0  0  0  0  0  0
  -29.9247  -15.6163   20.8895 N   0  0  0  0  0  0
  -31.4692  -12.4328   19.1438 H   0  0  0  0  0  0
  -30.3299  -11.3309   19.8622 H   0  0  0  0  0  0
  -29.7451  -11.7668   17.4554 H   0  0  0  0  0  0
  -29.6646  -13.4821   17.7649 H   0  0  0  0  0  0
  -27.8346  -11.3099   18.8375 H   0  0  0  0  0  0
  -27.3756  -12.6284   17.7912 H   0  0  0  0  0  0
  -27.6899  -14.2598   19.5530 H   0  0  0  0  0  0
  -28.6828  -12.0141   21.3751 H   0  0  0  0  0  0
  -28.4609  -13.6714   21.8566 H   0  0  0  0  0  0
  -25.2754   -9.5721   22.4743 H   0  0  0  0  0  0
  -24.0011   -7.4666   22.7475 H   0  0  0  0  0  0
  -21.0826   -8.8763   19.8967 H   0  0  0  0  0  0
  -22.3668  -10.9666   19.6172 H   0  0  0  0  0  0
  -21.2007   -7.6132   23.9691 H   0  0  0  0  0  0
  -21.1478   -6.0511   25.9054 H   0  0  0  0  0  0
  -22.0603   -2.7597   23.2836 H   0  0  0  0  0  0
  -22.4093  -11.9929   22.4812 H   0  0  0  0  0  0
  -21.1103  -13.1271   22.2568 H   0  0  0  0  0  0
  -24.6616  -15.8475   20.5164 H   0  0  0  0  0  0
  -26.2800  -15.6281   20.0823 H   0  0  0  0  0  0
  -26.7124  -32.5520   23.1162 H   0  0  0  0  0  0
  -25.0030  -33.9759   25.0463 H   0  0  0  0  0  0
  -22.7002  -31.3035   21.4065 H   0  0  0  0  0  0
  -23.3742  -35.9653   23.3314 H   0  0  0  0  0  0
  -24.3578  -36.8918   22.2051 H   0  0  0  0  0  0
  -23.7239  -37.6525   23.6644 H   0  0  0  0  0  0
  -26.0556  -31.5829   20.5951 H   0  0  0  0  0  0
  -26.8279  -30.8793   21.9865 H   0  0  0  0  0  0
  -28.1062  -29.0660   21.1949 H   0  0  0  0  0  0
  -26.0680  -25.9481   19.0321 H   0  0  0  0  0  0
  -23.9880  -27.2924   19.0277 H   0  0  0  0  0  0
  -23.7336  -30.5921   19.4041 H   0  0  0  0  0  0
  -22.7462  -29.2384   19.8662 H   0  0  0  0  0  0
  -25.1276  -36.1989   25.0833 H   0  0  0  0  0  0
  -20.9945  -28.3230   24.1442 H   0  0  0  0  0  0
  -20.5661  -26.2267   23.3610 H   0  0  0  0  0  0
  -21.6635  -26.7443   22.1221 H   0  0  0  0  0  0
  -19.6898  -25.6298   21.1243 H   0  0  0  0  0  0
  -19.6681  -27.3201   20.6756 H   0  0  0  0  0  0
  -17.4184  -26.6679   21.4028 H   0  0  0  0  0  0
  -18.0312  -26.0075   22.9022 H   0  0  0  0  0  0
  -19.7924  -30.7269   24.2284 H   0  0  0  0  0  0
  -17.5005  -31.6267   24.5176 H   0  0  0  0  0  0
  -15.5344  -30.3004   23.7647 H   0  0  0  0  0  0
  -15.8655  -28.0843   22.7054 H   0  0  0  0  0  0
  -24.5904  -30.7032   25.7810 H   0  0  0  0  0  0
  -24.8898  -32.2839   26.4928 H   0  0  0  0  0  0
  -25.8070  -30.8860   27.0232 H   0  0  0  0  0  0
  -26.2851  -29.6795   24.1145 H   0  0  0  0  0  0
  -27.4050  -29.7257   25.4574 H   0  0  0  0  0  0
  -27.8697  -30.4348   23.9280 H   0  0  0  0  0  0
  -27.2697  -33.3604   26.2081 H   0  0  0  0  0  0
  -28.3851  -32.6857   25.0291 H   0  0  0  0  0  0
  -28.0738  -31.8404   26.5373 H   0  0  0  0  0  0
  -28.2612  -38.0099   24.7512 H   0  0  0  0  0  0
  -28.1065  -36.2638   24.6290 H   0  0  0  0  0  0
  -27.2303  -37.1478   25.8865 H   0  0  0  0  0  0
  -20.9322  -29.8765   21.6959 H   0  0  0  0  0  0
  -26.0187  -38.2877   24.1401 H   0  0  0  0  0  0
  -29.5651  -17.9469   16.9191 H   0  0  0  0  0  0
  -29.3973  -20.1323   18.0291 H   0  0  0  0  0  0
  -29.8310  -15.8825   18.2162 H   0  0  0  0  0  0
  -29.7486  -18.1938   21.8806 H   0  0  0  0  0  0
  -31.3614  -24.9248   20.3660 H   0  0  0  0  0  0
  -32.3622  -23.4718   19.8443 H   0  0  0  0  0  0
  -29.4459  -24.8063   22.7735 H   0  0  0  0  0  0
  -28.8269  -26.9361   22.0540 H   0  0  0  0  0  0
  -27.7314  -21.1892   19.6336 H   0  0  0  0  0  0
  -27.5320  -20.6384   21.2793 H   0  0  0  0  0  0
  -31.4910  -21.2236   20.8805 H   0  0  0  0  0  0
  -30.9114  -21.3800   19.2438 H   0  0  0  0  0  0
  -26.6777  -24.1122   22.0257 H   0  0  0  0  0  0
  -26.6252  -22.4758   22.6739 H   0  0  0  0  0  0
  -25.9469  -22.8258   21.0822 H   0  0  0  0  0  0
  -29.1283  -15.4005   21.4706 H   0  0  0  0  0  0
  1 25  1  0  0  0
  1 30  2  0  0  0
  1 87  1  0  0  0
  2  3  1  0  0  0
  2 25  1  0  0  0
  2 88  1  0  0  0
  2 89  1  0  0  0
  3  4  1  0  0  0
  3 90  1  0  0  0
  3 91  1  0  0  0
  4  5  1  0  0  0
  4 92  1  0  0  0
  4 93  1  0  0  0
  5  6  1  0  0  0
  5 26  1  0  0  0
  5 94  1  0  0  0
  6 25  1  0  0  0
  6 95  1  0  0  0
  6 96  1  0  0  0
  7  8  2  0  0  0
  7 26  1  0  0  0
  7 29  1  0  0  0
  8  9  1  0  0  0
  8 22  1  0  0  0
  9 10  1  0  0  0
  9 27  2  0  0  0
 10 11  2  0  0  0
 10 15  1  0  0  0
 11 12  1  0  0  0
 11 97  1  0  0  0
 12 13  2  0  0  0
 12 98  1  0  0  0
 13 14  1  0  0  0
 13 31  1  0  0  0
 14 15  2  0  0  0
 14 99  1  0  0  0
 15100  1  0  0  0
 16 17  2  0  0  0
 16 21  1  0  0  0
 16 31  1  0  0  0
 17 18  1  0  0  0
 17101  1  0  0  0
 18 19  2  0  0  0
 18102  1  0  0  0
 19 20  1  0  0  0
 19 24  1  0  0  0
 20 21  2  0  0  0
 20103  1  0  0  0
 21 23  1  0  0  0
 22 28  1  0  0  0
 22 32  2  0  0  0
 26 27  1  0  0  0
 28104  1  0  0  0
 28105  1  0  0  0
 29106  1  0  0  0
 29107  1  0  0  0
 33 34  1  0  0  0
 33 66  1  0  0  0
 33 70  2  0  0  0
 34 36  1  0  0  0
 34 59  1  0  0  0
 34108  1  0  0  0
 35 44  2  0  0  0
 35 45  1  0  0  0
 35 68  1  0  0  0
 36 56  1  0  0  0
 36109  1  0  0  0
 37 39  1  0  0  0
 37 47  1  0  0  0
 37 66  1  0  0  0
 37110  1  0  0  0
 38 43  2  0  0  0
 38 46  1  0  0  0
 38 47  1  0  0  0
 39 64  1  0  0  0
 39 67  2  0  0  0
 40 52  1  0  0  0
 40 53  2  0  0  0
 40 58  1  0  0  0
 41111  1  0  0  0
 41112  1  0  0  0
 41113  1  0  0  0
 41 48  1  0  0  0
 42 43  1  0  0  0
 42 66  1  0  0  0
 42114  1  0  0  0
 42115  1  0  0  0
 43 44  1  0  0  0
 44116  1  0  0  0
 45 46  2  0  0  0
 45117  1  0  0  0
 46118  1  0  0  0
 47119  1  0  0  0
 47120  1  0  0  0
 48 56  1  0  0  0
 48 65  1  0  0  0
 48121  1  0  0  0
 49 50  1  0  0  0
 49 53  1  0  0  0
 49 64  1  0  0  0
 49122  1  0  0  0
 50 51  1  0  0  0
 50123  1  0  0  0
 50124  1  0  0  0
 51 52  1  0  0  0
 51125  1  0  0  0
 51126  1  0  0  0
 52127  1  0  0  0
 52128  1  0  0  0
 53 54  1  0  0  0
 54 55  2  0  0  0
 54129  1  0  0  0
 55 57  1  0  0  0
 55130  1  0  0  0
 56 69  2  0  0  0
 57 58  2  0  0  0
 57131  1  0  0  0
 58132  1  0  0  0
 59 60  1  0  0  0
 59 61  1  0  0  0
 59 62  1  0  0  0
 60133  1  0  0  0
 60134  1  0  0  0
 60135  1  0  0  0
 61136  1  0  0  0
 61137  1  0  0  0
 61138  1  0  0  0
 62139  1  0  0  0
 62140  1  0  0  0
 62141  1  0  0  0
 63 65  1  0  0  0
 63142  1  0  0  0
 63143  1  0  0  0
 63144  1  0  0  0
 64145  1  0  0  0
 65146  1  0  0  0
 68 82  1  0  0  0
 71 72  2  0  0  0
 71 73  1  0  0  0
 71147  1  0  0  0
 72 75  1  0  0  0
 72148  1  0  0  0
 73 76  2  0  0  0
 73149  1  0  0  0
 74 75  2  0  0  0
 74 76  1  0  0  0
 74150  1  0  0  0
 75 86  1  0  0  0
 76 87  1  0  0  0
 77 78  2  0  0  0
 77 79  1  0  0  0
 77 81  1  0  0  0
 78 83  1  0  0  0
 78 85  1  0  0  0
 79 80  2  0  0  0
 79 84  1  0  0  0
 80151  1  0  0  0
 80152  1  0  0  0
 81 82  2  0  0  0
 81153  1  0  0  0
 82154  1  0  0  0
 83 86  1  0  0  0
 83155  1  0  0  0
 83156  1  0  0  0
 84 86  1  0  0  0
 84157  1  0  0  0
 84158  1  0  0  0
 85159  1  0  0  0
 85160  1  0  0  0
 85161  1  0  0  0
 87162  1  0  0  0
M  ISO  4   1 100  68 101  82 101  87 100
M  END
> <chiral flag>
0

> <version>
0

> <s_m_source_file>
/data/baiqing/PycharmProjects/Reinvent-master-3.2/result/LINK_invent/BTK/process_docking_weight1_custom_product_contain_oxygen_bond_distance_aromatic_linkinvent_7_9_3/rearranged_h_0079.sdf

> <i_m_source_file_index>
63

> <r_mmod_Potential_Energy-OPLS-2005>
124.12427520752

> <r_mmod_Stretch_Energy-OPLS-2005>
51.5008087158203

> <r_mmod_Bend_Energy-OPLS-2005>
126.453796386719

> <r_mmod_Torsional_Energy-OPLS-2005>
335.741271972656

> <r_mmod_Improper_Torsional_Energy-OPLS-2005>
10.290472984314

> <r_mmod_Van_der_Waal_Energy-OPLS-2005>
155.723068237305

> <r_mmod_Electrostatic_Energy-OPLS-2005>
-361.028594970703

> <r_mmod_Solvation_Energy-OPLS-2005>
-219.007690429688

> <b_mmod_Minimization_Converged-OPLS-2005>
0

> <r_mmod_RMS_Derivative-OPLS-2005>
1.48280131816864

$$$$
63
                    3D
 Structure written by MMmdl.
159167  0  0  1  0            999 V2000
  -30.7083  -14.5394   20.4967 C   0  0  0  0  0  0
  -30.4124  -12.3302   19.4435 C   0  0  0  0  0  0
  -29.4949  -12.4937   18.2159 C   0  0  0  0  0  0
  -28.0165  -12.3543   18.6263 C   0  0  0  0  0  0
  -27.6518  -13.2230   19.8604 C   0  0  2  0  0  0
  -28.6976  -13.0789   20.9898 C   0  0  0  0  0  0
  -25.2552  -13.8191   20.5701 C   0  0  0  0  0  0
  -24.1825  -13.0438   20.9191 C   0  0  0  0  0  0
  -24.6400  -11.6914   20.8740 C   0  0  0  0  0  0
  -23.9064  -10.4292   21.0401 C   0  0  0  0  0  0
  -24.3615   -9.4212   21.9179 C   0  0  0  0  0  0
  -23.6297   -8.2247   22.0746 C   0  0  0  0  0  0
  -22.4282   -8.0281   21.3535 C   0  0  0  0  0  0
  -21.9911   -9.0253   20.4641 C   0  0  0  0  0  0
  -22.7237  -10.2130   20.3047 C   0  0  0  0  0  0
  -21.6856   -6.0735   22.5282 C   0  0  0  0  0  0
  -21.4003   -6.5635   23.8215 C   0  0  0  0  0  0
  -21.3650   -5.6787   24.9175 C   0  0  0  0  0  0
  -21.6053   -4.3052   24.7221 C   0  0  0  0  0  0
  -21.8823   -3.8141   23.4340 C   0  0  0  0  0  0
  -21.9194   -4.6960   22.3398 C   0  0  0  0  0  0
  -22.7848  -13.5227   21.1846 C   0  0  0  0  0  0
  -22.1669   -4.2151   21.0974 F   0  0  0  0  0  0
  -21.5625   -3.4531   25.7729 F   0  0  0  0  0  0
  -30.0213  -13.3640   20.4192 N   0  0  0  0  0  0
  -26.2990  -12.9394   20.3331 N   0  0  0  0  0  0
  -25.9332  -11.6536   20.5756 N   0  0  0  0  0  0
  -22.0485  -12.8221   22.0401 N   0  0  0  0  0  0
  -25.4255  -15.1916   20.4115 N   0  0  0  0  0  0
  -31.8883  -14.5978   20.1509 O   0  0  0  0  0  0
  -21.6644   -6.8881   21.4243 O   0  0  0  0  0  0
  -22.3534  -14.5540   20.6707 O   0  0  0  0  0  0
  -24.6184  -31.8650   23.2085 C   0  0  0  0  0  0
  -25.9070  -32.4801   23.8390 C   0  0  1  0  0  0
  -27.2270  -27.4042   20.1074 C   0  0  0  0  0  0
  -25.5901  -33.8597   24.2328 N   0  0  0  0  0  0
  -23.4081  -30.4898   21.5485 C   0  0  2  0  0  0
  -24.8564  -28.9548   20.1114 C   0  0  0  0  0  0
  -22.7436  -29.4647   22.4968 C   0  0  0  0  0  0
  -18.0265  -28.1378   22.8485 C   0  0  0  0  0  0
  -24.1478  -36.7287   23.2646 C   0  0  0  0  0  0
  -25.9415  -30.8234   21.3656 C   0  0  0  0  0  0
  -26.0204  -29.4576   20.7088 C   0  0  0  0  0  0
  -27.2138  -28.6914   20.7007 C   0  0  0  0  0  0
  -26.0487  -26.9275   19.4945 C   0  0  0  0  0  0
  -24.8671  -27.6901   19.4988 C   0  0  0  0  0  0
  -23.6191  -29.8241   20.1626 C   0  0  0  0  0  0
  -25.4099  -36.3099   24.0351 C   0  0  1  0  0  0
  -20.5860  -28.3664   23.1305 C   0  0  2  0  0  0
  -20.6740  -26.9396   22.5416 C   0  0  0  0  0  0
  -19.5732  -26.6390   21.5195 C   0  0  0  0  0  0
  -18.1910  -26.7932   22.1601 C   0  0  0  0  0  0
  -19.1517  -28.8836   23.2887 C   0  0  0  0  0  0
  -18.9448  -30.1432   23.8913 C   0  0  0  0  0  0
  -17.6455  -30.6585   24.0559 C   0  0  0  0  0  0
  -25.9037  -34.9463   23.5143 C   0  0  0  0  0  0
  -16.5342  -29.9091   23.6322 C   0  0  0  0  0  0
  -16.7256  -28.6500   23.0358 C   0  0  0  0  0  0
  -26.4478  -31.6585   25.0732 C   0  0  0  0  0  0
  -25.3743  -31.3681   26.1482 C   0  0  0  0  0  0
  -27.0300  -30.3024   24.6123 C   0  0  0  0  0  0
  -27.6072  -32.4287   25.7484 C   0  0  0  0  0  0
  -27.5580  -37.1785   24.8467 C   0  0  0  0  0  0
  -21.4162  -29.3021   22.3707 N   0  0  0  0  0  0
  -26.4271  -37.3797   23.9443 N   0  0  0  0  0  0
  -24.6745  -31.0733   22.0995 N   0  0  0  0  0  0
  -23.4192  -28.8191   23.3020 O   0  0  0  0  0  0
  -28.3337  -26.5757   20.1447 O   0  0  0  0  0  0
  -26.5602  -34.8924   22.4708 O   0  0  0  0  0  0
  -23.5360  -32.1403   23.7455 O   0  0  0  0  0  0
  -29.4564  -18.0931   21.0299 C   0  0  0  0  0  0
  -30.9720  -19.8342   20.2322 C   0  0  0  0  0  0
  -31.5192  -17.4798   19.9150 C   0  0  0  0  0  0
  -29.7539  -19.4833   20.8518 C   0  0  0  0  0  0
  -30.3342  -17.0623   20.5792 C   0  0  0  0  0  0
  -31.8502  -18.8402   19.7616 C   0  0  0  0  0  0
  -28.6942  -24.1715   20.4966 C   0  0  0  0  0  0
  -28.1376  -25.3727   20.8101 C   0  0  0  0  0  0
  -28.8423  -20.5712   21.4010 C   0  0  0  0  0  0
  -28.3646  -22.9769   21.2958 C   0  0  0  0  0  0
  -34.4094  -20.1648   21.3676 C   0  0  0  0  0  0
  -29.9918  -15.6611   20.7887 N   0  0  0  0  0  0
  -33.0569  -19.1778   19.1420 N   0  0  0  0  0  0
  -28.9537  -21.8245   20.8729 N   0  0  0  0  0  0
  -28.0388  -20.2573   22.2859 O   0  0  0  0  0  0
  -27.6139  -23.0292   22.2778 O   0  0  0  0  0  0
  -35.4294  -20.0614   18.8764 O   0  0  0  0  0  0
  -33.5124  -21.6900   19.3274 O   0  0  0  0  0  0
  -34.1829  -20.4049   19.5786 S   0  0  0  0  0  0
  -31.4602  -12.4013   19.1443 H   0  0  0  0  0  0
  -30.2964  -11.3382   19.8809 H   0  0  0  0  0  0
  -29.7435  -11.7526   17.4553 H   0  0  0  0  0  0
  -29.6625  -13.4686   17.7576 H   0  0  0  0  0  0
  -27.8362  -11.3018   18.8461 H   0  0  0  0  0  0
  -27.3676  -12.6028   17.7853 H   0  0  0  0  0  0
  -27.6724  -14.2587   19.5197 H   0  0  0  0  0  0
  -28.6834  -12.0690   21.4023 H   0  0  0  0  0  0
  -28.4669  -13.7476   21.8206 H   0  0  0  0  0  0
  -25.2756   -9.5693   22.4744 H   0  0  0  0  0  0
  -24.0007   -7.4639   22.7463 H   0  0  0  0  0  0
  -21.0843   -8.8774   19.8954 H   0  0  0  0  0  0
  -22.3701  -10.9659   19.6145 H   0  0  0  0  0  0
  -21.1992   -7.6140   23.9710 H   0  0  0  0  0  0
  -21.1469   -6.0513   25.9076 H   0  0  0  0  0  0
  -22.0608   -2.7604   23.2840 H   0  0  0  0  0  0
  -22.4078  -11.9867   22.4783 H   0  0  0  0  0  0
  -21.1102  -13.1263   22.2590 H   0  0  0  0  0  0
  -24.6583  -15.8470   20.5180 H   0  0  0  0  0  0
  -26.2754  -15.6297   20.0783 H   0  0  0  0  0  0
  -26.7150  -32.5507   23.1154 H   0  0  0  0  0  0
  -25.0043  -33.9746   25.0470 H   0  0  0  0  0  0
  -22.6967  -31.3065   21.4098 H   0  0  0  0  0  0
  -23.3757  -35.9598   23.3276 H   0  0  0  0  0  0
  -24.3588  -36.8924   22.2070 H   0  0  0  0  0  0
  -23.7193  -37.6468   23.6673 H   0  0  0  0  0  0
  -26.0596  -31.5896   20.5974 H   0  0  0  0  0  0
  -26.8280  -30.8732   21.9868 H   0  0  0  0  0  0
  -28.1105  -29.0694   21.1720 H   0  0  0  0  0  0
  -26.0419  -25.9505   19.0329 H   0  0  0  0  0  0
  -23.9724  -27.2949   19.0380 H   0  0  0  0  0  0
  -23.7325  -30.6005   19.4053 H   0  0  0  0  0  0
  -22.7414  -29.2471   19.8642 H   0  0  0  0  0  0
  -25.1259  -36.1954   25.0842 H   0  0  0  0  0  0
  -20.9946  -28.3233   24.1430 H   0  0  0  0  0  0
  -20.5601  -26.2282   23.3609 H   0  0  0  0  0  0
  -21.6618  -26.7411   22.1243 H   0  0  0  0  0  0
  -19.6893  -25.6307   21.1212 H   0  0  0  0  0  0
  -19.6689  -27.3204   20.6728 H   0  0  0  0  0  0
  -17.4188  -26.6691   21.3993 H   0  0  0  0  0  0
  -18.0307  -26.0065   22.8990 H   0  0  0  0  0  0
  -19.7927  -30.7216   24.2329 H   0  0  0  0  0  0
  -17.5023  -31.6273   24.5155 H   0  0  0  0  0  0
  -15.5343  -30.2993   23.7656 H   0  0  0  0  0  0
  -15.8653  -28.0817   22.7090 H   0  0  0  0  0  0
  -24.5957  -30.6969   25.7832 H   0  0  0  0  0  0
  -24.8877  -32.2814   26.4919 H   0  0  0  0  0  0
  -25.8123  -30.8888   27.0247 H   0  0  0  0  0  0
  -26.2835  -29.6784   24.1196 H   0  0  0  0  0  0
  -27.4065  -29.7271   25.4591 H   0  0  0  0  0  0
  -27.8682  -30.4315   23.9273 H   0  0  0  0  0  0
  -27.2740  -33.3598   26.2070 H   0  0  0  0  0  0
  -28.3882  -32.6806   25.0304 H   0  0  0  0  0  0
  -28.0741  -31.8394   26.5381 H   0  0  0  0  0  0
  -28.2573  -38.0109   24.7553 H   0  0  0  0  0  0
  -28.1085  -36.2634   24.6204 H   0  0  0  0  0  0
  -27.2319  -37.1357   25.8877 H   0  0  0  0  0  0
  -20.9343  -29.8736   21.6912 H   0  0  0  0  0  0
  -26.0146  -38.2860   24.1483 H   0  0  0  0  0  0
  -28.5408  -17.8188   21.5355 H   0  0  0  0  0  0
  -31.2440  -20.8727   20.1207 H   0  0  0  0  0  0
  -32.2252  -16.7711   19.5177 H   0  0  0  0  0  0
  -29.3704  -24.1042   19.6573 H   0  0  0  0  0  0
  -27.4547  -25.4895   21.6443 H   0  0  0  0  0  0
  -34.7333  -19.1444   21.5604 H   0  0  0  0  0  0
  -33.4753  -20.3572   21.8892 H   0  0  0  0  0  0
  -35.1691  -20.8580   21.7230 H   0  0  0  0  0  0
  -29.0542  -15.4805   21.1134 H   0  0  0  0  0  0
  -33.4961  -18.4276   18.6238 H   0  0  0  0  0  0
  -29.5724  -21.9029   20.0831 H   0  0  0  0  0  0
  1 25  1  0  0  0
  1 30  2  0  0  0
  1 82  1  0  0  0
  2  3  1  0  0  0
  2 25  1  0  0  0
  2 90  1  0  0  0
  2 91  1  0  0  0
  3  4  1  0  0  0
  3 92  1  0  0  0
  3 93  1  0  0  0
  4  5  1  0  0  0
  4 94  1  0  0  0
  4 95  1  0  0  0
  5  6  1  0  0  0
  5 26  1  0  0  0
  5 96  1  0  0  0
  6 25  1  0  0  0
  6 97  1  0  0  0
  6 98  1  0  0  0
  7  8  2  0  0  0
  7 26  1  0  0  0
  7 29  1  0  0  0
  8  9  1  0  0  0
  8 22  1  0  0  0
  9 10  1  0  0  0
  9 27  2  0  0  0
 10 11  2  0  0  0
 10 15  1  0  0  0
 11 12  1  0  0  0
 11 99  1  0  0  0
 12 13  2  0  0  0
 12100  1  0  0  0
 13 14  1  0  0  0
 13 31  1  0  0  0
 14 15  2  0  0  0
 14101  1  0  0  0
 15102  1  0  0  0
 16 17  2  0  0  0
 16 21  1  0  0  0
 16 31  1  0  0  0
 17 18  1  0  0  0
 17103  1  0  0  0
 18 19  2  0  0  0
 18104  1  0  0  0
 19 20  1  0  0  0
 19 24  1  0  0  0
 20 21  2  0  0  0
 20105  1  0  0  0
 21 23  1  0  0  0
 22 28  1  0  0  0
 22 32  2  0  0  0
 26 27  1  0  0  0
 28106  1  0  0  0
 28107  1  0  0  0
 29108  1  0  0  0
 29109  1  0  0  0
 33 34  1  0  0  0
 33 66  1  0  0  0
 33 70  2  0  0  0
 34 36  1  0  0  0
 34 59  1  0  0  0
 34110  1  0  0  0
 35 44  2  0  0  0
 35 45  1  0  0  0
 35 68  1  0  0  0
 36 56  1  0  0  0
 36111  1  0  0  0
 37 39  1  0  0  0
 37 47  1  0  0  0
 37 66  1  0  0  0
 37112  1  0  0  0
 38 43  2  0  0  0
 38 46  1  0  0  0
 38 47  1  0  0  0
 39 64  1  0  0  0
 39 67  2  0  0  0
 40 52  1  0  0  0
 40 53  2  0  0  0
 40 58  1  0  0  0
 41113  1  0  0  0
 41114  1  0  0  0
 41115  1  0  0  0
 41 48  1  0  0  0
 42 43  1  0  0  0
 42 66  1  0  0  0
 42116  1  0  0  0
 42117  1  0  0  0
 43 44  1  0  0  0
 44118  1  0  0  0
 45 46  2  0  0  0
 45119  1  0  0  0
 46120  1  0  0  0
 47121  1  0  0  0
 47122  1  0  0  0
 48 56  1  0  0  0
 48 65  1  0  0  0
 48123  1  0  0  0
 49 50  1  0  0  0
 49 53  1  0  0  0
 49 64  1  0  0  0
 49124  1  0  0  0
 50 51  1  0  0  0
 50125  1  0  0  0
 50126  1  0  0  0
 51 52  1  0  0  0
 51127  1  0  0  0
 51128  1  0  0  0
 52129  1  0  0  0
 52130  1  0  0  0
 53 54  1  0  0  0
 54 55  2  0  0  0
 54131  1  0  0  0
 55 57  1  0  0  0
 55132  1  0  0  0
 56 69  2  0  0  0
 57 58  2  0  0  0
 57133  1  0  0  0
 58134  1  0  0  0
 59 60  1  0  0  0
 59 61  1  0  0  0
 59 62  1  0  0  0
 60135  1  0  0  0
 60136  1  0  0  0
 60137  1  0  0  0
 61138  1  0  0  0
 61139  1  0  0  0
 61140  1  0  0  0
 62141  1  0  0  0
 62142  1  0  0  0
 62143  1  0  0  0
 63 65  1  0  0  0
 63144  1  0  0  0
 63145  1  0  0  0
 63146  1  0  0  0
 64147  1  0  0  0
 65148  1  0  0  0
 68 78  1  0  0  0
 71 74  2  0  0  0
 71 75  1  0  0  0
 71149  1  0  0  0
 72 74  1  0  0  0
 72 76  2  0  0  0
 72150  1  0  0  0
 73 75  2  0  0  0
 73 76  1  0  0  0
 73151  1  0  0  0
 74 79  1  0  0  0
 75 82  1  0  0  0
 76 83  1  0  0  0
 77 78  2  0  0  0
 77 80  1  0  0  0
 77152  1  0  0  0
 78153  1  0  0  0
 79 84  1  0  0  0
 79 85  2  0  0  0
 80 84  1  0  0  0
 80 86  2  0  0  0
 81154  1  0  0  0
 81155  1  0  0  0
 81156  1  0  0  0
 81 89  1  0  0  0
 82157  1  0  0  0
 83 89  1  0  0  0
 83158  1  0  0  0
 84159  1  0  0  0
 87 89  2  0  0  0
 88 89  2  0  0  0
M  ISO  4   1 100  68 101  78 101  82 100
M  END
> <chiral flag>
0

> <version>
0

> <s_m_source_file>
/data/baiqing/PycharmProjects/Reinvent-master-3.2/result/LINK_invent/BTK/process_docking_weight1_custom_product_contain_oxygen_bond_distance_aromatic_linkinvent_7_9_3/rearranged_h_0079.sdf

> <i_m_source_file_index>
64

> <r_mmod_Potential_Energy-OPLS-2005>
-436.049682617188

> <r_mmod_Stretch_Energy-OPLS-2005>
51.5873565673828

> <r_mmod_Bend_Energy-OPLS-2005>
110.269882202148

> <r_mmod_Torsional_Energy-OPLS-2005>
233.803375244141

> <r_mmod_Improper_Torsional_Energy-OPLS-2005>
5.93310022354126

> <r_mmod_Van_der_Waal_Energy-OPLS-2005>
161.182769775391

> <r_mmod_Electrostatic_Energy-OPLS-2005>
-728.431213378906

> <r_mmod_Solvation_Energy-OPLS-2005>
-298.316070556641

> <b_mmod_Minimization_Converged-OPLS-2005>
0

> <r_mmod_RMS_Derivative-OPLS-2005>
1.76327311992645

$$$$
64
                    3D
 Structure written by MMmdl.
157166  0  0  1  0            999 V2000
  -30.6732  -14.5040   20.5505 C   0  0  0  0  0  0
  -30.4274  -12.3176   19.4294 C   0  0  0  0  0  0
  -29.4997  -12.5018   18.2096 C   0  0  0  0  0  0
  -28.0186  -12.3654   18.6193 C   0  0  0  0  0  0
  -27.6601  -13.2083   19.8732 C   0  0  2  0  0  0
  -28.7009  -12.9956   20.9953 C   0  0  0  0  0  0
  -25.2579  -13.8169   20.5678 C   0  0  0  0  0  0
  -24.1830  -13.0433   20.9142 C   0  0  0  0  0  0
  -24.6387  -11.6904   20.8710 C   0  0  0  0  0  0
  -23.9052  -10.4291   21.0393 C   0  0  0  0  0  0
  -24.3611   -9.4210   21.9175 C   0  0  0  0  0  0
  -23.6285   -8.2250   22.0750 C   0  0  0  0  0  0
  -22.4268   -8.0284   21.3543 C   0  0  0  0  0  0
  -21.9894   -9.0258   20.4646 C   0  0  0  0  0  0
  -22.7222  -10.2136   20.3051 C   0  0  0  0  0  0
  -21.6859   -6.0733   22.5275 C   0  0  0  0  0  0
  -21.4023   -6.5637   23.8210 C   0  0  0  0  0  0
  -21.3655   -5.6789   24.9170 C   0  0  0  0  0  0
  -21.6043   -4.3052   24.7221 C   0  0  0  0  0  0
  -21.8821   -3.8141   23.4343 C   0  0  0  0  0  0
  -21.9194   -4.6959   22.3399 C   0  0  0  0  0  0
  -22.7853  -13.5239   21.1825 C   0  0  0  0  0  0
  -22.1661   -4.2144   21.0976 F   0  0  0  0  0  0
  -21.5622   -3.4538   25.7732 F   0  0  0  0  0  0
  -30.0292  -13.3087   20.4416 N   0  0  0  0  0  0
  -26.3015  -12.9336   20.3357 N   0  0  0  0  0  0
  -25.9317  -11.6491   20.5752 N   0  0  0  0  0  0
  -22.0500  -12.8247   22.0396 N   0  0  0  0  0  0
  -25.4283  -15.1893   20.4180 N   0  0  0  0  0  0
  -31.8168  -14.6796   20.1202 O   0  0  0  0  0  0
  -21.6641   -6.8876   21.4238 O   0  0  0  0  0  0
  -22.3529  -14.5546   20.6673 O   0  0  0  0  0  0
  -24.6169  -31.8657   23.2091 C   0  0  0  0  0  0
  -25.9054  -32.4808   23.8387 C   0  0  1  0  0  0
  -27.2312  -27.4072   20.0953 C   0  0  0  0  0  0
  -25.5901  -33.8607   24.2311 N   0  0  0  0  0  0
  -23.4055  -30.4902   21.5503 C   0  0  2  0  0  0
  -24.8490  -28.9525   20.1161 C   0  0  0  0  0  0
  -22.7418  -29.4647   22.4981 C   0  0  0  0  0  0
  -18.0276  -28.1382   22.8493 C   0  0  0  0  0  0
  -24.1485  -36.7308   23.2638 C   0  0  0  0  0  0
  -25.9380  -30.8227   21.3672 C   0  0  0  0  0  0
  -26.0123  -29.4568   20.7098 C   0  0  0  0  0  0
  -27.2044  -28.6931   20.6919 C   0  0  0  0  0  0
  -26.0413  -26.9189   19.5071 C   0  0  0  0  0  0
  -24.8599  -27.6841   19.5128 C   0  0  0  0  0  0
  -23.6136  -29.8237   20.1652 C   0  0  0  0  0  0
  -25.4104  -36.3099   24.0336 C   0  0  1  0  0  0
  -20.5868  -28.3667   23.1317 C   0  0  2  0  0  0
  -20.6768  -26.9400   22.5419 C   0  0  0  0  0  0
  -19.5745  -26.6384   21.5218 C   0  0  0  0  0  0
  -18.1923  -26.7926   22.1627 C   0  0  0  0  0  0
  -19.1527  -28.8838   23.2903 C   0  0  0  0  0  0
  -18.9454  -30.1444   23.8916 C   0  0  0  0  0  0
  -17.6453  -30.6583   24.0569 C   0  0  0  0  0  0
  -25.9035  -34.9467   23.5121 C   0  0  0  0  0  0
  -16.5345  -29.9087   23.6325 C   0  0  0  0  0  0
  -16.7267  -28.6506   23.0349 C   0  0  0  0  0  0
  -26.4471  -31.6605   25.0732 C   0  0  0  0  0  0
  -25.3733  -31.3754   26.1487 C   0  0  0  0  0  0
  -27.0301  -30.3034   24.6151 C   0  0  0  0  0  0
  -27.6041  -32.4342   25.7479 C   0  0  0  0  0  0
  -27.5588  -37.1794   24.8450 C   0  0  0  0  0  0
  -21.4144  -29.3030   22.3714 N   0  0  0  0  0  0
  -26.4284  -37.3790   23.9418 N   0  0  0  0  0  0
  -24.6718  -31.0743   22.0998 N   0  0  0  0  0  0
  -23.4182  -28.8190   23.3029 O   0  0  0  0  0  0
  -28.4127  -26.6825   20.1058 O   0  0  0  0  0  0
  -26.5599  -34.8923   22.4683 O   0  0  0  0  0  0
  -23.5357  -32.1421   23.7473 O   0  0  0  0  0  0
  -31.4727  -18.9594   20.7841 C   0  0  0  0  0  0
  -31.3573  -17.5613   20.9472 C   0  0  0  0  0  0
  -29.0836  -19.1449   20.4673 C   0  0  0  0  0  0
  -30.3471  -19.7924   20.5284 C   0  0  0  0  0  0
  -30.0993  -16.9292   20.8550 C   0  0  0  0  0  0
  -28.9651  -17.7411   20.6320 C   0  0  0  0  0  0
  -30.3389  -23.4897   19.9160 C   0  0  0  0  0  0
  -31.7327  -23.1613   19.8128 C   0  0  0  0  0  0
  -29.6258  -22.2405   20.2213 C   0  0  0  0  0  0
  -32.7345  -23.9819   19.4450 C   0  0  0  0  0  0
  -29.8267  -24.7400   19.7360 C   0  0  0  0  0  0
  -31.9174  -21.7196   20.1364 C   0  0  0  0  0  0
  -28.3990  -25.2732   19.7870 C   0  0  0  0  0  0
  -30.5475  -21.2214   20.3127 N   0  0  0  0  0  0
  -29.9106  -15.5170   21.0166 N   0  0  0  0  0  0
  -28.4057  -22.1227   20.3724 O   0  0  0  0  0  0
  -27.7446  -17.1565   20.5536 F   0  0  0  0  0  0
  -31.4716  -12.4241   19.1296 H   0  0  0  0  0  0
  -30.3359  -11.3085   19.8353 H   0  0  0  0  0  0
  -29.7413  -11.7675   17.4396 H   0  0  0  0  0  0
  -29.6693  -13.4818   17.7618 H   0  0  0  0  0  0
  -27.8251  -11.3102   18.8137 H   0  0  0  0  0  0
  -27.3729  -12.6418   17.7853 H   0  0  0  0  0  0
  -27.6981  -14.2553   19.5710 H   0  0  0  0  0  0
  -28.6818  -11.9600   21.3375 H   0  0  0  0  0  0
  -28.4614  -13.5958   21.8743 H   0  0  0  0  0  0
  -25.2765   -9.5686   22.4738 H   0  0  0  0  0  0
  -23.9994   -7.4646   22.7475 H   0  0  0  0  0  0
  -21.0821   -8.8779   19.8961 H   0  0  0  0  0  0
  -22.3681  -10.9673   19.6159 H   0  0  0  0  0  0
  -21.2027   -7.6149   23.9715 H   0  0  0  0  0  0
  -21.1469   -6.0517   25.9073 H   0  0  0  0  0  0
  -22.0604   -2.7602   23.2849 H   0  0  0  0  0  0
  -22.4123  -11.9915   22.4793 H   0  0  0  0  0  0
  -21.1128  -13.1292   22.2619 H   0  0  0  0  0  0
  -24.6650  -15.8412   20.5584 H   0  0  0  0  0  0
  -26.3030  -15.6546   20.1987 H   0  0  0  0  0  0
  -26.7128  -32.5499   23.1152 H   0  0  0  0  0  0
  -25.0044  -33.9762   25.0451 H   0  0  0  0  0  0
  -22.6960  -31.3084   21.4121 H   0  0  0  0  0  0
  -23.3742  -35.9644   23.3286 H   0  0  0  0  0  0
  -24.3584  -36.8934   22.2054 H   0  0  0  0  0  0
  -23.7239  -37.6511   23.6660 H   0  0  0  0  0  0
  -26.0624  -31.5911   20.6030 H   0  0  0  0  0  0
  -26.8215  -30.8675   21.9926 H   0  0  0  0  0  0
  -28.1035  -29.0820   21.1501 H   0  0  0  0  0  0
  -25.9964  -25.9484   19.0372 H   0  0  0  0  0  0
  -23.9641  -27.2879   19.0544 H   0  0  0  0  0  0
  -23.7264  -30.6001   19.4079 H   0  0  0  0  0  0
  -22.7358  -29.2484   19.8653 H   0  0  0  0  0  0
  -25.1276  -36.1957   25.0829 H   0  0  0  0  0  0
  -20.9964  -28.3241   24.1437 H   0  0  0  0  0  0
  -20.5677  -26.2272   23.3607 H   0  0  0  0  0  0
  -21.6638  -26.7447   22.1210 H   0  0  0  0  0  0
  -19.6905  -25.6300   21.1233 H   0  0  0  0  0  0
  -19.6687  -27.3209   20.6761 H   0  0  0  0  0  0
  -17.4194  -26.6680   21.4029 H   0  0  0  0  0  0
  -18.0320  -26.0071   22.9023 H   0  0  0  0  0  0
  -19.7925  -30.7258   24.2298 H   0  0  0  0  0  0
  -17.5006  -31.6262   24.5168 H   0  0  0  0  0  0
  -15.5346  -30.2997   23.7638 H   0  0  0  0  0  0
  -15.8666  -28.0827   22.7059 H   0  0  0  0  0  0
  -24.5864  -30.7146   25.7834 H   0  0  0  0  0  0
  -24.8986  -32.2939   26.4950 H   0  0  0  0  0  0
  -25.8074  -30.8900   27.0236 H   0  0  0  0  0  0
  -26.2866  -29.6797   24.1177 H   0  0  0  0  0  0
  -27.4013  -29.7276   25.4638 H   0  0  0  0  0  0
  -27.8725  -30.4327   23.9351 H   0  0  0  0  0  0
  -27.2639  -33.3613   26.2104 H   0  0  0  0  0  0
  -28.3810  -32.6957   25.0284 H   0  0  0  0  0  0
  -28.0759  -31.8454   26.5354 H   0  0  0  0  0  0
  -28.2575  -38.0123   24.7542 H   0  0  0  0  0  0
  -28.1114  -36.2658   24.6204 H   0  0  0  0  0  0
  -27.2318  -37.1357   25.8854 H   0  0  0  0  0  0
  -20.9306  -29.8746   21.6929 H   0  0  0  0  0  0
  -26.0165  -38.2856   24.1457 H   0  0  0  0  0  0
  -32.4689  -19.3691   20.8601 H   0  0  0  0  0  0
  -32.2488  -16.9839   21.1448 H   0  0  0  0  0  0
  -28.1795  -19.7009   20.2752 H   0  0  0  0  0  0
  -32.5805  -25.0199   19.1911 H   0  0  0  0  0  0
  -33.7497  -23.6154   19.3860 H   0  0  0  0  0  0
  -30.5206  -25.5247   19.4814 H   0  0  0  0  0  0
  -32.4986  -21.6189   21.0543 H   0  0  0  0  0  0
  -32.4268  -21.2074   19.3184 H   0  0  0  0  0  0
  -27.8006  -24.7207   20.5118 H   0  0  0  0  0  0
  -27.9762  -25.1138   18.7952 H   0  0  0  0  0  0
  -28.9709  -15.2461   21.2645 H   0  0  0  0  0  0
  1 25  1  0  0  0
  1 30  2  0  0  0
  1 85  1  0  0  0
  2  3  1  0  0  0
  2 25  1  0  0  0
  2 88  1  0  0  0
  2 89  1  0  0  0
  3  4  1  0  0  0
  3 90  1  0  0  0
  3 91  1  0  0  0
  4  5  1  0  0  0
  4 92  1  0  0  0
  4 93  1  0  0  0
  5  6  1  0  0  0
  5 26  1  0  0  0
  5 94  1  0  0  0
  6 25  1  0  0  0
  6 95  1  0  0  0
  6 96  1  0  0  0
  7  8  2  0  0  0
  7 26  1  0  0  0
  7 29  1  0  0  0
  8  9  1  0  0  0
  8 22  1  0  0  0
  9 10  1  0  0  0
  9 27  2  0  0  0
 10 11  2  0  0  0
 10 15  1  0  0  0
 11 12  1  0  0  0
 11 97  1  0  0  0
 12 13  2  0  0  0
 12 98  1  0  0  0
 13 14  1  0  0  0
 13 31  1  0  0  0
 14 15  2  0  0  0
 14 99  1  0  0  0
 15100  1  0  0  0
 16 17  2  0  0  0
 16 21  1  0  0  0
 16 31  1  0  0  0
 17 18  1  0  0  0
 17101  1  0  0  0
 18 19  2  0  0  0
 18102  1  0  0  0
 19 20  1  0  0  0
 19 24  1  0  0  0
 20 21  2  0  0  0
 20103  1  0  0  0
 21 23  1  0  0  0
 22 28  1  0  0  0
 22 32  2  0  0  0
 26 27  1  0  0  0
 28104  1  0  0  0
 28105  1  0  0  0
 29106  1  0  0  0
 29107  1  0  0  0
 33 34  1  0  0  0
 33 66  1  0  0  0
 33 70  2  0  0  0
 34 36  1  0  0  0
 34 59  1  0  0  0
 34108  1  0  0  0
 35 44  2  0  0  0
 35 45  1  0  0  0
 35 68  1  0  0  0
 36 56  1  0  0  0
 36109  1  0  0  0
 37 39  1  0  0  0
 37 47  1  0  0  0
 37 66  1  0  0  0
 37110  1  0  0  0
 38 43  2  0  0  0
 38 46  1  0  0  0
 38 47  1  0  0  0
 39 64  1  0  0  0
 39 67  2  0  0  0
 40 52  1  0  0  0
 40 53  2  0  0  0
 40 58  1  0  0  0
 41111  1  0  0  0
 41112  1  0  0  0
 41113  1  0  0  0
 41 48  1  0  0  0
 42 43  1  0  0  0
 42 66  1  0  0  0
 42114  1  0  0  0
 42115  1  0  0  0
 43 44  1  0  0  0
 44116  1  0  0  0
 45 46  2  0  0  0
 45117  1  0  0  0
 46118  1  0  0  0
 47119  1  0  0  0
 47120  1  0  0  0
 48 56  1  0  0  0
 48 65  1  0  0  0
 48121  1  0  0  0
 49 50  1  0  0  0
 49 53  1  0  0  0
 49 64  1  0  0  0
 49122  1  0  0  0
 50 51  1  0  0  0
 50123  1  0  0  0
 50124  1  0  0  0
 51 52  1  0  0  0
 51125  1  0  0  0
 51126  1  0  0  0
 52127  1  0  0  0
 52128  1  0  0  0
 53 54  1  0  0  0
 54 55  2  0  0  0
 54129  1  0  0  0
 55 57  1  0  0  0
 55130  1  0  0  0
 56 69  2  0  0  0
 57 58  2  0  0  0
 57131  1  0  0  0
 58132  1  0  0  0
 59 60  1  0  0  0
 59 61  1  0  0  0
 59 62  1  0  0  0
 60133  1  0  0  0
 60134  1  0  0  0
 60135  1  0  0  0
 61136  1  0  0  0
 61137  1  0  0  0
 61138  1  0  0  0
 62139  1  0  0  0
 62140  1  0  0  0
 62141  1  0  0  0
 63 65  1  0  0  0
 63142  1  0  0  0
 63143  1  0  0  0
 63144  1  0  0  0
 64145  1  0  0  0
 65146  1  0  0  0
 68 83  1  0  0  0
 71 72  2  0  0  0
 71 74  1  0  0  0
 71147  1  0  0  0
 72 75  1  0  0  0
 72148  1  0  0  0
 73 74  2  0  0  0
 73 76  1  0  0  0
 73149  1  0  0  0
 74 84  1  0  0  0
 75 76  2  0  0  0
 75 85  1  0  0  0
 76 87  1  0  0  0
 77 78  1  0  0  0
 77 79  1  0  0  0
 77 81  2  0  0  0
 78 80  2  0  0  0
 78 82  1  0  0  0
 79 84  1  0  0  0
 79 86  2  0  0  0
 80150  1  0  0  0
 80151  1  0  0  0
 81 83  1  0  0  0
 81152  1  0  0  0
 82 84  1  0  0  0
 82153  1  0  0  0
 82154  1  0  0  0
 83155  1  0  0  0
 83156  1  0  0  0
 85157  1  0  0  0
M  ISO  4   1 100  68 101  83 101  85 100
M  END
> <chiral flag>
0

> <version>
0

> <s_m_source_file>
/data/baiqing/PycharmProjects/Reinvent-master-3.2/result/LINK_invent/BTK/process_docking_weight1_custom_product_contain_oxygen_bond_distance_aromatic_linkinvent_7_9_3/rearranged_h_0079.sdf

> <i_m_source_file_index>
65

> <r_mmod_Potential_Energy-OPLS-2005>
60.1524505615234

> <r_mmod_Stretch_Energy-OPLS-2005>
50.2051887512207

> <r_mmod_Bend_Energy-OPLS-2005>
169.510696411133

> <r_mmod_Torsional_Energy-OPLS-2005>
250.125091552734

> <r_mmod_Improper_Torsional_Energy-OPLS-2005>
4.40383672714233

> <r_mmod_Van_der_Waal_Energy-OPLS-2005>
162.31037902832

> <r_mmod_Electrostatic_Energy-OPLS-2005>
-392.587890625

> <r_mmod_Solvation_Energy-OPLS-2005>
-200.575912475586

> <b_mmod_Minimization_Converged-OPLS-2005>
0

> <r_mmod_RMS_Derivative-OPLS-2005>
1.19592583179474

$$$$
65
                    3D
 Structure written by MMmdl.
166175  0  0  1  0            999 V2000
  -30.5877  -14.7575   20.4508 C   0  0  0  0  0  0
  -30.4433  -12.4541   19.4910 C   0  0  0  0  0  0
  -29.5298  -12.5277   18.2465 C   0  0  0  0  0  0
  -28.0531  -12.3370   18.6501 C   0  0  0  0  0  0
  -27.6527  -13.2196   19.8633 C   0  0  2  0  0  0
  -28.6953  -13.1386   21.0018 C   0  0  0  0  0  0
  -25.2599  -13.8152   20.5668 C   0  0  0  0  0  0
  -24.1855  -13.0435   20.9162 C   0  0  0  0  0  0
  -24.6411  -11.6892   20.8721 C   0  0  0  0  0  0
  -23.9070  -10.4294   21.0403 C   0  0  0  0  0  0
  -24.3622   -9.4211   21.9190 C   0  0  0  0  0  0
  -23.6304   -8.2231   22.0738 C   0  0  0  0  0  0
  -22.4280   -8.0282   21.3533 C   0  0  0  0  0  0
  -21.9919   -9.0248   20.4636 C   0  0  0  0  0  0
  -22.7235  -10.2142   20.3050 C   0  0  0  0  0  0
  -21.6832   -6.0751   22.5282 C   0  0  0  0  0  0
  -21.3998   -6.5652   23.8223 C   0  0  0  0  0  0
  -21.3656   -5.6800   24.9181 C   0  0  0  0  0  0
  -21.6046   -4.3054   24.7221 C   0  0  0  0  0  0
  -21.8832   -3.8159   23.4333 C   0  0  0  0  0  0
  -21.9189   -4.6981   22.3402 C   0  0  0  0  0  0
  -22.7888  -13.5245   21.1867 C   0  0  0  0  0  0
  -22.1659   -4.2183   21.0967 F   0  0  0  0  0  0
  -21.5635   -3.4525   25.7718 F   0  0  0  0  0  0
  -29.9996  -13.5076   20.4337 N   0  0  0  0  0  0
  -26.3006  -12.9318   20.3295 N   0  0  0  0  0  0
  -25.9332  -11.6468   20.5719 N   0  0  0  0  0  0
  -22.0525  -12.8222   22.0407 N   0  0  0  0  0  0
  -25.4379  -15.1862   20.4098 N   0  0  0  0  0  0
  -31.7456  -14.8937   20.0439 O   0  0  0  0  0  0
  -21.6625   -6.8880   21.4248 O   0  0  0  0  0  0
  -22.3590  -14.5577   20.6739 O   0  0  0  0  0  0
  -24.6373  -31.8527   23.1994 C   0  0  0  0  0  0
  -25.9202  -32.4726   23.8332 C   0  0  1  0  0  0
  -27.2308  -27.2404   20.1379 C   0  0  0  0  0  0
  -25.6020  -33.8524   24.2260 N   0  0  0  0  0  0
  -23.4338  -30.4765   21.5418 C   0  0  2  0  0  0
  -24.8861  -28.9186   20.1153 C   0  0  0  0  0  0
  -22.7520  -29.4625   22.4936 C   0  0  0  0  0  0
  -18.0294  -28.1414   22.8487 C   0  0  0  0  0  0
  -24.1493  -36.7246   23.2630 C   0  0  0  0  0  0
  -25.9833  -30.7625   21.3809 C   0  0  0  0  0  0
  -26.0611  -29.3833   20.7216 C   0  0  0  0  0  0
  -27.2350  -28.5584   20.7202 C   0  0  0  0  0  0
  -26.0293  -26.8567   19.4984 C   0  0  0  0  0  0
  -24.8754  -27.6616   19.4969 C   0  0  0  0  0  0
  -23.6555  -29.8065   20.1600 C   0  0  0  0  0  0
  -25.4115  -36.3023   24.0319 C   0  0  1  0  0  0
  -20.5897  -28.3714   23.1274 C   0  0  2  0  0  0
  -20.6788  -26.9423   22.5422 C   0  0  0  0  0  0
  -19.5765  -26.6384   21.5240 C   0  0  0  0  0  0
  -18.1934  -26.7966   22.1611 C   0  0  0  0  0  0
  -19.1539  -28.8884   23.2879 C   0  0  0  0  0  0
  -18.9460  -30.1484   23.8894 C   0  0  0  0  0  0
  -17.6455  -30.6614   24.0568 C   0  0  0  0  0  0
  -25.9067  -34.9400   23.5065 C   0  0  0  0  0  0
  -16.5345  -29.9098   23.6343 C   0  0  0  0  0  0
  -16.7278  -28.6517   23.0360 C   0  0  0  0  0  0
  -26.4558  -31.6561   25.0726 C   0  0  0  0  0  0
  -25.3769  -31.3720   26.1439 C   0  0  0  0  0  0
  -27.0416  -30.2956   24.6271 C   0  0  0  0  0  0
  -27.6125  -32.4291   25.7494 C   0  0  0  0  0  0
  -27.5587  -37.1745   24.8438 C   0  0  0  0  0  0
  -21.4219  -29.3062   22.3666 N   0  0  0  0  0  0
  -26.4259  -37.3753   23.9444 N   0  0  0  0  0  0
  -24.7033  -31.0499   22.0962 N   0  0  0  0  0  0
  -23.4207  -28.8179   23.3059 O   0  0  0  0  0  0
  -28.3116  -26.3159   20.2130 O   0  0  0  0  0  0
  -26.5594  -34.8894   22.4607 O   0  0  0  0  0  0
  -23.5520  -32.1362   23.7285 O   0  0  0  0  0  0
  -28.5336  -19.5250   18.8948 C   0  0  0  0  0  0
  -28.7432  -17.0825   19.0173 C   0  0  0  0  0  0
  -29.8195  -18.4973   20.6810 C   0  0  0  0  0  0
  -28.2181  -18.2383   18.4017 C   0  0  0  0  0  0
  -29.3112  -19.7272   20.0588 C   0  0  0  0  0  0
  -29.5543  -17.1508   20.1700 C   0  0  0  0  0  0
  -28.7320  -22.2841   20.1464 C   0  0  0  0  0  0
  -29.0031  -23.6250   20.3896 C   0  0  0  0  0  0
  -30.2933  -23.9161   21.0620 C   0  0  0  0  0  0
  -31.1061  -22.7645   21.5824 C   0  0  0  0  0  0
  -32.3024  -23.0142   22.1529 C   0  0  0  0  0  0
  -26.1068  -18.2663   17.4364 C   0  0  0  0  0  0
  -30.5668  -21.3261   21.4795 C   0  0  0  0  0  0
  -25.1673  -18.0833   16.2622 C   0  0  0  0  0  0
  -25.4128  -18.6626   18.7337 C   0  0  0  0  0  0
  -28.0159  -24.8389   20.0203 C   0  0  0  0  0  0
  -27.3656  -18.0833   17.3031 N   0  0  0  0  0  0
  -29.5012  -21.1157   20.4989 N   0  0  0  0  0  0
  -29.8274  -15.8509   20.8482 N   0  0  0  0  0  0
  -30.6984  -25.0794   21.1800 O   0  0  0  0  0  0
  -31.4914  -12.5678   19.2103 H   0  0  0  0  0  0
  -30.3693  -11.4707   19.9581 H   0  0  0  0  0  0
  -29.8266  -11.7755   17.5149 H   0  0  0  0  0  0
  -29.6530  -13.4943   17.7553 H   0  0  0  0  0  0
  -27.9184  -11.2840   18.8974 H   0  0  0  0  0  0
  -27.4017  -12.5395   17.7998 H   0  0  0  0  0  0
  -27.6499  -14.2429   19.4961 H   0  0  0  0  0  0
  -28.7377  -12.1330   21.4226 H   0  0  0  0  0  0
  -28.4209  -13.7950   21.8270 H   0  0  0  0  0  0
  -25.2763   -9.5676   22.4760 H   0  0  0  0  0  0
  -24.0022   -7.4617   22.7436 H   0  0  0  0  0  0
  -21.0842   -8.8744   19.8938 H   0  0  0  0  0  0
  -22.3685  -10.9673   19.6141 H   0  0  0  0  0  0
  -21.1984   -7.6158   23.9737 H   0  0  0  0  0  0
  -21.1461   -6.0517   25.9092 H   0  0  0  0  0  0
  -22.0625   -2.7625   23.2809 H   0  0  0  0  0  0
  -22.4087  -11.9836   22.4727 H   0  0  0  0  0  0
  -21.1170  -13.1307   22.2646 H   0  0  0  0  0  0
  -24.6821  -15.8511   20.5230 H   0  0  0  0  0  0
  -26.3035  -15.6142   20.1142 H   0  0  0  0  0  0
  -26.7285  -32.5375   23.1100 H   0  0  0  0  0  0
  -25.0297  -33.9658   25.0493 H   0  0  0  0  0  0
  -22.7308  -31.2997   21.3915 H   0  0  0  0  0  0
  -23.3783  -35.9540   23.3188 H   0  0  0  0  0  0
  -24.3623  -36.8974   22.2067 H   0  0  0  0  0  0
  -23.7185  -37.6387   23.6725 H   0  0  0  0  0  0
  -26.1247  -31.5266   20.6147 H   0  0  0  0  0  0
  -26.8576  -30.8101   22.0173 H   0  0  0  0  0  0
  -28.1307  -28.9119   21.2098 H   0  0  0  0  0  0
  -25.9381  -25.8984   19.0116 H   0  0  0  0  0  0
  -23.9754  -27.2912   19.0271 H   0  0  0  0  0  0
  -23.7867  -30.5829   19.4056 H   0  0  0  0  0  0
  -22.7726  -29.2432   19.8496 H   0  0  0  0  0  0
  -25.1292  -36.1825   25.0805 H   0  0  0  0  0  0
  -20.9983  -28.3289   24.1403 H   0  0  0  0  0  0
  -20.5703  -26.2324   23.3640 H   0  0  0  0  0  0
  -21.6649  -26.7477   22.1185 H   0  0  0  0  0  0
  -19.6908  -25.6285   21.1294 H   0  0  0  0  0  0
  -19.6711  -27.3179   20.6767 H   0  0  0  0  0  0
  -17.4216  -26.6745   21.3994 H   0  0  0  0  0  0
  -18.0283  -26.0114   22.8996 H   0  0  0  0  0  0
  -19.7926  -30.7311   24.2244 H   0  0  0  0  0  0
  -17.5000  -31.6293   24.5163 H   0  0  0  0  0  0
  -15.5341  -30.2990   23.7697 H   0  0  0  0  0  0
  -15.8674  -28.0844   22.7081 H   0  0  0  0  0  0
  -24.6009  -30.6990   25.7782 H   0  0  0  0  0  0
  -24.8894  -32.2879   26.4785 H   0  0  0  0  0  0
  -25.8091  -30.8978   27.0260 H   0  0  0  0  0  0
  -26.3013  -29.6659   24.1317 H   0  0  0  0  0  0
  -27.4089  -29.7281   25.4838 H   0  0  0  0  0  0
  -27.8903  -30.4197   23.9537 H   0  0  0  0  0  0
  -27.2770  -33.3629   26.2013 H   0  0  0  0  0  0
  -28.3967  -32.6764   25.0326 H   0  0  0  0  0  0
  -28.0752  -31.8430   26.5446 H   0  0  0  0  0  0
  -28.2481  -38.0164   24.7653 H   0  0  0  0  0  0
  -28.1204  -36.2702   24.6036 H   0  0  0  0  0  0
  -27.2340  -37.1104   25.8839 H   0  0  0  0  0  0
  -20.9426  -29.8746   21.6816 H   0  0  0  0  0  0
  -26.0104  -38.2780   24.1582 H   0  0  0  0  0  0
  -28.1361  -20.3744   18.3591 H   0  0  0  0  0  0
  -28.4615  -16.1223   18.6135 H   0  0  0  0  0  0
  -30.3904  -18.5725   21.5954 H   0  0  0  0  0  0
  -27.7843  -22.0395   19.6903 H   0  0  0  0  0  0
  -32.7009  -24.0156   22.2402 H   0  0  0  0  0  0
  -32.9074  -22.2142   22.5524 H   0  0  0  0  0  0
  -30.1794  -21.0436   22.4585 H   0  0  0  0  0  0
  -31.4105  -20.6628   21.2770 H   0  0  0  0  0  0
  -24.5829  -17.1709   16.3867 H   0  0  0  0  0  0
  -25.7195  -18.0101   15.3246 H   0  0  0  0  0  0
  -24.4764  -18.9233   16.1867 H   0  0  0  0  0  0
  -24.3312  -18.5599   18.6477 H   0  0  0  0  0  0
  -25.6329  -19.7027   18.9746 H   0  0  0  0  0  0
  -25.7378  -18.0307   19.5605 H   0  0  0  0  0  0
  -27.1026  -24.6204   20.5785 H   0  0  0  0  0  0
  -27.7700  -24.6860   18.9695 H   0  0  0  0  0  0
  -29.0125  -15.5191   21.3457 H   0  0  0  0  0  0
  1 25  1  0  0  0
  1 30  2  0  0  0
  1 89  1  0  0  0
  2  3  1  0  0  0
  2 25  1  0  0  0
  2 91  1  0  0  0
  2 92  1  0  0  0
  3  4  1  0  0  0
  3 93  1  0  0  0
  3 94  1  0  0  0
  4  5  1  0  0  0
  4 95  1  0  0  0
  4 96  1  0  0  0
  5  6  1  0  0  0
  5 26  1  0  0  0
  5 97  1  0  0  0
  6 25  1  0  0  0
  6 98  1  0  0  0
  6 99  1  0  0  0
  7  8  2  0  0  0
  7 26  1  0  0  0
  7 29  1  0  0  0
  8  9  1  0  0  0
  8 22  1  0  0  0
  9 10  1  0  0  0
  9 27  2  0  0  0
 10 11  2  0  0  0
 10 15  1  0  0  0
 11 12  1  0  0  0
 11100  1  0  0  0
 12 13  2  0  0  0
 12101  1  0  0  0
 13 14  1  0  0  0
 13 31  1  0  0  0
 14 15  2  0  0  0
 14102  1  0  0  0
 15103  1  0  0  0
 16 17  2  0  0  0
 16 21  1  0  0  0
 16 31  1  0  0  0
 17 18  1  0  0  0
 17104  1  0  0  0
 18 19  2  0  0  0
 18105  1  0  0  0
 19 20  1  0  0  0
 19 24  1  0  0  0
 20 21  2  0  0  0
 20106  1  0  0  0
 21 23  1  0  0  0
 22 28  1  0  0  0
 22 32  2  0  0  0
 26 27  1  0  0  0
 28107  1  0  0  0
 28108  1  0  0  0
 29109  1  0  0  0
 29110  1  0  0  0
 33 34  1  0  0  0
 33 66  1  0  0  0
 33 70  2  0  0  0
 34 36  1  0  0  0
 34 59  1  0  0  0
 34111  1  0  0  0
 35 44  2  0  0  0
 35 45  1  0  0  0
 35 68  1  0  0  0
 36 56  1  0  0  0
 36112  1  0  0  0
 37 39  1  0  0  0
 37 47  1  0  0  0
 37 66  1  0  0  0
 37113  1  0  0  0
 38 43  2  0  0  0
 38 46  1  0  0  0
 38 47  1  0  0  0
 39 64  1  0  0  0
 39 67  2  0  0  0
 40 52  1  0  0  0
 40 53  2  0  0  0
 40 58  1  0  0  0
 41114  1  0  0  0
 41115  1  0  0  0
 41116  1  0  0  0
 41 48  1  0  0  0
 42 43  1  0  0  0
 42 66  1  0  0  0
 42117  1  0  0  0
 42118  1  0  0  0
 43 44  1  0  0  0
 44119  1  0  0  0
 45 46  2  0  0  0
 45120  1  0  0  0
 46121  1  0  0  0
 47122  1  0  0  0
 47123  1  0  0  0
 48 56  1  0  0  0
 48 65  1  0  0  0
 48124  1  0  0  0
 49 50  1  0  0  0
 49 53  1  0  0  0
 49 64  1  0  0  0
 49125  1  0  0  0
 50 51  1  0  0  0
 50126  1  0  0  0
 50127  1  0  0  0
 51 52  1  0  0  0
 51128  1  0  0  0
 51129  1  0  0  0
 52130  1  0  0  0
 52131  1  0  0  0
 53 54  1  0  0  0
 54 55  2  0  0  0
 54132  1  0  0  0
 55 57  1  0  0  0
 55133  1  0  0  0
 56 69  2  0  0  0
 57 58  2  0  0  0
 57134  1  0  0  0
 58135  1  0  0  0
 59 60  1  0  0  0
 59 61  1  0  0  0
 59 62  1  0  0  0
 60136  1  0  0  0
 60137  1  0  0  0
 60138  1  0  0  0
 61139  1  0  0  0
 61140  1  0  0  0
 61141  1  0  0  0
 62142  1  0  0  0
 62143  1  0  0  0
 62144  1  0  0  0
 63 65  1  0  0  0
 63145  1  0  0  0
 63146  1  0  0  0
 63147  1  0  0  0
 64148  1  0  0  0
 65149  1  0  0  0
 68 86  1  0  0  0
 71 74  2  0  0  0
 71 75  1  0  0  0
 71150  1  0  0  0
 72 74  1  0  0  0
 72 76  2  0  0  0
 72151  1  0  0  0
 73 75  2  0  0  0
 73 76  1  0  0  0
 73152  1  0  0  0
 74 87  1  0  0  0
 75 88  1  0  0  0
 76 89  1  0  0  0
 77 78  2  0  0  0
 77 88  1  0  0  0
 77153  1  0  0  0
 78 79  1  0  0  0
 78 86  1  0  0  0
 79 80  1  0  0  0
 79 90  2  0  0  0
 80 81  2  0  0  0
 80 83  1  0  0  0
 81154  1  0  0  0
 81155  1  0  0  0
 82 84  1  0  0  0
 82 85  1  0  0  0
 82 87  2  0  0  0
 83 88  1  0  0  0
 83156  1  0  0  0
 83157  1  0  0  0
 84158  1  0  0  0
 84159  1  0  0  0
 84160  1  0  0  0
 85161  1  0  0  0
 85162  1  0  0  0
 85163  1  0  0  0
 86164  1  0  0  0
 86165  1  0  0  0
 89166  1  0  0  0
M  ISO  4   1 100  68 101  86 101  89 100
M  END
> <chiral flag>
0

> <version>
0

> <s_m_source_file>
/data/baiqing/PycharmProjects/Reinvent-master-3.2/result/LINK_invent/BTK/process_docking_weight1_custom_product_contain_oxygen_bond_distance_aromatic_linkinvent_7_9_3/rearranged_h_0079.sdf

> <i_m_source_file_index>
66

> <r_mmod_Potential_Energy-OPLS-2005>
271.495910644531

> <r_mmod_Stretch_Energy-OPLS-2005>
143.052261352539

> <r_mmod_Bend_Energy-OPLS-2005>
182.240081787109

> <r_mmod_Torsional_Energy-OPLS-2005>
247.836532592773

> <r_mmod_Improper_Torsional_Energy-OPLS-2005>
6.98928165435791

> <r_mmod_Van_der_Waal_Energy-OPLS-2005>
156.117767333984

> <r_mmod_Electrostatic_Energy-OPLS-2005>
-321.835662841797

> <r_mmod_Solvation_Energy-OPLS-2005>
-238.408050537109

> <b_mmod_Minimization_Converged-OPLS-2005>
0

> <r_mmod_RMS_Derivative-OPLS-2005>
3.67578959465027

$$$$
66
                    3D
 Structure written by MMmdl.
158167  0  0  1  0            999 V2000
  -30.6020  -14.6952   20.4850 C   0  0  0  0  0  0
  -30.4462  -12.4270   19.4576 C   0  0  0  0  0  0
  -29.5133  -12.5134   18.2282 C   0  0  0  0  0  0
  -28.0373  -12.3466   18.6391 C   0  0  0  0  0  0
  -27.6543  -13.2223   19.8610 C   0  0  2  0  0  0
  -28.6994  -13.0952   20.9913 C   0  0  0  0  0  0
  -25.2578  -13.8194   20.5669 C   0  0  0  0  0  0
  -24.1841  -13.0450   20.9165 C   0  0  0  0  0  0
  -24.6414  -11.6925   20.8721 C   0  0  0  0  0  0
  -23.9079  -10.4310   21.0399 C   0  0  0  0  0  0
  -24.3624   -9.4231   21.9184 C   0  0  0  0  0  0
  -23.6302   -8.2265   22.0749 C   0  0  0  0  0  0
  -22.4295   -8.0286   21.3524 C   0  0  0  0  0  0
  -21.9918   -9.0274   20.4642 C   0  0  0  0  0  0
  -22.7244  -10.2151   20.3056 C   0  0  0  0  0  0
  -21.6867   -6.0733   22.5274 C   0  0  0  0  0  0
  -21.4012   -6.5625   23.8209 C   0  0  0  0  0  0
  -21.3653   -5.6776   24.9165 C   0  0  0  0  0  0
  -21.6049   -4.3044   24.7229 C   0  0  0  0  0  0
  -21.8823   -3.8131   23.4344 C   0  0  0  0  0  0
  -21.9193   -4.6954   22.3402 C   0  0  0  0  0  0
  -22.7868  -13.5250   21.1821 C   0  0  0  0  0  0
  -22.1671   -4.2134   21.0986 F   0  0  0  0  0  0
  -21.5628   -3.4525   25.7739 F   0  0  0  0  0  0
  -30.0118  -13.4544   20.4290 N   0  0  0  0  0  0
  -26.3004  -12.9382   20.3293 N   0  0  0  0  0  0
  -25.9338  -11.6529   20.5720 N   0  0  0  0  0  0
  -22.0511  -12.8254   22.0386 N   0  0  0  0  0  0
  -25.4261  -15.1916   20.4113 N   0  0  0  0  0  0
  -31.7523  -14.8674   20.0690 O   0  0  0  0  0  0
  -21.6668   -6.8879   21.4234 O   0  0  0  0  0  0
  -22.3571  -14.5553   20.6653 O   0  0  0  0  0  0
  -24.6307  -31.8567   23.1991 C   0  0  0  0  0  0
  -25.9135  -32.4760   23.8334 C   0  0  1  0  0  0
  -27.2329  -27.3017   20.1106 C   0  0  0  0  0  0
  -25.5947  -33.8562   24.2278 N   0  0  0  0  0  0
  -23.4288  -30.4788   21.5399 C   0  0  2  0  0  0
  -24.8832  -28.9397   20.0985 C   0  0  0  0  0  0
  -22.7527  -29.4589   22.4883 C   0  0  0  0  0  0
  -18.0311  -28.1367   22.8476 C   0  0  0  0  0  0
  -24.1492  -36.7272   23.2632 C   0  0  0  0  0  0
  -25.9737  -30.7815   21.3762 C   0  0  0  0  0  0
  -26.0536  -29.4110   20.7098 C   0  0  0  0  0  0
  -27.2356  -28.6020   20.7112 C   0  0  0  0  0  0
  -26.0452  -26.8979   19.4642 C   0  0  0  0  0  0
  -24.8827  -27.6885   19.4643 C   0  0  0  0  0  0
  -23.6478  -29.8168   20.1539 C   0  0  0  0  0  0
  -25.4117  -36.3069   24.0330 C   0  0  1  0  0  0
  -20.5916  -28.3692   23.1258 C   0  0  2  0  0  0
  -20.6785  -26.9401   22.5414 C   0  0  0  0  0  0
  -19.5769  -26.6365   21.5204 C   0  0  0  0  0  0
  -18.1953  -26.7907   22.1612 C   0  0  0  0  0  0
  -19.1564  -28.8844   23.2867 C   0  0  0  0  0  0
  -18.9477  -30.1443   23.8891 C   0  0  0  0  0  0
  -17.6470  -30.6570   24.0560 C   0  0  0  0  0  0
  -25.9063  -34.9435   23.5105 C   0  0  0  0  0  0
  -16.5365  -29.9067   23.6314 C   0  0  0  0  0  0
  -16.7297  -28.6479   23.0347 C   0  0  0  0  0  0
  -26.4526  -31.6562   25.0711 C   0  0  0  0  0  0
  -25.3744  -31.3719   26.1434 C   0  0  0  0  0  0
  -27.0345  -30.2954   24.6181 C   0  0  0  0  0  0
  -27.6101  -32.4279   25.7476 C   0  0  0  0  0  0
  -27.5588  -37.1789   24.8469 C   0  0  0  0  0  0
  -21.4234  -29.3033   22.3636 N   0  0  0  0  0  0
  -26.4296  -37.3763   23.9416 N   0  0  0  0  0  0
  -24.6958  -31.0550   22.0951 N   0  0  0  0  0  0
  -23.4216  -28.8127   23.2986 O   0  0  0  0  0  0
  -28.2314  -26.3147   20.2481 O   0  0  0  0  0  0
  -26.5634  -34.8913   22.4679 O   0  0  0  0  0  0
  -23.5455  -32.1386   23.7291 O   0  0  0  0  0  0
  -29.5202  -19.4702   21.7291 C   0  0  0  0  0  0
  -29.2467  -19.2254   19.3665 C   0  0  0  0  0  0
  -29.8299  -18.0764   21.8396 C   0  0  0  0  0  0
  -29.5797  -17.8301   19.4706 C   0  0  0  0  0  0
  -29.1554  -20.0871   20.4984 C   0  0  0  0  0  0
  -29.8363  -17.1982   20.7219 C   0  0  0  0  0  0
  -26.7999  -23.2532   21.9860 C   0  0  0  0  0  0
  -27.8241  -23.8524   21.0950 C   0  0  0  0  0  0
  -25.6446  -23.8625   22.3441 C   0  0  0  0  0  0
  -27.7749  -25.2484   21.0574 C   0  0  0  0  0  0
  -26.9280  -21.7979   22.3662 C   0  0  0  0  0  0
  -28.7146  -22.7845   20.2979 C   0  0  0  0  0  0
  -27.0693  -21.0087   21.0739 C   0  0  0  0  0  0
  -28.3650  -21.3033   20.4769 N   0  0  0  0  0  0
  -29.8151  -15.7365   20.9219 N   0  0  0  0  0  0
  -31.4855  -12.5614   19.1502 H   0  0  0  0  0  0
  -30.3977  -11.4345   19.9068 H   0  0  0  0  0  0
  -29.7814  -11.7525   17.4941 H   0  0  0  0  0  0
  -29.6453  -13.4744   17.7308 H   0  0  0  0  0  0
  -27.8757  -11.2944   18.8749 H   0  0  0  0  0  0
  -27.3861  -12.5705   17.7933 H   0  0  0  0  0  0
  -27.6654  -14.2540   19.5100 H   0  0  0  0  0  0
  -28.7226  -12.0744   21.3743 H   0  0  0  0  0  0
  -28.4351  -13.7254   21.8422 H   0  0  0  0  0  0
  -25.2769   -9.5698   22.4766 H   0  0  0  0  0  0
  -23.9976   -7.4657   22.7476 H   0  0  0  0  0  0
  -21.0819   -8.8813   19.8975 H   0  0  0  0  0  0
  -22.3693  -10.9693   19.6172 H   0  0  0  0  0  0
  -21.2013   -7.6135   23.9711 H   0  0  0  0  0  0
  -21.1469   -6.0507   25.9071 H   0  0  0  0  0  0
  -22.0607   -2.7591   23.2864 H   0  0  0  0  0  0
  -22.4116  -11.9921   22.4793 H   0  0  0  0  0  0
  -21.1137  -13.1317   22.2584 H   0  0  0  0  0  0
  -24.6531  -15.8393   20.5185 H   0  0  0  0  0  0
  -26.2708  -15.6318   20.0683 H   0  0  0  0  0  0
  -26.7203  -32.5431   23.1081 H   0  0  0  0  0  0
  -25.0120  -33.9701   25.0436 H   0  0  0  0  0  0
  -22.7228  -31.2994   21.3958 H   0  0  0  0  0  0
  -23.3754  -35.9601   23.3288 H   0  0  0  0  0  0
  -24.3587  -36.8891   22.2046 H   0  0  0  0  0  0
  -23.7236  -37.6471   23.6651 H   0  0  0  0  0  0
  -26.1119  -31.5478   20.6115 H   0  0  0  0  0  0
  -26.8493  -30.8253   22.0120 H   0  0  0  0  0  0
  -28.1219  -28.9435   21.2259 H   0  0  0  0  0  0
  -26.0009  -25.9188   19.0092 H   0  0  0  0  0  0
  -23.9880  -27.3171   18.9851 H   0  0  0  0  0  0
  -23.7667  -30.5958   19.4004 H   0  0  0  0  0  0
  -22.7681  -29.2466   19.8475 H   0  0  0  0  0  0
  -25.1276  -36.1921   25.0814 H   0  0  0  0  0  0
  -21.0022  -28.3269   24.1371 H   0  0  0  0  0  0
  -20.5648  -26.2306   23.3627 H   0  0  0  0  0  0
  -21.6665  -26.7401   22.1234 H   0  0  0  0  0  0
  -19.6946  -25.6275   21.1240 H   0  0  0  0  0  0
  -19.6695  -27.3172   20.6728 H   0  0  0  0  0  0
  -17.4222  -26.6661   21.4019 H   0  0  0  0  0  0
  -18.0361  -26.0043   22.8997 H   0  0  0  0  0  0
  -19.7958  -30.7268   24.2249 H   0  0  0  0  0  0
  -17.5029  -31.6252   24.5170 H   0  0  0  0  0  0
  -15.5370  -30.2970   23.7631 H   0  0  0  0  0  0
  -15.8701  -28.0801   22.7053 H   0  0  0  0  0  0
  -24.5977  -30.6983   25.7792 H   0  0  0  0  0  0
  -24.8874  -32.2883   26.4770 H   0  0  0  0  0  0
  -25.8086  -30.9004   27.0253 H   0  0  0  0  0  0
  -26.2916  -29.6706   24.1202 H   0  0  0  0  0  0
  -27.4006  -29.7211   25.4701 H   0  0  0  0  0  0
  -27.8814  -30.4197   23.9425 H   0  0  0  0  0  0
  -27.2737  -33.3592   26.2034 H   0  0  0  0  0  0
  -28.3923  -32.6789   25.0301 H   0  0  0  0  0  0
  -28.0736  -31.8394   26.5398 H   0  0  0  0  0  0
  -28.2599  -38.0096   24.7515 H   0  0  0  0  0  0
  -28.1092  -36.2619   24.6277 H   0  0  0  0  0  0
  -27.2311  -37.1422   25.8877 H   0  0  0  0  0  0
  -20.9428  -29.8759   21.6845 H   0  0  0  0  0  0
  -26.0170  -38.2835   24.1408 H   0  0  0  0  0  0
  -29.4394  -20.0366   22.6449 H   0  0  0  0  0  0
  -28.9440  -19.6018   18.4000 H   0  0  0  0  0  0
  -29.9830  -17.6679   22.8287 H   0  0  0  0  0  0
  -29.5301  -17.2230   18.5784 H   0  0  0  0  0  0
  -25.3581  -24.8601   22.0462 H   0  0  0  0  0  0
  -24.9090  -23.3399   22.9397 H   0  0  0  0  0  0
  -27.1576  -25.7191   21.8070 H   0  0  0  0  0  0
  -26.0474  -21.4457   22.9061 H   0  0  0  0  0  0
  -27.7794  -21.6538   23.0319 H   0  0  0  0  0  0
  -29.7580  -22.9272   20.5840 H   0  0  0  0  0  0
  -28.6542  -23.0322   19.2376 H   0  0  0  0  0  0
  -26.2798  -21.2796   20.3691 H   0  0  0  0  0  0
  -26.9304  -19.9440   21.2785 H   0  0  0  0  0  0
  -28.9771  -15.4060   21.3766 H   0  0  0  0  0  0
  1 25  1  0  0  0
  1 30  2  0  0  0
  1 85  1  0  0  0
  2  3  1  0  0  0
  2 25  1  0  0  0
  2 86  1  0  0  0
  2 87  1  0  0  0
  3  4  1  0  0  0
  3 88  1  0  0  0
  3 89  1  0  0  0
  4  5  1  0  0  0
  4 90  1  0  0  0
  4 91  1  0  0  0
  5  6  1  0  0  0
  5 26  1  0  0  0
  5 92  1  0  0  0
  6 25  1  0  0  0
  6 93  1  0  0  0
  6 94  1  0  0  0
  7  8  2  0  0  0
  7 26  1  0  0  0
  7 29  1  0  0  0
  8  9  1  0  0  0
  8 22  1  0  0  0
  9 10  1  0  0  0
  9 27  2  0  0  0
 10 11  2  0  0  0
 10 15  1  0  0  0
 11 12  1  0  0  0
 11 95  1  0  0  0
 12 13  2  0  0  0
 12 96  1  0  0  0
 13 14  1  0  0  0
 13 31  1  0  0  0
 14 15  2  0  0  0
 14 97  1  0  0  0
 15 98  1  0  0  0
 16 17  2  0  0  0
 16 21  1  0  0  0
 16 31  1  0  0  0
 17 18  1  0  0  0
 17 99  1  0  0  0
 18 19  2  0  0  0
 18100  1  0  0  0
 19 20  1  0  0  0
 19 24  1  0  0  0
 20 21  2  0  0  0
 20101  1  0  0  0
 21 23  1  0  0  0
 22 28  1  0  0  0
 22 32  2  0  0  0
 26 27  1  0  0  0
 28102  1  0  0  0
 28103  1  0  0  0
 29104  1  0  0  0
 29105  1  0  0  0
 33 34  1  0  0  0
 33 66  1  0  0  0
 33 70  2  0  0  0
 34 36  1  0  0  0
 34 59  1  0  0  0
 34106  1  0  0  0
 35 44  2  0  0  0
 35 45  1  0  0  0
 35 68  1  0  0  0
 36 56  1  0  0  0
 36107  1  0  0  0
 37 39  1  0  0  0
 37 47  1  0  0  0
 37 66  1  0  0  0
 37108  1  0  0  0
 38 43  2  0  0  0
 38 46  1  0  0  0
 38 47  1  0  0  0
 39 64  1  0  0  0
 39 67  2  0  0  0
 40 52  1  0  0  0
 40 53  2  0  0  0
 40 58  1  0  0  0
 41109  1  0  0  0
 41110  1  0  0  0
 41111  1  0  0  0
 41 48  1  0  0  0
 42 43  1  0  0  0
 42 66  1  0  0  0
 42112  1  0  0  0
 42113  1  0  0  0
 43 44  1  0  0  0
 44114  1  0  0  0
 45 46  2  0  0  0
 45115  1  0  0  0
 46116  1  0  0  0
 47117  1  0  0  0
 47118  1  0  0  0
 48 56  1  0  0  0
 48 65  1  0  0  0
 48119  1  0  0  0
 49 50  1  0  0  0
 49 53  1  0  0  0
 49 64  1  0  0  0
 49120  1  0  0  0
 50 51  1  0  0  0
 50121  1  0  0  0
 50122  1  0  0  0
 51 52  1  0  0  0
 51123  1  0  0  0
 51124  1  0  0  0
 52125  1  0  0  0
 52126  1  0  0  0
 53 54  1  0  0  0
 54 55  2  0  0  0
 54127  1  0  0  0
 55 57  1  0  0  0
 55128  1  0  0  0
 56 69  2  0  0  0
 57 58  2  0  0  0
 57129  1  0  0  0
 58130  1  0  0  0
 59 60  1  0  0  0
 59 61  1  0  0  0
 59 62  1  0  0  0
 60131  1  0  0  0
 60132  1  0  0  0
 60133  1  0  0  0
 61134  1  0  0  0
 61135  1  0  0  0
 61136  1  0  0  0
 62137  1  0  0  0
 62138  1  0  0  0
 62139  1  0  0  0
 63 65  1  0  0  0
 63140  1  0  0  0
 63141  1  0  0  0
 63142  1  0  0  0
 64143  1  0  0  0
 65144  1  0  0  0
 68 80  1  0  0  0
 71 73  2  0  0  0
 71 75  1  0  0  0
 71145  1  0  0  0
 72 74  1  0  0  0
 72 75  2  0  0  0
 72146  1  0  0  0
 73 76  1  0  0  0
 73147  1  0  0  0
 74 76  2  0  0  0
 74148  1  0  0  0
 75 84  1  0  0  0
 76 85  1  0  0  0
 77 78  1  0  0  0
 77 79  2  0  0  0
 77 81  1  0  0  0
 78 80  2  0  0  0
 78 82  1  0  0  0
 79149  1  0  0  0
 79150  1  0  0  0
 80151  1  0  0  0
 81 83  1  0  0  0
 81152  1  0  0  0
 81153  1  0  0  0
 82 84  1  0  0  0
 82154  1  0  0  0
 82155  1  0  0  0
 83 84  1  0  0  0
 83156  1  0  0  0
 83157  1  0  0  0
 85158  1  0  0  0
M  ISO  4   1 100  68 101  80 101  85 100
M  END
> <chiral flag>
0

> <version>
0

> <s_m_source_file>
/data/baiqing/PycharmProjects/Reinvent-master-3.2/result/LINK_invent/BTK/process_docking_weight1_custom_product_contain_oxygen_bond_distance_aromatic_linkinvent_7_9_3/rearranged_h_0079.sdf

> <i_m_source_file_index>
67

> <r_mmod_Potential_Energy-OPLS-2005>
322.098327636719

> <r_mmod_Stretch_Energy-OPLS-2005>
107.43627166748

> <r_mmod_Bend_Energy-OPLS-2005>
228.847625732422

> <r_mmod_Torsional_Energy-OPLS-2005>
333.568145751953

> <r_mmod_Improper_Torsional_Energy-OPLS-2005>
11.4090900421143

> <r_mmod_Van_der_Waal_Energy-OPLS-2005>
165.403793334961

> <r_mmod_Electrostatic_Energy-OPLS-2005>
-386.048400878906

> <r_mmod_Solvation_Energy-OPLS-2005>
-216.398193359375

> <b_mmod_Minimization_Converged-OPLS-2005>
0

> <r_mmod_RMS_Derivative-OPLS-2005>
2.78437662124634

$$$$
67
                    3D
 Structure written by MMmdl.
160169  0  0  1  0            999 V2000
  -30.5898  -14.7871   20.4457 C   0  0  0  0  0  0
  -30.4382  -12.4748   19.4942 C   0  0  0  0  0  0
  -29.5270  -12.5432   18.2487 C   0  0  0  0  0  0
  -28.0463  -12.3678   18.6401 C   0  0  0  0  0  0
  -27.6490  -13.2442   19.8583 C   0  0  2  0  0  0
  -28.6888  -13.1694   20.9968 C   0  0  0  0  0  0
  -25.2545  -13.8216   20.5705 C   0  0  0  0  0  0
  -24.1831  -13.0447   20.9182 C   0  0  0  0  0  0
  -24.6431  -11.6930   20.8711 C   0  0  0  0  0  0
  -23.9107  -10.4302   21.0391 C   0  0  0  0  0  0
  -24.3652   -9.4215   21.9171 C   0  0  0  0  0  0
  -23.6320   -8.2252   22.0730 C   0  0  0  0  0  0
  -22.4294   -8.0302   21.3532 C   0  0  0  0  0  0
  -21.9934   -9.0273   20.4636 C   0  0  0  0  0  0
  -22.7270  -10.2150   20.3054 C   0  0  0  0  0  0
  -21.6847   -6.0748   22.5275 C   0  0  0  0  0  0
  -21.4019   -6.5644   23.8211 C   0  0  0  0  0  0
  -21.3644   -5.6794   24.9173 C   0  0  0  0  0  0
  -21.6039   -4.3060   24.7220 C   0  0  0  0  0  0
  -21.8812   -3.8152   23.4335 C   0  0  0  0  0  0
  -21.9194   -4.6978   22.3386 C   0  0  0  0  0  0
  -22.7859  -13.5226   21.1857 C   0  0  0  0  0  0
  -22.1669   -4.2170   21.0957 F   0  0  0  0  0  0
  -21.5626   -3.4525   25.7717 F   0  0  0  0  0  0
  -29.9939  -13.5382   20.4336 N   0  0  0  0  0  0
  -26.2989  -12.9439   20.3283 N   0  0  0  0  0  0
  -25.9367  -11.6566   20.5685 N   0  0  0  0  0  0
  -22.0515  -12.8210   22.0442 N   0  0  0  0  0  0
  -25.4267  -15.1948   20.4181 N   0  0  0  0  0  0
  -31.7515  -14.8987   20.0434 O   0  0  0  0  0  0
  -21.6653   -6.8907   21.4246 O   0  0  0  0  0  0
  -22.3525  -14.5505   20.6679 O   0  0  0  0  0  0
  -24.6336  -31.8516   23.1986 C   0  0  0  0  0  0
  -25.9160  -32.4740   23.8326 C   0  0  1  0  0  0
  -27.2125  -27.2135   20.1264 C   0  0  0  0  0  0
  -25.5949  -33.8536   24.2256 N   0  0  0  0  0  0
  -23.4345  -30.4751   21.5412 C   0  0  2  0  0  0
  -24.8817  -28.9213   20.1062 C   0  0  0  0  0  0
  -22.7527  -29.4564   22.4883 C   0  0  0  0  0  0
  -18.0306  -28.1415   22.8468 C   0  0  0  0  0  0
  -24.1491  -36.7273   23.2632 C   0  0  0  0  0  0
  -25.9853  -30.7464   21.3903 C   0  0  0  0  0  0
  -26.0542  -29.3645   20.7322 C   0  0  0  0  0  0
  -27.2164  -28.5190   20.7417 C   0  0  0  0  0  0
  -26.0274  -26.8744   19.4331 C   0  0  0  0  0  0
  -24.8791  -27.6886   19.4405 C   0  0  0  0  0  0
  -23.6550  -29.8140   20.1556 C   0  0  0  0  0  0
  -25.4118  -36.3051   24.0317 C   0  0  1  0  0  0
  -20.5903  -28.3713   23.1259 C   0  0  2  0  0  0
  -20.6788  -26.9419   22.5405 C   0  0  0  0  0  0
  -19.5766  -26.6385   21.5207 C   0  0  0  0  0  0
  -18.1948  -26.7949   22.1614 C   0  0  0  0  0  0
  -19.1561  -28.8887   23.2863 C   0  0  0  0  0  0
  -18.9470  -30.1471   23.8902 C   0  0  0  0  0  0
  -17.6469  -30.6596   24.0563 C   0  0  0  0  0  0
  -25.9062  -34.9423   23.5090 C   0  0  0  0  0  0
  -16.5355  -29.9092   23.6329 C   0  0  0  0  0  0
  -16.7289  -28.6514   23.0342 C   0  0  0  0  0  0
  -26.4513  -31.6579   25.0733 C   0  0  0  0  0  0
  -25.3723  -31.3768   26.1452 C   0  0  0  0  0  0
  -27.0341  -30.2966   24.6280 C   0  0  0  0  0  0
  -27.6086  -32.4304   25.7501 C   0  0  0  0  0  0
  -27.5587  -37.1788   24.8457 C   0  0  0  0  0  0
  -21.4231  -29.3031   22.3636 N   0  0  0  0  0  0
  -26.4290  -37.3752   23.9413 N   0  0  0  0  0  0
  -24.7043  -31.0436   22.0990 N   0  0  0  0  0  0
  -23.4201  -28.8098   23.2994 O   0  0  0  0  0  0
  -28.2899  -26.2783   20.1834 O   0  0  0  0  0  0
  -26.5633  -34.8896   22.4652 O   0  0  0  0  0  0
  -23.5466  -32.1360   23.7229 O   0  0  0  0  0  0
  -28.9360  -19.5970   18.6062 C   0  0  0  0  0  0
  -29.6430  -18.5790   20.6987 C   0  0  0  0  0  0
  -29.3148  -17.1663   18.7424 C   0  0  0  0  0  0
  -29.2943  -19.8050   19.9606 C   0  0  0  0  0  0
  -28.9530  -18.3176   18.0092 C   0  0  0  0  0  0
  -29.6629  -17.2311   20.1101 C   0  0  0  0  0  0
  -30.4052  -23.9680   20.5615 C   0  0  0  0  0  0
  -28.9756  -23.7675   20.3122 C   0  0  0  0  0  0
  -31.1488  -22.8874   21.2185 C   0  0  0  0  0  0
  -28.5367  -22.3134   20.1049 C   0  0  0  0  0  0
  -31.0409  -25.0565   20.0725 C   0  0  0  0  0  0
  -32.4019  -23.0567   21.6844 C   0  0  0  0  0  0
  -28.0843  -24.8446   20.1369 C   0  0  0  0  0  0
  -30.5195  -21.5047   21.3536 C   0  0  0  0  0  0
  -29.3954  -21.2382   20.4427 N   0  0  0  0  0  0
  -28.5995  -18.1924   16.6664 N   0  0  0  0  0  0
  -29.8482  -15.9149   20.8106 N   0  0  0  0  0  0
  -27.4222  -22.0597   19.6346 O   0  0  0  0  0  0
  -31.4836  -12.5927   19.2000 H   0  0  0  0  0  0
  -30.3723  -11.4941   19.9690 H   0  0  0  0  0  0
  -29.8181  -11.7864   17.5204 H   0  0  0  0  0  0
  -29.6585  -13.5089   17.7551 H   0  0  0  0  0  0
  -27.8852  -11.3138   18.8676 H   0  0  0  0  0  0
  -27.4105  -12.6002   17.7849 H   0  0  0  0  0  0
  -27.6428  -14.2736   19.4986 H   0  0  0  0  0  0
  -28.7239  -12.1638   21.4174 H   0  0  0  0  0  0
  -28.4147  -13.8356   21.8170 H   0  0  0  0  0  0
  -25.2793   -9.5676   22.4760 H   0  0  0  0  0  0
  -24.0016   -7.4631   22.7452 H   0  0  0  0  0  0
  -21.0848   -8.8813   19.8958 H   0  0  0  0  0  0
  -22.3724  -10.9706   19.6179 H   0  0  0  0  0  0
  -21.2022   -7.6150   23.9730 H   0  0  0  0  0  0
  -21.1477   -6.0516   25.9070 H   0  0  0  0  0  0
  -22.0606   -2.7609   23.2833 H   0  0  0  0  0  0
  -22.4125  -11.9839   22.4772 H   0  0  0  0  0  0
  -21.1153  -13.1248   22.2697 H   0  0  0  0  0  0
  -24.6705  -15.8568   20.5490 H   0  0  0  0  0  0
  -26.2653  -15.6267   20.0475 H   0  0  0  0  0  0
  -26.7231  -32.5387   23.1066 H   0  0  0  0  0  0
  -25.0130  -33.9671   25.0420 H   0  0  0  0  0  0
  -22.7329  -31.2992   21.3969 H   0  0  0  0  0  0
  -23.3744  -35.9610   23.3272 H   0  0  0  0  0  0
  -24.3583  -36.8913   22.2052 H   0  0  0  0  0  0
  -23.7252  -37.6467   23.6667 H   0  0  0  0  0  0
  -26.1336  -31.5037   20.6183 H   0  0  0  0  0  0
  -26.8566  -30.7930   22.0323 H   0  0  0  0  0  0
  -28.1098  -28.8407   21.2579 H   0  0  0  0  0  0
  -25.9544  -25.9541   18.8755 H   0  0  0  0  0  0
  -23.9899  -27.3600   18.9184 H   0  0  0  0  0  0
  -23.7856  -30.5942   19.4041 H   0  0  0  0  0  0
  -22.7689  -29.2556   19.8449 H   0  0  0  0  0  0
  -25.1289  -36.1901   25.0806 H   0  0  0  0  0  0
  -21.0005  -28.3308   24.1372 H   0  0  0  0  0  0
  -20.5702  -26.2312   23.3618 H   0  0  0  0  0  0
  -21.6664  -26.7445   22.1206 H   0  0  0  0  0  0
  -19.6930  -25.6291   21.1259 H   0  0  0  0  0  0
  -19.6725  -27.3176   20.6732 H   0  0  0  0  0  0
  -17.4213  -26.6677   21.4022 H   0  0  0  0  0  0
  -18.0346  -26.0116   22.9035 H   0  0  0  0  0  0
  -19.7933  -30.7286   24.2281 H   0  0  0  0  0  0
  -17.5005  -31.6284   24.5161 H   0  0  0  0  0  0
  -15.5345  -30.2988   23.7664 H   0  0  0  0  0  0
  -15.8689  -28.0831   22.7061 H   0  0  0  0  0  0
  -24.5908  -30.7106   25.7786 H   0  0  0  0  0  0
  -24.8916  -32.2951   26.4828 H   0  0  0  0  0  0
  -25.8011  -30.8986   27.0266 H   0  0  0  0  0  0
  -26.2930  -29.6727   24.1282 H   0  0  0  0  0  0
  -27.3932  -29.7239   25.4841 H   0  0  0  0  0  0
  -27.8853  -30.4178   23.9582 H   0  0  0  0  0  0
  -27.2721  -33.3599   26.2099 H   0  0  0  0  0  0
  -28.3890  -32.6868   25.0324 H   0  0  0  0  0  0
  -28.0772  -31.8428   26.5408 H   0  0  0  0  0  0
  -28.2584  -38.0104   24.7506 H   0  0  0  0  0  0
  -28.1102  -36.2636   24.6259 H   0  0  0  0  0  0
  -27.2317  -37.1408   25.8861 H   0  0  0  0  0  0
  -20.9435  -29.8748   21.6833 H   0  0  0  0  0  0
  -26.0164  -38.2814   24.1421 H   0  0  0  0  0  0
  -28.6714  -20.4478   17.9945 H   0  0  0  0  0  0
  -29.8966  -18.6785   21.7438 H   0  0  0  0  0  0
  -29.2885  -16.2043   18.2515 H   0  0  0  0  0  0
  -30.5222  -25.8205   19.5142 H   0  0  0  0  0  0
  -32.1030  -25.2097   20.1753 H   0  0  0  0  0  0
  -32.9302  -23.9964   21.6430 H   0  0  0  0  0  0
  -32.9343  -22.2349   22.1426 H   0  0  0  0  0  0
  -27.0526  -24.6014   19.9470 H   0  0  0  0  0  0
  -30.1869  -21.3626   22.3831 H   0  0  0  0  0  0
  -31.3008  -20.7651   21.1681 H   0  0  0  0  0  0
  -28.0784  -18.9424   16.2235 H   0  0  0  0  0  0
  -28.3610  -17.2782   16.2951 H   0  0  0  0  0  0
  -29.0670  -15.6718   21.4003 H   0  0  0  0  0  0
  1 25  1  0  0  0
  1 30  2  0  0  0
  1 87  1  0  0  0
  2  3  1  0  0  0
  2 25  1  0  0  0
  2 89  1  0  0  0
  2 90  1  0  0  0
  3  4  1  0  0  0
  3 91  1  0  0  0
  3 92  1  0  0  0
  4  5  1  0  0  0
  4 93  1  0  0  0
  4 94  1  0  0  0
  5  6  1  0  0  0
  5 26  1  0  0  0
  5 95  1  0  0  0
  6 25  1  0  0  0
  6 96  1  0  0  0
  6 97  1  0  0  0
  7  8  2  0  0  0
  7 26  1  0  0  0
  7 29  1  0  0  0
  8  9  1  0  0  0
  8 22  1  0  0  0
  9 10  1  0  0  0
  9 27  2  0  0  0
 10 11  2  0  0  0
 10 15  1  0  0  0
 11 12  1  0  0  0
 11 98  1  0  0  0
 12 13  2  0  0  0
 12 99  1  0  0  0
 13 14  1  0  0  0
 13 31  1  0  0  0
 14 15  2  0  0  0
 14100  1  0  0  0
 15101  1  0  0  0
 16 17  2  0  0  0
 16 21  1  0  0  0
 16 31  1  0  0  0
 17 18  1  0  0  0
 17102  1  0  0  0
 18 19  2  0  0  0
 18103  1  0  0  0
 19 20  1  0  0  0
 19 24  1  0  0  0
 20 21  2  0  0  0
 20104  1  0  0  0
 21 23  1  0  0  0
 22 28  1  0  0  0
 22 32  2  0  0  0
 26 27  1  0  0  0
 28105  1  0  0  0
 28106  1  0  0  0
 29107  1  0  0  0
 29108  1  0  0  0
 33 34  1  0  0  0
 33 66  1  0  0  0
 33 70  2  0  0  0
 34 36  1  0  0  0
 34 59  1  0  0  0
 34109  1  0  0  0
 35 44  2  0  0  0
 35 45  1  0  0  0
 35 68  1  0  0  0
 36 56  1  0  0  0
 36110  1  0  0  0
 37 39  1  0  0  0
 37 47  1  0  0  0
 37 66  1  0  0  0
 37111  1  0  0  0
 38 43  2  0  0  0
 38 46  1  0  0  0
 38 47  1  0  0  0
 39 64  1  0  0  0
 39 67  2  0  0  0
 40 52  1  0  0  0
 40 53  2  0  0  0
 40 58  1  0  0  0
 41112  1  0  0  0
 41113  1  0  0  0
 41114  1  0  0  0
 41 48  1  0  0  0
 42 43  1  0  0  0
 42 66  1  0  0  0
 42115  1  0  0  0
 42116  1  0  0  0
 43 44  1  0  0  0
 44117  1  0  0  0
 45 46  2  0  0  0
 45118  1  0  0  0
 46119  1  0  0  0
 47120  1  0  0  0
 47121  1  0  0  0
 48 56  1  0  0  0
 48 65  1  0  0  0
 48122  1  0  0  0
 49 50  1  0  0  0
 49 53  1  0  0  0
 49 64  1  0  0  0
 49123  1  0  0  0
 50 51  1  0  0  0
 50124  1  0  0  0
 50125  1  0  0  0
 51 52  1  0  0  0
 51126  1  0  0  0
 51127  1  0  0  0
 52128  1  0  0  0
 52129  1  0  0  0
 53 54  1  0  0  0
 54 55  2  0  0  0
 54130  1  0  0  0
 55 57  1  0  0  0
 55131  1  0  0  0
 56 69  2  0  0  0
 57 58  2  0  0  0
 57132  1  0  0  0
 58133  1  0  0  0
 59 60  1  0  0  0
 59 61  1  0  0  0
 59 62  1  0  0  0
 60134  1  0  0  0
 60135  1  0  0  0
 60136  1  0  0  0
 61137  1  0  0  0
 61138  1  0  0  0
 61139  1  0  0  0
 62140  1  0  0  0
 62141  1  0  0  0
 62142  1  0  0  0
 63 65  1  0  0  0
 63143  1  0  0  0
 63144  1  0  0  0
 63145  1  0  0  0
 64146  1  0  0  0
 65147  1  0  0  0
 68 83  1  0  0  0
 71 74  2  0  0  0
 71 75  1  0  0  0
 71148  1  0  0  0
 72 74  1  0  0  0
 72 76  2  0  0  0
 72149  1  0  0  0
 73 75  2  0  0  0
 73 76  1  0  0  0
 73150  1  0  0  0
 74 85  1  0  0  0
 75 86  1  0  0  0
 76 87  1  0  0  0
 77 78  1  0  0  0
 77 79  1  0  0  0
 77 81  2  0  0  0
 78 80  1  0  0  0
 78 83  2  0  0  0
 79 82  2  0  0  0
 79 84  1  0  0  0
 80 85  1  0  0  0
 80 88  2  0  0  0
 81151  1  0  0  0
 81152  1  0  0  0
 82153  1  0  0  0
 82154  1  0  0  0
 83155  1  0  0  0
 84 85  1  0  0  0
 84156  1  0  0  0
 84157  1  0  0  0
 86158  1  0  0  0
 86159  1  0  0  0
 87160  1  0  0  0
M  ISO  4   1 100  68 101  83 101  87 100
M  END
> <chiral flag>
0

> <version>
0

> <s_m_source_file>
/data/baiqing/PycharmProjects/Reinvent-master-3.2/result/LINK_invent/BTK/process_docking_weight1_custom_product_contain_oxygen_bond_distance_aromatic_linkinvent_7_9_3/rearranged_h_0079.sdf

> <i_m_source_file_index>
68

> <r_mmod_Potential_Energy-OPLS-2005>
426.452484130859

> <r_mmod_Stretch_Energy-OPLS-2005>
169.2646484375

> <r_mmod_Bend_Energy-OPLS-2005>
185.326538085938

> <r_mmod_Torsional_Energy-OPLS-2005>
325.704498291016

> <r_mmod_Improper_Torsional_Energy-OPLS-2005>
8.47522449493408

> <r_mmod_Van_der_Waal_Energy-OPLS-2005>
166.283096313477

> <r_mmod_Electrostatic_Energy-OPLS-2005>
-311.297424316406

> <r_mmod_Solvation_Energy-OPLS-2005>
-227.046798706055

> <b_mmod_Minimization_Converged-OPLS-2005>
0

> <r_mmod_RMS_Derivative-OPLS-2005>
4.00489854812622

$$$$
68
                    3D
 Structure written by MMmdl.
153161  0  0  1  0            999 V2000
  -30.5894  -14.7992   20.4546 C   0  0  0  0  0  0
  -30.4357  -12.4922   19.4775 C   0  0  0  0  0  0
  -29.5162  -12.5108   18.2379 C   0  0  0  0  0  0
  -28.0405  -12.3287   18.6464 C   0  0  0  0  0  0
  -27.6341  -13.2352   19.8395 C   0  0  2  0  0  0
  -28.6786  -13.1950   20.9739 C   0  0  0  0  0  0
  -25.2466  -13.8194   20.5666 C   0  0  0  0  0  0
  -24.1776  -13.0432   20.9204 C   0  0  0  0  0  0
  -24.6382  -11.6920   20.8742 C   0  0  0  0  0  0
  -23.9067  -10.4299   21.0395 C   0  0  0  0  0  0
  -24.3618   -9.4213   21.9173 C   0  0  0  0  0  0
  -23.6300   -8.2238   22.0742 C   0  0  0  0  0  0
  -22.4281   -8.0272   21.3539 C   0  0  0  0  0  0
  -21.9918   -9.0245   20.4647 C   0  0  0  0  0  0
  -22.7237  -10.2132   20.3055 C   0  0  0  0  0  0
  -21.6856   -6.0733   22.5282 C   0  0  0  0  0  0
  -21.4017   -6.5635   23.8216 C   0  0  0  0  0  0
  -21.3668   -5.6787   24.9176 C   0  0  0  0  0  0
  -21.6045   -4.3051   24.7228 C   0  0  0  0  0  0
  -21.8816   -3.8149   23.4347 C   0  0  0  0  0  0
  -21.9183   -4.6963   22.3401 C   0  0  0  0  0  0
  -22.7795  -13.5216   21.1861 C   0  0  0  0  0  0
  -22.1649   -4.2148   21.0978 F   0  0  0  0  0  0
  -21.5629   -3.4536   25.7738 F   0  0  0  0  0  0
  -29.9712  -13.5667   20.3857 N   0  0  0  0  0  0
  -26.2893  -12.9408   20.3224 N   0  0  0  0  0  0
  -25.9304  -11.6555   20.5728 N   0  0  0  0  0  0
  -22.0430  -12.8248   22.0441 N   0  0  0  0  0  0
  -25.4119  -15.1926   20.4081 N   0  0  0  0  0  0
  -31.7943  -14.8762   20.1904 O   0  0  0  0  0  0
  -21.6642   -6.8881   21.4243 O   0  0  0  0  0  0
  -22.3497  -14.5511   20.6674 O   0  0  0  0  0  0
  -24.6317  -31.8509   23.1955 C   0  0  0  0  0  0
  -25.9130  -32.4730   23.8321 C   0  0  1  0  0  0
  -27.2341  -27.2438   20.1570 C   0  0  0  0  0  0
  -25.5920  -33.8533   24.2250 N   0  0  0  0  0  0
  -23.4324  -30.4696   21.5370 C   0  0  2  0  0  0
  -24.8832  -28.9032   20.1190 C   0  0  0  0  0  0
  -22.7496  -29.4585   22.4895 C   0  0  0  0  0  0
  -18.0293  -28.1404   22.8484 C   0  0  0  0  0  0
  -24.1489  -36.7293   23.2642 C   0  0  0  0  0  0
  -25.9776  -30.7608   21.3760 C   0  0  0  0  0  0
  -26.0545  -29.3780   20.7247 C   0  0  0  0  0  0
  -27.2324  -28.5638   20.7248 C   0  0  0  0  0  0
  -26.0424  -26.8294   19.5286 C   0  0  0  0  0  0
  -24.8830  -27.6364   19.5093 C   0  0  0  0  0  0
  -23.6548  -29.7927   20.1574 C   0  0  0  0  0  0
  -25.4113  -36.3059   24.0334 C   0  0  1  0  0  0
  -20.5892  -28.3710   23.1264 C   0  0  2  0  0  0
  -20.6781  -26.9424   22.5408 C   0  0  0  0  0  0
  -19.5765  -26.6393   21.5211 C   0  0  0  0  0  0
  -18.1944  -26.7950   22.1619 C   0  0  0  0  0  0
  -19.1540  -28.8877   23.2872 C   0  0  0  0  0  0
  -18.9458  -30.1482   23.8890 C   0  0  0  0  0  0
  -17.6455  -30.6599   24.0571 C   0  0  0  0  0  0
  -25.9055  -34.9427   23.5103 C   0  0  0  0  0  0
  -16.5352  -29.9102   23.6332 C   0  0  0  0  0  0
  -16.7278  -28.6519   23.0353 C   0  0  0  0  0  0
  -26.4498  -31.6562   25.0722 C   0  0  0  0  0  0
  -25.3707  -31.3733   26.1437 C   0  0  0  0  0  0
  -27.0347  -30.2968   24.6238 C   0  0  0  0  0  0
  -27.6059  -32.4310   25.7488 C   0  0  0  0  0  0
  -27.5584  -37.1794   24.8461 C   0  0  0  0  0  0
  -21.4201  -29.3049   22.3633 N   0  0  0  0  0  0
  -26.4289  -37.3759   23.9410 N   0  0  0  0  0  0
  -24.7000  -31.0467   22.0929 N   0  0  0  0  0  0
  -23.4165  -28.8131   23.3022 O   0  0  0  0  0  0
  -28.3574  -26.3821   20.1348 O   0  0  0  0  0  0
  -26.5635  -34.8901   22.4677 O   0  0  0  0  0  0
  -23.5467  -32.1340   23.7244 O   0  0  0  0  0  0
  -31.6462  -19.1112   21.6453 C   0  0  0  0  0  0
  -30.8280  -20.1807   21.2162 C   0  0  0  0  0  0
  -31.3105  -17.7606   21.4023 C   0  0  0  0  0  0
  -29.2868  -18.5322   20.3101 C   0  0  0  0  0  0
  -29.6158  -19.9456   20.5314 C   0  0  0  0  0  0
  -30.1230  -17.4013   20.7246 C   0  0  0  0  0  0
  -28.8045  -21.1617   19.9500 C   0  0  0  0  0  0
  -28.3391  -23.6656   20.0002 C   0  0  0  0  0  0
  -27.5164  -25.0017   22.0926 C   0  0  0  0  0  0
  -28.4221  -25.0391   20.8458 C   0  0  2  0  0  0
  -29.7920  -15.9476   20.5526 N   0  0  0  0  0  0
  -28.8729  -22.4564   20.4770 N   0  0  0  0  0  0
  -28.0866  -20.9020   18.9793 O   0  0  0  0  0  0
  -27.7780  -23.7412   18.9020 O   0  0  0  0  0  0
  -31.4757  -12.6253   19.1803 H   0  0  0  0  0  0
  -30.3896  -11.5253   19.9809 H   0  0  0  0  0  0
  -29.8150  -11.7310   17.5363 H   0  0  0  0  0  0
  -29.6347  -13.4570   17.7080 H   0  0  0  0  0  0
  -27.9004  -11.2812   18.9157 H   0  0  0  0  0  0
  -27.3883  -12.5053   17.7901 H   0  0  0  0  0  0
  -27.6175  -14.2518   19.4455 H   0  0  0  0  0  0
  -28.7279  -12.2016   21.4225 H   0  0  0  0  0  0
  -28.4019  -13.8796   21.7770 H   0  0  0  0  0  0
  -25.2758   -9.5695   22.4752 H   0  0  0  0  0  0
  -24.0004   -7.4645   22.7471 H   0  0  0  0  0  0
  -21.0832   -8.8781   19.8982 H   0  0  0  0  0  0
  -22.3679  -10.9667   19.6178 H   0  0  0  0  0  0
  -21.2021   -7.6153   23.9727 H   0  0  0  0  0  0
  -21.1490   -6.0513   25.9082 H   0  0  0  0  0  0
  -22.0587   -2.7606   23.2841 H   0  0  0  0  0  0
  -22.4024  -11.9949   22.4908 H   0  0  0  0  0  0
  -21.1037  -13.1284   22.2582 H   0  0  0  0  0  0
  -24.6390  -15.8402   20.5252 H   0  0  0  0  0  0
  -26.2493  -15.6409   20.0616 H   0  0  0  0  0  0
  -26.7200  -32.5365   23.1067 H   0  0  0  0  0  0
  -25.0019  -33.9659   25.0365 H   0  0  0  0  0  0
  -22.7311  -31.2914   21.3814 H   0  0  0  0  0  0
  -23.3745  -35.9628   23.3291 H   0  0  0  0  0  0
  -24.3584  -36.8926   22.2056 H   0  0  0  0  0  0
  -23.7233  -37.6495   23.6667 H   0  0  0  0  0  0
  -26.1136  -31.5186   20.6028 H   0  0  0  0  0  0
  -26.8553  -30.8141   22.0096 H   0  0  0  0  0  0
  -28.1353  -28.9289   21.1935 H   0  0  0  0  0  0
  -26.0039  -25.8569   19.0592 H   0  0  0  0  0  0
  -23.9858  -27.2646   19.0350 H   0  0  0  0  0  0
  -23.7845  -30.5624   19.3957 H   0  0  0  0  0  0
  -22.7729  -29.2264   19.8531 H   0  0  0  0  0  0
  -25.1284  -36.1920   25.0827 H   0  0  0  0  0  0
  -20.9988  -28.3293   24.1388 H   0  0  0  0  0  0
  -20.5695  -26.2307   23.3610 H   0  0  0  0  0  0
  -21.6643  -26.7467   22.1188 H   0  0  0  0  0  0
  -19.6929  -25.6300   21.1255 H   0  0  0  0  0  0
  -19.6721  -27.3185   20.6732 H   0  0  0  0  0  0
  -17.4213  -26.6700   21.4023 H   0  0  0  0  0  0
  -18.0351  -26.0099   22.9024 H   0  0  0  0  0  0
  -19.7938  -30.7313   24.2237 H   0  0  0  0  0  0
  -17.5014  -31.6268   24.5187 H   0  0  0  0  0  0
  -15.5354  -30.3006   23.7669 H   0  0  0  0  0  0
  -15.8672  -28.0845   22.7066 H   0  0  0  0  0  0
  -24.5864  -30.7117   25.7752 H   0  0  0  0  0  0
  -24.8928  -32.2911   26.4868 H   0  0  0  0  0  0
  -25.8003  -30.8883   27.0205 H   0  0  0  0  0  0
  -26.2943  -29.6705   24.1253 H   0  0  0  0  0  0
  -27.3988  -29.7253   25.4787 H   0  0  0  0  0  0
  -27.8832  -30.4235   23.9512 H   0  0  0  0  0  0
  -27.2671  -33.3607   26.2071 H   0  0  0  0  0  0
  -28.3849  -32.6874   25.0297 H   0  0  0  0  0  0
  -28.0741  -31.8429   26.5389 H   0  0  0  0  0  0
  -28.2588  -38.0105   24.7498 H   0  0  0  0  0  0
  -28.1090  -36.2630   24.6283 H   0  0  0  0  0  0
  -27.2303  -37.1430   25.8864 H   0  0  0  0  0  0
  -20.9398  -29.8739   21.6807 H   0  0  0  0  0  0
  -26.0178  -38.2836   24.1411 H   0  0  0  0  0  0
  -32.5635  -19.3365   22.1719 H   0  0  0  0  0  0
  -31.1657  -21.1911   21.4035 H   0  0  0  0  0  0
  -31.9814  -16.9963   21.7693 H   0  0  0  0  0  0
  -28.3724  -18.3202   19.7740 H   0  0  0  0  0  0
  -26.4730  -25.2048   21.8512 H   0  0  0  0  0  0
  -27.8404  -25.7389   22.8277 H   0  0  0  0  0  0
  -27.5543  -24.0280   22.5838 H   0  0  0  0  0  0
  -29.4432  -25.0161   21.2309 H   0  0  0  0  0  0
  -28.8056  -15.7443   20.5182 H   0  0  0  0  0  0
  -29.3778  -22.5288   21.3441 H   0  0  0  0  0  0
  1 25  1  0  0  0
  1 30  2  0  0  0
  1 81  1  0  0  0
  2  3  1  0  0  0
  2 25  1  0  0  0
  2 85  1  0  0  0
  2 86  1  0  0  0
  3  4  1  0  0  0
  3 87  1  0  0  0
  3 88  1  0  0  0
  4  5  1  0  0  0
  4 89  1  0  0  0
  4 90  1  0  0  0
  5  6  1  0  0  0
  5 26  1  0  0  0
  5 91  1  0  0  0
  6 25  1  0  0  0
  6 92  1  0  0  0
  6 93  1  0  0  0
  7  8  2  0  0  0
  7 26  1  0  0  0
  7 29  1  0  0  0
  8  9  1  0  0  0
  8 22  1  0  0  0
  9 10  1  0  0  0
  9 27  2  0  0  0
 10 11  2  0  0  0
 10 15  1  0  0  0
 11 12  1  0  0  0
 11 94  1  0  0  0
 12 13  2  0  0  0
 12 95  1  0  0  0
 13 14  1  0  0  0
 13 31  1  0  0  0
 14 15  2  0  0  0
 14 96  1  0  0  0
 15 97  1  0  0  0
 16 17  2  0  0  0
 16 21  1  0  0  0
 16 31  1  0  0  0
 17 18  1  0  0  0
 17 98  1  0  0  0
 18 19  2  0  0  0
 18 99  1  0  0  0
 19 20  1  0  0  0
 19 24  1  0  0  0
 20 21  2  0  0  0
 20100  1  0  0  0
 21 23  1  0  0  0
 22 28  1  0  0  0
 22 32  2  0  0  0
 26 27  1  0  0  0
 28101  1  0  0  0
 28102  1  0  0  0
 29103  1  0  0  0
 29104  1  0  0  0
 33 34  1  0  0  0
 33 66  1  0  0  0
 33 70  2  0  0  0
 34 36  1  0  0  0
 34 59  1  0  0  0
 34105  1  0  0  0
 35 44  2  0  0  0
 35 45  1  0  0  0
 35 68  1  0  0  0
 36 56  1  0  0  0
 36106  1  0  0  0
 37 39  1  0  0  0
 37 47  1  0  0  0
 37 66  1  0  0  0
 37107  1  0  0  0
 38 43  2  0  0  0
 38 46  1  0  0  0
 38 47  1  0  0  0
 39 64  1  0  0  0
 39 67  2  0  0  0
 40 52  1  0  0  0
 40 53  2  0  0  0
 40 58  1  0  0  0
 41108  1  0  0  0
 41109  1  0  0  0
 41110  1  0  0  0
 41 48  1  0  0  0
 42 43  1  0  0  0
 42 66  1  0  0  0
 42111  1  0  0  0
 42112  1  0  0  0
 43 44  1  0  0  0
 44113  1  0  0  0
 45 46  2  0  0  0
 45114  1  0  0  0
 46115  1  0  0  0
 47116  1  0  0  0
 47117  1  0  0  0
 48 56  1  0  0  0
 48 65  1  0  0  0
 48118  1  0  0  0
 49 50  1  0  0  0
 49 53  1  0  0  0
 49 64  1  0  0  0
 49119  1  0  0  0
 50 51  1  0  0  0
 50120  1  0  0  0
 50121  1  0  0  0
 51 52  1  0  0  0
 51122  1  0  0  0
 51123  1  0  0  0
 52124  1  0  0  0
 52125  1  0  0  0
 53 54  1  0  0  0
 54 55  2  0  0  0
 54126  1  0  0  0
 55 57  1  0  0  0
 55127  1  0  0  0
 56 69  2  0  0  0
 57 58  2  0  0  0
 57128  1  0  0  0
 58129  1  0  0  0
 59 60  1  0  0  0
 59 61  1  0  0  0
 59 62  1  0  0  0
 60130  1  0  0  0
 60131  1  0  0  0
 60132  1  0  0  0
 61133  1  0  0  0
 61134  1  0  0  0
 61135  1  0  0  0
 62136  1  0  0  0
 62137  1  0  0  0
 62138  1  0  0  0
 63 65  1  0  0  0
 63139  1  0  0  0
 63140  1  0  0  0
 63141  1  0  0  0
 64142  1  0  0  0
 65143  1  0  0  0
 68 80  1  0  0  0
 71 72  2  0  0  0
 71 73  1  0  0  0
 71144  1  0  0  0
 72 75  1  0  0  0
 72145  1  0  0  0
 73 76  2  0  0  0
 73146  1  0  0  0
 74 75  2  0  0  0
 74 76  1  0  0  0
 74147  1  0  0  0
 75 77  1  0  0  0
 76 81  1  0  0  0
 77 82  1  0  0  0
 77 83  2  0  0  0
 78 80  1  0  0  0
 78 82  1  0  0  0
 78 84  2  0  0  0
 79148  1  0  0  0
 79149  1  0  0  0
 79150  1  0  0  0
 79 80  1  0  0  0
 80151  1  0  0  0
 81152  1  0  0  0
 82153  1  0  0  0
M  ISO  4   1 100  68 101  80 101  81 100
M  END
> <chiral flag>
0

> <version>
0

> <s_m_source_file>
/data/baiqing/PycharmProjects/Reinvent-master-3.2/result/LINK_invent/BTK/process_docking_weight1_custom_product_contain_oxygen_bond_distance_aromatic_linkinvent_7_9_3/rearranged_h_0079.sdf

> <i_m_source_file_index>
69

> <r_mmod_Potential_Energy-OPLS-2005>
63.645866394043

> <r_mmod_Stretch_Energy-OPLS-2005>
144.944808959961

> <r_mmod_Bend_Energy-OPLS-2005>
180.962432861328

> <r_mmod_Torsional_Energy-OPLS-2005>
256.260711669922

> <r_mmod_Improper_Torsional_Energy-OPLS-2005>
6.81774616241455

> <r_mmod_Van_der_Waal_Energy-OPLS-2005>
132.841293334961

> <r_mmod_Electrostatic_Energy-OPLS-2005>
-481.985656738281

> <r_mmod_Solvation_Energy-OPLS-2005>
-276.688293457031

> <b_mmod_Minimization_Converged-OPLS-2005>
0

> <r_mmod_RMS_Derivative-OPLS-2005>
2.70299005508423

$$$$
69
                    3D
 Structure written by MMmdl.
158167  0  0  1  0            999 V2000
  -30.6576  -14.6330   20.6035 C   0  0  0  0  0  0
  -30.4414  -12.4206   19.4554 C   0  0  0  0  0  0
  -29.5113  -12.5405   18.2263 C   0  0  0  0  0  0
  -28.0329  -12.3622   18.6262 C   0  0  0  0  0  0
  -27.6564  -13.2127   19.8651 C   0  0  2  0  0  0
  -28.6912  -13.0215   20.9908 C   0  0  0  0  0  0
  -25.2572  -13.8153   20.5657 C   0  0  0  0  0  0
  -24.1831  -13.0430   20.9153 C   0  0  0  0  0  0
  -24.6387  -11.6897   20.8699 C   0  0  0  0  0  0
  -23.9050  -10.4288   21.0388 C   0  0  0  0  0  0
  -24.3601   -9.4215   21.9175 C   0  0  0  0  0  0
  -23.6279   -8.2253   22.0756 C   0  0  0  0  0  0
  -22.4264   -8.0279   21.3544 C   0  0  0  0  0  0
  -21.9896   -9.0245   20.4646 C   0  0  0  0  0  0
  -22.7219  -10.2128   20.3045 C   0  0  0  0  0  0
  -21.6851   -6.0736   22.5279 C   0  0  0  0  0  0
  -21.4008   -6.5637   23.8209 C   0  0  0  0  0  0
  -21.3660   -5.6790   24.9173 C   0  0  0  0  0  0
  -21.6046   -4.3051   24.7225 C   0  0  0  0  0  0
  -21.8817   -3.8143   23.4346 C   0  0  0  0  0  0
  -21.9189   -4.6963   22.3403 C   0  0  0  0  0  0
  -22.7861  -13.5235   21.1836 C   0  0  0  0  0  0
  -22.1662   -4.2149   21.0981 F   0  0  0  0  0  0
  -21.5630   -3.4537   25.7742 F   0  0  0  0  0  0
  -30.0162  -13.4147   20.4697 N   0  0  0  0  0  0
  -26.2992  -12.9327   20.3279 N   0  0  0  0  0  0
  -25.9308  -11.6480   20.5687 N   0  0  0  0  0  0
  -22.0503  -12.8230   22.0397 N   0  0  0  0  0  0
  -25.4284  -15.1873   20.4104 N   0  0  0  0  0  0
  -31.7216  -14.8544   20.0133 O   0  0  0  0  0  0
  -21.6630   -6.8878   21.4244 O   0  0  0  0  0  0
  -22.3551  -14.5550   20.6700 O   0  0  0  0  0  0
  -24.6266  -31.8571   23.2013 C   0  0  0  0  0  0
  -25.9108  -32.4756   23.8350 C   0  0  1  0  0  0
  -27.2313  -27.3065   20.1093 C   0  0  0  0  0  0
  -25.5922  -33.8563   24.2274 N   0  0  0  0  0  0
  -23.4195  -30.4795   21.5434 C   0  0  2  0  0  0
  -24.8665  -28.9298   20.1121 C   0  0  0  0  0  0
  -22.7469  -29.4603   22.4937 C   0  0  0  0  0  0
  -18.0279  -28.1367   22.8480 C   0  0  0  0  0  0
  -24.1484  -36.7285   23.2639 C   0  0  0  0  0  0
  -25.9616  -30.7837   21.3729 C   0  0  0  0  0  0
  -26.0352  -29.4096   20.7151 C   0  0  0  0  0  0
  -27.2153  -28.6075   20.7070 C   0  0  0  0  0  0
  -26.0308  -26.8735   19.5004 C   0  0  0  0  0  0
  -24.8672  -27.6671   19.4994 C   0  0  0  0  0  0
  -23.6337  -29.8091   20.1605 C   0  0  0  0  0  0
  -25.4110  -36.3071   24.0330 C   0  0  1  0  0  0
  -20.5877  -28.3676   23.1280 C   0  0  2  0  0  0
  -20.6763  -26.9399   22.5404 C   0  0  0  0  0  0
  -19.5747  -26.6368   21.5201 C   0  0  0  0  0  0
  -18.1919  -26.7905   22.1613 C   0  0  0  0  0  0
  -19.1528  -28.8840   23.2867 C   0  0  0  0  0  0
  -18.9456  -30.1441   23.8886 C   0  0  0  0  0  0
  -17.6460  -30.6574   24.0553 C   0  0  0  0  0  0
  -25.9049  -34.9437   23.5105 C   0  0  0  0  0  0
  -16.5350  -29.9070   23.6334 C   0  0  0  0  0  0
  -16.7265  -28.6482   23.0361 C   0  0  0  0  0  0
  -26.4490  -31.6580   25.0730 C   0  0  0  0  0  0
  -25.3725  -31.3689   26.1461 C   0  0  0  0  0  0
  -27.0353  -30.3012   24.6189 C   0  0  0  0  0  0
  -27.6047  -32.4324   25.7498 C   0  0  0  0  0  0
  -27.5574  -37.1795   24.8461 C   0  0  0  0  0  0
  -21.4182  -29.3033   22.3681 N   0  0  0  0  0  0
  -26.4277  -37.3771   23.9419 N   0  0  0  0  0  0
  -24.6883  -31.0570   22.0961 N   0  0  0  0  0  0
  -23.4191  -28.8153   23.3021 O   0  0  0  0  0  0
  -28.3734  -26.4873   20.1779 O   0  0  0  0  0  0
  -26.5618  -34.8900   22.4675 O   0  0  0  0  0  0
  -23.5436  -32.1385   23.7329 O   0  0  0  0  0  0
  -29.9501  -18.1538   22.3549 C   0  0  0  0  0  0
  -29.6837  -19.5409   22.2152 C   0  0  0  0  0  0
  -29.7463  -17.8554   20.0004 C   0  0  0  0  0  0
  -29.9628  -17.2352   21.2679 C   0  0  0  0  0  0
  -29.4156  -20.1673   20.9692 C   0  0  0  0  0  0
  -29.4818  -19.2667   19.8505 C   0  0  0  0  0  0
  -29.0541  -22.6141   19.9668 C   0  0  0  0  0  0
  -28.5711  -23.8306   20.3743 C   0  0  0  0  0  0
  -28.1964  -23.6225   21.7539 C   0  0  0  0  0  0
  -27.6287  -24.5258   22.5698 C   0  0  0  0  0  0
  -30.0738  -15.7162   21.5922 C   0  0  0  0  0  0
  -28.5274  -22.1968   22.1642 C   0  0  0  0  0  0
  -28.4760  -25.1577   19.5217 C   0  0  0  0  0  0
  -29.7478  -15.3490   22.7638 N   0  0  0  0  0  0
  -29.0657  -21.5831   20.9435 N   0  0  0  0  0  0
  -29.2287  -19.7518   18.5686 N   0  0  0  0  0  0
  -31.4805  -12.5562   19.1516 H   0  0  0  0  0  0
  -30.3942  -11.4138   19.8733 H   0  0  0  0  0  0
  -29.7859  -11.8026   17.4718 H   0  0  0  0  0  0
  -29.6484  -13.5181   17.7614 H   0  0  0  0  0  0
  -27.8695  -11.3049   18.8405 H   0  0  0  0  0  0
  -27.3815  -12.6061   17.7861 H   0  0  0  0  0  0
  -27.6899  -14.2580   19.5563 H   0  0  0  0  0  0
  -28.7147  -11.9771   21.3066 H   0  0  0  0  0  0
  -28.3661  -13.5637   21.8731 H   0  0  0  0  0  0
  -25.2749   -9.5698   22.4741 H   0  0  0  0  0  0
  -23.9989   -7.4652   22.7484 H   0  0  0  0  0  0
  -21.0824   -8.8759   19.8960 H   0  0  0  0  0  0
  -22.3672  -10.9658   19.6145 H   0  0  0  0  0  0
  -21.1997   -7.6141   23.9714 H   0  0  0  0  0  0
  -21.1484   -6.0519   25.9073 H   0  0  0  0  0  0
  -22.0592   -2.7609   23.2846 H   0  0  0  0  0  0
  -22.4112  -11.9886   22.4779 H   0  0  0  0  0  0
  -21.1127  -13.1265   22.2608 H   0  0  0  0  0  0
  -24.6636  -15.8433   20.5279 H   0  0  0  0  0  0
  -26.2875  -15.6305   20.1110 H   0  0  0  0  0  0
  -26.7170  -32.5415   23.1094 H   0  0  0  0  0  0
  -25.0099  -33.9723   25.0435 H   0  0  0  0  0  0
  -22.7130  -31.2992   21.3968 H   0  0  0  0  0  0
  -23.3748  -35.9612   23.3283 H   0  0  0  0  0  0
  -24.3572  -36.8939   22.2057 H   0  0  0  0  0  0
  -23.7239  -37.6479   23.6684 H   0  0  0  0  0  0
  -26.0912  -31.5440   20.6014 H   0  0  0  0  0  0
  -26.8427  -30.8347   22.0005 H   0  0  0  0  0  0
  -28.1111  -28.9708   21.1909 H   0  0  0  0  0  0
  -25.9393  -25.9000   19.0474 H   0  0  0  0  0  0
  -23.9662  -27.2872   19.0376 H   0  0  0  0  0  0
  -23.7478  -30.5814   19.3995 H   0  0  0  0  0  0
  -22.7549  -29.2346   19.8634 H   0  0  0  0  0  0
  -25.1281  -36.1911   25.0821 H   0  0  0  0  0  0
  -20.9963  -28.3241   24.1405 H   0  0  0  0  0  0
  -20.5655  -26.2281   23.3599 H   0  0  0  0  0  0
  -21.6634  -26.7416   22.1209 H   0  0  0  0  0  0
  -19.6911  -25.6278   21.1239 H   0  0  0  0  0  0
  -19.6689  -27.3167   20.6723 H   0  0  0  0  0  0
  -17.4193  -26.6658   21.4005 H   0  0  0  0  0  0
  -18.0317  -26.0030   22.8995 H   0  0  0  0  0  0
  -19.7936  -30.7250   24.2252 H   0  0  0  0  0  0
  -17.5018  -31.6260   24.5145 H   0  0  0  0  0  0
  -15.5350  -30.2972   23.7672 H   0  0  0  0  0  0
  -15.8657  -28.0802   22.7102 H   0  0  0  0  0  0
  -24.5941  -30.6986   25.7801 H   0  0  0  0  0  0
  -24.8856  -32.2828   26.4871 H   0  0  0  0  0  0
  -25.8068  -30.8907   27.0248 H   0  0  0  0  0  0
  -26.2941  -29.6742   24.1230 H   0  0  0  0  0  0
  -27.4079  -29.7285   25.4689 H   0  0  0  0  0  0
  -27.8773  -30.4316   23.9393 H   0  0  0  0  0  0
  -27.2681  -33.3660   26.2010 H   0  0  0  0  0  0
  -28.3881  -32.6834   25.0336 H   0  0  0  0  0  0
  -28.0671  -31.8488   26.5465 H   0  0  0  0  0  0
  -28.2568  -38.0113   24.7542 H   0  0  0  0  0  0
  -28.1099  -36.2652   24.6242 H   0  0  0  0  0  0
  -27.2293  -37.1382   25.8861 H   0  0  0  0  0  0
  -20.9359  -29.8779   21.6914 H   0  0  0  0  0  0
  -26.0150  -38.2839   24.1439 H   0  0  0  0  0  0
  -30.1219  -17.7973   23.3607 H   0  0  0  0  0  0
  -29.6803  -20.1158   23.1276 H   0  0  0  0  0  0
  -29.7429  -17.2226   19.1240 H   0  0  0  0  0  0
  -29.4559  -22.3884   18.9884 H   0  0  0  0  0  0
  -27.3982  -25.5291   22.2492 H   0  0  0  0  0  0
  -27.3786  -24.2675   23.5887 H   0  0  0  0  0  0
  -27.6323  -21.6753   22.5076 H   0  0  0  0  0  0
  -29.2626  -22.2179   22.9698 H   0  0  0  0  0  0
  -27.7461  -25.0084   18.7309 H   0  0  0  0  0  0
  -29.4199  -25.2029   18.9789 H   0  0  0  0  0  0
  -29.4145  -16.1319   23.3118 H   0  0  0  0  0  0
  -28.9017  -19.0929   17.8706 H   0  0  0  0  0  0
  -28.7259  -20.6325   18.5416 H   0  0  0  0  0  0
  1 25  1  0  0  0
  1 30  2  0  0  0
  1 81  1  0  0  0
  2  3  1  0  0  0
  2 25  1  0  0  0
  2 87  1  0  0  0
  2 88  1  0  0  0
  3  4  1  0  0  0
  3 89  1  0  0  0
  3 90  1  0  0  0
  4  5  1  0  0  0
  4 91  1  0  0  0
  4 92  1  0  0  0
  5  6  1  0  0  0
  5 26  1  0  0  0
  5 93  1  0  0  0
  6 25  1  0  0  0
  6 94  1  0  0  0
  6 95  1  0  0  0
  7  8  2  0  0  0
  7 26  1  0  0  0
  7 29  1  0  0  0
  8  9  1  0  0  0
  8 22  1  0  0  0
  9 10  1  0  0  0
  9 27  2  0  0  0
 10 11  2  0  0  0
 10 15  1  0  0  0
 11 12  1  0  0  0
 11 96  1  0  0  0
 12 13  2  0  0  0
 12 97  1  0  0  0
 13 14  1  0  0  0
 13 31  1  0  0  0
 14 15  2  0  0  0
 14 98  1  0  0  0
 15 99  1  0  0  0
 16 17  2  0  0  0
 16 21  1  0  0  0
 16 31  1  0  0  0
 17 18  1  0  0  0
 17100  1  0  0  0
 18 19  2  0  0  0
 18101  1  0  0  0
 19 20  1  0  0  0
 19 24  1  0  0  0
 20 21  2  0  0  0
 20102  1  0  0  0
 21 23  1  0  0  0
 22 28  1  0  0  0
 22 32  2  0  0  0
 26 27  1  0  0  0
 28103  1  0  0  0
 28104  1  0  0  0
 29105  1  0  0  0
 29106  1  0  0  0
 33 34  1  0  0  0
 33 66  1  0  0  0
 33 70  2  0  0  0
 34 36  1  0  0  0
 34 59  1  0  0  0
 34107  1  0  0  0
 35 44  2  0  0  0
 35 45  1  0  0  0
 35 68  1  0  0  0
 36 56  1  0  0  0
 36108  1  0  0  0
 37 39  1  0  0  0
 37 47  1  0  0  0
 37 66  1  0  0  0
 37109  1  0  0  0
 38 43  2  0  0  0
 38 46  1  0  0  0
 38 47  1  0  0  0
 39 64  1  0  0  0
 39 67  2  0  0  0
 40 52  1  0  0  0
 40 53  2  0  0  0
 40 58  1  0  0  0
 41110  1  0  0  0
 41111  1  0  0  0
 41112  1  0  0  0
 41 48  1  0  0  0
 42 43  1  0  0  0
 42 66  1  0  0  0
 42113  1  0  0  0
 42114  1  0  0  0
 43 44  1  0  0  0
 44115  1  0  0  0
 45 46  2  0  0  0
 45116  1  0  0  0
 46117  1  0  0  0
 47118  1  0  0  0
 47119  1  0  0  0
 48 56  1  0  0  0
 48 65  1  0  0  0
 48120  1  0  0  0
 49 50  1  0  0  0
 49 53  1  0  0  0
 49 64  1  0  0  0
 49121  1  0  0  0
 50 51  1  0  0  0
 50122  1  0  0  0
 50123  1  0  0  0
 51 52  1  0  0  0
 51124  1  0  0  0
 51125  1  0  0  0
 52126  1  0  0  0
 52127  1  0  0  0
 53 54  1  0  0  0
 54 55  2  0  0  0
 54128  1  0  0  0
 55 57  1  0  0  0
 55129  1  0  0  0
 56 69  2  0  0  0
 57 58  2  0  0  0
 57130  1  0  0  0
 58131  1  0  0  0
 59 60  1  0  0  0
 59 61  1  0  0  0
 59 62  1  0  0  0
 60132  1  0  0  0
 60133  1  0  0  0
 60134  1  0  0  0
 61135  1  0  0  0
 61136  1  0  0  0
 61137  1  0  0  0
 62138  1  0  0  0
 62139  1  0  0  0
 62140  1  0  0  0
 63 65  1  0  0  0
 63141  1  0  0  0
 63142  1  0  0  0
 63143  1  0  0  0
 64144  1  0  0  0
 65145  1  0  0  0
 68 83  1  0  0  0
 71 72  2  0  0  0
 71 74  1  0  0  0
 71146  1  0  0  0
 72 75  1  0  0  0
 72147  1  0  0  0
 73 74  2  0  0  0
 73 76  1  0  0  0
 73148  1  0  0  0
 74 81  1  0  0  0
 75 76  2  0  0  0
 75 85  1  0  0  0
 76 86  1  0  0  0
 77 78  2  0  0  0
 77 85  1  0  0  0
 77149  1  0  0  0
 78 79  1  0  0  0
 78 83  1  0  0  0
 79 80  2  0  0  0
 79 82  1  0  0  0
 80150  1  0  0  0
 80151  1  0  0  0
 81 84  2  0  0  0
 82 85  1  0  0  0
 82152  1  0  0  0
 82153  1  0  0  0
 83154  1  0  0  0
 83155  1  0  0  0
 84156  1  0  0  0
 86157  1  0  0  0
 86158  1  0  0  0
M  ISO  4   1 100  68 101  81 100  83 101
M  END
> <chiral flag>
0

> <version>
0

> <s_m_source_file>
/data/baiqing/PycharmProjects/Reinvent-master-3.2/result/LINK_invent/BTK/process_docking_weight1_custom_product_contain_oxygen_bond_distance_aromatic_linkinvent_7_9_3/rearranged_h_0079.sdf

> <i_m_source_file_index>
70

> <r_mmod_Potential_Energy-OPLS-2005>
313.556610107422

> <r_mmod_Stretch_Energy-OPLS-2005>
101.840599060059

> <r_mmod_Bend_Energy-OPLS-2005>
272.022216796875

> <r_mmod_Torsional_Energy-OPLS-2005>
186.803375244141

> <r_mmod_Improper_Torsional_Energy-OPLS-2005>
7.47895431518555

> <r_mmod_Van_der_Waal_Energy-OPLS-2005>
155.05842590332

> <r_mmod_Electrostatic_Energy-OPLS-2005>
-247.1630859375

> <r_mmod_Solvation_Energy-OPLS-2005>
-209.935241699219

> <b_mmod_Minimization_Converged-OPLS-2005>
0

> <r_mmod_RMS_Derivative-OPLS-2005>
1.34535610675812

$$$$
70
                    3D
 Structure written by MMmdl.
152161  0  0  1  0            999 V2000
  -30.5688  -14.7359   20.4851 C   0  0  0  0  0  0
  -30.4511  -12.4516   19.4651 C   0  0  0  0  0  0
  -29.5169  -12.5216   18.2342 C   0  0  0  0  0  0
  -28.0411  -12.3412   18.6449 C   0  0  0  0  0  0
  -27.6519  -13.2204   19.8625 C   0  0  2  0  0  0
  -28.6976  -13.0996   20.9941 C   0  0  0  0  0  0
  -25.2556  -13.8166   20.5679 C   0  0  0  0  0  0
  -24.1827  -13.0430   20.9190 C   0  0  0  0  0  0
  -24.6399  -11.6902   20.8736 C   0  0  0  0  0  0
  -23.9066  -10.4287   21.0401 C   0  0  0  0  0  0
  -24.3614   -9.4205   21.9182 C   0  0  0  0  0  0
  -23.6287   -8.2241   22.0753 C   0  0  0  0  0  0
  -22.4269   -8.0281   21.3543 C   0  0  0  0  0  0
  -21.9906   -9.0255   20.4645 C   0  0  0  0  0  0
  -22.7237  -10.2133   20.3053 C   0  0  0  0  0  0
  -21.6852   -6.0736   22.5279 C   0  0  0  0  0  0
  -21.4015   -6.5638   23.8214 C   0  0  0  0  0  0
  -21.3660   -5.6791   24.9175 C   0  0  0  0  0  0
  -21.6045   -4.3055   24.7225 C   0  0  0  0  0  0
  -21.8819   -3.8148   23.4346 C   0  0  0  0  0  0
  -21.9192   -4.6964   22.3403 C   0  0  0  0  0  0
  -22.7851  -13.5227   21.1854 C   0  0  0  0  0  0
  -22.1658   -4.2150   21.0980 F   0  0  0  0  0  0
  -21.5630   -3.4537   25.7738 F   0  0  0  0  0  0
  -30.0039  -13.4799   20.4310 N   0  0  0  0  0  0
  -26.2986  -12.9351   20.3312 N   0  0  0  0  0  0
  -25.9331  -11.6506   20.5751 N   0  0  0  0  0  0
  -22.0489  -12.8224   22.0410 N   0  0  0  0  0  0
  -25.4256  -15.1889   20.4079 N   0  0  0  0  0  0
  -31.7257  -14.9208   20.0928 O   0  0  0  0  0  0
  -21.6635   -6.8877   21.4241 O   0  0  0  0  0  0
  -22.3543  -14.5539   20.6707 O   0  0  0  0  0  0
  -24.6314  -31.8553   23.1985 C   0  0  0  0  0  0
  -25.9139  -32.4758   23.8336 C   0  0  1  0  0  0
  -27.2254  -27.2726   20.1277 C   0  0  0  0  0  0
  -25.5935  -33.8560   24.2257 N   0  0  0  0  0  0
  -23.4295  -30.4768   21.5414 C   0  0  2  0  0  0
  -24.8805  -28.9269   20.1082 C   0  0  0  0  0  0
  -22.7510  -29.4596   22.4910 C   0  0  0  0  0  0
  -18.0293  -28.1391   22.8484 C   0  0  0  0  0  0
  -24.1488  -36.7283   23.2639 C   0  0  0  0  0  0
  -25.9751  -30.7710   21.3788 C   0  0  0  0  0  0
  -26.0520  -29.3943   20.7207 C   0  0  0  0  0  0
  -27.2305  -28.5785   20.7228 C   0  0  0  0  0  0
  -26.0358  -26.8748   19.4816 C   0  0  0  0  0  0
  -24.8768  -27.6737   19.4770 C   0  0  0  0  0  0
  -23.6489  -29.8107   20.1575 C   0  0  0  0  0  0
  -25.4115  -36.3071   24.0323 C   0  0  1  0  0  0
  -20.5898  -28.3702   23.1266 C   0  0  2  0  0  0
  -20.6780  -26.9418   22.5409 C   0  0  0  0  0  0
  -19.5753  -26.6384   21.5214 C   0  0  0  0  0  0
  -18.1933  -26.7935   22.1621 C   0  0  0  0  0  0
  -19.1547  -28.8865   23.2870 C   0  0  0  0  0  0
  -18.9466  -30.1467   23.8887 C   0  0  0  0  0  0
  -17.6463  -30.6591   24.0565 C   0  0  0  0  0  0
  -25.9057  -34.9442   23.5092 C   0  0  0  0  0  0
  -16.5356  -29.9086   23.6336 C   0  0  0  0  0  0
  -16.7279  -28.6505   23.0355 C   0  0  0  0  0  0
  -26.4505  -31.6587   25.0728 C   0  0  0  0  0  0
  -25.3724  -31.3741   26.1445 C   0  0  0  0  0  0
  -27.0354  -30.3004   24.6221 C   0  0  0  0  0  0
  -27.6057  -32.4329   25.7501 C   0  0  0  0  0  0
  -27.5577  -37.1798   24.8465 C   0  0  0  0  0  0
  -21.4215  -29.3045   22.3654 N   0  0  0  0  0  0
  -26.4290  -37.3769   23.9408 N   0  0  0  0  0  0
  -24.6976  -31.0519   22.0961 N   0  0  0  0  0  0
  -23.4207  -28.8135   23.3011 O   0  0  0  0  0  0
  -28.2736  -26.3259   20.1793 O   0  0  0  0  0  0
  -26.5628  -34.8914   22.4660 O   0  0  0  0  0  0
  -23.5463  -32.1373   23.7278 O   0  0  0  0  0  0
  -28.3958  -19.3123   21.4001 C   0  0  0  0  0  0
  -30.2511  -19.5603   19.9781 C   0  0  0  0  0  0
  -28.6072  -17.9005   21.4523 C   0  0  0  0  0  0
  -30.4902  -18.1317   20.0253 C   0  0  0  0  0  0
  -29.1879  -20.2432   20.6651 C   0  0  0  0  0  0
  -29.6622  -17.2402   20.7722 C   0  0  0  0  0  0
  -28.3935  -23.7611   20.6742 C   0  0  0  0  0  0
  -27.9289  -22.6221   21.3692 C   0  0  0  0  0  0
  -27.9484  -25.0778   20.7842 C   0  0  0  0  0  0
  -29.4067  -22.8278   19.9226 C   0  0  0  0  0  0
  -28.8363  -21.6940   20.7144 N   0  0  0  0  0  0
  -29.7232  -15.7589   20.8764 N   0  0  0  0  0  0
  -26.9854  -22.4433   22.3045 N   0  3  0  0  0  0
  -31.4881  -12.6030   19.1611 H   0  0  0  0  0  0
  -30.4149  -11.4616   19.9218 H   0  0  0  0  0  0
  -29.7972  -11.7620   17.5035 H   0  0  0  0  0  0
  -29.6413  -13.4842   17.7355 H   0  0  0  0  0  0
  -27.8936  -11.2885   18.8894 H   0  0  0  0  0  0
  -27.3845  -12.5520   17.7998 H   0  0  0  0  0  0
  -27.6605  -14.2516   19.5087 H   0  0  0  0  0  0
  -28.7327  -12.0782   21.3765 H   0  0  0  0  0  0
  -28.4263  -13.7241   21.8463 H   0  0  0  0  0  0
  -25.2759   -9.5682   22.4758 H   0  0  0  0  0  0
  -23.9997   -7.4634   22.7474 H   0  0  0  0  0  0
  -21.0837   -8.8775   19.8953 H   0  0  0  0  0  0
  -22.3697  -10.9671   19.6162 H   0  0  0  0  0  0
  -21.2007   -7.6146   23.9722 H   0  0  0  0  0  0
  -21.1482   -6.0518   25.9080 H   0  0  0  0  0  0
  -22.0598   -2.7608   23.2847 H   0  0  0  0  0  0
  -22.4088  -11.9872   22.4790 H   0  0  0  0  0  0
  -21.1115  -13.1268   22.2626 H   0  0  0  0  0  0
  -24.6503  -15.8363   20.4996 H   0  0  0  0  0  0
  -26.2645  -15.6270   20.0494 H   0  0  0  0  0  0
  -26.7210  -32.5413   23.1084 H   0  0  0  0  0  0
  -25.0093  -33.9702   25.0411 H   0  0  0  0  0  0
  -22.7262  -31.2990   21.3944 H   0  0  0  0  0  0
  -23.3751  -35.9614   23.3302 H   0  0  0  0  0  0
  -24.3578  -36.8908   22.2053 H   0  0  0  0  0  0
  -23.7240  -37.6482   23.6668 H   0  0  0  0  0  0
  -26.1132  -31.5319   20.6097 H   0  0  0  0  0  0
  -26.8521  -30.8203   22.0127 H   0  0  0  0  0  0
  -28.1246  -28.9248   21.2223 H   0  0  0  0  0  0
  -25.9921  -25.9065   19.0037 H   0  0  0  0  0  0
  -23.9814  -27.3094   18.9923 H   0  0  0  0  0  0
  -23.7705  -30.5872   19.4013 H   0  0  0  0  0  0
  -22.7684  -29.2418   19.8531 H   0  0  0  0  0  0
  -25.1299  -36.1918   25.0816 H   0  0  0  0  0  0
  -20.9988  -28.3283   24.1388 H   0  0  0  0  0  0
  -20.5677  -26.2315   23.3617 H   0  0  0  0  0  0
  -21.6647  -26.7440   22.1203 H   0  0  0  0  0  0
  -19.6913  -25.6292   21.1250 H   0  0  0  0  0  0
  -19.6693  -27.3190   20.6741 H   0  0  0  0  0  0
  -17.4206  -26.6691   21.4022 H   0  0  0  0  0  0
  -18.0327  -26.0078   22.9016 H   0  0  0  0  0  0
  -19.7943  -30.7290   24.2247 H   0  0  0  0  0  0
  -17.5017  -31.6269   24.5169 H   0  0  0  0  0  0
  -15.5356  -30.2982   23.7668 H   0  0  0  0  0  0
  -15.8681  -28.0821   22.7073 H   0  0  0  0  0  0
  -24.5911  -30.7073   25.7779 H   0  0  0  0  0  0
  -24.8898  -32.2908   26.4845 H   0  0  0  0  0  0
  -25.8037  -30.8945   27.0241 H   0  0  0  0  0  0
  -26.2943  -29.6749   24.1229 H   0  0  0  0  0  0
  -27.4017  -29.7272   25.4749 H   0  0  0  0  0  0
  -27.8830  -30.4279   23.9482 H   0  0  0  0  0  0
  -27.2668  -33.3640   26.2058 H   0  0  0  0  0  0
  -28.3879  -32.6870   25.0336 H   0  0  0  0  0  0
  -28.0712  -31.8466   26.5435 H   0  0  0  0  0  0
  -28.2594  -38.0096   24.7510 H   0  0  0  0  0  0
  -28.1071  -36.2625   24.6292 H   0  0  0  0  0  0
  -27.2295  -37.1452   25.8867 H   0  0  0  0  0  0
  -20.9405  -29.8773   21.6861 H   0  0  0  0  0  0
  -26.0166  -38.2840   24.1413 H   0  0  0  0  0  0
  -27.5563  -19.6927   21.9615 H   0  0  0  0  0  0
  -30.9256  -20.1576   19.3818 H   0  0  0  0  0  0
  -27.9162  -17.3141   22.0420 H   0  0  0  0  0  0
  -31.3181  -17.7272   19.4600 H   0  0  0  0  0  0
  -27.1571  -25.2433   21.5030 H   0  0  0  0  0  0
  -30.4667  -22.9638   20.1350 H   0  0  0  0  0  0
  -29.2501  -22.6803   18.8545 H   0  0  0  0  0  0
  -28.8811  -15.3656   21.2676 H   0  0  0  0  0  0
  -26.4433  -23.2197   22.6496 H   0  0  0  0  0  0
  -26.8054  -21.5335   22.6974 H   0  0  0  0  0  0
  1 25  1  0  0  0
  1 30  2  0  0  0
  1 82  1  0  0  0
  2  3  1  0  0  0
  2 25  1  0  0  0
  2 84  1  0  0  0
  2 85  1  0  0  0
  3  4  1  0  0  0
  3 86  1  0  0  0
  3 87  1  0  0  0
  4  5  1  0  0  0
  4 88  1  0  0  0
  4 89  1  0  0  0
  5  6  1  0  0  0
  5 26  1  0  0  0
  5 90  1  0  0  0
  6 25  1  0  0  0
  6 91  1  0  0  0
  6 92  1  0  0  0
  7  8  2  0  0  0
  7 26  1  0  0  0
  7 29  1  0  0  0
  8  9  1  0  0  0
  8 22  1  0  0  0
  9 10  1  0  0  0
  9 27  2  0  0  0
 10 11  2  0  0  0
 10 15  1  0  0  0
 11 12  1  0  0  0
 11 93  1  0  0  0
 12 13  2  0  0  0
 12 94  1  0  0  0
 13 14  1  0  0  0
 13 31  1  0  0  0
 14 15  2  0  0  0
 14 95  1  0  0  0
 15 96  1  0  0  0
 16 17  2  0  0  0
 16 21  1  0  0  0
 16 31  1  0  0  0
 17 18  1  0  0  0
 17 97  1  0  0  0
 18 19  2  0  0  0
 18 98  1  0  0  0
 19 20  1  0  0  0
 19 24  1  0  0  0
 20 21  2  0  0  0
 20 99  1  0  0  0
 21 23  1  0  0  0
 22 28  1  0  0  0
 22 32  2  0  0  0
 26 27  1  0  0  0
 28100  1  0  0  0
 28101  1  0  0  0
 29102  1  0  0  0
 29103  1  0  0  0
 33 34  1  0  0  0
 33 66  1  0  0  0
 33 70  2  0  0  0
 34 36  1  0  0  0
 34 59  1  0  0  0
 34104  1  0  0  0
 35 44  2  0  0  0
 35 45  1  0  0  0
 35 68  1  0  0  0
 36 56  1  0  0  0
 36105  1  0  0  0
 37 39  1  0  0  0
 37 47  1  0  0  0
 37 66  1  0  0  0
 37106  1  0  0  0
 38 43  2  0  0  0
 38 46  1  0  0  0
 38 47  1  0  0  0
 39 64  1  0  0  0
 39 67  2  0  0  0
 40 52  1  0  0  0
 40 53  2  0  0  0
 40 58  1  0  0  0
 41107  1  0  0  0
 41108  1  0  0  0
 41109  1  0  0  0
 41 48  1  0  0  0
 42 43  1  0  0  0
 42 66  1  0  0  0
 42110  1  0  0  0
 42111  1  0  0  0
 43 44  1  0  0  0
 44112  1  0  0  0
 45 46  2  0  0  0
 45113  1  0  0  0
 46114  1  0  0  0
 47115  1  0  0  0
 47116  1  0  0  0
 48 56  1  0  0  0
 48 65  1  0  0  0
 48117  1  0  0  0
 49 50  1  0  0  0
 49 53  1  0  0  0
 49 64  1  0  0  0
 49118  1  0  0  0
 50 51  1  0  0  0
 50119  1  0  0  0
 50120  1  0  0  0
 51 52  1  0  0  0
 51121  1  0  0  0
 51122  1  0  0  0
 52123  1  0  0  0
 52124  1  0  0  0
 53 54  1  0  0  0
 54 55  2  0  0  0
 54125  1  0  0  0
 55 57  1  0  0  0
 55126  1  0  0  0
 56 69  2  0  0  0
 57 58  2  0  0  0
 57127  1  0  0  0
 58128  1  0  0  0
 59 60  1  0  0  0
 59 61  1  0  0  0
 59 62  1  0  0  0
 60129  1  0  0  0
 60130  1  0  0  0
 60131  1  0  0  0
 61132  1  0  0  0
 61133  1  0  0  0
 61134  1  0  0  0
 62135  1  0  0  0
 62136  1  0  0  0
 62137  1  0  0  0
 63 65  1  0  0  0
 63138  1  0  0  0
 63139  1  0  0  0
 63140  1  0  0  0
 64141  1  0  0  0
 65142  1  0  0  0
 68 79  1  0  0  0
 71 73  2  0  0  0
 71 75  1  0  0  0
 71143  1  0  0  0
 72 74  1  0  0  0
 72 75  2  0  0  0
 72144  1  0  0  0
 73 76  1  0  0  0
 73145  1  0  0  0
 74 76  2  0  0  0
 74146  1  0  0  0
 75 81  1  0  0  0
 76 82  1  0  0  0
 77 78  1  0  0  0
 77 79  2  0  0  0
 77 80  1  0  0  0
 78 81  1  0  0  0
 78 83  2  0  0  0
 79147  1  0  0  0
 80 81  1  0  0  0
 80148  1  0  0  0
 80149  1  0  0  0
 82150  1  0  0  0
 83151  1  0  0  0
 83152  1  0  0  0
M  CHG  1  83   1
M  ISO  4   1 100  68 101  79 101  82 100
M  END
> <chiral flag>
0

> <version>
0

> <s_m_source_file>
/data/baiqing/PycharmProjects/Reinvent-master-3.2/result/LINK_invent/BTK/process_docking_weight1_custom_product_contain_oxygen_bond_distance_aromatic_linkinvent_7_9_3/rearranged_h_0079.sdf

> <i_m_source_file_index>
71

> <r_mmod_Potential_Energy-OPLS-2005>
154.662338256836

> <r_mmod_Stretch_Energy-OPLS-2005>
104.199111938477

> <r_mmod_Bend_Energy-OPLS-2005>
285.656768798828

> <r_mmod_Torsional_Energy-OPLS-2005>
236.025192260742

> <r_mmod_Improper_Torsional_Energy-OPLS-2005>
3.54362750053406

> <r_mmod_Van_der_Waal_Energy-OPLS-2005>
133.657836914062

> <r_mmod_Electrostatic_Energy-OPLS-2005>
-254.880126953125

> <r_mmod_Solvation_Energy-OPLS-2005>
-439.055847167969

> <b_mmod_Minimization_Converged-OPLS-2005>
0

> <r_mmod_RMS_Derivative-OPLS-2005>
0.545050740242004

$$$$
71
                    3D
 Structure written by MMmdl.
158166  0  0  1  0            999 V2000
  -30.6037  -14.6478   20.5239 C   0  0  0  0  0  0
  -30.4347  -12.4059   19.4520 C   0  0  0  0  0  0
  -29.5072  -12.5415   18.2237 C   0  0  0  0  0  0
  -28.0299  -12.3695   18.6304 C   0  0  0  0  0  0
  -27.6527  -13.2225   19.8714 C   0  0  2  0  0  0
  -28.6957  -13.0551   20.9997 C   0  0  0  0  0  0
  -25.2543  -13.8179   20.5699 C   0  0  0  0  0  0
  -24.1832  -13.0430   20.9197 C   0  0  0  0  0  0
  -24.6419  -11.6907   20.8732 C   0  0  0  0  0  0
  -23.9097  -10.4286   21.0402 C   0  0  0  0  0  0
  -24.3642   -9.4194   21.9182 C   0  0  0  0  0  0
  -23.6303   -8.2235   22.0755 C   0  0  0  0  0  0
  -22.4284   -8.0273   21.3552 C   0  0  0  0  0  0
  -21.9927   -9.0248   20.4656 C   0  0  0  0  0  0
  -22.7268  -10.2122   20.3052 C   0  0  0  0  0  0
  -21.6859   -6.0738   22.5288 C   0  0  0  0  0  0
  -21.4011   -6.5638   23.8216 C   0  0  0  0  0  0
  -21.3663   -5.6789   24.9175 C   0  0  0  0  0  0
  -21.6046   -4.3051   24.7235 C   0  0  0  0  0  0
  -21.8821   -3.8147   23.4358 C   0  0  0  0  0  0
  -21.9190   -4.6963   22.3411 C   0  0  0  0  0  0
  -22.7846  -13.5215   21.1851 C   0  0  0  0  0  0
  -22.1660   -4.2147   21.0983 F   0  0  0  0  0  0
  -21.5634   -3.4534   25.7749 F   0  0  0  0  0  0
  -30.0120  -13.4121   20.4488 N   0  0  0  0  0  0
  -26.2980  -12.9379   20.3342 N   0  0  0  0  0  0
  -25.9344  -11.6528   20.5765 N   0  0  0  0  0  0
  -22.0486  -12.8213   22.0406 N   0  0  0  0  0  0
  -25.4210  -15.1919   20.4134 N   0  0  0  0  0  0
  -31.7409  -14.8356   20.0820 O   0  0  0  0  0  0
  -21.6641   -6.8880   21.4250 O   0  0  0  0  0  0
  -22.3520  -14.5514   20.6681 O   0  0  0  0  0  0
  -24.6237  -31.8595   23.2033 C   0  0  0  0  0  0
  -25.9097  -32.4785   23.8333 C   0  0  1  0  0  0
  -27.2058  -27.3096   20.1438 C   0  0  0  0  0  0
  -25.5913  -33.8578   24.2264 N   0  0  0  0  0  0
  -23.4155  -30.4859   21.5439 C   0  0  2  0  0  0
  -24.8616  -28.9376   20.1082 C   0  0  0  0  0  0
  -22.7465  -29.4632   22.4925 C   0  0  0  0  0  0
  -18.0288  -28.1398   22.8495 C   0  0  0  0  0  0
  -24.1488  -36.7299   23.2630 C   0  0  0  0  0  0
  -25.9550  -30.7910   21.3717 C   0  0  0  0  0  0
  -26.0275  -29.4153   20.7203 C   0  0  0  0  0  0
  -27.2054  -28.6120   20.7285 C   0  0  0  0  0  0
  -26.0345  -26.8939   19.4774 C   0  0  0  0  0  0
  -24.8674  -27.6830   19.4753 C   0  0  0  0  0  0
  -23.6296  -29.8206   20.1587 C   0  0  0  0  0  0
  -25.4111  -36.3080   24.0324 C   0  0  1  0  0  0
  -20.5887  -28.3694   23.1292 C   0  0  2  0  0  0
  -20.6787  -26.9420   22.5425 C   0  0  0  0  0  0
  -19.5760  -26.6396   21.5228 C   0  0  0  0  0  0
  -18.1939  -26.7946   22.1638 C   0  0  0  0  0  0
  -19.1544  -28.8864   23.2902 C   0  0  0  0  0  0
  -18.9464  -30.1478   23.8901 C   0  0  0  0  0  0
  -17.6459  -30.6598   24.0566 C   0  0  0  0  0  0
  -25.9051  -34.9450   23.5107 C   0  0  0  0  0  0
  -16.5348  -29.9098   23.6328 C   0  0  0  0  0  0
  -16.7282  -28.6525   23.0340 C   0  0  0  0  0  0
  -26.4473  -31.6575   25.0693 C   0  0  0  0  0  0
  -25.3705  -31.3721   26.1420 C   0  0  0  0  0  0
  -27.0291  -30.2991   24.6116 C   0  0  0  0  0  0
  -27.6025  -32.4295   25.7494 C   0  0  0  0  0  0
  -27.5587  -37.1800   24.8454 C   0  0  0  0  0  0
  -21.4175  -29.3043   22.3670 N   0  0  0  0  0  0
  -26.4280  -37.3780   23.9427 N   0  0  0  0  0  0
  -24.6832  -31.0622   22.0971 N   0  0  0  0  0  0
  -23.4204  -28.8150   23.2979 O   0  0  0  0  0  0
  -28.3080  -26.4472   20.1956 O   0  0  0  0  0  0
  -26.5624  -34.8918   22.4679 O   0  0  0  0  0  0
  -23.5419  -32.1386   23.7397 O   0  0  0  0  0  0
  -30.4257  -19.2077   19.5984 C   0  0  0  0  0  0
  -30.6236  -17.8179   19.8700 C   0  0  0  0  0  0
  -28.5595  -19.2726   21.1083 C   0  0  0  0  0  0
  -29.3692  -19.9761   20.1779 C   0  0  0  0  0  0
  -29.7732  -17.1053   20.7527 C   0  0  0  0  0  0
  -28.7553  -17.8800   21.3804 C   0  0  0  0  0  0
  -29.0853  -21.3890   19.6757 C   0  0  0  0  0  0
  -28.4692  -23.8941   19.8713 C   0  0  0  0  0  0
  -29.4018  -25.1508   21.8668 C   0  0  0  0  0  0
  -26.9199  -24.8768   21.6595 C   0  0  0  0  0  0
  -28.2315  -25.1072   20.8670 C   0  0  0  0  0  0
  -29.8210  -15.6618   21.0126 N   0  0  0  0  0  0
  -28.7483  -22.5218   20.4003 N   0  0  0  0  0  0
  -29.1863  -21.5130   18.3487 N   0  3  0  0  0  0
  -28.4344  -24.1047   18.6525 O   0  0  0  0  0  0
  -27.9185  -17.2583   22.2471 F   0  0  0  0  0  0
  -31.4780  -12.5294   19.1572 H   0  0  0  0  0  0
  -30.3610  -11.4033   19.8765 H   0  0  0  0  0  0
  -29.7759  -11.8104   17.4611 H   0  0  0  0  0  0
  -29.6491  -13.5232   17.7667 H   0  0  0  0  0  0
  -27.8656  -11.3132   18.8448 H   0  0  0  0  0  0
  -27.3759  -12.6124   17.7925 H   0  0  0  0  0  0
  -27.6745  -14.2653   19.5506 H   0  0  0  0  0  0
  -28.7105  -12.0241   21.3535 H   0  0  0  0  0  0
  -28.4359  -13.6605   21.8696 H   0  0  0  0  0  0
  -25.2789   -9.5663   22.4764 H   0  0  0  0  0  0
  -24.0014   -7.4629   22.7471 H   0  0  0  0  0  0
  -21.0853   -8.8783   19.8970 H   0  0  0  0  0  0
  -22.3740  -10.9662   19.6151 H   0  0  0  0  0  0
  -21.1999   -7.6139   23.9736 H   0  0  0  0  0  0
  -21.1482   -6.0505   25.9088 H   0  0  0  0  0  0
  -22.0600   -2.7610   23.2858 H   0  0  0  0  0  0
  -22.4087  -11.9872   22.4809 H   0  0  0  0  0  0
  -21.1099  -13.1240   22.2587 H   0  0  0  0  0  0
  -24.6520  -15.8403   20.5366 H   0  0  0  0  0  0
  -26.2690  -15.6440   20.0982 H   0  0  0  0  0  0
  -26.7148  -32.5447   23.1061 H   0  0  0  0  0  0
  -25.0001  -33.9701   25.0366 H   0  0  0  0  0  0
  -22.7086  -31.3069   21.4041 H   0  0  0  0  0  0
  -23.3750  -35.9627   23.3274 H   0  0  0  0  0  0
  -24.3575  -36.8947   22.2048 H   0  0  0  0  0  0
  -23.7234  -37.6493   23.6667 H   0  0  0  0  0  0
  -26.0766  -31.5497   20.5970 H   0  0  0  0  0  0
  -26.8400  -30.8472   21.9928 H   0  0  0  0  0  0
  -28.0975  -28.9707   21.2221 H   0  0  0  0  0  0
  -26.0110  -25.9347   18.9796 H   0  0  0  0  0  0
  -23.9740  -27.3177   18.9868 H   0  0  0  0  0  0
  -23.7526  -30.5970   19.4030 H   0  0  0  0  0  0
  -22.7478  -29.2547   19.8561 H   0  0  0  0  0  0
  -25.1293  -36.1918   25.0813 H   0  0  0  0  0  0
  -20.9992  -28.3280   24.1409 H   0  0  0  0  0  0
  -20.5712  -26.2300   23.3626 H   0  0  0  0  0  0
  -21.6659  -26.7471   22.1196 H   0  0  0  0  0  0
  -19.6920  -25.6309   21.1270 H   0  0  0  0  0  0
  -19.6709  -27.3200   20.6754 H   0  0  0  0  0  0
  -17.4218  -26.6702   21.4034 H   0  0  0  0  0  0
  -18.0330  -26.0090   22.9035 H   0  0  0  0  0  0
  -19.7936  -30.7319   24.2249 H   0  0  0  0  0  0
  -17.5009  -31.6278   24.5168 H   0  0  0  0  0  0
  -15.5359  -30.3003   23.7654 H   0  0  0  0  0  0
  -15.8683  -28.0867   22.7015 H   0  0  0  0  0  0
  -24.5876  -30.7074   25.7760 H   0  0  0  0  0  0
  -24.8899  -32.2898   26.4823 H   0  0  0  0  0  0
  -25.8022  -30.8913   27.0204 H   0  0  0  0  0  0
  -26.2844  -29.6781   24.1119 H   0  0  0  0  0  0
  -27.3970  -29.7208   25.4604 H   0  0  0  0  0  0
  -27.8732  -30.4284   23.9330 H   0  0  0  0  0  0
  -27.2610  -33.3582   26.2076 H   0  0  0  0  0  0
  -28.3849  -32.6867   25.0342 H   0  0  0  0  0  0
  -28.0652  -31.8399   26.5417 H   0  0  0  0  0  0
  -28.2567  -38.0133   24.7552 H   0  0  0  0  0  0
  -28.1125  -36.2675   24.6211 H   0  0  0  0  0  0
  -27.2320  -37.1359   25.8853 H   0  0  0  0  0  0
  -20.9338  -29.8752   21.6886 H   0  0  0  0  0  0
  -26.0165  -38.2851   24.1454 H   0  0  0  0  0  0
  -31.0935  -19.6804   18.8889 H   0  0  0  0  0  0
  -31.4211  -17.2996   19.3588 H   0  0  0  0  0  0
  -27.7335  -19.7753   21.5874 H   0  0  0  0  0  0
  -29.4170  -24.2812   22.5258 H   0  0  0  0  0  0
  -29.3379  -26.0323   22.5048 H   0  0  0  0  0  0
  -30.3647  -25.1887   21.3563 H   0  0  0  0  0  0
  -26.9777  -23.9837   22.2817 H   0  0  0  0  0  0
  -26.0601  -24.7301   21.0073 H   0  0  0  0  0  0
  -26.7024  -25.7137   22.3249 H   0  0  0  0  0  0
  -29.0121  -15.3306   21.5166 H   0  0  0  0  0  0
  -28.7336  -22.3395   21.3910 H   0  0  0  0  0  0
  -29.3514  -20.7135   17.7606 H   0  0  0  0  0  0
  -28.9957  -22.4220   17.9381 H   0  0  0  0  0  0
  1 25  1  0  0  0
  1 30  2  0  0  0
  1 82  1  0  0  0
  2  3  1  0  0  0
  2 25  1  0  0  0
  2 87  1  0  0  0
  2 88  1  0  0  0
  3  4  1  0  0  0
  3 89  1  0  0  0
  3 90  1  0  0  0
  4  5  1  0  0  0
  4 91  1  0  0  0
  4 92  1  0  0  0
  5  6  1  0  0  0
  5 26  1  0  0  0
  5 93  1  0  0  0
  6 25  1  0  0  0
  6 94  1  0  0  0
  6 95  1  0  0  0
  7  8  2  0  0  0
  7 26  1  0  0  0
  7 29  1  0  0  0
  8  9  1  0  0  0
  8 22  1  0  0  0
  9 10  1  0  0  0
  9 27  2  0  0  0
 10 11  2  0  0  0
 10 15  1  0  0  0
 11 12  1  0  0  0
 11 96  1  0  0  0
 12 13  2  0  0  0
 12 97  1  0  0  0
 13 14  1  0  0  0
 13 31  1  0  0  0
 14 15  2  0  0  0
 14 98  1  0  0  0
 15 99  1  0  0  0
 16 17  2  0  0  0
 16 21  1  0  0  0
 16 31  1  0  0  0
 17 18  1  0  0  0
 17100  1  0  0  0
 18 19  2  0  0  0
 18101  1  0  0  0
 19 20  1  0  0  0
 19 24  1  0  0  0
 20 21  2  0  0  0
 20102  1  0  0  0
 21 23  1  0  0  0
 22 28  1  0  0  0
 22 32  2  0  0  0
 26 27  1  0  0  0
 28103  1  0  0  0
 28104  1  0  0  0
 29105  1  0  0  0
 29106  1  0  0  0
 33 34  1  0  0  0
 33 66  1  0  0  0
 33 70  2  0  0  0
 34 36  1  0  0  0
 34 59  1  0  0  0
 34107  1  0  0  0
 35 44  2  0  0  0
 35 45  1  0  0  0
 35 68  1  0  0  0
 36 56  1  0  0  0
 36108  1  0  0  0
 37 39  1  0  0  0
 37 47  1  0  0  0
 37 66  1  0  0  0
 37109  1  0  0  0
 38 43  2  0  0  0
 38 46  1  0  0  0
 38 47  1  0  0  0
 39 64  1  0  0  0
 39 67  2  0  0  0
 40 52  1  0  0  0
 40 53  2  0  0  0
 40 58  1  0  0  0
 41110  1  0  0  0
 41111  1  0  0  0
 41112  1  0  0  0
 41 48  1  0  0  0
 42 43  1  0  0  0
 42 66  1  0  0  0
 42113  1  0  0  0
 42114  1  0  0  0
 43 44  1  0  0  0
 44115  1  0  0  0
 45 46  2  0  0  0
 45116  1  0  0  0
 46117  1  0  0  0
 47118  1  0  0  0
 47119  1  0  0  0
 48 56  1  0  0  0
 48 65  1  0  0  0
 48120  1  0  0  0
 49 50  1  0  0  0
 49 53  1  0  0  0
 49 64  1  0  0  0
 49121  1  0  0  0
 50 51  1  0  0  0
 50122  1  0  0  0
 50123  1  0  0  0
 51 52  1  0  0  0
 51124  1  0  0  0
 51125  1  0  0  0
 52126  1  0  0  0
 52127  1  0  0  0
 53 54  1  0  0  0
 54 55  2  0  0  0
 54128  1  0  0  0
 55 57  1  0  0  0
 55129  1  0  0  0
 56 69  2  0  0  0
 57 58  2  0  0  0
 57130  1  0  0  0
 58131  1  0  0  0
 59 60  1  0  0  0
 59 61  1  0  0  0
 59 62  1  0  0  0
 60132  1  0  0  0
 60133  1  0  0  0
 60134  1  0  0  0
 61135  1  0  0  0
 61136  1  0  0  0
 61137  1  0  0  0
 62138  1  0  0  0
 62139  1  0  0  0
 62140  1  0  0  0
 63 65  1  0  0  0
 63141  1  0  0  0
 63142  1  0  0  0
 63143  1  0  0  0
 64144  1  0  0  0
 65145  1  0  0  0
 68 81  1  0  0  0
 71 72  2  0  0  0
 71 74  1  0  0  0
 71146  1  0  0  0
 72 75  1  0  0  0
 72147  1  0  0  0
 73 74  2  0  0  0
 73 76  1  0  0  0
 73148  1  0  0  0
 74 77  1  0  0  0
 75 76  2  0  0  0
 75 82  1  0  0  0
 76 86  1  0  0  0
 77 83  1  0  0  0
 77 84  2  0  0  0
 78 81  1  0  0  0
 78 83  1  0  0  0
 78 85  2  0  0  0
 79149  1  0  0  0
 79150  1  0  0  0
 79151  1  0  0  0
 79 81  1  0  0  0
 80 81  1  0  0  0
 80152  1  0  0  0
 80153  1  0  0  0
 80154  1  0  0  0
 82155  1  0  0  0
 83156  1  0  0  0
 84157  1  0  0  0
 84158  1  0  0  0
M  CHG  1  84   1
M  ISO  4   1 100  68 101  81 101  82 100
M  END
> <chiral flag>
0

> <version>
0

> <s_m_source_file>
/data/baiqing/PycharmProjects/Reinvent-master-3.2/result/LINK_invent/BTK/process_docking_weight1_custom_product_contain_oxygen_bond_distance_aromatic_linkinvent_7_9_3/rearranged_h_0079.sdf

> <i_m_source_file_index>
72

> <r_mmod_Potential_Energy-OPLS-2005>
-270.598571777344

> <r_mmod_Stretch_Energy-OPLS-2005>
91.2007446289062

> <r_mmod_Bend_Energy-OPLS-2005>
155.860595703125

> <r_mmod_Torsional_Energy-OPLS-2005>
254.680297851562

> <r_mmod_Improper_Torsional_Energy-OPLS-2005>
4.12085103988647

> <r_mmod_Van_der_Waal_Energy-OPLS-2005>
156.893463134766

> <r_mmod_Electrostatic_Energy-OPLS-2005>
-535.198974609375

> <r_mmod_Solvation_Energy-OPLS-2005>
-450.896667480469

> <b_mmod_Minimization_Converged-OPLS-2005>
0

> <r_mmod_RMS_Derivative-OPLS-2005>
2.91798949241638

$$$$
72
                    3D
 Structure written by MMmdl.
153161  0  0  1  0            999 V2000
  -30.7089  -14.5168   20.5438 C   0  0  0  0  0  0
  -30.4168  -12.3267   19.4382 C   0  0  0  0  0  0
  -29.4959  -12.5015   18.2138 C   0  0  0  0  0  0
  -28.0185  -12.3577   18.6261 C   0  0  0  0  0  0
  -27.6565  -13.2157   19.8687 C   0  0  2  0  0  0
  -28.6998  -13.0442   20.9966 C   0  0  0  0  0  0
  -25.2566  -13.8176   20.5691 C   0  0  0  0  0  0
  -24.1829  -13.0442   20.9187 C   0  0  0  0  0  0
  -24.6392  -11.6913   20.8736 C   0  0  0  0  0  0
  -23.9059  -10.4297   21.0401 C   0  0  0  0  0  0
  -24.3614   -9.4212   21.9179 C   0  0  0  0  0  0
  -23.6292   -8.2247   22.0749 C   0  0  0  0  0  0
  -22.4273   -8.0282   21.3544 C   0  0  0  0  0  0
  -21.9906   -9.0253   20.4647 C   0  0  0  0  0  0
  -22.7231  -10.2135   20.3052 C   0  0  0  0  0  0
  -21.6856   -6.0732   22.5279 C   0  0  0  0  0  0
  -21.4015   -6.5635   23.8212 C   0  0  0  0  0  0
  -21.3658   -5.6789   24.9175 C   0  0  0  0  0  0
  -21.6042   -4.3052   24.7227 C   0  0  0  0  0  0
  -21.8819   -3.8144   23.4349 C   0  0  0  0  0  0
  -21.9196   -4.6961   22.3403 C   0  0  0  0  0  0
  -22.7850  -13.5235   21.1846 C   0  0  0  0  0  0
  -22.1665   -4.2145   21.0982 F   0  0  0  0  0  0
  -21.5629   -3.4536   25.7740 F   0  0  0  0  0  0
  -30.0259  -13.3410   20.4339 N   0  0  0  0  0  0
  -26.3002  -12.9363   20.3348 N   0  0  0  0  0  0
  -25.9322  -11.6515   20.5760 N   0  0  0  0  0  0
  -22.0492  -12.8231   22.0405 N   0  0  0  0  0  0
  -25.4280  -15.1896   20.4100 N   0  0  0  0  0  0
  -31.8539  -14.6366   20.1014 O   0  0  0  0  0  0
  -21.6640   -6.8876   21.4241 O   0  0  0  0  0  0
  -22.3537  -14.5542   20.6694 O   0  0  0  0  0  0
  -24.6186  -31.8661   23.2092 C   0  0  0  0  0  0
  -25.9065  -32.4812   23.8393 C   0  0  1  0  0  0
  -27.2241  -27.4016   20.1030 C   0  0  0  0  0  0
  -25.5908  -33.8612   24.2323 N   0  0  0  0  0  0
  -23.4084  -30.4914   21.5498 C   0  0  2  0  0  0
  -24.8557  -28.9616   20.1073 C   0  0  0  0  0  0
  -22.7438  -29.4647   22.4963 C   0  0  0  0  0  0
  -18.0278  -28.1382   22.8484 C   0  0  0  0  0  0
  -24.1486  -36.7307   23.2637 C   0  0  0  0  0  0
  -25.9423  -30.8218   21.3696 C   0  0  0  0  0  0
  -26.0195  -29.4565   20.7116 C   0  0  0  0  0  0
  -27.2099  -28.6839   20.7081 C   0  0  0  0  0  0
  -26.0476  -26.9443   19.4677 C   0  0  0  0  0  0
  -24.8665  -27.7063   19.4788 C   0  0  0  0  0  0
  -23.6188  -29.8306   20.1621 C   0  0  0  0  0  0
  -25.4106  -36.3104   24.0338 C   0  0  1  0  0  0
  -20.5873  -28.3673   23.1303 C   0  0  2  0  0  0
  -20.6768  -26.9403   22.5417 C   0  0  0  0  0  0
  -19.5750  -26.6388   21.5208 C   0  0  0  0  0  0
  -18.1926  -26.7929   22.1616 C   0  0  0  0  0  0
  -19.1528  -28.8844   23.2892 C   0  0  0  0  0  0
  -18.9455  -30.1446   23.8909 C   0  0  0  0  0  0
  -17.6456  -30.6586   24.0564 C   0  0  0  0  0  0
  -25.9036  -34.9471   23.5128 C   0  0  0  0  0  0
  -16.5346  -29.9087   23.6326 C   0  0  0  0  0  0
  -16.7265  -28.6504   23.0347 C   0  0  0  0  0  0
  -26.4478  -31.6597   25.0733 C   0  0  0  0  0  0
  -25.3738  -31.3722   26.1480 C   0  0  0  0  0  0
  -27.0297  -30.3026   24.6136 C   0  0  0  0  0  0
  -27.6063  -32.4309   25.7486 C   0  0  0  0  0  0
  -27.5580  -37.1805   24.8464 C   0  0  0  0  0  0
  -21.4161  -29.3032   22.3702 N   0  0  0  0  0  0
  -26.4290  -37.3790   23.9412 N   0  0  0  0  0  0
  -24.6746  -31.0742   22.1006 N   0  0  0  0  0  0
  -23.4194  -28.8186   23.3014 O   0  0  0  0  0  0
  -28.3268  -26.5622   20.1572 O   0  0  0  0  0  0
  -26.5600  -34.8924   22.4690 O   0  0  0  0  0  0
  -23.5368  -32.1424   23.7465 O   0  0  0  0  0  0
  -32.1580  -18.6867   21.2743 C   0  0  0  0  0  0
  -31.2174  -19.7056   21.0377 C   0  0  0  0  0  0
  -31.7662  -17.3371   21.2710 C   0  0  0  0  0  0
  -29.4758  -18.0254   20.8293 C   0  0  0  0  0  0
  -29.8518  -19.4106   20.8128 C   0  0  0  0  0  0
  -30.4221  -16.9753   21.0215 C   0  0  0  0  0  0
  -28.7991  -24.1550   20.3882 C   0  0  0  0  0  0
  -28.0579  -25.2734   20.6081 C   0  0  0  0  0  0
  -28.8770  -20.5599   20.6073 C   0  0  0  0  0  0
  -28.3200  -22.8513   20.8800 C   0  0  0  0  0  0
  -27.4625  -20.1181   20.2057 C   0  0  0  0  0  0
  -29.2446  -21.8048   20.7319 N   0  0  0  0  0  0
  -30.0074  -15.5900   20.9953 N   0  0  0  0  0  0
  -27.2047  -22.7277   21.3950 O   0  0  0  0  0  0
  -31.4630  -12.4089   19.1380 H   0  0  0  0  0  0
  -30.3084  -11.3263   19.8599 H   0  0  0  0  0  0
  -29.7434  -11.7664   17.4468 H   0  0  0  0  0  0
  -29.6604  -13.4817   17.7633 H   0  0  0  0  0  0
  -27.8382  -11.3034   18.8399 H   0  0  0  0  0  0
  -27.3671  -12.6129   17.7894 H   0  0  0  0  0  0
  -27.6866  -14.2564   19.5454 H   0  0  0  0  0  0
  -28.6830  -12.0233   21.3805 H   0  0  0  0  0  0
  -28.4623  -13.6843   21.8477 H   0  0  0  0  0  0
  -25.2762   -9.5691   22.4750 H   0  0  0  0  0  0
  -24.0006   -7.4637   22.7465 H   0  0  0  0  0  0
  -21.0836   -8.8770   19.8955 H   0  0  0  0  0  0
  -22.3686  -10.9671   19.6159 H   0  0  0  0  0  0
  -21.2003   -7.6142   23.9714 H   0  0  0  0  0  0
  -21.1477   -6.0519   25.9078 H   0  0  0  0  0  0
  -22.0599   -2.7606   23.2852 H   0  0  0  0  0  0
  -22.4104  -11.9895   22.4800 H   0  0  0  0  0  0
  -21.1110  -13.1262   22.2605 H   0  0  0  0  0  0
  -24.6590  -15.8431   20.5110 H   0  0  0  0  0  0
  -26.2752  -15.6262   20.0703 H   0  0  0  0  0  0
  -26.7138  -32.5515   23.1155 H   0  0  0  0  0  0
  -25.0063  -33.9769   25.0472 H   0  0  0  0  0  0
  -22.6982  -31.3096   21.4128 H   0  0  0  0  0  0
  -23.3747  -35.9641   23.3308 H   0  0  0  0  0  0
  -24.3584  -36.8912   22.2050 H   0  0  0  0  0  0
  -23.7239  -37.6515   23.6647 H   0  0  0  0  0  0
  -26.0635  -31.5892   20.6037 H   0  0  0  0  0  0
  -26.8267  -30.8702   21.9931 H   0  0  0  0  0  0
  -28.1028  -29.0511   21.1946 H   0  0  0  0  0  0
  -26.0353  -25.9775   18.9839 H   0  0  0  0  0  0
  -23.9748  -27.3219   19.0029 H   0  0  0  0  0  0
  -23.7295  -30.6099   19.4071 H   0  0  0  0  0  0
  -22.7413  -29.2549   19.8622 H   0  0  0  0  0  0
  -25.1279  -36.1967   25.0831 H   0  0  0  0  0  0
  -20.9963  -28.3244   24.1425 H   0  0  0  0  0  0
  -20.5664  -26.2279   23.3607 H   0  0  0  0  0  0
  -21.6641  -26.7443   22.1214 H   0  0  0  0  0  0
  -19.6914  -25.6302   21.1232 H   0  0  0  0  0  0
  -19.6694  -27.3201   20.6740 H   0  0  0  0  0  0
  -17.4198  -26.6672   21.4018 H   0  0  0  0  0  0
  -18.0328  -26.0070   22.9012 H   0  0  0  0  0  0
  -19.7932  -30.7253   24.2291 H   0  0  0  0  0  0
  -17.5014  -31.6267   24.5164 H   0  0  0  0  0  0
  -15.5348  -30.2991   23.7652 H   0  0  0  0  0  0
  -15.8664  -28.0826   22.7060 H   0  0  0  0  0  0
  -24.5907  -30.7071   25.7822 H   0  0  0  0  0  0
  -24.8933  -32.2885   26.4920 H   0  0  0  0  0  0
  -25.8085  -30.8899   27.0244 H   0  0  0  0  0  0
  -26.2842  -29.6799   24.1179 H   0  0  0  0  0  0
  -27.4029  -29.7259   25.4608 H   0  0  0  0  0  0
  -27.8699  -30.4320   23.9310 H   0  0  0  0  0  0
  -27.2699  -33.3609   26.2080 H   0  0  0  0  0  0
  -28.3858  -32.6867   25.0298 H   0  0  0  0  0  0
  -28.0745  -31.8420   26.5384 H   0  0  0  0  0  0
  -28.2606  -38.0095   24.7506 H   0  0  0  0  0  0
  -28.1065  -36.2628   24.6287 H   0  0  0  0  0  0
  -27.2305  -37.1460   25.8869 H   0  0  0  0  0  0
  -20.9327  -29.8751   21.6917 H   0  0  0  0  0  0
  -26.0179  -38.2867   24.1415 H   0  0  0  0  0  0
  -33.1916  -18.9432   21.4605 H   0  0  0  0  0  0
  -31.5615  -20.7308   21.0448 H   0  0  0  0  0  0
  -32.5207  -16.5882   21.4661 H   0  0  0  0  0  0
  -28.4435  -17.7441   20.6851 H   0  0  0  0  0  0
  -29.7264  -24.2197   19.8375 H   0  0  0  0  0  0
  -27.1370  -25.2350   21.1779 H   0  0  0  0  0  0
  -27.4996  -19.2906   19.4986 H   0  0  0  0  0  0
  -26.9088  -20.8995   19.6870 H   0  0  0  0  0  0
  -26.8964  -19.8076   21.0838 H   0  0  0  0  0  0
  -29.0413  -15.4024   21.2153 H   0  0  0  0  0  0
  1 25  1  0  0  0
  1 30  2  0  0  0
  1 83  1  0  0  0
  2  3  1  0  0  0
  2 25  1  0  0  0
  2 85  1  0  0  0
  2 86  1  0  0  0
  3  4  1  0  0  0
  3 87  1  0  0  0
  3 88  1  0  0  0
  4  5  1  0  0  0
  4 89  1  0  0  0
  4 90  1  0  0  0
  5  6  1  0  0  0
  5 26  1  0  0  0
  5 91  1  0  0  0
  6 25  1  0  0  0
  6 92  1  0  0  0
  6 93  1  0  0  0
  7  8  2  0  0  0
  7 26  1  0  0  0
  7 29  1  0  0  0
  8  9  1  0  0  0
  8 22  1  0  0  0
  9 10  1  0  0  0
  9 27  2  0  0  0
 10 11  2  0  0  0
 10 15  1  0  0  0
 11 12  1  0  0  0
 11 94  1  0  0  0
 12 13  2  0  0  0
 12 95  1  0  0  0
 13 14  1  0  0  0
 13 31  1  0  0  0
 14 15  2  0  0  0
 14 96  1  0  0  0
 15 97  1  0  0  0
 16 17  2  0  0  0
 16 21  1  0  0  0
 16 31  1  0  0  0
 17 18  1  0  0  0
 17 98  1  0  0  0
 18 19  2  0  0  0
 18 99  1  0  0  0
 19 20  1  0  0  0
 19 24  1  0  0  0
 20 21  2  0  0  0
 20100  1  0  0  0
 21 23  1  0  0  0
 22 28  1  0  0  0
 22 32  2  0  0  0
 26 27  1  0  0  0
 28101  1  0  0  0
 28102  1  0  0  0
 29103  1  0  0  0
 29104  1  0  0  0
 33 34  1  0  0  0
 33 66  1  0  0  0
 33 70  2  0  0  0
 34 36  1  0  0  0
 34 59  1  0  0  0
 34105  1  0  0  0
 35 44  2  0  0  0
 35 45  1  0  0  0
 35 68  1  0  0  0
 36 56  1  0  0  0
 36106  1  0  0  0
 37 39  1  0  0  0
 37 47  1  0  0  0
 37 66  1  0  0  0
 37107  1  0  0  0
 38 43  2  0  0  0
 38 46  1  0  0  0
 38 47  1  0  0  0
 39 64  1  0  0  0
 39 67  2  0  0  0
 40 52  1  0  0  0
 40 53  2  0  0  0
 40 58  1  0  0  0
 41108  1  0  0  0
 41109  1  0  0  0
 41110  1  0  0  0
 41 48  1  0  0  0
 42 43  1  0  0  0
 42 66  1  0  0  0
 42111  1  0  0  0
 42112  1  0  0  0
 43 44  1  0  0  0
 44113  1  0  0  0
 45 46  2  0  0  0
 45114  1  0  0  0
 46115  1  0  0  0
 47116  1  0  0  0
 47117  1  0  0  0
 48 56  1  0  0  0
 48 65  1  0  0  0
 48118  1  0  0  0
 49 50  1  0  0  0
 49 53  1  0  0  0
 49 64  1  0  0  0
 49119  1  0  0  0
 50 51  1  0  0  0
 50120  1  0  0  0
 50121  1  0  0  0
 51 52  1  0  0  0
 51122  1  0  0  0
 51123  1  0  0  0
 52124  1  0  0  0
 52125  1  0  0  0
 53 54  1  0  0  0
 54 55  2  0  0  0
 54126  1  0  0  0
 55 57  1  0  0  0
 55127  1  0  0  0
 56 69  2  0  0  0
 57 58  2  0  0  0
 57128  1  0  0  0
 58129  1  0  0  0
 59 60  1  0  0  0
 59 61  1  0  0  0
 59 62  1  0  0  0
 60130  1  0  0  0
 60131  1  0  0  0
 60132  1  0  0  0
 61133  1  0  0  0
 61134  1  0  0  0
 61135  1  0  0  0
 62136  1  0  0  0
 62137  1  0  0  0
 62138  1  0  0  0
 63 65  1  0  0  0
 63139  1  0  0  0
 63140  1  0  0  0
 63141  1  0  0  0
 64142  1  0  0  0
 65143  1  0  0  0
 68 78  1  0  0  0
 71 72  2  0  0  0
 71 73  1  0  0  0
 71144  1  0  0  0
 72 75  1  0  0  0
 72145  1  0  0  0
 73 76  2  0  0  0
 73146  1  0  0  0
 74 75  2  0  0  0
 74 76  1  0  0  0
 74147  1  0  0  0
 75 79  1  0  0  0
 76 83  1  0  0  0
 77 78  2  0  0  0
 77 80  1  0  0  0
 77148  1  0  0  0
 78149  1  0  0  0
 79 81  1  0  0  0
 79 82  2  0  0  0
 80 82  1  0  0  0
 80 84  2  0  0  0
 81150  1  0  0  0
 81151  1  0  0  0
 81152  1  0  0  0
 83153  1  0  0  0
M  ISO  4   1 100  68 101  78 101  83 100
M  END
> <chiral flag>
0

> <version>
0

> <s_m_source_file>
/data/baiqing/PycharmProjects/Reinvent-master-3.2/result/LINK_invent/BTK/process_docking_weight1_custom_product_contain_oxygen_bond_distance_aromatic_linkinvent_7_9_3/rearranged_h_0079.sdf

> <i_m_source_file_index>
73

> <r_mmod_Potential_Energy-OPLS-2005>
1.85333096981049

> <r_mmod_Stretch_Energy-OPLS-2005>
55.2595520019531

> <r_mmod_Bend_Energy-OPLS-2005>
111.880187988281

> <r_mmod_Torsional_Energy-OPLS-2005>
231.86604309082

> <r_mmod_Improper_Torsional_Energy-OPLS-2005>
4.4048171043396

> <r_mmod_Van_der_Waal_Energy-OPLS-2005>
182.779891967773

> <r_mmod_Electrostatic_Energy-OPLS-2005>
-400.142059326172

> <r_mmod_Solvation_Energy-OPLS-2005>
-207.813018798828

> <b_mmod_Minimization_Converged-OPLS-2005>
0

> <r_mmod_RMS_Derivative-OPLS-2005>
0.49621319770813

$$$$
73
                    3D
 Structure written by MMmdl.
160169  0  0  1  0            999 V2000
  -30.6145  -14.7704   20.4364 C   0  0  0  0  0  0
  -30.4258  -12.4682   19.4832 C   0  0  0  0  0  0
  -29.5084  -12.4999   18.2413 C   0  0  0  0  0  0
  -28.0360  -12.3214   18.6546 C   0  0  0  0  0  0
  -27.6362  -13.2348   19.8442 C   0  0  2  0  0  0
  -28.6786  -13.1973   20.9825 C   0  0  0  0  0  0
  -25.2488  -13.8207   20.5689 C   0  0  0  0  0  0
  -24.1790  -13.0450   20.9227 C   0  0  0  0  0  0
  -24.6389  -11.6927   20.8760 C   0  0  0  0  0  0
  -23.9070  -10.4302   21.0416 C   0  0  0  0  0  0
  -24.3623   -9.4212   21.9185 C   0  0  0  0  0  0
  -23.6302   -8.2245   22.0750 C   0  0  0  0  0  0
  -22.4279   -8.0286   21.3541 C   0  0  0  0  0  0
  -21.9920   -9.0261   20.4640 C   0  0  0  0  0  0
  -22.7251  -10.2141   20.3057 C   0  0  0  0  0  0
  -21.6850   -6.0742   22.5279 C   0  0  0  0  0  0
  -21.4012   -6.5641   23.8216 C   0  0  0  0  0  0
  -21.3660   -5.6793   24.9175 C   0  0  0  0  0  0
  -21.6045   -4.3056   24.7223 C   0  0  0  0  0  0
  -21.8819   -3.8150   23.4343 C   0  0  0  0  0  0
  -21.9195   -4.6970   22.3401 C   0  0  0  0  0  0
  -22.7810  -13.5225   21.1884 C   0  0  0  0  0  0
  -22.1660   -4.2157   21.0980 F   0  0  0  0  0  0
  -21.5634   -3.4539   25.7739 F   0  0  0  0  0  0
  -29.9767  -13.5475   20.3968 N   0  0  0  0  0  0
  -26.2905  -12.9414   20.3252 N   0  0  0  0  0  0
  -25.9313  -11.6557   20.5745 N   0  0  0  0  0  0
  -22.0463  -12.8205   22.0435 N   0  0  0  0  0  0
  -25.4183  -15.1934   20.4093 N   0  0  0  0  0  0
  -31.8157  -14.8049   20.1606 O   0  0  0  0  0  0
  -21.6642   -6.8885   21.4240 O   0  0  0  0  0  0
  -22.3499  -14.5534   20.6737 O   0  0  0  0  0  0
  -24.6311  -31.8534   23.1953 C   0  0  0  0  0  0
  -25.9133  -32.4746   23.8303 C   0  0  1  0  0  0
  -27.2234  -27.2487   20.1248 C   0  0  0  0  0  0
  -25.5922  -33.8550   24.2218 N   0  0  0  0  0  0
  -23.4280  -30.4740   21.5392 C   0  0  2  0  0  0
  -24.8761  -28.9167   20.1077 C   0  0  0  0  0  0
  -22.7499  -29.4581   22.4904 C   0  0  0  0  0  0
  -18.0285  -28.1400   22.8477 C   0  0  0  0  0  0
  -24.1504  -36.7299   23.2638 C   0  0  0  0  0  0
  -25.9728  -30.7634   21.3751 C   0  0  0  0  0  0
  -26.0454  -29.3835   20.7195 C   0  0  0  0  0  0
  -27.2169  -28.5581   20.7210 C   0  0  0  0  0  0
  -26.0252  -26.8476   19.4925 C   0  0  0  0  0  0
  -24.8717  -27.6585   19.4849 C   0  0  0  0  0  0
  -23.6470  -29.8057   20.1554 C   0  0  0  0  0  0
  -25.4128  -36.3064   24.0312 C   0  0  1  0  0  0
  -20.5886  -28.3704   23.1278 C   0  0  2  0  0  0
  -20.6769  -26.9421   22.5418 C   0  0  0  0  0  0
  -19.5744  -26.6383   21.5222 C   0  0  0  0  0  0
  -18.1922  -26.7936   22.1625 C   0  0  0  0  0  0
  -19.1538  -28.8869   23.2872 C   0  0  0  0  0  0
  -18.9466  -30.1472   23.8886 C   0  0  0  0  0  0
  -17.6466  -30.6598   24.0568 C   0  0  0  0  0  0
  -25.9057  -34.9433   23.5067 C   0  0  0  0  0  0
  -16.5354  -29.9098   23.6337 C   0  0  0  0  0  0
  -16.7272  -28.6524   23.0335 C   0  0  0  0  0  0
  -26.4494  -31.6587   25.0707 C   0  0  0  0  0  0
  -25.3711  -31.3742   26.1428 C   0  0  0  0  0  0
  -27.0345  -30.3006   24.6192 C   0  0  0  0  0  0
  -27.6036  -32.4331   25.7489 C   0  0  0  0  0  0
  -27.5585  -37.1802   24.8455 C   0  0  0  0  0  0
  -21.4204  -29.3051   22.3667 N   0  0  0  0  0  0
  -26.4296  -37.3763   23.9397 N   0  0  0  0  0  0
  -24.6965  -31.0489   22.0932 N   0  0  0  0  0  0
  -23.4204  -28.8105   23.2981 O   0  0  0  0  0  0
  -28.3359  -26.3748   20.2209 O   0  0  0  0  0  0
  -26.5648  -34.8911   22.4649 O   0  0  0  0  0  0
  -23.5462  -32.1355   23.7256 O   0  0  0  0  0  0
  -30.8589  -20.1206   19.6079 C   0  0  0  0  0  0
  -29.3089  -18.5320   20.5973 C   0  0  0  0  0  0
  -31.3788  -17.7199   19.6277 C   0  0  0  0  0  0
  -29.6157  -19.9296   20.2512 C   0  0  0  0  0  0
  -31.7217  -19.0491   19.3063 C   0  0  0  0  0  0
  -30.1732  -17.3852   20.2951 C   0  0  0  0  0  0
  -28.9473  -22.4466   19.9127 C   0  0  0  0  0  0
  -28.3822  -23.6438   20.3292 C   0  0  0  0  0  0
  -27.0067  -22.2268   21.9030 C   0  0  0  0  0  0
  -25.7420  -22.0508   22.3207 C   0  0  0  0  0  0
  -27.5449  -23.6287   21.5950 C   0  0  0  0  0  0
  -27.9435  -21.0286   21.6877 C   0  0  0  0  0  0
  -28.4458  -25.0349   19.5402 C   0  0  0  0  0  0
  -28.8209  -21.1363   20.5164 N   0  0  0  0  0  0
  -32.9418  -19.3065   18.6769 N   0  0  0  0  0  0
  -29.8618  -15.9417   20.5995 N   0  0  0  0  0  0
  -31.4675  -12.5834   19.1788 H   0  0  0  0  0  0
  -30.3693  -11.5005   19.9835 H   0  0  0  0  0  0
  -29.7977  -11.7169   17.5384 H   0  0  0  0  0  0
  -29.6296  -13.4471   17.7128 H   0  0  0  0  0  0
  -27.9001  -11.2747   18.9313 H   0  0  0  0  0  0
  -27.3777  -12.4966   17.8025 H   0  0  0  0  0  0
  -27.6223  -14.2496   19.4465 H   0  0  0  0  0  0
  -28.7189  -12.2084   21.4416 H   0  0  0  0  0  0
  -28.4079  -13.8944   21.7770 H   0  0  0  0  0  0
  -25.2769   -9.5688   22.4762 H   0  0  0  0  0  0
  -24.0017   -7.4631   22.7466 H   0  0  0  0  0  0
  -21.0858   -8.8783   19.8938 H   0  0  0  0  0  0
  -22.3716  -10.9682   19.6170 H   0  0  0  0  0  0
  -21.1994   -7.6149   23.9720 H   0  0  0  0  0  0
  -21.1483   -6.0522   25.9082 H   0  0  0  0  0  0
  -22.0597   -2.7613   23.2843 H   0  0  0  0  0  0
  -22.4093  -11.9867   22.4808 H   0  0  0  0  0  0
  -21.1077  -13.1209   22.2640 H   0  0  0  0  0  0
  -24.6486  -15.8451   20.5171 H   0  0  0  0  0  0
  -26.2551  -15.6283   20.0422 H   0  0  0  0  0  0
  -26.7193  -32.5395   23.1037 H   0  0  0  0  0  0
  -25.0041  -33.9673   25.0344 H   0  0  0  0  0  0
  -22.7244  -31.2966   21.3919 H   0  0  0  0  0  0
  -23.3747  -35.9651   23.3284 H   0  0  0  0  0  0
  -24.3586  -36.8955   22.2056 H   0  0  0  0  0  0
  -23.7278  -37.6495   23.6691 H   0  0  0  0  0  0
  -26.1082  -31.5226   20.6034 H   0  0  0  0  0  0
  -26.8512  -30.8171   22.0068 H   0  0  0  0  0  0
  -28.1106  -28.9058   21.2201 H   0  0  0  0  0  0
  -25.9334  -25.8772   19.0310 H   0  0  0  0  0  0
  -23.9724  -27.2922   19.0081 H   0  0  0  0  0  0
  -23.7727  -30.5824   19.3999 H   0  0  0  0  0  0
  -22.7648  -29.2396   19.8505 H   0  0  0  0  0  0
  -25.1315  -36.1903   25.0802 H   0  0  0  0  0  0
  -20.9968  -28.3290   24.1409 H   0  0  0  0  0  0
  -20.5685  -26.2310   23.3623 H   0  0  0  0  0  0
  -21.6636  -26.7451   22.1206 H   0  0  0  0  0  0
  -19.6910  -25.6284   21.1273 H   0  0  0  0  0  0
  -19.6697  -27.3177   20.6736 H   0  0  0  0  0  0
  -17.4193  -26.6685   21.4023 H   0  0  0  0  0  0
  -18.0309  -26.0089   22.9034 H   0  0  0  0  0  0
  -19.7948  -30.7286   24.2240 H   0  0  0  0  0  0
  -17.5027  -31.6276   24.5176 H   0  0  0  0  0  0
  -15.5354  -30.3001   23.7672 H   0  0  0  0  0  0
  -15.8667  -28.0863   22.7024 H   0  0  0  0  0  0
  -24.5894  -30.7076   25.7749 H   0  0  0  0  0  0
  -24.8892  -32.2917   26.4821 H   0  0  0  0  0  0
  -25.8025  -30.8944   27.0228 H   0  0  0  0  0  0
  -26.2937  -29.6731   24.1219 H   0  0  0  0  0  0
  -27.4025  -29.7279   25.4714 H   0  0  0  0  0  0
  -27.8807  -30.4258   23.9433 H   0  0  0  0  0  0
  -27.2639  -33.3650   26.2016 H   0  0  0  0  0  0
  -28.3874  -32.6858   25.0336 H   0  0  0  0  0  0
  -28.0663  -31.8492   26.5450 H   0  0  0  0  0  0
  -28.2575  -38.0123   24.7506 H   0  0  0  0  0  0
  -28.1106  -36.2646   24.6276 H   0  0  0  0  0  0
  -27.2298  -37.1443   25.8856 H   0  0  0  0  0  0
  -20.9372  -29.8840   21.6945 H   0  0  0  0  0  0
  -26.0173  -38.2835   24.1400 H   0  0  0  0  0  0
  -31.1794  -21.1196   19.3523 H   0  0  0  0  0  0
  -28.3748  -18.3183   21.0939 H   0  0  0  0  0  0
  -32.0810  -16.9580   19.3331 H   0  0  0  0  0  0
  -29.4966  -22.4348   18.9811 H   0  0  0  0  0  0
  -25.0721  -22.8866   22.4644 H   0  0  0  0  0  0
  -25.3519  -21.0653   22.5316 H   0  0  0  0  0  0
  -26.7165  -24.3309   21.4881 H   0  0  0  0  0  0
  -28.1601  -23.9791   22.4239 H   0  0  0  0  0  0
  -27.3318  -20.1284   21.6218 H   0  0  0  0  0  0
  -28.5688  -20.9245   22.5760 H   0  0  0  0  0  0
  -27.7660  -24.9659   18.6945 H   0  0  0  0  0  0
  -29.4262  -25.0461   19.0643 H   0  0  0  0  0  0
  -33.3221  -20.2479   18.7180 H   0  0  0  0  0  0
  -33.6648  -18.5931   18.7115 H   0  0  0  0  0  0
  -28.9130  -15.7647   20.8913 H   0  0  0  0  0  0
  1 25  1  0  0  0
  1 30  2  0  0  0
  1 86  1  0  0  0
  2  3  1  0  0  0
  2 25  1  0  0  0
  2 87  1  0  0  0
  2 88  1  0  0  0
  3  4  1  0  0  0
  3 89  1  0  0  0
  3 90  1  0  0  0
  4  5  1  0  0  0
  4 91  1  0  0  0
  4 92  1  0  0  0
  5  6  1  0  0  0
  5 26  1  0  0  0
  5 93  1  0  0  0
  6 25  1  0  0  0
  6 94  1  0  0  0
  6 95  1  0  0  0
  7  8  2  0  0  0
  7 26  1  0  0  0
  7 29  1  0  0  0
  8  9  1  0  0  0
  8 22  1  0  0  0
  9 10  1  0  0  0
  9 27  2  0  0  0
 10 11  2  0  0  0
 10 15  1  0  0  0
 11 12  1  0  0  0
 11 96  1  0  0  0
 12 13  2  0  0  0
 12 97  1  0  0  0
 13 14  1  0  0  0
 13 31  1  0  0  0
 14 15  2  0  0  0
 14 98  1  0  0  0
 15 99  1  0  0  0
 16 17  2  0  0  0
 16 21  1  0  0  0
 16 31  1  0  0  0
 17 18  1  0  0  0
 17100  1  0  0  0
 18 19  2  0  0  0
 18101  1  0  0  0
 19 20  1  0  0  0
 19 24  1  0  0  0
 20 21  2  0  0  0
 20102  1  0  0  0
 21 23  1  0  0  0
 22 28  1  0  0  0
 22 32  2  0  0  0
 26 27  1  0  0  0
 28103  1  0  0  0
 28104  1  0  0  0
 29105  1  0  0  0
 29106  1  0  0  0
 33 34  1  0  0  0
 33 66  1  0  0  0
 33 70  2  0  0  0
 34 36  1  0  0  0
 34 59  1  0  0  0
 34107  1  0  0  0
 35 44  2  0  0  0
 35 45  1  0  0  0
 35 68  1  0  0  0
 36 56  1  0  0  0
 36108  1  0  0  0
 37 39  1  0  0  0
 37 47  1  0  0  0
 37 66  1  0  0  0
 37109  1  0  0  0
 38 43  2  0  0  0
 38 46  1  0  0  0
 38 47  1  0  0  0
 39 64  1  0  0  0
 39 67  2  0  0  0
 40 52  1  0  0  0
 40 53  2  0  0  0
 40 58  1  0  0  0
 41110  1  0  0  0
 41111  1  0  0  0
 41112  1  0  0  0
 41 48  1  0  0  0
 42 43  1  0  0  0
 42 66  1  0  0  0
 42113  1  0  0  0
 42114  1  0  0  0
 43 44  1  0  0  0
 44115  1  0  0  0
 45 46  2  0  0  0
 45116  1  0  0  0
 46117  1  0  0  0
 47118  1  0  0  0
 47119  1  0  0  0
 48 56  1  0  0  0
 48 65  1  0  0  0
 48120  1  0  0  0
 49 50  1  0  0  0
 49 53  1  0  0  0
 49 64  1  0  0  0
 49121  1  0  0  0
 50 51  1  0  0  0
 50122  1  0  0  0
 50123  1  0  0  0
 51 52  1  0  0  0
 51124  1  0  0  0
 51125  1  0  0  0
 52126  1  0  0  0
 52127  1  0  0  0
 53 54  1  0  0  0
 54 55  2  0  0  0
 54128  1  0  0  0
 55 57  1  0  0  0
 55129  1  0  0  0
 56 69  2  0  0  0
 57 58  2  0  0  0
 57130  1  0  0  0
 58131  1  0  0  0
 59 60  1  0  0  0
 59 61  1  0  0  0
 59 62  1  0  0  0
 60132  1  0  0  0
 60133  1  0  0  0
 60134  1  0  0  0
 61135  1  0  0  0
 61136  1  0  0  0
 61137  1  0  0  0
 62138  1  0  0  0
 62139  1  0  0  0
 62140  1  0  0  0
 63 65  1  0  0  0
 63141  1  0  0  0
 63142  1  0  0  0
 63143  1  0  0  0
 64144  1  0  0  0
 65145  1  0  0  0
 68 83  1  0  0  0
 71 74  2  0  0  0
 71 75  1  0  0  0
 71146  1  0  0  0
 72 74  1  0  0  0
 72 76  2  0  0  0
 72147  1  0  0  0
 73 75  2  0  0  0
 73 76  1  0  0  0
 73148  1  0  0  0
 74 84  1  0  0  0
 75 85  1  0  0  0
 76 86  1  0  0  0
 77 78  2  0  0  0
 77 84  1  0  0  0
 77149  1  0  0  0
 78 81  1  0  0  0
 78 83  1  0  0  0
 79 80  2  0  0  0
 79 81  1  0  0  0
 79 82  1  0  0  0
 80150  1  0  0  0
 80151  1  0  0  0
 81152  1  0  0  0
 81153  1  0  0  0
 82 84  1  0  0  0
 82154  1  0  0  0
 82155  1  0  0  0
 83156  1  0  0  0
 83157  1  0  0  0
 85158  1  0  0  0
 85159  1  0  0  0
 86160  1  0  0  0
M  ISO  4   1 100  68 101  83 101  86 100
M  END
> <chiral flag>
0

> <version>
0

> <s_m_source_file>
/data/baiqing/PycharmProjects/Reinvent-master-3.2/result/LINK_invent/BTK/process_docking_weight1_custom_product_contain_oxygen_bond_distance_aromatic_linkinvent_7_9_3/rearranged_h_0079.sdf

> <i_m_source_file_index>
74

> <r_mmod_Potential_Energy-OPLS-2005>
264.814758300781

> <r_mmod_Stretch_Energy-OPLS-2005>
141.970779418945

> <r_mmod_Bend_Energy-OPLS-2005>
178.070220947266

> <r_mmod_Torsional_Energy-OPLS-2005>
205.329574584961

> <r_mmod_Improper_Torsional_Energy-OPLS-2005>
7.89962291717529

> <r_mmod_Van_der_Waal_Energy-OPLS-2005>
155.948760986328

> <r_mmod_Electrostatic_Energy-OPLS-2005>
-298.790374755859

> <r_mmod_Solvation_Energy-OPLS-2005>
-220.490783691406

> <b_mmod_Minimization_Converged-OPLS-2005>
0

> <r_mmod_RMS_Derivative-OPLS-2005>
1.50617074966431

$$$$
74
                    3D
 Structure written by MMmdl.
157166  0  0  1  0            999 V2000
  -30.6670  -14.5006   20.5484 C   0  0  0  0  0  0
  -30.4304  -12.3161   19.4197 C   0  0  0  0  0  0
  -29.4965  -12.5000   18.2036 C   0  0  0  0  0  0
  -28.0175  -12.3560   18.6177 C   0  0  0  0  0  0
  -27.6603  -13.2005   19.8699 C   0  0  2  0  0  0
  -28.7026  -12.9821   20.9894 C   0  0  0  0  0  0
  -25.2588  -13.8138   20.5653 C   0  0  0  0  0  0
  -24.1843  -13.0432   20.9189 C   0  0  0  0  0  0
  -24.6384  -11.6895   20.8742 C   0  0  0  0  0  0
  -23.9047  -10.4288   21.0410 C   0  0  0  0  0  0
  -24.3606   -9.4208   21.9183 C   0  0  0  0  0  0
  -23.6290   -8.2240   22.0752 C   0  0  0  0  0  0
  -22.4270   -8.0276   21.3546 C   0  0  0  0  0  0
  -21.9902   -9.0247   20.4646 C   0  0  0  0  0  0
  -22.7225  -10.2127   20.3059 C   0  0  0  0  0  0
  -21.6848   -6.0735   22.5282 C   0  0  0  0  0  0
  -21.4008   -6.5641   23.8217 C   0  0  0  0  0  0
  -21.3662   -5.6794   24.9180 C   0  0  0  0  0  0
  -21.6047   -4.3057   24.7227 C   0  0  0  0  0  0
  -21.8820   -3.8147   23.4349 C   0  0  0  0  0  0
  -21.9193   -4.6964   22.3406 C   0  0  0  0  0  0
  -22.7870  -13.5242   21.1858 C   0  0  0  0  0  0
  -22.1663   -4.2152   21.0983 F   0  0  0  0  0  0
  -21.5631   -3.4542   25.7738 F   0  0  0  0  0  0
  -30.0320  -13.3005   20.4374 N   0  0  0  0  0  0
  -26.3014  -12.9296   20.3332 N   0  0  0  0  0  0
  -25.9306  -11.6464   20.5752 N   0  0  0  0  0  0
  -22.0503  -12.8231   22.0408 N   0  0  0  0  0  0
  -25.4312  -15.1847   20.3992 N   0  0  0  0  0  0
  -31.8105  -14.6894   20.1229 O   0  0  0  0  0  0
  -21.6638   -6.8873   21.4241 O   0  0  0  0  0  0
  -22.3565  -14.5557   20.6717 O   0  0  0  0  0  0
  -24.6164  -31.8650   23.2064 C   0  0  0  0  0  0
  -25.9054  -32.4806   23.8359 C   0  0  1  0  0  0
  -27.2358  -27.4158   20.1088 C   0  0  0  0  0  0
  -25.5904  -33.8605   24.2302 N   0  0  0  0  0  0
  -23.4053  -30.4883   21.5460 C   0  0  2  0  0  0
  -24.8524  -28.9481   20.1141 C   0  0  0  0  0  0
  -22.7424  -29.4650   22.4962 C   0  0  0  0  0  0
  -18.0275  -28.1387   22.8484 C   0  0  0  0  0  0
  -24.1493  -36.7308   23.2640 C   0  0  0  0  0  0
  -25.9335  -30.8288   21.3580 C   0  0  0  0  0  0
  -26.0118  -29.4607   20.7078 C   0  0  0  0  0  0
  -27.2068  -28.7036   20.6961 C   0  0  0  0  0  0
  -26.0584  -26.9194   19.5079 C   0  0  0  0  0  0
  -24.8713  -27.6788   19.5097 C   0  0  0  0  0  0
  -23.6137  -29.8164   20.1615 C   0  0  0  0  0  0
  -25.4104  -36.3098   24.0344 C   0  0  1  0  0  0
  -20.5872  -28.3667   23.1317 C   0  0  2  0  0  0
  -20.6764  -26.9401   22.5423 C   0  0  0  0  0  0
  -19.5746  -26.6388   21.5219 C   0  0  0  0  0  0
  -18.1919  -26.7933   22.1618 C   0  0  0  0  0  0
  -19.1528  -28.8837   23.2903 C   0  0  0  0  0  0
  -18.9458  -30.1443   23.8916 C   0  0  0  0  0  0
  -17.6463  -30.6587   24.0568 C   0  0  0  0  0  0
  -25.9035  -34.9469   23.5122 C   0  0  0  0  0  0
  -16.5351  -29.9094   23.6335 C   0  0  0  0  0  0
  -16.7263  -28.6518   23.0337 C   0  0  0  0  0  0
  -26.4474  -31.6585   25.0692 C   0  0  0  0  0  0
  -25.3755  -31.3693   26.1452 C   0  0  0  0  0  0
  -27.0295  -30.3032   24.6054 C   0  0  0  0  0  0
  -27.6044  -32.4296   25.7466 C   0  0  0  0  0  0
  -27.5580  -37.1798   24.8465 C   0  0  0  0  0  0
  -21.4146  -29.3036   22.3717 N   0  0  0  0  0  0
  -26.4291  -37.3789   23.9417 N   0  0  0  0  0  0
  -24.6703  -31.0744   22.0965 N   0  0  0  0  0  0
  -23.4198  -28.8194   23.3007 O   0  0  0  0  0  0
  -28.4089  -26.6843   20.1214 O   0  0  0  0  0  0
  -26.5600  -34.8924   22.4684 O   0  0  0  0  0  0
  -23.5351  -32.1384   23.7465 O   0  0  0  0  0  0
  -29.0014  -19.1550   20.8543 C   0  0  0  0  0  0
  -31.4022  -18.9721   21.0877 C   0  0  0  0  0  0
  -28.9072  -17.7423   20.8370 C   0  0  0  0  0  0
  -31.3107  -17.5621   21.0571 C   0  0  0  0  0  0
  -30.2530  -19.8036   21.0021 C   0  0  0  0  0  0
  -30.0557  -16.9235   20.9444 C   0  0  0  0  0  0
  -30.0531  -23.5176   21.2684 C   0  0  0  0  0  0
  -31.2396  -23.2156   22.0210 C   0  0  0  0  0  0
  -29.5353  -22.2413   20.7579 C   0  0  0  0  0  0
  -31.9421  -24.0623   22.7961 C   0  0  0  0  0  0
  -29.5423  -24.7668   21.0871 C   0  0  0  0  0  0
  -31.5573  -21.7661   21.8696 C   0  0  0  0  0  0
  -28.3214  -25.2552   20.3117 C   0  0  0  0  0  0
  -30.3881  -21.2406   21.1559 N   0  0  0  0  0  0
  -29.8794  -15.5016   21.0030 N   0  0  0  0  0  0
  -28.5129  -22.0887   20.0820 O   0  0  0  0  0  0
  -31.4733  -12.4287   19.1166 H   0  0  0  0  0  0
  -30.3439  -11.3041   19.8188 H   0  0  0  0  0  0
  -29.7380  -11.7694   17.4305 H   0  0  0  0  0  0
  -29.6587  -13.4822   17.7563 H   0  0  0  0  0  0
  -27.8344  -11.3001   18.8207 H   0  0  0  0  0  0
  -27.3651  -12.6210   17.7841 H   0  0  0  0  0  0
  -27.7024  -14.2467   19.5675 H   0  0  0  0  0  0
  -28.6837  -11.9447   21.3248 H   0  0  0  0  0  0
  -28.4614  -13.5743   21.8741 H   0  0  0  0  0  0
  -25.2752   -9.5689   22.4757 H   0  0  0  0  0  0
  -24.0010   -7.4626   22.7462 H   0  0  0  0  0  0
  -21.0842   -8.8760   19.8943 H   0  0  0  0  0  0
  -22.3686  -10.9667   19.6171 H   0  0  0  0  0  0
  -21.1993   -7.6145   23.9722 H   0  0  0  0  0  0
  -21.1485   -6.0521   25.9083 H   0  0  0  0  0  0
  -22.0596   -2.7611   23.2849 H   0  0  0  0  0  0
  -22.4109  -11.9891   22.4801 H   0  0  0  0  0  0
  -21.1117  -13.1254   22.2601 H   0  0  0  0  0  0
  -24.6543  -15.8327   20.4768 H   0  0  0  0  0  0
  -26.2635  -15.6098   20.0119 H   0  0  0  0  0  0
  -26.7126  -32.5527   23.1118 H   0  0  0  0  0  0
  -25.0058  -33.9741   25.0452 H   0  0  0  0  0  0
  -22.6958  -31.3065   21.4024 H   0  0  0  0  0  0
  -23.3751  -35.9650   23.3303 H   0  0  0  0  0  0
  -24.3585  -36.8919   22.2055 H   0  0  0  0  0  0
  -23.7253  -37.6520   23.6648 H   0  0  0  0  0  0
  -26.0402  -31.5924   20.5866 H   0  0  0  0  0  0
  -26.8239  -30.8878   21.9725 H   0  0  0  0  0  0
  -28.1043  -29.0961   21.1530 H   0  0  0  0  0  0
  -26.0522  -25.9482   19.0337 H   0  0  0  0  0  0
  -23.9805  -27.2792   19.0475 H   0  0  0  0  0  0
  -23.7241  -30.5879   19.3987 H   0  0  0  0  0  0
  -22.7382  -29.2368   19.8635 H   0  0  0  0  0  0
  -25.1283  -36.1946   25.0838 H   0  0  0  0  0  0
  -20.9952  -28.3226   24.1445 H   0  0  0  0  0  0
  -20.5661  -26.2271   23.3603 H   0  0  0  0  0  0
  -21.6627  -26.7432   22.1216 H   0  0  0  0  0  0
  -19.6910  -25.6310   21.1222 H   0  0  0  0  0  0
  -19.6697  -27.3209   20.6765 H   0  0  0  0  0  0
  -17.4190  -26.6696   21.4013 H   0  0  0  0  0  0
  -18.0307  -26.0081   22.9014 H   0  0  0  0  0  0
  -19.7944  -30.7253   24.2283 H   0  0  0  0  0  0
  -17.5027  -31.6266   24.5161 H   0  0  0  0  0  0
  -15.5353  -30.2997   23.7658 H   0  0  0  0  0  0
  -15.8668  -28.0847   22.7028 H   0  0  0  0  0  0
  -24.5935  -30.7024   25.7802 H   0  0  0  0  0  0
  -24.8939  -32.2853   26.4891 H   0  0  0  0  0  0
  -25.8126  -30.8880   27.0209 H   0  0  0  0  0  0
  -26.2816  -29.6798   24.1138 H   0  0  0  0  0  0
  -27.4115  -29.7256   25.4481 H   0  0  0  0  0  0
  -27.8634  -30.4356   23.9153 H   0  0  0  0  0  0
  -27.2655  -33.3588   26.2048 H   0  0  0  0  0  0
  -28.3860  -32.6850   25.0302 H   0  0  0  0  0  0
  -28.0704  -31.8417   26.5381 H   0  0  0  0  0  0
  -28.2583  -38.0108   24.7501 H   0  0  0  0  0  0
  -28.1082  -36.2628   24.6287 H   0  0  0  0  0  0
  -27.2296  -37.1449   25.8871 H   0  0  0  0  0  0
  -20.9297  -29.8771   21.6959 H   0  0  0  0  0  0
  -26.0178  -38.2866   24.1428 H   0  0  0  0  0  0
  -28.0861  -19.7254   20.7971 H   0  0  0  0  0  0
  -32.3881  -19.3987   21.2013 H   0  0  0  0  0  0
  -27.9282  -17.2915   20.7547 H   0  0  0  0  0  0
  -32.2178  -16.9829   21.1561 H   0  0  0  0  0  0
  -31.6779  -25.1021   22.9150 H   0  0  0  0  0  0
  -32.8076  -23.7148   23.3428 H   0  0  0  0  0  0
  -30.0602  -25.5822   21.5680 H   0  0  0  0  0  0
  -31.6803  -21.2871   22.8421 H   0  0  0  0  0  0
  -32.4707  -21.6492   21.2850 H   0  0  0  0  0  0
  -27.4352  -24.9911   20.8927 H   0  0  0  0  0  0
  -28.2541  -24.7502   19.3479 H   0  0  0  0  0  0
  -28.9552  -15.1920   21.2597 H   0  0  0  0  0  0
  1 25  1  0  0  0
  1 30  2  0  0  0
  1 85  1  0  0  0
  2  3  1  0  0  0
  2 25  1  0  0  0
  2 87  1  0  0  0
  2 88  1  0  0  0
  3  4  1  0  0  0
  3 89  1  0  0  0
  3 90  1  0  0  0
  4  5  1  0  0  0
  4 91  1  0  0  0
  4 92  1  0  0  0
  5  6  1  0  0  0
  5 26  1  0  0  0
  5 93  1  0  0  0
  6 25  1  0  0  0
  6 94  1  0  0  0
  6 95  1  0  0  0
  7  8  2  0  0  0
  7 26  1  0  0  0
  7 29  1  0  0  0
  8  9  1  0  0  0
  8 22  1  0  0  0
  9 10  1  0  0  0
  9 27  2  0  0  0
 10 11  2  0  0  0
 10 15  1  0  0  0
 11 12  1  0  0  0
 11 96  1  0  0  0
 12 13  2  0  0  0
 12 97  1  0  0  0
 13 14  1  0  0  0
 13 31  1  0  0  0
 14 15  2  0  0  0
 14 98  1  0  0  0
 15 99  1  0  0  0
 16 17  2  0  0  0
 16 21  1  0  0  0
 16 31  1  0  0  0
 17 18  1  0  0  0
 17100  1  0  0  0
 18 19  2  0  0  0
 18101  1  0  0  0
 19 20  1  0  0  0
 19 24  1  0  0  0
 20 21  2  0  0  0
 20102  1  0  0  0
 21 23  1  0  0  0
 22 28  1  0  0  0
 22 32  2  0  0  0
 26 27  1  0  0  0
 28103  1  0  0  0
 28104  1  0  0  0
 29105  1  0  0  0
 29106  1  0  0  0
 33 34  1  0  0  0
 33 66  1  0  0  0
 33 70  2  0  0  0
 34 36  1  0  0  0
 34 59  1  0  0  0
 34107  1  0  0  0
 35 44  2  0  0  0
 35 45  1  0  0  0
 35 68  1  0  0  0
 36 56  1  0  0  0
 36108  1  0  0  0
 37 39  1  0  0  0
 37 47  1  0  0  0
 37 66  1  0  0  0
 37109  1  0  0  0
 38 43  2  0  0  0
 38 46  1  0  0  0
 38 47  1  0  0  0
 39 64  1  0  0  0
 39 67  2  0  0  0
 40 52  1  0  0  0
 40 53  2  0  0  0
 40 58  1  0  0  0
 41110  1  0  0  0
 41111  1  0  0  0
 41112  1  0  0  0
 41 48  1  0  0  0
 42 43  1  0  0  0
 42 66  1  0  0  0
 42113  1  0  0  0
 42114  1  0  0  0
 43 44  1  0  0  0
 44115  1  0  0  0
 45 46  2  0  0  0
 45116  1  0  0  0
 46117  1  0  0  0
 47118  1  0  0  0
 47119  1  0  0  0
 48 56  1  0  0  0
 48 65  1  0  0  0
 48120  1  0  0  0
 49 50  1  0  0  0
 49 53  1  0  0  0
 49 64  1  0  0  0
 49121  1  0  0  0
 50 51  1  0  0  0
 50122  1  0  0  0
 50123  1  0  0  0
 51 52  1  0  0  0
 51124  1  0  0  0
 51125  1  0  0  0
 52126  1  0  0  0
 52127  1  0  0  0
 53 54  1  0  0  0
 54 55  2  0  0  0
 54128  1  0  0  0
 55 57  1  0  0  0
 55129  1  0  0  0
 56 69  2  0  0  0
 57 58  2  0  0  0
 57130  1  0  0  0
 58131  1  0  0  0
 59 60  1  0  0  0
 59 61  1  0  0  0
 59 62  1  0  0  0
 60132  1  0  0  0
 60133  1  0  0  0
 60134  1  0  0  0
 61135  1  0  0  0
 61136  1  0  0  0
 61137  1  0  0  0
 62138  1  0  0  0
 62139  1  0  0  0
 62140  1  0  0  0
 63 65  1  0  0  0
 63141  1  0  0  0
 63142  1  0  0  0
 63143  1  0  0  0
 64144  1  0  0  0
 65145  1  0  0  0
 68 83  1  0  0  0
 71 73  2  0  0  0
 71 75  1  0  0  0
 71146  1  0  0  0
 72 74  1  0  0  0
 72 75  2  0  0  0
 72147  1  0  0  0
 73 76  1  0  0  0
 73148  1  0  0  0
 74 76  2  0  0  0
 74149  1  0  0  0
 75 84  1  0  0  0
 76 85  1  0  0  0
 77 78  1  0  0  0
 77 79  1  0  0  0
 77 81  2  0  0  0
 78 80  2  0  0  0
 78 82  1  0  0  0
 79 84  1  0  0  0
 79 86  2  0  0  0
 80150  1  0  0  0
 80151  1  0  0  0
 81 83  1  0  0  0
 81152  1  0  0  0
 82 84  1  0  0  0
 82153  1  0  0  0
 82154  1  0  0  0
 83155  1  0  0  0
 83156  1  0  0  0
 85157  1  0  0  0
M  ISO  4   1 100  68 101  83 101  85 100
M  END
> <chiral flag>
0

> <version>
0

> <s_m_source_file>
/data/baiqing/PycharmProjects/Reinvent-master-3.2/result/LINK_invent/BTK/process_docking_weight1_custom_product_contain_oxygen_bond_distance_aromatic_linkinvent_7_9_3/rearranged_h_0079.sdf

> <i_m_source_file_index>
75

> <r_mmod_Potential_Energy-OPLS-2005>
94.7981109619141

> <r_mmod_Stretch_Energy-OPLS-2005>
47.2026710510254

> <r_mmod_Bend_Energy-OPLS-2005>
163.196960449219

> <r_mmod_Torsional_Energy-OPLS-2005>
269.272705078125

> <r_mmod_Improper_Torsional_Energy-OPLS-2005>
4.94090747833252

> <r_mmod_Van_der_Waal_Energy-OPLS-2005>
156.493789672852

> <r_mmod_Electrostatic_Energy-OPLS-2005>
-351.026519775391

> <r_mmod_Solvation_Energy-OPLS-2005>
-211.220092773438

> <b_mmod_Minimization_Converged-OPLS-2005>
0

> <r_mmod_RMS_Derivative-OPLS-2005>
1.59436249732971

$$$$
75
                    3D
 Structure written by MMmdl.
154163  0  0  1  0            999 V2000
  -30.5798  -14.7520   20.4666 C   0  0  0  0  0  0
  -30.4427  -12.4565   19.4771 C   0  0  0  0  0  0
  -29.5170  -12.5182   18.2403 C   0  0  0  0  0  0
  -28.0408  -12.3416   18.6488 C   0  0  0  0  0  0
  -27.6482  -13.2282   19.8602 C   0  0  2  0  0  0
  -28.6922  -13.1322   20.9954 C   0  0  0  0  0  0
  -25.2533  -13.8188   20.5696 C   0  0  0  0  0  0
  -24.1810  -13.0441   20.9188 C   0  0  0  0  0  0
  -24.6396  -11.6916   20.8738 C   0  0  0  0  0  0
  -23.9069  -10.4295   21.0402 C   0  0  0  0  0  0
  -24.3619   -9.4211   21.9179 C   0  0  0  0  0  0
  -23.6292   -8.2248   22.0754 C   0  0  0  0  0  0
  -22.4273   -8.0284   21.3545 C   0  0  0  0  0  0
  -21.9906   -9.0258   20.4649 C   0  0  0  0  0  0
  -22.7239  -10.2136   20.3055 C   0  0  0  0  0  0
  -21.6855   -6.0732   22.5277 C   0  0  0  0  0  0
  -21.4017   -6.5637   23.8209 C   0  0  0  0  0  0
  -21.3662   -5.6791   24.9172 C   0  0  0  0  0  0
  -21.6044   -4.3053   24.7223 C   0  0  0  0  0  0
  -21.8820   -3.8143   23.4345 C   0  0  0  0  0  0
  -21.9194   -4.6959   22.3401 C   0  0  0  0  0  0
  -22.7832  -13.5227   21.1850 C   0  0  0  0  0  0
  -22.1661   -4.2145   21.0979 F   0  0  0  0  0  0
  -21.5628   -3.4537   25.7736 F   0  0  0  0  0  0
  -29.9977  -13.5021   20.4279 N   0  0  0  0  0  0
  -26.2967  -12.9389   20.3313 N   0  0  0  0  0  0
  -25.9328  -11.6533   20.5753 N   0  0  0  0  0  0
  -22.0476  -12.8225   22.0414 N   0  0  0  0  0  0
  -25.4238  -15.1912   20.4133 N   0  0  0  0  0  0
  -31.7433  -14.9014   20.0797 O   0  0  0  0  0  0
  -21.6641   -6.8878   21.4240 O   0  0  0  0  0  0
  -22.3516  -14.5531   20.6697 O   0  0  0  0  0  0
  -24.6321  -31.8538   23.1977 C   0  0  0  0  0  0
  -25.9139  -32.4748   23.8329 C   0  0  1  0  0  0
  -27.2260  -27.2596   20.1160 C   0  0  0  0  0  0
  -25.5928  -33.8551   24.2246 N   0  0  0  0  0  0
  -23.4301  -30.4759   21.5408 C   0  0  2  0  0  0
  -24.8801  -28.9254   20.1042 C   0  0  0  0  0  0
  -22.7512  -29.4588   22.4903 C   0  0  0  0  0  0
  -18.0292  -28.1390   22.8486 C   0  0  0  0  0  0
  -24.1486  -36.7278   23.2640 C   0  0  0  0  0  0
  -25.9773  -30.7642   21.3808 C   0  0  0  0  0  0
  -26.0517  -29.3882   20.7173 C   0  0  0  0  0  0
  -27.2253  -28.5648   20.7185 C   0  0  0  0  0  0
  -26.0267  -26.8622   19.4831 C   0  0  0  0  0  0
  -24.8727  -27.6700   19.4773 C   0  0  0  0  0  0
  -23.6495  -29.8115   20.1559 C   0  0  0  0  0  0
  -25.4114  -36.3065   24.0322 C   0  0  1  0  0  0
  -20.5897  -28.3702   23.1269 C   0  0  2  0  0  0
  -20.6780  -26.9417   22.5412 C   0  0  0  0  0  0
  -19.5754  -26.6382   21.5217 C   0  0  0  0  0  0
  -18.1934  -26.7931   22.1629 C   0  0  0  0  0  0
  -19.1547  -28.8864   23.2870 C   0  0  0  0  0  0
  -18.9467  -30.1465   23.8889 C   0  0  0  0  0  0
  -17.6465  -30.6591   24.0563 C   0  0  0  0  0  0
  -25.9057  -34.9435   23.5092 C   0  0  0  0  0  0
  -16.5357  -29.9088   23.6330 C   0  0  0  0  0  0
  -16.7278  -28.6505   23.0354 C   0  0  0  0  0  0
  -26.4500  -31.6583   25.0729 C   0  0  0  0  0  0
  -25.3719  -31.3752   26.1450 C   0  0  0  0  0  0
  -27.0350  -30.2992   24.6241 C   0  0  0  0  0  0
  -27.6049  -32.4334   25.7502 C   0  0  0  0  0  0
  -27.5578  -37.1792   24.8460 C   0  0  0  0  0  0
  -21.4217  -29.3040   22.3649 N   0  0  0  0  0  0
  -26.4286  -37.3767   23.9408 N   0  0  0  0  0  0
  -24.6986  -31.0495   22.0958 N   0  0  0  0  0  0
  -23.4205  -28.8133   23.3011 O   0  0  0  0  0  0
  -28.2836  -26.3221   20.2235 O   0  0  0  0  0  0
  -26.5636  -34.8913   22.4665 O   0  0  0  0  0  0
  -23.5466  -32.1368   23.7263 O   0  0  0  0  0  0
  -30.4635  -19.3841   19.3843 C   0  0  0  0  0  0
  -30.6122  -17.9788   19.6475 C   0  0  0  0  0  0
  -28.7265  -19.5484   21.0090 C   0  0  0  0  0  0
  -29.5060  -20.2345   20.0322 C   0  0  0  0  0  0
  -29.7898  -17.2898   20.5804 C   0  0  0  0  0  0
  -28.8538  -18.1346   21.2573 C   0  0  0  0  0  0
  -28.7450  -23.9542   19.1881 C   0  0  0  0  0  0
  -28.9760  -23.2868   17.9258 C   0  0  0  0  0  0
  -28.9032  -22.8450   20.2012 C   0  0  0  0  0  0
  -28.7317  -23.7769   16.6942 C   0  0  0  0  0  0
  -28.4717  -25.3305   19.2320 C   0  0  0  0  0  0
  -29.4751  -21.8921   18.1427 C   0  0  0  0  0  0
  -29.2857  -21.6478   19.5708 N   0  0  0  0  0  0
  -29.7736  -15.8197   20.8278 N   0  0  0  0  0  0
  -28.7233  -22.9487   21.4185 O   0  0  0  0  0  0
  -28.0208  -17.5620   22.1594 F   0  0  0  0  0  0
  -31.4827  -12.5923   19.1760 H   0  0  0  0  0  0
  -30.3954  -11.4725   19.9461 H   0  0  0  0  0  0
  -29.7993  -11.7512   17.5178 H   0  0  0  0  0  0
  -29.6450  -13.4765   17.7343 H   0  0  0  0  0  0
  -27.8912  -11.2906   18.8979 H   0  0  0  0  0  0
  -27.3868  -12.5491   17.8011 H   0  0  0  0  0  0
  -27.6507  -14.2555   19.4958 H   0  0  0  0  0  0
  -28.7276  -12.1210   21.4028 H   0  0  0  0  0  0
  -28.4210  -13.7815   21.8292 H   0  0  0  0  0  0
  -25.2764   -9.5686   22.4751 H   0  0  0  0  0  0
  -24.0002   -7.4641   22.7474 H   0  0  0  0  0  0
  -21.0834   -8.8780   19.8957 H   0  0  0  0  0  0
  -22.3696  -10.9675   19.6165 H   0  0  0  0  0  0
  -21.2012   -7.6145   23.9714 H   0  0  0  0  0  0
  -21.1482   -6.0518   25.9074 H   0  0  0  0  0  0
  -22.0597   -2.7604   23.2848 H   0  0  0  0  0  0
  -22.4090  -11.9889   22.4809 H   0  0  0  0  0  0
  -21.1100  -13.1262   22.2624 H   0  0  0  0  0  0
  -24.6626  -15.8489   20.5405 H   0  0  0  0  0  0
  -26.2808  -15.6355   20.1099 H   0  0  0  0  0  0
  -26.7209  -32.5394   23.1072 H   0  0  0  0  0  0
  -25.0052  -33.9685   25.0376 H   0  0  0  0  0  0
  -22.7264  -31.2982   21.3950 H   0  0  0  0  0  0
  -23.3750  -35.9609   23.3298 H   0  0  0  0  0  0
  -24.3573  -36.8906   22.2055 H   0  0  0  0  0  0
  -23.7239  -37.6476   23.6671 H   0  0  0  0  0  0
  -26.1209  -31.5272   20.6146 H   0  0  0  0  0  0
  -26.8525  -30.8094   22.0175 H   0  0  0  0  0  0
  -28.1173  -28.9057   21.2255 H   0  0  0  0  0  0
  -25.9517  -25.8860   19.0267 H   0  0  0  0  0  0
  -23.9722  -27.3052   19.0024 H   0  0  0  0  0  0
  -23.7729  -30.5894   19.4017 H   0  0  0  0  0  0
  -22.7681  -29.2452   19.8498 H   0  0  0  0  0  0
  -25.1296  -36.1909   25.0815 H   0  0  0  0  0  0
  -20.9987  -28.3285   24.1392 H   0  0  0  0  0  0
  -20.5683  -26.2310   23.3619 H   0  0  0  0  0  0
  -21.6648  -26.7439   22.1204 H   0  0  0  0  0  0
  -19.6912  -25.6292   21.1250 H   0  0  0  0  0  0
  -19.6688  -27.3191   20.6746 H   0  0  0  0  0  0
  -17.4202  -26.6677   21.4035 H   0  0  0  0  0  0
  -18.0332  -26.0076   22.9030 H   0  0  0  0  0  0
  -19.7942  -30.7284   24.2253 H   0  0  0  0  0  0
  -17.5018  -31.6269   24.5167 H   0  0  0  0  0  0
  -15.5357  -30.2988   23.7656 H   0  0  0  0  0  0
  -15.8677  -28.0820   22.7074 H   0  0  0  0  0  0
  -24.5867  -30.7134   25.7777 H   0  0  0  0  0  0
  -24.8949  -32.2935   26.4884 H   0  0  0  0  0  0
  -25.8023  -30.8910   27.0224 H   0  0  0  0  0  0
  -26.2948  -29.6740   24.1237 H   0  0  0  0  0  0
  -27.3982  -29.7257   25.4780 H   0  0  0  0  0  0
  -27.8845  -30.4250   23.9526 H   0  0  0  0  0  0
  -27.2644  -33.3630   26.2074 H   0  0  0  0  0  0
  -28.3858  -32.6904   25.0333 H   0  0  0  0  0  0
  -28.0720  -31.8471   26.5424 H   0  0  0  0  0  0
  -28.2587  -38.0097   24.7516 H   0  0  0  0  0  0
  -28.1081  -36.2627   24.6271 H   0  0  0  0  0  0
  -27.2297  -37.1422   25.8864 H   0  0  0  0  0  0
  -20.9405  -29.8762   21.6852 H   0  0  0  0  0  0
  -26.0161  -38.2836   24.1422 H   0  0  0  0  0  0
  -31.1100  -19.8035   18.6271 H   0  0  0  0  0  0
  -31.3492  -17.4248   19.0836 H   0  0  0  0  0  0
  -27.9629  -20.0930   21.5444 H   0  0  0  0  0  0
  -28.3369  -24.7644   16.5108 H   0  0  0  0  0  0
  -28.9218  -23.1701   15.8200 H   0  0  0  0  0  0
  -28.4347  -25.8544   18.2900 H   0  0  0  0  0  0
  -30.5282  -21.8364   17.8652 H   0  0  0  0  0  0
  -28.9059  -21.1780   17.5451 H   0  0  0  0  0  0
  -28.9243  -15.5176   21.2818 H   0  0  0  0  0  0
  1 25  1  0  0  0
  1 30  2  0  0  0
  1 84  1  0  0  0
  2  3  1  0  0  0
  2 25  1  0  0  0
  2 87  1  0  0  0
  2 88  1  0  0  0
  3  4  1  0  0  0
  3 89  1  0  0  0
  3 90  1  0  0  0
  4  5  1  0  0  0
  4 91  1  0  0  0
  4 92  1  0  0  0
  5  6  1  0  0  0
  5 26  1  0  0  0
  5 93  1  0  0  0
  6 25  1  0  0  0
  6 94  1  0  0  0
  6 95  1  0  0  0
  7  8  2  0  0  0
  7 26  1  0  0  0
  7 29  1  0  0  0
  8  9  1  0  0  0
  8 22  1  0  0  0
  9 10  1  0  0  0
  9 27  2  0  0  0
 10 11  2  0  0  0
 10 15  1  0  0  0
 11 12  1  0  0  0
 11 96  1  0  0  0
 12 13  2  0  0  0
 12 97  1  0  0  0
 13 14  1  0  0  0
 13 31  1  0  0  0
 14 15  2  0  0  0
 14 98  1  0  0  0
 15 99  1  0  0  0
 16 17  2  0  0  0
 16 21  1  0  0  0
 16 31  1  0  0  0
 17 18  1  0  0  0
 17100  1  0  0  0
 18 19  2  0  0  0
 18101  1  0  0  0
 19 20  1  0  0  0
 19 24  1  0  0  0
 20 21  2  0  0  0
 20102  1  0  0  0
 21 23  1  0  0  0
 22 28  1  0  0  0
 22 32  2  0  0  0
 26 27  1  0  0  0
 28103  1  0  0  0
 28104  1  0  0  0
 29105  1  0  0  0
 29106  1  0  0  0
 33 34  1  0  0  0
 33 66  1  0  0  0
 33 70  2  0  0  0
 34 36  1  0  0  0
 34 59  1  0  0  0
 34107  1  0  0  0
 35 44  2  0  0  0
 35 45  1  0  0  0
 35 68  1  0  0  0
 36 56  1  0  0  0
 36108  1  0  0  0
 37 39  1  0  0  0
 37 47  1  0  0  0
 37 66  1  0  0  0
 37109  1  0  0  0
 38 43  2  0  0  0
 38 46  1  0  0  0
 38 47  1  0  0  0
 39 64  1  0  0  0
 39 67  2  0  0  0
 40 52  1  0  0  0
 40 53  2  0  0  0
 40 58  1  0  0  0
 41110  1  0  0  0
 41111  1  0  0  0
 41112  1  0  0  0
 41 48  1  0  0  0
 42 43  1  0  0  0
 42 66  1  0  0  0
 42113  1  0  0  0
 42114  1  0  0  0
 43 44  1  0  0  0
 44115  1  0  0  0
 45 46  2  0  0  0
 45116  1  0  0  0
 46117  1  0  0  0
 47118  1  0  0  0
 47119  1  0  0  0
 48 56  1  0  0  0
 48 65  1  0  0  0
 48120  1  0  0  0
 49 50  1  0  0  0
 49 53  1  0  0  0
 49 64  1  0  0  0
 49121  1  0  0  0
 50 51  1  0  0  0
 50122  1  0  0  0
 50123  1  0  0  0
 51 52  1  0  0  0
 51124  1  0  0  0
 51125  1  0  0  0
 52126  1  0  0  0
 52127  1  0  0  0
 53 54  1  0  0  0
 54 55  2  0  0  0
 54128  1  0  0  0
 55 57  1  0  0  0
 55129  1  0  0  0
 56 69  2  0  0  0
 57 58  2  0  0  0
 57130  1  0  0  0
 58131  1  0  0  0
 59 60  1  0  0  0
 59 61  1  0  0  0
 59 62  1  0  0  0
 60132  1  0  0  0
 60133  1  0  0  0
 60134  1  0  0  0
 61135  1  0  0  0
 61136  1  0  0  0
 61137  1  0  0  0
 62138  1  0  0  0
 62139  1  0  0  0
 62140  1  0  0  0
 63 65  1  0  0  0
 63141  1  0  0  0
 63142  1  0  0  0
 63143  1  0  0  0
 64144  1  0  0  0
 65145  1  0  0  0
 68 81  1  0  0  0
 71 72  2  0  0  0
 71 74  1  0  0  0
 71146  1  0  0  0
 72 75  1  0  0  0
 72147  1  0  0  0
 73 74  2  0  0  0
 73 76  1  0  0  0
 73148  1  0  0  0
 74 83  1  0  0  0
 75 76  2  0  0  0
 75 84  1  0  0  0
 76 86  1  0  0  0
 77 78  1  0  0  0
 77 79  1  0  0  0
 77 81  2  0  0  0
 78 80  2  0  0  0
 78 82  1  0  0  0
 79 83  1  0  0  0
 79 85  2  0  0  0
 80149  1  0  0  0
 80150  1  0  0  0
 81151  1  0  0  0
 82 83  1  0  0  0
 82152  1  0  0  0
 82153  1  0  0  0
 84154  1  0  0  0
M  ISO  4   1 100  68 101  81 101  84 100
M  END
> <chiral flag>
0

> <version>
0

> <s_m_source_file>
/data/baiqing/PycharmProjects/Reinvent-master-3.2/result/LINK_invent/BTK/process_docking_weight1_custom_product_contain_oxygen_bond_distance_aromatic_linkinvent_7_9_3/rearranged_h_0079.sdf

> <i_m_source_file_index>
76

> <r_mmod_Potential_Energy-OPLS-2005>
332.247436523438

> <r_mmod_Stretch_Energy-OPLS-2005>
121.933479309082

> <r_mmod_Bend_Energy-OPLS-2005>
258.603393554688

> <r_mmod_Torsional_Energy-OPLS-2005>
271.793365478516

> <r_mmod_Improper_Torsional_Energy-OPLS-2005>
4.40998697280884

> <r_mmod_Van_der_Waal_Energy-OPLS-2005>
139.522430419922

> <r_mmod_Electrostatic_Energy-OPLS-2005>
-341.861236572266

> <r_mmod_Solvation_Energy-OPLS-2005>
-214.696212768555

> <b_mmod_Minimization_Converged-OPLS-2005>
0

> <r_mmod_RMS_Derivative-OPLS-2005>
0.67221474647522

$$$$
76
                    3D
 Structure written by MMmdl.
159168  0  0  1  0            999 V2000
  -30.7215  -14.5874   20.4425 C   0  0  0  0  0  0
  -30.4093  -12.3454   19.4527 C   0  0  0  0  0  0
  -29.4940  -12.4549   18.2200 C   0  0  0  0  0  0
  -28.0183  -12.3225   18.6451 C   0  0  0  0  0  0
  -27.6400  -13.2330   19.8436 C   0  0  2  0  0  0
  -28.6948  -13.1743   20.9737 C   0  0  0  0  0  0
  -25.2499  -13.8212   20.5731 C   0  0  0  0  0  0
  -24.1799  -13.0435   20.9231 C   0  0  0  0  0  0
  -24.6396  -11.6917   20.8810 C   0  0  0  0  0  0
  -23.9101  -10.4286   21.0444 C   0  0  0  0  0  0
  -24.3647   -9.4191   21.9181 C   0  0  0  0  0  0
  -23.6313   -8.2233   22.0747 C   0  0  0  0  0  0
  -22.4288   -8.0288   21.3553 C   0  0  0  0  0  0
  -21.9931   -9.0293   20.4674 C   0  0  0  0  0  0
  -22.7285  -10.2156   20.3097 C   0  0  0  0  0  0
  -21.6859   -6.0778   22.5311 C   0  0  0  0  0  0
  -21.4032   -6.5667   23.8248 C   0  0  0  0  0  0
  -21.3664   -5.6804   24.9197 C   0  0  0  0  0  0
  -21.6031   -4.3065   24.7247 C   0  0  0  0  0  0
  -21.8783   -3.8164   23.4360 C   0  0  0  0  0  0
  -21.9186   -4.6997   22.3435 C   0  0  0  0  0  0
  -22.7827  -13.5214   21.1954 C   0  0  0  0  0  0
  -22.1633   -4.2180   21.1003 F   0  0  0  0  0  0
  -21.5637   -3.4529   25.7761 F   0  0  0  0  0  0
  -30.0086  -13.4257   20.3691 N   0  0  0  0  0  0
  -26.2931  -12.9447   20.3290 N   0  0  0  0  0  0
  -25.9331  -11.6581   20.5779 N   0  0  0  0  0  0
  -22.0512  -12.8172   22.0502 N   0  0  0  0  0  0
  -25.4105  -15.1952   20.4216 N   0  0  0  0  0  0
  -31.9419  -14.5855   20.2758 O   0  0  0  0  0  0
  -21.6623   -6.8911   21.4263 O   0  0  0  0  0  0
  -22.3501  -14.5549   20.6851 O   0  0  0  0  0  0
  -24.6232  -31.8618   23.2073 C   0  0  0  0  0  0
  -25.9087  -32.4776   23.8376 C   0  0  1  0  0  0
  -27.2343  -27.3930   20.0480 C   0  0  0  0  0  0
  -25.5915  -33.8558   24.2306 N   0  0  0  0  0  0
  -23.4119  -30.4881   21.5522 C   0  0  2  0  0  0
  -24.8521  -28.9514   20.1204 C   0  0  0  0  0  0
  -22.7444  -29.4623   22.4995 C   0  0  0  0  0  0
  -18.0264  -28.1437   22.8444 C   0  0  0  0  0  0
  -24.1490  -36.7269   23.2641 C   0  0  0  0  0  0
  -25.9496  -30.8142   21.3644 C   0  0  0  0  0  0
  -26.0238  -29.4452   20.7066 C   0  0  0  0  0  0
  -27.2155  -28.6703   20.6726 C   0  0  0  0  0  0
  -26.0202  -26.9172   19.5009 C   0  0  0  0  0  0
  -24.8475  -27.6864   19.5163 C   0  0  0  0  0  0
  -23.6241  -29.8297   20.1657 C   0  0  0  0  0  0
  -25.4104  -36.3064   24.0342 C   0  0  1  0  0  0
  -20.5853  -28.3709   23.1309 C   0  0  2  0  0  0
  -20.6750  -26.9446   22.5414 C   0  0  0  0  0  0
  -19.5747  -26.6438   21.5179 C   0  0  0  0  0  0
  -18.1928  -26.7964   22.1614 C   0  0  0  0  0  0
  -19.1520  -28.8884   23.2865 C   0  0  0  0  0  0
  -18.9446  -30.1473   23.8915 C   0  0  0  0  0  0
  -17.6451  -30.6615   24.0579 C   0  0  0  0  0  0
  -25.9049  -34.9436   23.5121 C   0  0  0  0  0  0
  -16.5339  -29.9129   23.6338 C   0  0  0  0  0  0
  -16.7244  -28.6570   23.0293 C   0  0  0  0  0  0
  -26.4508  -31.6503   25.0655 C   0  0  0  0  0  0
  -25.3788  -31.3555   26.1402 C   0  0  0  0  0  0
  -27.0293  -30.2956   24.5947 C   0  0  0  0  0  0
  -27.6142  -32.4143   25.7374 C   0  0  0  0  0  0
  -27.5559  -37.1793   24.8484 C   0  0  0  0  0  0
  -21.4160  -29.3039   22.3718 N   0  0  0  0  0  0
  -26.4281  -37.3765   23.9432 N   0  0  0  0  0  0
  -24.6816  -31.0681   22.1005 N   0  0  0  0  0  0
  -23.4186  -28.8140   23.3035 O   0  0  0  0  0  0
  -28.3946  -26.6135   20.0057 O   0  0  0  0  0  0
  -26.5623  -34.8937   22.4693 O   0  0  0  0  0  0
  -23.5400  -32.1370   23.7456 O   0  0  0  0  0  0
  -29.7066  -18.8829   17.2394 C   0  0  0  0  0  0
  -29.9004  -17.8415   18.1623 C   0  0  0  0  0  0
  -29.5662  -20.2122   17.6792 C   0  0  0  0  0  0
  -29.8397  -19.4852   19.9793 C   0  0  0  0  0  0
  -30.0126  -18.1241   19.5406 C   0  0  0  0  0  0
  -29.5792  -20.5642   19.0602 C   0  0  0  0  0  0
  -28.8382  -24.2504   19.5879 C   0  0  0  0  0  0
  -29.1358  -23.8045   20.9275 C   0  0  0  0  0  0
  -28.9573  -23.0447   18.7424 C   0  0  0  0  0  0
  -29.0230  -24.5116   22.0697 C   0  0  0  0  0  0
  -30.5262  -17.0145   20.4569 C   0  0  0  0  0  0
  -28.5021  -25.5131   19.1485 C   0  0  0  0  0  0
  -29.5632  -22.3587   20.8901 C   0  0  0  0  0  0
  -28.2568  -25.8944   17.6801 C   0  0  0  0  0  0
  -29.3670  -21.9600   19.4916 N   0  0  0  0  0  0
  -30.0164  -15.7535   20.3411 N   0  0  0  0  0  0
  -28.7012  -23.0046   17.5343 O   0  0  0  0  0  0
  -31.4373  -17.3023   21.2471 O   0  0  0  0  0  0
  -31.4601  -12.3997   19.1672 H   0  0  0  0  0  0
  -30.2781  -11.3759   19.9377 H   0  0  0  0  0  0
  -29.7357  -11.6766   17.4963 H   0  0  0  0  0  0
  -29.6583  -13.4055   17.7149 H   0  0  0  0  0  0
  -27.8468  -11.2780   18.9068 H   0  0  0  0  0  0
  -27.3607  -12.5240   17.8035 H   0  0  0  0  0  0
  -27.6265  -14.2503   19.4480 H   0  0  0  0  0  0
  -28.6885  -12.2044   21.4787 H   0  0  0  0  0  0
  -28.4785  -13.9255   21.7351 H   0  0  0  0  0  0
  -25.2790   -9.5628   22.4758 H   0  0  0  0  0  0
  -24.0028   -7.4587   22.7435 H   0  0  0  0  0  0
  -21.0866   -8.8846   19.8946 H   0  0  0  0  0  0
  -22.3774  -10.9723   19.6211 H   0  0  0  0  0  0
  -21.2011   -7.6167   23.9775 H   0  0  0  0  0  0
  -21.1526   -6.0528   25.9114 H   0  0  0  0  0  0
  -22.0556   -2.7626   23.2863 H   0  0  0  0  0  0
  -22.4115  -11.9794   22.4821 H   0  0  0  0  0  0
  -21.1181  -13.1210   22.2871 H   0  0  0  0  0  0
  -24.6318  -15.8345   20.5510 H   0  0  0  0  0  0
  -26.2514  -15.6565   20.0978 H   0  0  0  0  0  0
  -26.7127  -32.5491   23.1112 H   0  0  0  0  0  0
  -24.9961  -33.9693   25.0381 H   0  0  0  0  0  0
  -22.7019  -31.3058   21.4097 H   0  0  0  0  0  0
  -23.3738  -35.9615   23.3322 H   0  0  0  0  0  0
  -24.3588  -36.8864   22.2053 H   0  0  0  0  0  0
  -23.7253  -37.6492   23.6625 H   0  0  0  0  0  0
  -26.0561  -31.5697   20.5875 H   0  0  0  0  0  0
  -26.8435  -30.8707   21.9752 H   0  0  0  0  0  0
  -28.1206  -29.0527   21.1248 H   0  0  0  0  0  0
  -25.9589  -25.9457   19.0360 H   0  0  0  0  0  0
  -23.9478  -27.2917   19.0625 H   0  0  0  0  0  0
  -23.7637  -30.6073   19.4144 H   0  0  0  0  0  0
  -22.7459  -29.2632   19.8530 H   0  0  0  0  0  0
  -25.1284  -36.1913   25.0831 H   0  0  0  0  0  0
  -20.9906  -28.3261   24.1437 H   0  0  0  0  0  0
  -20.5648  -26.2289   23.3583 H   0  0  0  0  0  0
  -21.6627  -26.7496   22.1210 H   0  0  0  0  0  0
  -19.6925  -25.6351   21.1179 H   0  0  0  0  0  0
  -19.6711  -27.3279   20.6731 H   0  0  0  0  0  0
  -17.4176  -26.6619   21.4051 H   0  0  0  0  0  0
  -18.0417  -26.0142   22.9077 H   0  0  0  0  0  0
  -19.7917  -30.7258   24.2331 H   0  0  0  0  0  0
  -17.5018  -31.6309   24.5174 H   0  0  0  0  0  0
  -15.5350  -30.3063   23.7658 H   0  0  0  0  0  0
  -15.8625  -28.0950   22.6946 H   0  0  0  0  0  0
  -24.6051  -30.6788   25.7737 H   0  0  0  0  0  0
  -24.8866  -32.2657   26.4832 H   0  0  0  0  0  0
  -25.8199  -30.8768   27.0156 H   0  0  0  0  0  0
  -26.2777  -29.6709   24.1093 H   0  0  0  0  0  0
  -27.4202  -29.7175   25.4328 H   0  0  0  0  0  0
  -27.8569  -30.4303   23.8972 H   0  0  0  0  0  0
  -27.2876  -33.3481   26.1969 H   0  0  0  0  0  0
  -28.3940  -32.6597   25.0136 H   0  0  0  0  0  0
  -28.0793  -31.8183   26.5250 H   0  0  0  0  0  0
  -28.2617  -38.0052   24.7486 H   0  0  0  0  0  0
  -28.1019  -36.2579   24.6363 H   0  0  0  0  0  0
  -27.2281  -37.1527   25.8896 H   0  0  0  0  0  0
  -20.9335  -29.8777   21.6945 H   0  0  0  0  0  0
  -26.0143  -38.2835   24.1461 H   0  0  0  0  0  0
  -29.7042  -18.6744   16.1754 H   0  0  0  0  0  0
  -30.0496  -16.8377   17.7895 H   0  0  0  0  0  0
  -29.4808  -20.9445   16.8936 H   0  0  0  0  0  0
  -29.9283  -19.6801   21.0420 H   0  0  0  0  0  0
  -28.6990  -25.5404   22.0996 H   0  0  0  0  0  0
  -29.2466  -24.0507   23.0225 H   0  0  0  0  0  0
  -28.9548  -21.7642   21.5703 H   0  0  0  0  0  0
  -30.6178  -22.2808   21.1623 H   0  0  0  0  0  0
  -27.3052  -25.5005   17.3211 H   0  0  0  0  0  0
  -29.0384  -25.5117   17.0216 H   0  0  0  0  0  0
  -28.2342  -26.9756   17.5495 H   0  0  0  0  0  0
  -29.0772  -15.6806   19.9940 H   0  0  0  0  0  0
  1 25  1  0  0  0
  1 30  2  0  0  0
  1 86  1  0  0  0
  2  3  1  0  0  0
  2 25  1  0  0  0
  2 89  1  0  0  0
  2 90  1  0  0  0
  3  4  1  0  0  0
  3 91  1  0  0  0
  3 92  1  0  0  0
  4  5  1  0  0  0
  4 93  1  0  0  0
  4 94  1  0  0  0
  5  6  1  0  0  0
  5 26  1  0  0  0
  5 95  1  0  0  0
  6 25  1  0  0  0
  6 96  1  0  0  0
  6 97  1  0  0  0
  7  8  2  0  0  0
  7 26  1  0  0  0
  7 29  1  0  0  0
  8  9  1  0  0  0
  8 22  1  0  0  0
  9 10  1  0  0  0
  9 27  2  0  0  0
 10 11  2  0  0  0
 10 15  1  0  0  0
 11 12  1  0  0  0
 11 98  1  0  0  0
 12 13  2  0  0  0
 12 99  1  0  0  0
 13 14  1  0  0  0
 13 31  1  0  0  0
 14 15  2  0  0  0
 14100  1  0  0  0
 15101  1  0  0  0
 16 17  2  0  0  0
 16 21  1  0  0  0
 16 31  1  0  0  0
 17 18  1  0  0  0
 17102  1  0  0  0
 18 19  2  0  0  0
 18103  1  0  0  0
 19 20  1  0  0  0
 19 24  1  0  0  0
 20 21  2  0  0  0
 20104  1  0  0  0
 21 23  1  0  0  0
 22 28  1  0  0  0
 22 32  2  0  0  0
 26 27  1  0  0  0
 28105  1  0  0  0
 28106  1  0  0  0
 29107  1  0  0  0
 29108  1  0  0  0
 33 34  1  0  0  0
 33 66  1  0  0  0
 33 70  2  0  0  0
 34 36  1  0  0  0
 34 59  1  0  0  0
 34109  1  0  0  0
 35 44  2  0  0  0
 35 45  1  0  0  0
 35 68  1  0  0  0
 36 56  1  0  0  0
 36110  1  0  0  0
 37 39  1  0  0  0
 37 47  1  0  0  0
 37 66  1  0  0  0
 37111  1  0  0  0
 38 43  2  0  0  0
 38 46  1  0  0  0
 38 47  1  0  0  0
 39 64  1  0  0  0
 39 67  2  0  0  0
 40 52  1  0  0  0
 40 53  2  0  0  0
 40 58  1  0  0  0
 41112  1  0  0  0
 41113  1  0  0  0
 41114  1  0  0  0
 41 48  1  0  0  0
 42 43  1  0  0  0
 42 66  1  0  0  0
 42115  1  0  0  0
 42116  1  0  0  0
 43 44  1  0  0  0
 44117  1  0  0  0
 45 46  2  0  0  0
 45118  1  0  0  0
 46119  1  0  0  0
 47120  1  0  0  0
 47121  1  0  0  0
 48 56  1  0  0  0
 48 65  1  0  0  0
 48122  1  0  0  0
 49 50  1  0  0  0
 49 53  1  0  0  0
 49 64  1  0  0  0
 49123  1  0  0  0
 50 51  1  0  0  0
 50124  1  0  0  0
 50125  1  0  0  0
 51 52  1  0  0  0
 51126  1  0  0  0
 51127  1  0  0  0
 52128  1  0  0  0
 52129  1  0  0  0
 53 54  1  0  0  0
 54 55  2  0  0  0
 54130  1  0  0  0
 55 57  1  0  0  0
 55131  1  0  0  0
 56 69  2  0  0  0
 57 58  2  0  0  0
 57132  1  0  0  0
 58133  1  0  0  0
 59 60  1  0  0  0
 59 61  1  0  0  0
 59 62  1  0  0  0
 60134  1  0  0  0
 60135  1  0  0  0
 60136  1  0  0  0
 61137  1  0  0  0
 61138  1  0  0  0
 61139  1  0  0  0
 62140  1  0  0  0
 62141  1  0  0  0
 62142  1  0  0  0
 63 65  1  0  0  0
 63143  1  0  0  0
 63144  1  0  0  0
 63145  1  0  0  0
 64146  1  0  0  0
 65147  1  0  0  0
 68 82  1  0  0  0
 71 72  2  0  0  0
 71 73  1  0  0  0
 71148  1  0  0  0
 72 75  1  0  0  0
 72149  1  0  0  0
 73 76  2  0  0  0
 73150  1  0  0  0
 74 75  2  0  0  0
 74 76  1  0  0  0
 74151  1  0  0  0
 75 81  1  0  0  0
 76 85  1  0  0  0
 77 78  1  0  0  0
 77 79  1  0  0  0
 77 82  2  0  0  0
 78 80  2  0  0  0
 78 83  1  0  0  0
 79 85  1  0  0  0
 79 87  2  0  0  0
 80152  1  0  0  0
 80153  1  0  0  0
 81 86  1  0  0  0
 81 88  2  0  0  0
 82 84  1  0  0  0
 83 85  1  0  0  0
 83154  1  0  0  0
 83155  1  0  0  0
 84156  1  0  0  0
 84157  1  0  0  0
 84158  1  0  0  0
 86159  1  0  0  0
M  ISO  4   1 100  68 101  82 101  86 100
M  END
> <chiral flag>
0

> <version>
0

> <s_m_source_file>
/data/baiqing/PycharmProjects/Reinvent-master-3.2/result/LINK_invent/BTK/process_docking_weight1_custom_product_contain_oxygen_bond_distance_aromatic_linkinvent_7_9_3/rearranged_h_0079.sdf

> <i_m_source_file_index>
77

> <r_mmod_Potential_Energy-OPLS-2005>
182.905853271484

> <r_mmod_Stretch_Energy-OPLS-2005>
69.6860504150391

> <r_mmod_Bend_Energy-OPLS-2005>
166.291519165039

> <r_mmod_Torsional_Energy-OPLS-2005>
302.536193847656

> <r_mmod_Improper_Torsional_Energy-OPLS-2005>
10.9115333557129

> <r_mmod_Van_der_Waal_Energy-OPLS-2005>
168.811111450195

> <r_mmod_Electrostatic_Energy-OPLS-2005>
-362.827819824219

> <r_mmod_Solvation_Energy-OPLS-2005>
-216.98664855957

> <b_mmod_Minimization_Converged-OPLS-2005>
0

> <r_mmod_RMS_Derivative-OPLS-2005>
6.93332290649414

$$$$
77
                    3D
 Structure written by MMmdl.
146154  0  0  1  0            999 V2000
  -30.5878  -14.7910   20.4505 C   0  0  0  0  0  0
  -30.4368  -12.4803   19.4892 C   0  0  0  0  0  0
  -29.5180  -12.5232   18.2472 C   0  0  0  0  0  0
  -28.0440  -12.3386   18.6550 C   0  0  0  0  0  0
  -27.6440  -13.2368   19.8557 C   0  0  2  0  0  0
  -28.6860  -13.1768   20.9951 C   0  0  0  0  0  0
  -25.2515  -13.8207   20.5701 C   0  0  0  0  0  0
  -24.1807  -13.0446   20.9199 C   0  0  0  0  0  0
  -24.6404  -11.6924   20.8738 C   0  0  0  0  0  0
  -23.9079  -10.4300   21.0403 C   0  0  0  0  0  0
  -24.3626   -9.4213   21.9182 C   0  0  0  0  0  0
  -23.6299   -8.2249   22.0756 C   0  0  0  0  0  0
  -22.4281   -8.0287   21.3549 C   0  0  0  0  0  0
  -21.9919   -9.0259   20.4649 C   0  0  0  0  0  0
  -22.7249  -10.2137   20.3056 C   0  0  0  0  0  0
  -21.6856   -6.0737   22.5279 C   0  0  0  0  0  0
  -21.4017   -6.5641   23.8211 C   0  0  0  0  0  0
  -21.3661   -5.6793   24.9173 C   0  0  0  0  0  0
  -21.6045   -4.3056   24.7223 C   0  0  0  0  0  0
  -21.8819   -3.8147   23.4345 C   0  0  0  0  0  0
  -21.9194   -4.6965   22.3402 C   0  0  0  0  0  0
  -22.7827  -13.5223   21.1855 C   0  0  0  0  0  0
  -22.1663   -4.2150   21.0980 F   0  0  0  0  0  0
  -21.5629   -3.4540   25.7737 F   0  0  0  0  0  0
  -29.9881  -13.5452   20.4224 N   0  0  0  0  0  0
  -26.2949  -12.9423   20.3295 N   0  0  0  0  0  0
  -25.9338  -11.6560   20.5747 N   0  0  0  0  0  0
  -22.0473  -12.8217   22.0413 N   0  0  0  0  0  0
  -25.4212  -15.1935   20.4133 N   0  0  0  0  0  0
  -31.7605  -14.8972   20.0762 O   0  0  0  0  0  0
  -21.6646   -6.8881   21.4243 O   0  0  0  0  0  0
  -22.3508  -14.5525   20.6695 O   0  0  0  0  0  0
  -24.6353  -31.8529   23.1971 C   0  0  0  0  0  0
  -25.9164  -32.4744   23.8330 C   0  0  1  0  0  0
  -27.2152  -27.2169   20.1294 C   0  0  0  0  0  0
  -25.5948  -33.8550   24.2246 N   0  0  0  0  0  0
  -23.4345  -30.4753   21.5414 C   0  0  2  0  0  0
  -24.8830  -28.9222   20.1066 C   0  0  0  0  0  0
  -22.7528  -29.4588   22.4899 C   0  0  0  0  0  0
  -18.0297  -28.1393   22.8479 C   0  0  0  0  0  0
  -24.1492  -36.7274   23.2638 C   0  0  0  0  0  0
  -25.9854  -30.7484   21.3887 C   0  0  0  0  0  0
  -26.0559  -29.3684   20.7284 C   0  0  0  0  0  0
  -27.2213  -28.5268   20.7341 C   0  0  0  0  0  0
  -26.0253  -26.8712   19.4457 C   0  0  0  0  0  0
  -24.8762  -27.6836   19.4528 C   0  0  0  0  0  0
  -23.6555  -29.8125   20.1571 C   0  0  0  0  0  0
  -25.4122  -36.3063   24.0321 C   0  0  1  0  0  0
  -20.5903  -28.3711   23.1256 C   0  0  2  0  0  0
  -20.6787  -26.9425   22.5404 C   0  0  0  0  0  0
  -19.5762  -26.6385   21.5211 C   0  0  0  0  0  0
  -18.1942  -26.7933   22.1622 C   0  0  0  0  0  0
  -19.1551  -28.8869   23.2861 C   0  0  0  0  0  0
  -18.9469  -30.1467   23.8885 C   0  0  0  0  0  0
  -17.6467  -30.6592   24.0558 C   0  0  0  0  0  0
  -25.9066  -34.9435   23.5086 C   0  0  0  0  0  0
  -16.5359  -29.9085   23.6333 C   0  0  0  0  0  0
  -16.7282  -28.6503   23.0354 C   0  0  0  0  0  0
  -26.4512  -31.6584   25.0738 C   0  0  0  0  0  0
  -25.3710  -31.3750   26.1439 C   0  0  0  0  0  0
  -27.0367  -30.2991   24.6267 C   0  0  0  0  0  0
  -27.6063  -32.4327   25.7515 C   0  0  0  0  0  0
  -27.5580  -37.1794   24.8463 C   0  0  0  0  0  0
  -21.4231  -29.3048   22.3641 N   0  0  0  0  0  0
  -26.4292  -37.3767   23.9406 N   0  0  0  0  0  0
  -24.7042  -31.0445   22.0980 N   0  0  0  0  0  0
  -23.4208  -28.8126   23.3012 O   0  0  0  0  0  0
  -28.2796  -26.2691   20.2252 O   0  0  0  0  0  0
  -26.5639  -34.8913   22.4656 O   0  0  0  0  0  0
  -23.5490  -32.1381   23.7230 O   0  0  0  0  0  0
  -29.3938  -18.4426   21.0560 C   0  0  0  0  0  0
  -30.3363  -19.5446   19.2577 C   0  0  0  0  0  0
  -29.6324  -19.7620   20.4160 C   0  0  0  0  0  0
  -29.9270  -17.2825   20.4408 C   0  0  0  0  0  0
  -28.8046  -23.5530   20.5456 C   0  0  0  0  0  0
  -29.3208  -21.2159   20.9616 C   0  0  0  0  0  0
  -28.0401  -24.8063   19.8581 C   0  0  0  0  0  0
  -28.8534  -22.2904   20.1140 N   0  0  0  0  0  0
  -29.8229  -15.9116   20.7869 N   0  0  0  0  0  0
  -29.4681  -21.3632   22.1761 O   0  0  0  0  0  0
  -30.7353  -17.8446   18.9858 S   0  0  0  0  0  0
  -31.4783  -12.6067   19.1887 H   0  0  0  0  0  0
  -30.3854  -11.5037   19.9734 H   0  0  0  0  0  0
  -29.8091  -11.7518   17.5331 H   0  0  0  0  0  0
  -29.6397  -13.4776   17.7322 H   0  0  0  0  0  0
  -27.9046  -11.2889   18.9167 H   0  0  0  0  0  0
  -27.3891  -12.5294   17.8040 H   0  0  0  0  0  0
  -27.6369  -14.2589   19.4761 H   0  0  0  0  0  0
  -28.7281  -12.1773   21.4308 H   0  0  0  0  0  0
  -28.4085  -13.8502   21.8071 H   0  0  0  0  0  0
  -25.2772   -9.5687   22.4753 H   0  0  0  0  0  0
  -24.0008   -7.4643   22.7478 H   0  0  0  0  0  0
  -21.0851   -8.8778   19.8955 H   0  0  0  0  0  0
  -22.3710  -10.9674   19.6163 H   0  0  0  0  0  0
  -21.2012   -7.6150   23.9714 H   0  0  0  0  0  0
  -21.1485   -6.0525   25.9075 H   0  0  0  0  0  0
  -22.0596   -2.7609   23.2844 H   0  0  0  0  0  0
  -22.4094  -11.9886   22.4813 H   0  0  0  0  0  0
  -21.1086  -13.1236   22.2606 H   0  0  0  0  0  0
  -24.6532  -15.8471   20.5209 H   0  0  0  0  0  0
  -26.2702  -15.6341   20.0822 H   0  0  0  0  0  0
  -26.7228  -32.5376   23.1065 H   0  0  0  0  0  0
  -25.0086  -33.9693   25.0384 H   0  0  0  0  0  0
  -22.7327  -31.2990   21.3950 H   0  0  0  0  0  0
  -23.3761  -35.9597   23.3292 H   0  0  0  0  0  0
  -24.3578  -36.8911   22.2053 H   0  0  0  0  0  0
  -23.7237  -37.6467   23.6672 H   0  0  0  0  0  0
  -26.1331  -31.5073   20.6192 H   0  0  0  0  0  0
  -26.8596  -30.7959   22.0264 H   0  0  0  0  0  0
  -28.1112  -28.8572   21.2513 H   0  0  0  0  0  0
  -25.9378  -25.9436   18.9018 H   0  0  0  0  0  0
  -23.9846  -27.3442   18.9436 H   0  0  0  0  0  0
  -23.7832  -30.5909   19.4040 H   0  0  0  0  0  0
  -22.7728  -29.2492   19.8491 H   0  0  0  0  0  0
  -25.1305  -36.1908   25.0813 H   0  0  0  0  0  0
  -20.9989  -28.3293   24.1379 H   0  0  0  0  0  0
  -20.5693  -26.2322   23.3613 H   0  0  0  0  0  0
  -21.6654  -26.7453   22.1195 H   0  0  0  0  0  0
  -19.6926  -25.6293   21.1251 H   0  0  0  0  0  0
  -19.6698  -27.3186   20.6733 H   0  0  0  0  0  0
  -17.4211  -26.6674   21.4025 H   0  0  0  0  0  0
  -18.0345  -26.0083   22.9026 H   0  0  0  0  0  0
  -19.7945  -30.7284   24.2252 H   0  0  0  0  0  0
  -17.5022  -31.6271   24.5161 H   0  0  0  0  0  0
  -15.5359  -30.2980   23.7669 H   0  0  0  0  0  0
  -15.8683  -28.0816   22.7079 H   0  0  0  0  0  0
  -24.5895  -30.7096   25.7751 H   0  0  0  0  0  0
  -24.8887  -32.2922   26.4827 H   0  0  0  0  0  0
  -25.8000  -30.8943   27.0241 H   0  0  0  0  0  0
  -26.2967  -29.6728   24.1271 H   0  0  0  0  0  0
  -27.4001  -29.7275   25.4817 H   0  0  0  0  0  0
  -27.8869  -30.4249   23.9559 H   0  0  0  0  0  0
  -27.2679  -33.3639   26.2073 H   0  0  0  0  0  0
  -28.3888  -32.6869   25.0352 H   0  0  0  0  0  0
  -28.0717  -31.8461   26.5448 H   0  0  0  0  0  0
  -28.2591  -38.0099   24.7521 H   0  0  0  0  0  0
  -28.1085  -36.2629   24.6278 H   0  0  0  0  0  0
  -27.2296  -37.1427   25.8865 H   0  0  0  0  0  0
  -20.9429  -29.8764   21.6832 H   0  0  0  0  0  0
  -26.0168  -38.2839   24.1410 H   0  0  0  0  0  0
  -28.8473  -18.4044   21.9881 H   0  0  0  0  0  0
  -30.6882  -20.2945   18.5589 H   0  0  0  0  0  0
  -29.2663  -23.8377   21.4954 H   0  0  0  0  0  0
  -26.9972  -24.5743   20.0651 H   0  0  0  0  0  0
  -28.1594  -24.7170   18.7781 H   0  0  0  0  0  0
  -28.9679  -15.6691   21.2652 H   0  0  0  0  0  0
  1 25  1  0  0  0
  1 30  2  0  0  0
  1 79  1  0  0  0
  2  3  1  0  0  0
  2 25  1  0  0  0
  2 82  1  0  0  0
  2 83  1  0  0  0
  3  4  1  0  0  0
  3 84  1  0  0  0
  3 85  1  0  0  0
  4  5  1  0  0  0
  4 86  1  0  0  0
  4 87  1  0  0  0
  5  6  1  0  0  0
  5 26  1  0  0  0
  5 88  1  0  0  0
  6 25  1  0  0  0
  6 89  1  0  0  0
  6 90  1  0  0  0
  7  8  2  0  0  0
  7 26  1  0  0  0
  7 29  1  0  0  0
  8  9  1  0  0  0
  8 22  1  0  0  0
  9 10  1  0  0  0
  9 27  2  0  0  0
 10 11  2  0  0  0
 10 15  1  0  0  0
 11 12  1  0  0  0
 11 91  1  0  0  0
 12 13  2  0  0  0
 12 92  1  0  0  0
 13 14  1  0  0  0
 13 31  1  0  0  0
 14 15  2  0  0  0
 14 93  1  0  0  0
 15 94  1  0  0  0
 16 17  2  0  0  0
 16 21  1  0  0  0
 16 31  1  0  0  0
 17 18  1  0  0  0
 17 95  1  0  0  0
 18 19  2  0  0  0
 18 96  1  0  0  0
 19 20  1  0  0  0
 19 24  1  0  0  0
 20 21  2  0  0  0
 20 97  1  0  0  0
 21 23  1  0  0  0
 22 28  1  0  0  0
 22 32  2  0  0  0
 26 27  1  0  0  0
 28 98  1  0  0  0
 28 99  1  0  0  0
 29100  1  0  0  0
 29101  1  0  0  0
 33 34  1  0  0  0
 33 66  1  0  0  0
 33 70  2  0  0  0
 34 36  1  0  0  0
 34 59  1  0  0  0
 34102  1  0  0  0
 35 44  2  0  0  0
 35 45  1  0  0  0
 35 68  1  0  0  0
 36 56  1  0  0  0
 36103  1  0  0  0
 37 39  1  0  0  0
 37 47  1  0  0  0
 37 66  1  0  0  0
 37104  1  0  0  0
 38 43  2  0  0  0
 38 46  1  0  0  0
 38 47  1  0  0  0
 39 64  1  0  0  0
 39 67  2  0  0  0
 40 52  1  0  0  0
 40 53  2  0  0  0
 40 58  1  0  0  0
 41105  1  0  0  0
 41106  1  0  0  0
 41107  1  0  0  0
 41 48  1  0  0  0
 42 43  1  0  0  0
 42 66  1  0  0  0
 42108  1  0  0  0
 42109  1  0  0  0
 43 44  1  0  0  0
 44110  1  0  0  0
 45 46  2  0  0  0
 45111  1  0  0  0
 46112  1  0  0  0
 47113  1  0  0  0
 47114  1  0  0  0
 48 56  1  0  0  0
 48 65  1  0  0  0
 48115  1  0  0  0
 49 50  1  0  0  0
 49 53  1  0  0  0
 49 64  1  0  0  0
 49116  1  0  0  0
 50 51  1  0  0  0
 50117  1  0  0  0
 50118  1  0  0  0
 51 52  1  0  0  0
 51119  1  0  0  0
 51120  1  0  0  0
 52121  1  0  0  0
 52122  1  0  0  0
 53 54  1  0  0  0
 54 55  2  0  0  0
 54123  1  0  0  0
 55 57  1  0  0  0
 55124  1  0  0  0
 56 69  2  0  0  0
 57 58  2  0  0  0
 57125  1  0  0  0
 58126  1  0  0  0
 59 60  1  0  0  0
 59 61  1  0  0  0
 59 62  1  0  0  0
 60127  1  0  0  0
 60128  1  0  0  0
 60129  1  0  0  0
 61130  1  0  0  0
 61131  1  0  0  0
 61132  1  0  0  0
 62133  1  0  0  0
 62134  1  0  0  0
 62135  1  0  0  0
 63 65  1  0  0  0
 63136  1  0  0  0
 63137  1  0  0  0
 63138  1  0  0  0
 64139  1  0  0  0
 65140  1  0  0  0
 68 77  1  0  0  0
 71 73  1  0  0  0
 71 74  2  0  0  0
 71141  1  0  0  0
 72 73  2  0  0  0
 72 81  1  0  0  0
 72142  1  0  0  0
 73 76  1  0  0  0
 74 79  1  0  0  0
 74 81  1  0  0  0
 75 77  1  0  0  0
 75 78  2  0  0  0
 75143  1  0  0  0
 76 78  1  0  0  0
 76 80  2  0  0  0
 77144  1  0  0  0
 77145  1  0  0  0
 79146  1  0  0  0
M  ISO  4   1 100  68 101  77 101  79 100
M  END
> <chiral flag>
0

> <version>
0

> <s_m_source_file>
/data/baiqing/PycharmProjects/Reinvent-master-3.2/result/LINK_invent/BTK/process_docking_weight1_custom_product_contain_oxygen_bond_distance_aromatic_linkinvent_7_9_3/rearranged_h_0079.sdf

> <i_m_source_file_index>
78

> <r_mmod_Potential_Energy-OPLS-2005>
159.506149291992

> <r_mmod_Stretch_Energy-OPLS-2005>
149.754592895508

> <r_mmod_Bend_Energy-OPLS-2005>
180.212951660156

> <r_mmod_Torsional_Energy-OPLS-2005>
217.297958374023

> <r_mmod_Improper_Torsional_Energy-OPLS-2005>
4.16798257827759

> <r_mmod_Van_der_Waal_Energy-OPLS-2005>
127.027282714844

> <r_mmod_Electrostatic_Energy-OPLS-2005>
-410.551635742188

> <r_mmod_Solvation_Energy-OPLS-2005>
-221.127700805664

> <b_mmod_Minimization_Converged-OPLS-2005>
0

> <r_mmod_RMS_Derivative-OPLS-2005>
0.506781756877899

$$$$
78
                    3D
 Structure written by MMmdl.
157166  0  0  1  0            999 V2000
  -30.5773  -14.7871   20.4884 C   0  0  0  0  0  0
  -30.4453  -12.4902   19.4726 C   0  0  0  0  0  0
  -29.5221  -12.5047   18.2320 C   0  0  0  0  0  0
  -28.0473  -12.3036   18.6463 C   0  0  0  0  0  0
  -27.6338  -13.2209   19.8321 C   0  0  2  0  0  0
  -28.6779  -13.1839   20.9670 C   0  0  0  0  0  0
  -25.2550  -13.8190   20.5712 C   0  0  0  0  0  0
  -24.1833  -13.0425   20.9196 C   0  0  0  0  0  0
  -24.6382  -11.6886   20.8699 C   0  0  0  0  0  0
  -23.9051  -10.4265   21.0359 C   0  0  0  0  0  0
  -24.3633   -9.4181   21.9131 C   0  0  0  0  0  0
  -23.6289   -8.2249   22.0748 C   0  0  0  0  0  0
  -22.4270   -8.0291   21.3568 C   0  0  0  0  0  0
  -21.9897   -9.0240   20.4647 C   0  0  0  0  0  0
  -22.7212  -10.2111   20.3005 C   0  0  0  0  0  0
  -21.6863   -6.0699   22.5270 C   0  0  0  0  0  0
  -21.4003   -6.5620   23.8189 C   0  0  0  0  0  0
  -21.3653   -5.6789   24.9164 C   0  0  0  0  0  0
  -21.6055   -4.3039   24.7216 C   0  0  0  0  0  0
  -21.8808   -3.8117   23.4343 C   0  0  0  0  0  0
  -21.9204   -4.6939   22.3402 C   0  0  0  0  0  0
  -22.7869  -13.5143   21.1942 C   0  0  0  0  0  0
  -22.1671   -4.2111   21.0973 F   0  0  0  0  0  0
  -21.5642   -3.4547   25.7735 F   0  0  0  0  0  0
  -29.9694  -13.5554   20.3789 N   0  0  0  0  0  0
  -26.2903  -12.9328   20.3159 N   0  0  0  0  0  0
  -25.9261  -11.6470   20.5601 N   0  0  0  0  0  0
  -22.0587  -12.8031   22.0495 N   0  0  0  0  0  0
  -25.4367  -15.1917   20.4140 N   0  0  0  0  0  0
  -31.7906  -14.8890   20.2704 O   0  0  0  0  0  0
  -21.6669   -6.8834   21.4239 O   0  0  0  0  0  0
  -22.3490  -14.5448   20.6826 O   0  0  0  0  0  0
  -24.6365  -31.8536   23.1954 C   0  0  0  0  0  0
  -25.9175  -32.4748   23.8287 C   0  0  1  0  0  0
  -27.1963  -27.2271   20.1259 C   0  0  0  0  0  0
  -25.5975  -33.8555   24.2212 N   0  0  0  0  0  0
  -23.4361  -30.4770   21.5425 C   0  0  2  0  0  0
  -24.8771  -28.9275   20.1064 C   0  0  0  0  0  0
  -22.7565  -29.4589   22.4900 C   0  0  0  0  0  0
  -18.0411  -28.1333   22.8453 C   0  0  0  0  0  0
  -24.1490  -36.7293   23.2627 C   0  0  0  0  0  0
  -25.9873  -30.7552   21.3808 C   0  0  0  0  0  0
  -26.0548  -29.3790   20.7157 C   0  0  0  0  0  0
  -27.2196  -28.5422   20.7146 C   0  0  0  0  0  0
  -26.0065  -26.8703   19.4599 C   0  0  0  0  0  0
  -24.8591  -27.6828   19.4642 C   0  0  0  0  0  0
  -23.6505  -29.8155   20.1582 C   0  0  0  0  0  0
  -25.4103  -36.3057   24.0304 C   0  0  1  0  0  0
  -20.5982  -28.3682   23.1294 C   0  0  2  0  0  0
  -20.6877  -26.9406   22.5412 C   0  0  0  0  0  0
  -19.5924  -26.6389   21.5203 C   0  0  0  0  0  0
  -18.2054  -26.7945   22.1435 C   0  0  0  0  0  0
  -19.1650  -28.8854   23.2791 C   0  0  0  0  0  0
  -18.9581  -30.1468   23.8760 C   0  0  0  0  0  0
  -17.6594  -30.6644   24.0366 C   0  0  0  0  0  0
  -25.9056  -34.9449   23.5045 C   0  0  0  0  0  0
  -16.5478  -29.9075   23.6231 C   0  0  0  0  0  0
  -16.7415  -28.6458   23.0285 C   0  0  0  0  0  0
  -26.4525  -31.6587   25.0697 C   0  0  0  0  0  0
  -25.3728  -31.3780   26.1399 C   0  0  0  0  0  0
  -27.0332  -30.2973   24.6228 C   0  0  0  0  0  0
  -27.6043  -32.4319   25.7509 C   0  0  0  0  0  0
  -27.5563  -37.1776   24.8457 C   0  0  0  0  0  0
  -21.4270  -29.3009   22.3671 N   0  0  0  0  0  0
  -26.4281  -37.3746   23.9376 N   0  0  0  0  0  0
  -24.7073  -31.0464   22.0955 N   0  0  0  0  0  0
  -23.4286  -28.8148   23.2996 O   0  0  0  0  0  0
  -28.2304  -26.2504   20.1736 O   0  0  0  0  0  0
  -26.5637  -34.8943   22.4604 O   0  0  0  0  0  0
  -23.5478  -32.1376   23.7203 O   0  0  0  0  0  0
  -30.0500  -19.8570   22.3623 C   0  0  0  0  0  0
  -30.4807  -17.4334   22.3474 C   0  0  0  0  0  0
  -29.4266  -18.5240   20.4393 C   0  0  0  0  0  0
  -30.5176  -18.6883   23.0104 C   0  0  0  0  0  0
  -29.4857  -19.8476   21.0623 C   0  0  0  0  0  0
  -29.9336  -17.2949   21.0536 C   0  0  0  0  0  0
  -28.9557  -22.4608   21.0283 C   0  0  0  0  0  0
  -28.3621  -23.4435   20.2643 C   0  0  0  0  0  0
  -27.9284  -22.6801   19.0979 C   0  0  0  0  0  0
  -27.2392  -23.1817   18.0583 C   0  0  0  0  0  0
  -31.0161  -18.7688   24.4299 C   0  0  0  0  0  0
  -28.3069  -21.1934   19.2286 C   0  0  0  0  0  0
  -27.8375  -24.8951   20.7462 C   0  0  0  0  0  0
  -29.0133  -21.1214   20.5025 N   0  0  0  0  0  0
  -29.7553  -15.9157   20.5205 N   0  0  0  0  0  0
  -31.4633  -17.7560   25.0032 O   0  5  0  0  0  0
  -30.9676  -19.8559   25.0441 O   0  0  0  0  0  0
  -31.4820  -12.6524   19.1685 H   0  0  0  0  0  0
  -30.4255  -11.5217   19.9754 H   0  0  0  0  0  0
  -29.8233  -11.7308   17.5274 H   0  0  0  0  0  0
  -29.6431  -13.4571   17.7074 H   0  0  0  0  0  0
  -27.9289  -11.2581   18.9356 H   0  0  0  0  0  0
  -27.3827  -12.4535   17.7918 H   0  0  0  0  0  0
  -27.6162  -14.2322   19.4328 H   0  0  0  0  0  0
  -28.7319  -12.1936   21.4176 H   0  0  0  0  0  0
  -28.3944  -13.8792   21.7565 H   0  0  0  0  0  0
  -25.2800   -9.5621   22.4681 H   0  0  0  0  0  0
  -23.9996   -7.4621   22.7444 H   0  0  0  0  0  0
  -21.0838   -8.8708   19.8940 H   0  0  0  0  0  0
  -22.3642  -10.9657   19.6111 H   0  0  0  0  0  0
  -21.1965   -7.6125   23.9636 H   0  0  0  0  0  0
  -21.1531   -6.0558   25.9053 H   0  0  0  0  0  0
  -22.0589   -2.7587   23.2872 H   0  0  0  0  0  0
  -22.4276  -11.9611   22.4705 H   0  0  0  0  0  0
  -21.1278  -13.1017   22.2839 H   0  0  0  0  0  0
  -24.6922  -15.8686   20.5432 H   0  0  0  0  0  0
  -26.2973  -15.6244   20.1101 H   0  0  0  0  0  0
  -26.7239  -32.5360   23.0999 H   0  0  0  0  0  0
  -25.0147  -33.9749   25.0375 H   0  0  0  0  0  0
  -22.7336  -31.3002   21.3913 H   0  0  0  0  0  0
  -23.3764  -35.9628   23.3295 H   0  0  0  0  0  0
  -24.3596  -36.8894   22.2048 H   0  0  0  0  0  0
  -23.7282  -37.6492   23.6663 H   0  0  0  0  0  0
  -26.1316  -31.5160   20.6144 H   0  0  0  0  0  0
  -26.8655  -30.7979   22.0123 H   0  0  0  0  0  0
  -28.1144  -28.8902   21.2121 H   0  0  0  0  0  0
  -25.9348  -25.9215   18.9502 H   0  0  0  0  0  0
  -23.9600  -27.3336   18.9743 H   0  0  0  0  0  0
  -23.7812  -30.5951   19.4089 H   0  0  0  0  0  0
  -22.7620  -29.2593   19.8543 H   0  0  0  0  0  0
  -25.1296  -36.1862   25.0801 H   0  0  0  0  0  0
  -21.0114  -28.3250   24.1396 H   0  0  0  0  0  0
  -20.5813  -26.2297   23.3625 H   0  0  0  0  0  0
  -21.6709  -26.7514   22.1126 H   0  0  0  0  0  0
  -19.7132  -25.6262   21.1305 H   0  0  0  0  0  0
  -19.7074  -27.3178   20.6738 H   0  0  0  0  0  0
  -17.4435  -26.6827   21.3731 H   0  0  0  0  0  0
  -18.0349  -25.9962   22.8645 H   0  0  0  0  0  0
  -19.8037  -30.7376   24.2057 H   0  0  0  0  0  0
  -17.5219  -31.6390   24.4854 H   0  0  0  0  0  0
  -15.5486  -30.2983   23.7497 H   0  0  0  0  0  0
  -15.8882  -28.0666   22.7066 H   0  0  0  0  0  0
  -24.5927  -30.7098   25.7756 H   0  0  0  0  0  0
  -24.8949  -32.2977   26.4750 H   0  0  0  0  0  0
  -25.8038  -30.9018   27.0206 H   0  0  0  0  0  0
  -26.2913  -29.6720   24.1245 H   0  0  0  0  0  0
  -27.3952  -29.7227   25.4766 H   0  0  0  0  0  0
  -27.8838  -30.4209   23.9522 H   0  0  0  0  0  0
  -27.2627  -33.3598   26.2082 H   0  0  0  0  0  0
  -28.3892  -32.6849   25.0389 H   0  0  0  0  0  0
  -28.0689  -31.8451   26.5424 H   0  0  0  0  0  0
  -28.2561  -38.0088   24.7439 H   0  0  0  0  0  0
  -28.1067  -36.2584   24.6326 H   0  0  0  0  0  0
  -27.2291  -37.1478   25.8876 H   0  0  0  0  0  0
  -20.9395  -29.8794   21.6998 H   0  0  0  0  0  0
  -26.0149  -38.2811   24.1344 H   0  0  0  0  0  0
  -30.1065  -20.7914   22.9026 H   0  0  0  0  0  0
  -30.8229  -16.5577   22.8859 H   0  0  0  0  0  0
  -28.9618  -18.4479   19.4682 H   0  0  0  0  0  0
  -29.2653  -22.5954   22.0551 H   0  0  0  0  0  0
  -26.9664  -24.2222   17.9904 H   0  0  0  0  0  0
  -26.9185  -22.5319   17.2538 H   0  0  0  0  0  0
  -28.9316  -20.8587   18.4000 H   0  0  0  0  0  0
  -27.4121  -20.5696   19.2523 H   0  0  0  0  0  0
  -28.0797  -24.9546   21.8063 H   0  0  0  0  0  0
  -26.7538  -24.7942   20.7352 H   0  0  0  0  0  0
  -28.7950  -15.7075   20.2830 H   0  0  0  0  0  0
  1 25  1  0  0  0
  1 30  2  0  0  0
  1 85  1  0  0  0
  2  3  1  0  0  0
  2 25  1  0  0  0
  2 88  1  0  0  0
  2 89  1  0  0  0
  3  4  1  0  0  0
  3 90  1  0  0  0
  3 91  1  0  0  0
  4  5  1  0  0  0
  4 92  1  0  0  0
  4 93  1  0  0  0
  5  6  1  0  0  0
  5 26  1  0  0  0
  5 94  1  0  0  0
  6 25  1  0  0  0
  6 95  1  0  0  0
  6 96  1  0  0  0
  7  8  2  0  0  0
  7 26  1  0  0  0
  7 29  1  0  0  0
  8  9  1  0  0  0
  8 22  1  0  0  0
  9 10  1  0  0  0
  9 27  2  0  0  0
 10 11  2  0  0  0
 10 15  1  0  0  0
 11 12  1  0  0  0
 11 97  1  0  0  0
 12 13  2  0  0  0
 12 98  1  0  0  0
 13 14  1  0  0  0
 13 31  1  0  0  0
 14 15  2  0  0  0
 14 99  1  0  0  0
 15100  1  0  0  0
 16 17  2  0  0  0
 16 21  1  0  0  0
 16 31  1  0  0  0
 17 18  1  0  0  0
 17101  1  0  0  0
 18 19  2  0  0  0
 18102  1  0  0  0
 19 20  1  0  0  0
 19 24  1  0  0  0
 20 21  2  0  0  0
 20103  1  0  0  0
 21 23  1  0  0  0
 22 28  1  0  0  0
 22 32  2  0  0  0
 26 27  1  0  0  0
 28104  1  0  0  0
 28105  1  0  0  0
 29106  1  0  0  0
 29107  1  0  0  0
 33 34  1  0  0  0
 33 66  1  0  0  0
 33 70  2  0  0  0
 34 36  1  0  0  0
 34 59  1  0  0  0
 34108  1  0  0  0
 35 44  2  0  0  0
 35 45  1  0  0  0
 35 68  1  0  0  0
 36 56  1  0  0  0
 36109  1  0  0  0
 37 39  1  0  0  0
 37 47  1  0  0  0
 37 66  1  0  0  0
 37110  1  0  0  0
 38 43  2  0  0  0
 38 46  1  0  0  0
 38 47  1  0  0  0
 39 64  1  0  0  0
 39 67  2  0  0  0
 40 52  1  0  0  0
 40 53  2  0  0  0
 40 58  1  0  0  0
 41111  1  0  0  0
 41112  1  0  0  0
 41113  1  0  0  0
 41 48  1  0  0  0
 42 43  1  0  0  0
 42 66  1  0  0  0
 42114  1  0  0  0
 42115  1  0  0  0
 43 44  1  0  0  0
 44116  1  0  0  0
 45 46  2  0  0  0
 45117  1  0  0  0
 46118  1  0  0  0
 47119  1  0  0  0
 47120  1  0  0  0
 48 56  1  0  0  0
 48 65  1  0  0  0
 48121  1  0  0  0
 49 50  1  0  0  0
 49 53  1  0  0  0
 49 64  1  0  0  0
 49122  1  0  0  0
 50 51  1  0  0  0
 50123  1  0  0  0
 50124  1  0  0  0
 51 52  1  0  0  0
 51125  1  0  0  0
 51126  1  0  0  0
 52127  1  0  0  0
 52128  1  0  0  0
 53 54  1  0  0  0
 54 55  2  0  0  0
 54129  1  0  0  0
 55 57  1  0  0  0
 55130  1  0  0  0
 56 69  2  0  0  0
 57 58  2  0  0  0
 57131  1  0  0  0
 58132  1  0  0  0
 59 60  1  0  0  0
 59 61  1  0  0  0
 59 62  1  0  0  0
 60133  1  0  0  0
 60134  1  0  0  0
 60135  1  0  0  0
 61136  1  0  0  0
 61137  1  0  0  0
 61138  1  0  0  0
 62139  1  0  0  0
 62140  1  0  0  0
 62141  1  0  0  0
 63 65  1  0  0  0
 63142  1  0  0  0
 63143  1  0  0  0
 63144  1  0  0  0
 64145  1  0  0  0
 65146  1  0  0  0
 68 83  1  0  0  0
 71 74  2  0  0  0
 71 75  1  0  0  0
 71147  1  0  0  0
 72 74  1  0  0  0
 72 76  2  0  0  0
 72148  1  0  0  0
 73 75  2  0  0  0
 73 76  1  0  0  0
 73149  1  0  0  0
 74 81  1  0  0  0
 75 84  1  0  0  0
 76 85  1  0  0  0
 77 78  2  0  0  0
 77 84  1  0  0  0
 77150  1  0  0  0
 78 79  1  0  0  0
 78 83  1  0  0  0
 79 80  2  0  0  0
 79 82  1  0  0  0
 80151  1  0  0  0
 80152  1  0  0  0
 81 86  1  0  0  0
 81 87  2  0  0  0
 82 84  1  0  0  0
 82153  1  0  0  0
 82154  1  0  0  0
 83155  1  0  0  0
 83156  1  0  0  0
 85157  1  0  0  0
M  CHG  1  86  -1
M  ISO  4   1 100  68 101  83 101  85 100
M  END
> <chiral flag>
0

> <version>
0

> <s_m_source_file>
/data/baiqing/PycharmProjects/Reinvent-master-3.2/result/LINK_invent/BTK/process_docking_weight1_custom_product_contain_oxygen_bond_distance_aromatic_linkinvent_7_9_3/rearranged_h_0079.sdf

> <i_m_source_file_index>
79

> <r_mmod_Potential_Energy-OPLS-2005>
-21.3751068115234

> <r_mmod_Stretch_Energy-OPLS-2005>
138.903121948242

> <r_mmod_Bend_Energy-OPLS-2005>
269.076049804688

> <r_mmod_Torsional_Energy-OPLS-2005>
250.28889465332

> <r_mmod_Improper_Torsional_Energy-OPLS-2005>
10.8836612701416

> <r_mmod_Van_der_Waal_Energy-OPLS-2005>
136.71484375

> <r_mmod_Electrostatic_Energy-OPLS-2005>
-409.177490234375

> <r_mmod_Solvation_Energy-OPLS-2005>
-536.714965820312

> <b_mmod_Minimization_Converged-OPLS-2005>
0

> <r_mmod_RMS_Derivative-OPLS-2005>
8.34764099121094

$$$$
79
                    3D
 Structure written by MMmdl.
155164  0  0  1  0            999 V2000
  -30.5632  -14.7779   20.4587 C   0  0  0  0  0  0
  -30.4453  -12.4727   19.4755 C   0  0  0  0  0  0
  -29.5156  -12.5190   18.2401 C   0  0  0  0  0  0
  -28.0419  -12.3335   18.6518 C   0  0  0  0  0  0
  -27.6470  -13.2274   19.8570 C   0  0  2  0  0  0
  -28.6911  -13.1419   20.9928 C   0  0  0  0  0  0
  -25.2536  -13.8179   20.5684 C   0  0  0  0  0  0
  -24.1821  -13.0435   20.9197 C   0  0  0  0  0  0
  -24.6408  -11.6912   20.8743 C   0  0  0  0  0  0
  -23.9077  -10.4295   21.0409 C   0  0  0  0  0  0
  -24.3622   -9.4205   21.9185 C   0  0  0  0  0  0
  -23.6293   -8.2238   22.0758 C   0  0  0  0  0  0
  -22.4275   -8.0281   21.3543 C   0  0  0  0  0  0
  -21.9913   -9.0264   20.4648 C   0  0  0  0  0  0
  -22.7243  -10.2143   20.3058 C   0  0  0  0  0  0
  -21.6852   -6.0737   22.5277 C   0  0  0  0  0  0
  -21.4018   -6.5645   23.8208 C   0  0  0  0  0  0
  -21.3659   -5.6798   24.9174 C   0  0  0  0  0  0
  -21.6041   -4.3063   24.7220 C   0  0  0  0  0  0
  -21.8822   -3.8149   23.4342 C   0  0  0  0  0  0
  -21.9192   -4.6964   22.3400 C   0  0  0  0  0  0
  -22.7844  -13.5221   21.1850 C   0  0  0  0  0  0
  -22.1661   -4.2148   21.0977 F   0  0  0  0  0  0
  -21.5621   -3.4547   25.7729 F   0  0  0  0  0  0
  -29.9925  -13.5207   20.4214 N   0  0  0  0  0  0
  -26.2966  -12.9377   20.3296 N   0  0  0  0  0  0
  -25.9340  -11.6527   20.5765 N   0  0  0  0  0  0
  -22.0492  -12.8224   22.0418 N   0  0  0  0  0  0
  -25.4224  -15.1903   20.4081 N   0  0  0  0  0  0
  -31.7317  -14.9299   20.0894 O   0  0  0  0  0  0
  -21.6636   -6.8876   21.4237 O   0  0  0  0  0  0
  -22.3531  -14.5523   20.6696 O   0  0  0  0  0  0
  -24.6324  -31.8523   23.1961 C   0  0  0  0  0  0
  -25.9143  -32.4734   23.8310 C   0  0  1  0  0  0
  -27.2255  -27.2455   20.1138 C   0  0  0  0  0  0
  -25.5931  -33.8538   24.2232 N   0  0  0  0  0  0
  -23.4311  -30.4731   21.5400 C   0  0  2  0  0  0
  -24.8787  -28.9193   20.1043 C   0  0  0  0  0  0
  -22.7509  -29.4579   22.4905 C   0  0  0  0  0  0
  -18.0297  -28.1388   22.8486 C   0  0  0  0  0  0
  -24.1484  -36.7272   23.2638 C   0  0  0  0  0  0
  -25.9784  -30.7571   21.3800 C   0  0  0  0  0  0
  -26.0508  -29.3798   20.7168 C   0  0  0  0  0  0
  -27.2231  -28.5532   20.7147 C   0  0  0  0  0  0
  -26.0212  -26.8497   19.4900 C   0  0  0  0  0  0
  -24.8703  -27.6629   19.4789 C   0  0  0  0  0  0
  -23.6489  -29.8068   20.1556 C   0  0  0  0  0  0
  -25.4111  -36.3058   24.0322 C   0  0  1  0  0  0
  -20.5899  -28.3701   23.1267 C   0  0  2  0  0  0
  -20.6784  -26.9415   22.5413 C   0  0  0  0  0  0
  -19.5757  -26.6383   21.5219 C   0  0  0  0  0  0
  -18.1938  -26.7928   22.1630 C   0  0  0  0  0  0
  -19.1550  -28.8863   23.2869 C   0  0  0  0  0  0
  -18.9472  -30.1464   23.8885 C   0  0  0  0  0  0
  -17.6471  -30.6588   24.0565 C   0  0  0  0  0  0
  -25.9059  -34.9430   23.5086 C   0  0  0  0  0  0
  -16.5361  -29.9085   23.6330 C   0  0  0  0  0  0
  -16.7283  -28.6502   23.0351 C   0  0  0  0  0  0
  -26.4512  -31.6571   25.0707 C   0  0  0  0  0  0
  -25.3730  -31.3731   26.1422 C   0  0  0  0  0  0
  -27.0374  -30.2985   24.6221 C   0  0  0  0  0  0
  -27.6046  -32.4337   25.7486 C   0  0  0  0  0  0
  -27.5586  -37.1770   24.8451 C   0  0  0  0  0  0
  -21.4216  -29.3030   22.3644 N   0  0  0  0  0  0
  -26.4276  -37.3771   23.9425 N   0  0  0  0  0  0
  -24.7000  -31.0459   22.0951 N   0  0  0  0  0  0
  -23.4193  -28.8129   23.3028 O   0  0  0  0  0  0
  -28.3034  -26.3235   20.2218 O   0  0  0  0  0  0
  -26.5642  -34.8917   22.4662 O   0  0  0  0  0  0
  -23.5469  -32.1361   23.7239 O   0  0  0  0  0  0
  -29.2165  -19.6103   21.5627 C   0  0  0  0  0  0
  -29.4036  -18.1913   21.7054 C   0  0  0  0  0  0
  -29.6614  -19.4421   19.2658 C   0  0  0  0  0  0
  -29.3128  -20.3383   20.3358 C   0  0  0  0  0  0
  -29.7479  -17.3237   20.6273 C   0  0  0  0  0  0
  -29.8676  -18.0146   19.3848 C   0  0  0  0  0  0
  -28.6669  -23.8127   19.7596 C   0  0  0  0  0  0
  -28.7868  -22.9945   20.9742 C   0  0  0  0  0  0
  -28.4412  -25.1525   19.4099 C   0  0  0  0  0  0
  -28.9037  -22.5251   18.9226 C   0  0  0  0  0  0
  -28.4679  -25.5318   17.9361 C   0  0  0  0  0  0
  -29.0808  -21.8179   20.2084 N   0  0  0  0  0  0
  -30.1369  -17.2768   18.2326 N   0  0  0  0  0  0
  -29.7337  -15.8388   20.8039 N   0  0  0  0  0  0
  -28.6414  -23.2736   22.1459 O   0  0  0  0  0  0
  -31.4833  -12.6195   19.1714 H   0  0  0  0  0  0
  -30.4085  -11.4909   19.9504 H   0  0  0  0  0  0
  -29.8019  -11.7483   17.5229 H   0  0  0  0  0  0
  -29.6343  -13.4741   17.7264 H   0  0  0  0  0  0
  -27.9046  -11.2831   18.9101 H   0  0  0  0  0  0
  -27.3829  -12.5259   17.8042 H   0  0  0  0  0  0
  -27.6437  -14.2522   19.4850 H   0  0  0  0  0  0
  -28.7337  -12.1329   21.4051 H   0  0  0  0  0  0
  -28.4153  -13.7945   21.8230 H   0  0  0  0  0  0
  -25.2771   -9.5681   22.4760 H   0  0  0  0  0  0
  -23.9997   -7.4635   22.7495 H   0  0  0  0  0  0
  -21.0832   -8.8796   19.8965 H   0  0  0  0  0  0
  -22.3700  -10.9691   19.6175 H   0  0  0  0  0  0
  -21.2018   -7.6152   23.9715 H   0  0  0  0  0  0
  -21.1475   -6.0527   25.9076 H   0  0  0  0  0  0
  -22.0598   -2.7608   23.2845 H   0  0  0  0  0  0
  -22.4109  -11.9884   22.4799 H   0  0  0  0  0  0
  -21.1119  -13.1268   22.2633 H   0  0  0  0  0  0
  -24.6504  -15.8406   20.5035 H   0  0  0  0  0  0
  -26.2620  -15.6286   20.0514 H   0  0  0  0  0  0
  -26.7203  -32.5373   23.1043 H   0  0  0  0  0  0
  -25.0053  -33.9667   25.0361 H   0  0  0  0  0  0
  -22.7288  -31.2966   21.3934 H   0  0  0  0  0  0
  -23.3752  -35.9595   23.3281 H   0  0  0  0  0  0
  -24.3580  -36.8917   22.2056 H   0  0  0  0  0  0
  -23.7222  -37.6461   23.6676 H   0  0  0  0  0  0
  -26.1230  -31.5196   20.6131 H   0  0  0  0  0  0
  -26.8541  -30.8020   22.0167 H   0  0  0  0  0  0
  -28.1160  -28.8930   21.2211 H   0  0  0  0  0  0
  -25.9391  -25.8733   19.0375 H   0  0  0  0  0  0
  -23.9712  -27.2997   19.0007 H   0  0  0  0  0  0
  -23.7690  -30.5838   19.3996 H   0  0  0  0  0  0
  -22.7675  -29.2389   19.8529 H   0  0  0  0  0  0
  -25.1287  -36.1897   25.0810 H   0  0  0  0  0  0
  -20.9990  -28.3285   24.1387 H   0  0  0  0  0  0
  -20.5691  -26.2307   23.3618 H   0  0  0  0  0  0
  -21.6650  -26.7438   22.1204 H   0  0  0  0  0  0
  -19.6921  -25.6293   21.1248 H   0  0  0  0  0  0
  -19.6696  -27.3195   20.6750 H   0  0  0  0  0  0
  -17.4204  -26.6670   21.4035 H   0  0  0  0  0  0
  -18.0344  -26.0077   22.9035 H   0  0  0  0  0  0
  -19.7946  -30.7292   24.2240 H   0  0  0  0  0  0
  -17.5021  -31.6263   24.5176 H   0  0  0  0  0  0
  -15.5360  -30.2987   23.7662 H   0  0  0  0  0  0
  -15.8681  -28.0828   22.7061 H   0  0  0  0  0  0
  -24.5922  -30.7057   25.7765 H   0  0  0  0  0  0
  -24.8896  -32.2895   26.4812 H   0  0  0  0  0  0
  -25.8041  -30.8947   27.0221 H   0  0  0  0  0  0
  -26.2974  -29.6714   24.1230 H   0  0  0  0  0  0
  -27.4037  -29.7269   25.4760 H   0  0  0  0  0  0
  -27.8859  -30.4261   23.9493 H   0  0  0  0  0  0
  -27.2626  -33.3633   26.2052 H   0  0  0  0  0  0
  -28.3855  -32.6909   25.0317 H   0  0  0  0  0  0
  -28.0716  -31.8476   26.5411 H   0  0  0  0  0  0
  -28.2550  -38.0123   24.7579 H   0  0  0  0  0  0
  -28.1139  -36.2655   24.6171 H   0  0  0  0  0  0
  -27.2319  -37.1286   25.8856 H   0  0  0  0  0  0
  -20.9410  -29.8729   21.6827 H   0  0  0  0  0  0
  -26.0146  -38.2830   24.1488 H   0  0  0  0  0  0
  -28.9579  -20.1634   22.4548 H   0  0  0  0  0  0
  -29.2546  -17.7630   22.6864 H   0  0  0  0  0  0
  -29.7647  -19.8762   18.2828 H   0  0  0  0  0  0
  -29.8037  -22.4847   18.3071 H   0  0  0  0  0  0
  -28.0511  -22.1343   18.3644 H   0  0  0  0  0  0
  -27.5289  -25.2668   17.4496 H   0  0  0  0  0  0
  -29.2719  -25.0058   17.4199 H   0  0  0  0  0  0
  -28.6390  -26.6001   17.7994 H   0  0  0  0  0  0
  -29.9012  -17.6600   17.3233 H   0  0  0  0  0  0
  -30.0833  -16.2669   18.2792 H   0  0  0  0  0  0
  -28.8860  -15.5068   21.2363 H   0  0  0  0  0  0
  1 25  1  0  0  0
  1 30  2  0  0  0
  1 84  1  0  0  0
  2  3  1  0  0  0
  2 25  1  0  0  0
  2 86  1  0  0  0
  2 87  1  0  0  0
  3  4  1  0  0  0
  3 88  1  0  0  0
  3 89  1  0  0  0
  4  5  1  0  0  0
  4 90  1  0  0  0
  4 91  1  0  0  0
  5  6  1  0  0  0
  5 26  1  0  0  0
  5 92  1  0  0  0
  6 25  1  0  0  0
  6 93  1  0  0  0
  6 94  1  0  0  0
  7  8  2  0  0  0
  7 26  1  0  0  0
  7 29  1  0  0  0
  8  9  1  0  0  0
  8 22  1  0  0  0
  9 10  1  0  0  0
  9 27  2  0  0  0
 10 11  2  0  0  0
 10 15  1  0  0  0
 11 12  1  0  0  0
 11 95  1  0  0  0
 12 13  2  0  0  0
 12 96  1  0  0  0
 13 14  1  0  0  0
 13 31  1  0  0  0
 14 15  2  0  0  0
 14 97  1  0  0  0
 15 98  1  0  0  0
 16 17  2  0  0  0
 16 21  1  0  0  0
 16 31  1  0  0  0
 17 18  1  0  0  0
 17 99  1  0  0  0
 18 19  2  0  0  0
 18100  1  0  0  0
 19 20  1  0  0  0
 19 24  1  0  0  0
 20 21  2  0  0  0
 20101  1  0  0  0
 21 23  1  0  0  0
 22 28  1  0  0  0
 22 32  2  0  0  0
 26 27  1  0  0  0
 28102  1  0  0  0
 28103  1  0  0  0
 29104  1  0  0  0
 29105  1  0  0  0
 33 34  1  0  0  0
 33 66  1  0  0  0
 33 70  2  0  0  0
 34 36  1  0  0  0
 34 59  1  0  0  0
 34106  1  0  0  0
 35 44  2  0  0  0
 35 45  1  0  0  0
 35 68  1  0  0  0
 36 56  1  0  0  0
 36107  1  0  0  0
 37 39  1  0  0  0
 37 47  1  0  0  0
 37 66  1  0  0  0
 37108  1  0  0  0
 38 43  2  0  0  0
 38 46  1  0  0  0
 38 47  1  0  0  0
 39 64  1  0  0  0
 39 67  2  0  0  0
 40 52  1  0  0  0
 40 53  2  0  0  0
 40 58  1  0  0  0
 41109  1  0  0  0
 41110  1  0  0  0
 41111  1  0  0  0
 41 48  1  0  0  0
 42 43  1  0  0  0
 42 66  1  0  0  0
 42112  1  0  0  0
 42113  1  0  0  0
 43 44  1  0  0  0
 44114  1  0  0  0
 45 46  2  0  0  0
 45115  1  0  0  0
 46116  1  0  0  0
 47117  1  0  0  0
 47118  1  0  0  0
 48 56  1  0  0  0
 48 65  1  0  0  0
 48119  1  0  0  0
 49 50  1  0  0  0
 49 53  1  0  0  0
 49 64  1  0  0  0
 49120  1  0  0  0
 50 51  1  0  0  0
 50121  1  0  0  0
 50122  1  0  0  0
 51 52  1  0  0  0
 51123  1  0  0  0
 51124  1  0  0  0
 52125  1  0  0  0
 52126  1  0  0  0
 53 54  1  0  0  0
 54 55  2  0  0  0
 54127  1  0  0  0
 55 57  1  0  0  0
 55128  1  0  0  0
 56 69  2  0  0  0
 57 58  2  0  0  0
 57129  1  0  0  0
 58130  1  0  0  0
 59 60  1  0  0  0
 59 61  1  0  0  0
 59 62  1  0  0  0
 60131  1  0  0  0
 60132  1  0  0  0
 60133  1  0  0  0
 61134  1  0  0  0
 61135  1  0  0  0
 61136  1  0  0  0
 62137  1  0  0  0
 62138  1  0  0  0
 62139  1  0  0  0
 63 65  1  0  0  0
 63140  1  0  0  0
 63141  1  0  0  0
 63142  1  0  0  0
 64143  1  0  0  0
 65144  1  0  0  0
 68 79  1  0  0  0
 71 72  2  0  0  0
 71 74  1  0  0  0
 71145  1  0  0  0
 72 75  1  0  0  0
 72146  1  0  0  0
 73 74  2  0  0  0
 73 76  1  0  0  0
 73147  1  0  0  0
 74 82  1  0  0  0
 75 76  2  0  0  0
 75 84  1  0  0  0
 76 83  1  0  0  0
 77 78  1  0  0  0
 77 79  2  0  0  0
 77 80  1  0  0  0
 78 82  1  0  0  0
 78 85  2  0  0  0
 79 81  1  0  0  0
 80 82  1  0  0  0
 80148  1  0  0  0
 80149  1  0  0  0
 81150  1  0  0  0
 81151  1  0  0  0
 81152  1  0  0  0
 83153  1  0  0  0
 83154  1  0  0  0
 84155  1  0  0  0
M  ISO  4   1 100  68 101  79 101  84 100
M  END
> <chiral flag>
0

> <version>
0

> <s_m_source_file>
/data/baiqing/PycharmProjects/Reinvent-master-3.2/result/LINK_invent/BTK/process_docking_weight1_custom_product_contain_oxygen_bond_distance_aromatic_linkinvent_7_9_3/rearranged_h_0079.sdf

> <i_m_source_file_index>
80

> <r_mmod_Potential_Energy-OPLS-2005>
207.535140991211

> <r_mmod_Stretch_Energy-OPLS-2005>
121.033325195312

> <r_mmod_Bend_Energy-OPLS-2005>
258.672729492188

> <r_mmod_Torsional_Energy-OPLS-2005>
247.110275268555

> <r_mmod_Improper_Torsional_Energy-OPLS-2005>
7.59116697311401

> <r_mmod_Van_der_Waal_Energy-OPLS-2005>
132.662704467773

> <r_mmod_Electrostatic_Energy-OPLS-2005>
-423.085479736328

> <r_mmod_Solvation_Energy-OPLS-2005>
-237.494537353516

> <b_mmod_Minimization_Converged-OPLS-2005>
0

> <r_mmod_RMS_Derivative-OPLS-2005>
1.67707097530365

$$$$
80
                    3D
 Structure written by MMmdl.
158167  0  0  1  0            999 V2000
  -30.5794  -14.8072   20.4731 C   0  0  0  0  0  0
  -30.4475  -12.5024   19.4862 C   0  0  0  0  0  0
  -29.5184  -12.5480   18.2466 C   0  0  0  0  0  0
  -28.0441  -12.3517   18.6550 C   0  0  0  0  0  0
  -27.6492  -13.2304   19.8704 C   0  0  2  0  0  0
  -28.6942  -13.1127   20.9972 C   0  0  0  0  0  0
  -25.2521  -13.8189   20.5737 C   0  0  0  0  0  0
  -24.1793  -13.0425   20.9179 C   0  0  0  0  0  0
  -24.6394  -11.6907   20.8739 C   0  0  0  0  0  0
  -23.9075  -10.4277   21.0420 C   0  0  0  0  0  0
  -24.3631   -9.4189   21.9185 C   0  0  0  0  0  0
  -23.6290   -8.2238   22.0770 C   0  0  0  0  0  0
  -22.4261   -8.0287   21.3572 C   0  0  0  0  0  0
  -21.9901   -9.0250   20.4666 C   0  0  0  0  0  0
  -22.7252  -10.2113   20.3074 C   0  0  0  0  0  0
  -21.6843   -6.0744   22.5287 C   0  0  0  0  0  0
  -21.4010   -6.5646   23.8220 C   0  0  0  0  0  0
  -21.3649   -5.6803   24.9180 C   0  0  0  0  0  0
  -21.6030   -4.3072   24.7227 C   0  0  0  0  0  0
  -21.8813   -3.8162   23.4350 C   0  0  0  0  0  0
  -21.9190   -4.6976   22.3407 C   0  0  0  0  0  0
  -22.7817  -13.5196   21.1858 C   0  0  0  0  0  0
  -22.1681   -4.2172   21.0982 F   0  0  0  0  0  0
  -21.5615   -3.4560   25.7731 F   0  0  0  0  0  0
  -29.9891  -13.5458   20.4436 N   0  0  0  0  0  0
  -26.2968  -12.9390   20.3382 N   0  0  0  0  0  0
  -25.9334  -11.6522   20.5772 N   0  0  0  0  0  0
  -22.0493  -12.8163   22.0422 N   0  0  0  0  0  0
  -25.4229  -15.1919   20.4233 N   0  0  0  0  0  0
  -31.7399  -14.9222   20.0603 O   0  0  0  0  0  0
  -21.6634   -6.8885   21.4249 O   0  0  0  0  0  0
  -22.3477  -14.5513   20.6752 O   0  0  0  0  0  0
  -24.6317  -31.8544   23.1958 C   0  0  0  0  0  0
  -25.9136  -32.4752   23.8306 C   0  0  1  0  0  0
  -27.2308  -27.2542   20.1334 C   0  0  0  0  0  0
  -25.5942  -33.8552   24.2224 N   0  0  0  0  0  0
  -23.4299  -30.4735   21.5400 C   0  0  2  0  0  0
  -24.8837  -28.9170   20.1107 C   0  0  0  0  0  0
  -22.7499  -29.4584   22.4901 C   0  0  0  0  0  0
  -18.0286  -28.1381   22.8480 C   0  0  0  0  0  0
  -24.1493  -36.7276   23.2630 C   0  0  0  0  0  0
  -25.9769  -30.7642   21.3768 C   0  0  0  0  0  0
  -26.0563  -29.3835   20.7234 C   0  0  0  0  0  0
  -27.2354  -28.5647   20.7262 C   0  0  0  0  0  0
  -26.0384  -26.8551   19.4996 C   0  0  0  0  0  0
  -24.8814  -27.6586   19.4869 C   0  0  0  0  0  0
  -23.6532  -29.8044   20.1566 C   0  0  0  0  0  0
  -25.4123  -36.3058   24.0305 C   0  0  1  0  0  0
  -20.5892  -28.3692   23.1271 C   0  0  2  0  0  0
  -20.6775  -26.9405   22.5422 C   0  0  0  0  0  0
  -19.5760  -26.6373   21.5213 C   0  0  0  0  0  0
  -18.1935  -26.7920   22.1613 C   0  0  0  0  0  0
  -19.1544  -28.8855   23.2864 C   0  0  0  0  0  0
  -18.9466  -30.1451   23.8883 C   0  0  0  0  0  0
  -17.6474  -30.6585   24.0558 C   0  0  0  0  0  0
  -25.9070  -34.9439   23.5068 C   0  0  0  0  0  0
  -16.5366  -29.9082   23.6332 C   0  0  0  0  0  0
  -16.7272  -28.6498   23.0353 C   0  0  0  0  0  0
  -26.4508  -31.6565   25.0682 C   0  0  0  0  0  0
  -25.3734  -31.3738   26.1410 C   0  0  0  0  0  0
  -27.0344  -30.2967   24.6177 C   0  0  0  0  0  0
  -27.6043  -32.4303   25.7488 C   0  0  0  0  0  0
  -27.5579  -37.1791   24.8454 C   0  0  0  0  0  0
  -21.4205  -29.3032   22.3647 N   0  0  0  0  0  0
  -26.4282  -37.3764   23.9413 N   0  0  0  0  0  0
  -24.6987  -31.0490   22.0946 N   0  0  0  0  0  0
  -23.4195  -28.8139   23.3015 O   0  0  0  0  0  0
  -28.2747  -26.2965   20.1591 O   0  0  0  0  0  0
  -26.5645  -34.8912   22.4641 O   0  0  0  0  0  0
  -23.5467  -32.1369   23.7243 O   0  0  0  0  0  0
  -30.6120  -19.0021   18.4089 C   0  0  0  0  0  0
  -30.5245  -17.7344   19.0295 C   0  0  0  0  0  0
  -30.1022  -20.1797   19.0038 C   0  0  0  0  0  0
  -29.4271  -18.8260   20.8832 C   0  0  0  0  0  0
  -29.9311  -17.5752   20.2996 C   0  0  0  0  0  0
  -29.4703  -20.1687   20.2726 C   0  0  0  0  0  0
  -28.4367  -23.9217   21.3410 C   0  0  0  0  0  0
  -28.1574  -23.4626   22.6903 C   0  0  0  0  0  0
  -28.9527  -22.7997   20.4351 C   0  0  0  0  0  0
  -28.6097  -24.1025   23.7853 C   0  0  0  0  0  0
  -28.1775  -25.2944   21.1589 C   0  0  0  0  0  0
  -29.7458  -16.1361   20.9339 C   0  0  0  0  0  0
  -27.3490  -22.2171   22.8093 C   0  0  0  0  0  0
  -28.1018  -21.0929   22.1060 C   0  0  0  0  0  0
  -28.8909  -16.0608   21.8645 N   0  0  0  0  0  0
  -28.8809  -21.4358   20.8872 N   0  0  0  0  0  0
  -29.4325  -23.0842   19.3346 O   0  0  0  0  0  0
  -31.4835  -12.6532   19.1792 H   0  0  0  0  0  0
  -30.4265  -11.5147   19.9542 H   0  0  0  0  0  0
  -29.8080  -11.7884   17.5186 H   0  0  0  0  0  0
  -29.6321  -13.5109   17.7454 H   0  0  0  0  0  0
  -27.9133  -11.2968   18.9056 H   0  0  0  0  0  0
  -27.3842  -12.5526   17.8113 H   0  0  0  0  0  0
  -27.6566  -14.2636   19.5208 H   0  0  0  0  0  0
  -28.7555  -12.0799   21.3457 H   0  0  0  0  0  0
  -28.3962  -13.6747   21.8780 H   0  0  0  0  0  0
  -25.2784   -9.5649   22.4739 H   0  0  0  0  0  0
  -24.0001   -7.4604   22.7463 H   0  0  0  0  0  0
  -21.0853   -8.8772   19.8944 H   0  0  0  0  0  0
  -22.3735  -10.9653   19.6186 H   0  0  0  0  0  0
  -21.2020   -7.6158   23.9722 H   0  0  0  0  0  0
  -21.1480   -6.0547   25.9075 H   0  0  0  0  0  0
  -22.0603   -2.7622   23.2842 H   0  0  0  0  0  0
  -22.4154  -11.9815   22.4763 H   0  0  0  0  0  0
  -21.1123  -13.1183   22.2720 H   0  0  0  0  0  0
  -24.6736  -15.8594   20.5726 H   0  0  0  0  0  0
  -26.3085  -15.6302   20.2046 H   0  0  0  0  0  0
  -26.7205  -32.5416   23.1053 H   0  0  0  0  0  0
  -25.0088  -33.9684   25.0378 H   0  0  0  0  0  0
  -22.7262  -31.2951   21.3917 H   0  0  0  0  0  0
  -23.3759  -35.9604   23.3279 H   0  0  0  0  0  0
  -24.3584  -36.8928   22.2054 H   0  0  0  0  0  0
  -23.7236  -37.6463   23.6685 H   0  0  0  0  0  0
  -26.1108  -31.5240   20.6064 H   0  0  0  0  0  0
  -26.8549  -30.8212   22.0092 H   0  0  0  0  0  0
  -28.1304  -28.9166   21.2194 H   0  0  0  0  0  0
  -25.9970  -25.8792   19.0367 H   0  0  0  0  0  0
  -23.9854  -27.2932   19.0041 H   0  0  0  0  0  0
  -23.7746  -30.5819   19.4020 H   0  0  0  0  0  0
  -22.7729  -29.2357   19.8502 H   0  0  0  0  0  0
  -25.1304  -36.1895   25.0803 H   0  0  0  0  0  0
  -20.9967  -28.3280   24.1396 H   0  0  0  0  0  0
  -20.5658  -26.2311   23.3626 H   0  0  0  0  0  0
  -21.6651  -26.7422   22.1241 H   0  0  0  0  0  0
  -19.6935  -25.6278   21.1256 H   0  0  0  0  0  0
  -19.6707  -27.3168   20.6731 H   0  0  0  0  0  0
  -17.4210  -26.6651   21.4013 H   0  0  0  0  0  0
  -18.0340  -26.0054   22.9007 H   0  0  0  0  0  0
  -19.7947  -30.7252   24.2252 H   0  0  0  0  0  0
  -17.5038  -31.6264   24.5160 H   0  0  0  0  0  0
  -15.5365  -30.2996   23.7650 H   0  0  0  0  0  0
  -15.8672  -28.0815   22.7084 H   0  0  0  0  0  0
  -24.5912  -30.7077   25.7748 H   0  0  0  0  0  0
  -24.8931  -32.2921   26.4776 H   0  0  0  0  0  0
  -25.8054  -30.8961   27.0203 H   0  0  0  0  0  0
  -26.2920  -29.6723   24.1189 H   0  0  0  0  0  0
  -27.4000  -29.7214   25.4685 H   0  0  0  0  0  0
  -27.8811  -30.4203   23.9423 H   0  0  0  0  0  0
  -27.2625  -33.3600   26.2037 H   0  0  0  0  0  0
  -28.3894  -32.6856   25.0366 H   0  0  0  0  0  0
  -28.0661  -31.8445   26.5443 H   0  0  0  0  0  0
  -28.2579  -38.0109   24.7537 H   0  0  0  0  0  0
  -28.1104  -36.2642   24.6245 H   0  0  0  0  0  0
  -27.2311  -37.1399   25.8859 H   0  0  0  0  0  0
  -20.9386  -29.8771   21.6873 H   0  0  0  0  0  0
  -26.0155  -38.2831   24.1449 H   0  0  0  0  0  0
  -31.0666  -19.0733   17.4305 H   0  0  0  0  0  0
  -30.9023  -16.8751   18.4923 H   0  0  0  0  0  0
  -30.2053  -21.0838   18.4262 H   0  0  0  0  0  0
  -28.9708  -18.7175   21.8551 H   0  0  0  0  0  0
  -29.2099  -24.9994   23.7101 H   0  0  0  0  0  0
  -28.3947  -23.7401   24.7802 H   0  0  0  0  0  0
  -27.7807  -25.8031   22.0274 H   0  0  0  0  0  0
  -26.3838  -22.3872   22.3286 H   0  0  0  0  0  0
  -27.1423  -21.9614   23.8482 H   0  0  0  0  0  0
  -27.3745  -20.3151   21.8678 H   0  0  0  0  0  0
  -28.7999  -20.6734   22.8315 H   0  0  0  0  0  0
  -28.4539  -16.9576   22.0312 H   0  0  0  0  0  0
  1 25  1  0  0  0
  1 30  2  0  0  0
  1 82  1  0  0  0
  2  3  1  0  0  0
  2 25  1  0  0  0
  2 88  1  0  0  0
  2 89  1  0  0  0
  3  4  1  0  0  0
  3 90  1  0  0  0
  3 91  1  0  0  0
  4  5  1  0  0  0
  4 92  1  0  0  0
  4 93  1  0  0  0
  5  6  1  0  0  0
  5 26  1  0  0  0
  5 94  1  0  0  0
  6 25  1  0  0  0
  6 95  1  0  0  0
  6 96  1  0  0  0
  7  8  2  0  0  0
  7 26  1  0  0  0
  7 29  1  0  0  0
  8  9  1  0  0  0
  8 22  1  0  0  0
  9 10  1  0  0  0
  9 27  2  0  0  0
 10 11  2  0  0  0
 10 15  1  0  0  0
 11 12  1  0  0  0
 11 97  1  0  0  0
 12 13  2  0  0  0
 12 98  1  0  0  0
 13 14  1  0  0  0
 13 31  1  0  0  0
 14 15  2  0  0  0
 14 99  1  0  0  0
 15100  1  0  0  0
 16 17  2  0  0  0
 16 21  1  0  0  0
 16 31  1  0  0  0
 17 18  1  0  0  0
 17101  1  0  0  0
 18 19  2  0  0  0
 18102  1  0  0  0
 19 20  1  0  0  0
 19 24  1  0  0  0
 20 21  2  0  0  0
 20103  1  0  0  0
 21 23  1  0  0  0
 22 28  1  0  0  0
 22 32  2  0  0  0
 26 27  1  0  0  0
 28104  1  0  0  0
 28105  1  0  0  0
 29106  1  0  0  0
 29107  1  0  0  0
 33 34  1  0  0  0
 33 66  1  0  0  0
 33 70  2  0  0  0
 34 36  1  0  0  0
 34 59  1  0  0  0
 34108  1  0  0  0
 35 44  2  0  0  0
 35 45  1  0  0  0
 35 68  1  0  0  0
 36 56  1  0  0  0
 36109  1  0  0  0
 37 39  1  0  0  0
 37 47  1  0  0  0
 37 66  1  0  0  0
 37110  1  0  0  0
 38 43  2  0  0  0
 38 46  1  0  0  0
 38 47  1  0  0  0
 39 64  1  0  0  0
 39 67  2  0  0  0
 40 52  1  0  0  0
 40 53  2  0  0  0
 40 58  1  0  0  0
 41111  1  0  0  0
 41112  1  0  0  0
 41113  1  0  0  0
 41 48  1  0  0  0
 42 43  1  0  0  0
 42 66  1  0  0  0
 42114  1  0  0  0
 42115  1  0  0  0
 43 44  1  0  0  0
 44116  1  0  0  0
 45 46  2  0  0  0
 45117  1  0  0  0
 46118  1  0  0  0
 47119  1  0  0  0
 47120  1  0  0  0
 48 56  1  0  0  0
 48 65  1  0  0  0
 48121  1  0  0  0
 49 50  1  0  0  0
 49 53  1  0  0  0
 49 64  1  0  0  0
 49122  1  0  0  0
 50 51  1  0  0  0
 50123  1  0  0  0
 50124  1  0  0  0
 51 52  1  0  0  0
 51125  1  0  0  0
 51126  1  0  0  0
 52127  1  0  0  0
 52128  1  0  0  0
 53 54  1  0  0  0
 54 55  2  0  0  0
 54129  1  0  0  0
 55 57  1  0  0  0
 55130  1  0  0  0
 56 69  2  0  0  0
 57 58  2  0  0  0
 57131  1  0  0  0
 58132  1  0  0  0
 59 60  1  0  0  0
 59 61  1  0  0  0
 59 62  1  0  0  0
 60133  1  0  0  0
 60134  1  0  0  0
 60135  1  0  0  0
 61136  1  0  0  0
 61137  1  0  0  0
 61138  1  0  0  0
 62139  1  0  0  0
 62140  1  0  0  0
 62141  1  0  0  0
 63 65  1  0  0  0
 63142  1  0  0  0
 63143  1  0  0  0
 63144  1  0  0  0
 64145  1  0  0  0
 65146  1  0  0  0
 68 81  1  0  0  0
 71 72  2  0  0  0
 71 73  1  0  0  0
 71147  1  0  0  0
 72 75  1  0  0  0
 72148  1  0  0  0
 73 76  2  0  0  0
 73149  1  0  0  0
 74 75  2  0  0  0
 74 76  1  0  0  0
 74150  1  0  0  0
 75 82  1  0  0  0
 76 86  1  0  0  0
 77 78  1  0  0  0
 77 79  1  0  0  0
 77 81  2  0  0  0
 78 80  2  0  0  0
 78 83  1  0  0  0
 79 86  1  0  0  0
 79 87  2  0  0  0
 80151  1  0  0  0
 80152  1  0  0  0
 81153  1  0  0  0
 82 85  2  0  0  0
 83 84  1  0  0  0
 83154  1  0  0  0
 83155  1  0  0  0
 84 86  1  0  0  0
 84156  1  0  0  0
 84157  1  0  0  0
 85158  1  0  0  0
M  ISO  4   1 100  68 101  81 101  82 100
M  END
> <chiral flag>
0

> <version>
0

> <s_m_source_file>
/data/baiqing/PycharmProjects/Reinvent-master-3.2/result/LINK_invent/BTK/process_docking_weight1_custom_product_contain_oxygen_bond_distance_aromatic_linkinvent_7_9_3/rearranged_h_0079.sdf

> <i_m_source_file_index>
81

> <r_mmod_Potential_Energy-OPLS-2005>
627.389526367188

> <r_mmod_Stretch_Energy-OPLS-2005>
191.425430297852

> <r_mmod_Bend_Energy-OPLS-2005>
261.964538574219

> <r_mmod_Torsional_Energy-OPLS-2005>
257.173309326172

> <r_mmod_Improper_Torsional_Energy-OPLS-2005>
2.82059240341187

> <r_mmod_Van_der_Waal_Energy-OPLS-2005>
173.859756469727

> <r_mmod_Electrostatic_Energy-OPLS-2005>
-159.098724365234

> <r_mmod_Solvation_Energy-OPLS-2005>
-203.671646118164

> <b_mmod_Minimization_Converged-OPLS-2005>
0

> <r_mmod_RMS_Derivative-OPLS-2005>
3.08221960067749

$$$$
81
                    3D
 Structure written by MMmdl.
152160  0  0  1  0            999 V2000
  -30.6349  -14.6234   20.5293 C   0  0  0  0  0  0
  -30.4398  -12.3839   19.4510 C   0  0  0  0  0  0
  -29.5109  -12.5062   18.2228 C   0  0  0  0  0  0
  -28.0329  -12.3379   18.6297 C   0  0  0  0  0  0
  -27.6526  -13.2092   19.8546 C   0  0  2  0  0  0
  -28.6963  -13.0692   20.9855 C   0  0  0  0  0  0
  -25.2569  -13.8145   20.5648 C   0  0  0  0  0  0
  -24.1835  -13.0432   20.9189 C   0  0  0  0  0  0
  -24.6387  -11.6899   20.8722 C   0  0  0  0  0  0
  -23.9050  -10.4287   21.0391 C   0  0  0  0  0  0
  -24.3610   -9.4209   21.9170 C   0  0  0  0  0  0
  -23.6290   -8.2244   22.0747 C   0  0  0  0  0  0
  -22.4269   -8.0275   21.3544 C   0  0  0  0  0  0
  -21.9900   -9.0244   20.4647 C   0  0  0  0  0  0
  -22.7224  -10.2126   20.3048 C   0  0  0  0  0  0
  -21.6859   -6.0728   22.5277 C   0  0  0  0  0  0
  -21.4013   -6.5636   23.8208 C   0  0  0  0  0  0
  -21.3662   -5.6788   24.9169 C   0  0  0  0  0  0
  -21.6043   -4.3051   24.7223 C   0  0  0  0  0  0
  -21.8824   -3.8142   23.4346 C   0  0  0  0  0  0
  -21.9197   -4.6955   22.3400 C   0  0  0  0  0  0
  -22.7861  -13.5241   21.1846 C   0  0  0  0  0  0
  -22.1670   -4.2141   21.0980 F   0  0  0  0  0  0
  -21.5630   -3.4536   25.7735 F   0  0  0  0  0  0
  -30.0173  -13.4016   20.4332 N   0  0  0  0  0  0
  -26.2980  -12.9310   20.3248 N   0  0  0  0  0  0
  -25.9307  -11.6477   20.5701 N   0  0  0  0  0  0
  -22.0501  -12.8239   22.0405 N   0  0  0  0  0  0
  -25.4278  -15.1862   20.4033 N   0  0  0  0  0  0
  -31.7881  -14.7681   20.1063 O   0  0  0  0  0  0
  -21.6647   -6.8867   21.4237 O   0  0  0  0  0  0
  -22.3555  -14.5550   20.6692 O   0  0  0  0  0  0
  -24.6250  -31.8621   23.2041 C   0  0  0  0  0  0
  -25.9106  -32.4791   23.8364 C   0  0  1  0  0  0
  -27.2258  -27.3383   20.1089 C   0  0  0  0  0  0
  -25.5927  -33.8591   24.2294 N   0  0  0  0  0  0
  -23.4171  -30.4867   21.5468 C   0  0  2  0  0  0
  -24.8622  -28.9449   20.1122 C   0  0  0  0  0  0
  -22.7471  -29.4639   22.4950 C   0  0  0  0  0  0
  -18.0288  -28.1385   22.8490 C   0  0  0  0  0  0
  -24.1488  -36.7300   23.2641 C   0  0  0  0  0  0
  -25.9575  -30.7983   21.3721 C   0  0  0  0  0  0
  -26.0318  -29.4279   20.7128 C   0  0  0  0  0  0
  -27.2172  -28.6373   20.6999 C   0  0  0  0  0  0
  -26.0296  -26.9015   19.4910 C   0  0  0  0  0  0
  -24.8621  -27.6863   19.4935 C   0  0  0  0  0  0
  -23.6297  -29.8231   20.1621 C   0  0  0  0  0  0
  -25.4114  -36.3096   24.0335 C   0  0  1  0  0  0
  -20.5886  -28.3691   23.1293 C   0  0  2  0  0  0
  -20.6775  -26.9416   22.5418 C   0  0  0  0  0  0
  -19.5752  -26.6385   21.5221 C   0  0  0  0  0  0
  -18.1931  -26.7931   22.1625 C   0  0  0  0  0  0
  -19.1539  -28.8856   23.2886 C   0  0  0  0  0  0
  -18.9462  -30.1458   23.8900 C   0  0  0  0  0  0
  -17.6458  -30.6586   24.0568 C   0  0  0  0  0  0
  -25.9051  -34.9463   23.5118 C   0  0  0  0  0  0
  -16.5352  -29.9086   23.6330 C   0  0  0  0  0  0
  -16.7273  -28.6505   23.0348 C   0  0  0  0  0  0
  -26.4493  -31.6590   25.0726 C   0  0  0  0  0  0
  -25.3729  -31.3725   26.1454 C   0  0  0  0  0  0
  -27.0328  -30.3015   24.6165 C   0  0  0  0  0  0
  -27.6061  -32.4317   25.7486 C   0  0  0  0  0  0
  -27.5587  -37.1803   24.8463 C   0  0  0  0  0  0
  -21.4187  -29.3044   22.3688 N   0  0  0  0  0  0
  -26.4294  -37.3788   23.9414 N   0  0  0  0  0  0
  -24.6855  -31.0648   22.0982 N   0  0  0  0  0  0
  -23.4204  -28.8187   23.3031 O   0  0  0  0  0  0
  -28.3525  -26.5064   20.1462 O   0  0  0  0  0  0
  -26.5616  -34.8925   22.4682 O   0  0  0  0  0  0
  -23.5421  -32.1412   23.7382 O   0  0  0  0  0  0
  -30.4145  -21.8565   20.4467 C   0  0  0  0  0  0
  -29.2630  -22.5984   20.3595 C   0  0  0  0  0  0
  -28.0028  -21.8194   20.3384 C   0  0  0  0  0  0
  -29.3475  -19.7905   20.5455 C   0  0  0  0  0  0
  -29.3637  -24.1295   20.2905 C   0  0  0  0  0  0
  -30.3119  -17.3438   20.7259 C   0  0  0  0  0  0
  -28.1079  -25.0499   20.0776 C   0  0  0  0  0  0
  -29.8406  -15.8905   21.0658 C   0  0  0  0  0  0
  -30.4730  -20.4389   20.5353 N   0  0  0  0  0  0
  -28.1221  -20.4652   20.4433 N   0  0  0  0  0  0
  -31.6212  -17.6000   20.5183 N   0  0  0  0  0  0
  -29.3863  -18.3720   20.7011 N   0  3  0  0  0  0
  -26.8780  -22.3171   20.2383 O   0  0  0  0  0  0
  -30.4583  -24.7014   20.3839 O   0  0  0  0  0  0
  -31.4825  -12.5035   19.1505 H   0  0  0  0  0  0
  -30.3687  -11.3862   19.8872 H   0  0  0  0  0  0
  -29.7790  -11.7623   17.4715 H   0  0  0  0  0  0
  -29.6524  -13.4799   17.7508 H   0  0  0  0  0  0
  -27.8710  -11.2839   18.8594 H   0  0  0  0  0  0
  -27.3812  -12.5683   17.7864 H   0  0  0  0  0  0
  -27.6675  -14.2401   19.5035 H   0  0  0  0  0  0
  -28.7009  -12.0492   21.3732 H   0  0  0  0  0  0
  -28.4379  -13.7058   21.8323 H   0  0  0  0  0  0
  -25.2761   -9.5694   22.4734 H   0  0  0  0  0  0
  -24.0010   -7.4637   22.7462 H   0  0  0  0  0  0
  -21.0831   -8.8752   19.8958 H   0  0  0  0  0  0
  -22.3673  -10.9654   19.6152 H   0  0  0  0  0  0
  -21.2002   -7.6144   23.9712 H   0  0  0  0  0  0
  -21.1482   -6.0516   25.9072 H   0  0  0  0  0  0
  -22.0601   -2.7602   23.2849 H   0  0  0  0  0  0
  -22.4131  -11.9918   22.4810 H   0  0  0  0  0  0
  -21.1106  -13.1243   22.2583 H   0  0  0  0  0  0
  -24.6469  -15.8287   20.4822 H   0  0  0  0  0  0
  -26.2462  -15.6091   19.9873 H   0  0  0  0  0  0
  -26.7181  -32.5464   23.1119 H   0  0  0  0  0  0
  -25.0073  -33.9731   25.0441 H   0  0  0  0  0  0
  -22.7104  -31.3073   21.4061 H   0  0  0  0  0  0
  -23.3755  -35.9627   23.3303 H   0  0  0  0  0  0
  -24.3587  -36.8914   22.2054 H   0  0  0  0  0  0
  -23.7223  -37.6498   23.6658 H   0  0  0  0  0  0
  -26.0882  -31.5629   20.6051 H   0  0  0  0  0  0
  -26.8389  -30.8445   22.0005 H   0  0  0  0  0  0
  -28.1161  -29.0065   21.1742 H   0  0  0  0  0  0
  -25.9641  -25.9428   18.9998 H   0  0  0  0  0  0
  -23.9650  -27.3120   19.0192 H   0  0  0  0  0  0
  -23.7469  -30.6004   19.4062 H   0  0  0  0  0  0
  -22.7497  -29.2512   19.8612 H   0  0  0  0  0  0
  -25.1289  -36.1954   25.0826 H   0  0  0  0  0  0
  -20.9978  -28.3263   24.1413 H   0  0  0  0  0  0
  -20.5685  -26.2302   23.3621 H   0  0  0  0  0  0
  -21.6643  -26.7448   22.1203 H   0  0  0  0  0  0
  -19.6916  -25.6298   21.1246 H   0  0  0  0  0  0
  -19.6694  -27.3199   20.6756 H   0  0  0  0  0  0
  -17.4209  -26.6697   21.4017 H   0  0  0  0  0  0
  -18.0317  -26.0065   22.9010 H   0  0  0  0  0  0
  -19.7938  -30.7277   24.2266 H   0  0  0  0  0  0
  -17.5013  -31.6265   24.5175 H   0  0  0  0  0  0
  -15.5353  -30.2989   23.7649 H   0  0  0  0  0  0
  -15.8675  -28.0825   22.7050 H   0  0  0  0  0  0
  -24.5903  -30.7078   25.7779 H   0  0  0  0  0  0
  -24.8923  -32.2891   26.4887 H   0  0  0  0  0  0
  -25.8050  -30.8894   27.0227 H   0  0  0  0  0  0
  -26.2893  -29.6766   24.1204 H   0  0  0  0  0  0
  -27.4046  -29.7267   25.4657 H   0  0  0  0  0  0
  -27.8756  -30.4306   23.9371 H   0  0  0  0  0  0
  -27.2681  -33.3618   26.2071 H   0  0  0  0  0  0
  -28.3863  -32.6878   25.0304 H   0  0  0  0  0  0
  -28.0745  -31.8438   26.5390 H   0  0  0  0  0  0
  -28.2602  -38.0106   24.7523 H   0  0  0  0  0  0
  -28.1087  -36.2638   24.6270 H   0  0  0  0  0  0
  -27.2315  -37.1418   25.8869 H   0  0  0  0  0  0
  -20.9370  -29.8764   21.6889 H   0  0  0  0  0  0
  -26.0183  -38.2869   24.1411 H   0  0  0  0  0  0
  -31.3799  -22.3435   20.4633 H   0  0  0  0  0  0
  -27.3589  -24.7882   20.8255 H   0  0  0  0  0  0
  -27.7031  -24.7955   19.0990 H   0  0  0  0  0  0
  -28.8127  -15.8019   20.7215 H   0  0  0  0  0  0
  -29.7976  -15.8045   22.1512 H   0  0  0  0  0  0
  -27.2627  -19.9386   20.4335 H   0  0  0  0  0  0
  -32.2929  -16.8399   20.4738 H   0  0  0  0  0  0
  -31.9591  -18.5413   20.3583 H   0  0  0  0  0  0
  -28.4512  -18.0194   20.8349 H   0  0  0  0  0  0
  1 25  1  0  0  0
  1 30  2  0  0  0
  1 78  1  0  0  0
  2  3  1  0  0  0
  2 25  1  0  0  0
  2 85  1  0  0  0
  2 86  1  0  0  0
  3  4  1  0  0  0
  3 87  1  0  0  0
  3 88  1  0  0  0
  4  5  1  0  0  0
  4 89  1  0  0  0
  4 90  1  0  0  0
  5  6  1  0  0  0
  5 26  1  0  0  0
  5 91  1  0  0  0
  6 25  1  0  0  0
  6 92  1  0  0  0
  6 93  1  0  0  0
  7  8  2  0  0  0
  7 26  1  0  0  0
  7 29  1  0  0  0
  8  9  1  0  0  0
  8 22  1  0  0  0
  9 10  1  0  0  0
  9 27  2  0  0  0
 10 11  2  0  0  0
 10 15  1  0  0  0
 11 12  1  0  0  0
 11 94  1  0  0  0
 12 13  2  0  0  0
 12 95  1  0  0  0
 13 14  1  0  0  0
 13 31  1  0  0  0
 14 15  2  0  0  0
 14 96  1  0  0  0
 15 97  1  0  0  0
 16 17  2  0  0  0
 16 21  1  0  0  0
 16 31  1  0  0  0
 17 18  1  0  0  0
 17 98  1  0  0  0
 18 19  2  0  0  0
 18 99  1  0  0  0
 19 20  1  0  0  0
 19 24  1  0  0  0
 20 21  2  0  0  0
 20100  1  0  0  0
 21 23  1  0  0  0
 22 28  1  0  0  0
 22 32  2  0  0  0
 26 27  1  0  0  0
 28101  1  0  0  0
 28102  1  0  0  0
 29103  1  0  0  0
 29104  1  0  0  0
 33 34  1  0  0  0
 33 66  1  0  0  0
 33 70  2  0  0  0
 34 36  1  0  0  0
 34 59  1  0  0  0
 34105  1  0  0  0
 35 44  2  0  0  0
 35 45  1  0  0  0
 35 68  1  0  0  0
 36 56  1  0  0  0
 36106  1  0  0  0
 37 39  1  0  0  0
 37 47  1  0  0  0
 37 66  1  0  0  0
 37107  1  0  0  0
 38 43  2  0  0  0
 38 46  1  0  0  0
 38 47  1  0  0  0
 39 64  1  0  0  0
 39 67  2  0  0  0
 40 52  1  0  0  0
 40 53  2  0  0  0
 40 58  1  0  0  0
 41108  1  0  0  0
 41109  1  0  0  0
 41110  1  0  0  0
 41 48  1  0  0  0
 42 43  1  0  0  0
 42 66  1  0  0  0
 42111  1  0  0  0
 42112  1  0  0  0
 43 44  1  0  0  0
 44113  1  0  0  0
 45 46  2  0  0  0
 45114  1  0  0  0
 46115  1  0  0  0
 47116  1  0  0  0
 47117  1  0  0  0
 48 56  1  0  0  0
 48 65  1  0  0  0
 48118  1  0  0  0
 49 50  1  0  0  0
 49 53  1  0  0  0
 49 64  1  0  0  0
 49119  1  0  0  0
 50 51  1  0  0  0
 50120  1  0  0  0
 50121  1  0  0  0
 51 52  1  0  0  0
 51122  1  0  0  0
 51123  1  0  0  0
 52124  1  0  0  0
 52125  1  0  0  0
 53 54  1  0  0  0
 54 55  2  0  0  0
 54126  1  0  0  0
 55 57  1  0  0  0
 55127  1  0  0  0
 56 69  2  0  0  0
 57 58  2  0  0  0
 57128  1  0  0  0
 58129  1  0  0  0
 59 60  1  0  0  0
 59 61  1  0  0  0
 59 62  1  0  0  0
 60130  1  0  0  0
 60131  1  0  0  0
 60132  1  0  0  0
 61133  1  0  0  0
 61134  1  0  0  0
 61135  1  0  0  0
 62136  1  0  0  0
 62137  1  0  0  0
 62138  1  0  0  0
 63 65  1  0  0  0
 63139  1  0  0  0
 63140  1  0  0  0
 63141  1  0  0  0
 64142  1  0  0  0
 65143  1  0  0  0
 68 77  1  0  0  0
 71 72  2  0  0  0
 71 79  1  0  0  0
 71144  1  0  0  0
 72 73  1  0  0  0
 72 75  1  0  0  0
 73 80  1  0  0  0
 73 83  2  0  0  0
 74 79  2  0  0  0
 74 80  1  0  0  0
 74 82  1  0  0  0
 75 77  1  0  0  0
 75 84  2  0  0  0
 76 78  1  0  0  0
 76 81  1  0  0  0
 76 82  2  0  0  0
 77145  1  0  0  0
 77146  1  0  0  0
 78147  1  0  0  0
 78148  1  0  0  0
 80149  1  0  0  0
 81150  1  0  0  0
 81151  1  0  0  0
 82152  1  0  0  0
M  CHG  1  82   1
M  ISO  4   1 100  68 101  77 101  78 100
M  END
> <chiral flag>
0

> <version>
0

> <s_m_source_file>
/data/baiqing/PycharmProjects/Reinvent-master-3.2/result/LINK_invent/BTK/process_docking_weight1_custom_product_contain_oxygen_bond_distance_aromatic_linkinvent_7_9_3/rearranged_h_0079.sdf

> <i_m_source_file_index>
82

> <r_mmod_Potential_Energy-OPLS-2005>
-34.860969543457

> <r_mmod_Stretch_Energy-OPLS-2005>
85.9859085083008

> <r_mmod_Bend_Energy-OPLS-2005>
152.58235168457

> <r_mmod_Torsional_Energy-OPLS-2005>
172.274368286133

> <r_mmod_Improper_Torsional_Energy-OPLS-2005>
3.5662944316864

> <r_mmod_Van_der_Waal_Energy-OPLS-2005>
168.384414672852

> <r_mmod_Electrostatic_Energy-OPLS-2005>
-140.428466796875

> <r_mmod_Solvation_Energy-OPLS-2005>
-518.018371582031

> <b_mmod_Minimization_Converged-OPLS-2005>
0

> <r_mmod_RMS_Derivative-OPLS-2005>
1.09216558933258

$$$$
82
                    3D
 Structure written by MMmdl.
153160  0  0  1  0            999 V2000
  -30.5085  -15.0436   20.3972 C   0  0  0  0  0  0
  -30.4323  -12.6505   19.5144 C   0  0  0  0  0  0
  -29.5245  -12.5493   18.2674 C   0  0  0  0  0  0
  -28.0603  -12.3212   18.6822 C   0  0  0  0  0  0
  -27.6197  -13.2614   19.8347 C   0  0  2  0  0  0
  -28.6550  -13.3382   20.9757 C   0  0  0  0  0  0
  -25.2422  -13.8245   20.5750 C   0  0  0  0  0  0
  -24.1741  -13.0452   20.9231 C   0  0  0  0  0  0
  -24.6373  -11.6948   20.8740 C   0  0  0  0  0  0
  -23.9066  -10.4305   21.0404 C   0  0  0  0  0  0
  -24.3623   -9.4222   21.9174 C   0  0  0  0  0  0
  -23.6293   -8.2252   22.0752 C   0  0  0  0  0  0
  -22.4277   -8.0280   21.3545 C   0  0  0  0  0  0
  -21.9914   -9.0258   20.4650 C   0  0  0  0  0  0
  -22.7240  -10.2137   20.3054 C   0  0  0  0  0  0
  -21.6851   -6.0728   22.5275 C   0  0  0  0  0  0
  -21.4021   -6.5637   23.8213 C   0  0  0  0  0  0
  -21.3662   -5.6792   24.9177 C   0  0  0  0  0  0
  -21.6041   -4.3054   24.7221 C   0  0  0  0  0  0
  -21.8819   -3.8145   23.4346 C   0  0  0  0  0  0
  -21.9199   -4.6960   22.3401 C   0  0  0  0  0  0
  -22.7770  -13.5224   21.1883 C   0  0  0  0  0  0
  -22.1664   -4.2154   21.0978 F   0  0  0  0  0  0
  -21.5626   -3.4531   25.7728 F   0  0  0  0  0  0
  -29.9199  -13.7714   20.3691 N   0  0  0  0  0  0
  -26.2830  -12.9499   20.3241 N   0  0  0  0  0  0
  -25.9301  -11.6619   20.5705 N   0  0  0  0  0  0
  -22.0414  -12.8221   22.0450 N   0  0  0  0  0  0
  -25.4090  -15.1972   20.4210 N   0  0  0  0  0  0
  -31.7168  -15.0662   20.1344 O   0  0  0  0  0  0
  -21.6651   -6.8873   21.4234 O   0  0  0  0  0  0
  -22.3453  -14.5498   20.6703 O   0  0  0  0  0  0
  -24.6486  -31.8384   23.1848 C   0  0  0  0  0  0
  -25.9233  -32.4665   23.8249 C   0  0  1  0  0  0
  -27.2100  -27.0712   20.1655 C   0  0  0  0  0  0
  -25.5948  -33.8470   24.2144 N   0  0  0  0  0  0
  -23.4557  -30.4564   21.5304 C   0  0  2  0  0  0
  -24.9040  -28.8693   20.1116 C   0  0  0  0  0  0
  -22.7577  -29.4523   22.4829 C   0  0  0  0  0  0
  -18.0308  -28.1415   22.8487 C   0  0  0  0  0  0
  -24.1484  -36.7246   23.2645 C   0  0  0  0  0  0
  -26.0153  -30.6870   21.3972 C   0  0  0  0  0  0
  -26.0817  -29.2906   20.7430 C   0  0  0  0  0  0
  -27.2332  -28.4066   20.7569 C   0  0  0  0  0  0
  -26.0115  -26.7697   19.4836 C   0  0  0  0  0  0
  -24.8844  -27.6224   19.4689 C   0  0  0  0  0  0
  -23.6863  -29.7827   20.1506 C   0  0  0  0  0  0
  -25.4127  -36.3012   24.0302 C   0  0  1  0  0  0
  -20.5927  -28.3752   23.1218 C   0  0  2  0  0  0
  -20.6794  -26.9443   22.5398 C   0  0  0  0  0  0
  -19.5759  -26.6390   21.5215 C   0  0  0  0  0  0
  -18.1948  -26.7956   22.1633 C   0  0  0  0  0  0
  -19.1564  -28.8896   23.2858 C   0  0  0  0  0  0
  -18.9478  -30.1500   23.8875 C   0  0  0  0  0  0
  -17.6476  -30.6612   24.0553 C   0  0  0  0  0  0
  -25.9084  -34.9388   23.5039 C   0  0  0  0  0  0
  -16.5373  -29.9092   23.6340 C   0  0  0  0  0  0
  -16.7294  -28.6511   23.0367 C   0  0  0  0  0  0
  -26.4532  -31.6579   25.0729 C   0  0  0  0  0  0
  -25.3685  -31.3802   26.1405 C   0  0  0  0  0  0
  -27.0413  -30.2958   24.6404 C   0  0  0  0  0  0
  -27.6020  -32.4383   25.7532 C   0  0  0  0  0  0
  -27.5573  -37.1777   24.8460 C   0  0  0  0  0  0
  -21.4264  -29.3063   22.3567 N   0  0  0  0  0  0
  -26.4278  -37.3733   23.9411 N   0  0  0  0  0  0
  -24.7271  -31.0185   22.0913 N   0  0  0  0  0  0
  -23.4185  -28.8075   23.3010 O   0  0  0  0  0  0
  -28.2489  -26.0515   20.2029 O   0  0  0  0  0  0
  -26.5677  -34.8899   22.4625 O   0  0  0  0  0  0
  -23.5584  -32.1286   23.7005 O   0  0  0  0  0  0
  -28.6818  -23.4815   20.3016 C   0  0  0  0  0  0
  -28.9892  -19.1008   20.4480 C   0  0  0  0  0  0
  -30.1716  -23.7417   20.3386 C   0  0  0  0  0  0
  -31.3041  -18.1961   21.1011 C   0  0  0  0  0  0
  -30.4682  -17.9151   18.7466 C   0  0  0  0  0  0
  -28.2991  -21.8146   20.3481 C   0  0  0  0  0  0
  -30.0812  -17.8303   20.2382 C   0  0  0  0  0  0
  -27.8250  -24.5479   20.2536 N   0  0  0  0  0  0
  -29.2463  -20.5125   20.3011 N   0  0  0  0  0  0
  -29.7507  -16.2710   20.5037 N   0  0  0  0  0  0
  -27.8426  -18.7606   20.7379 O   0  0  0  0  0  0
  -31.4647  -12.8170   19.2029 H   0  0  0  0  0  0
  -30.4401  -11.7092   20.0675 H   0  0  0  0  0  0
  -29.8635  -11.7447   17.6119 H   0  0  0  0  0  0
  -29.6014  -13.4711   17.6898 H   0  0  0  0  0  0
  -27.9692  -11.2807   18.9985 H   0  0  0  0  0  0
  -27.4040  -12.4386   17.8191 H   0  0  0  0  0  0
  -27.5691  -14.2544   19.3884 H   0  0  0  0  0  0
  -28.7611  -12.3803   21.4855 H   0  0  0  0  0  0
  -28.3333  -14.0580   21.7303 H   0  0  0  0  0  0
  -25.2762   -9.5710   22.4776 H   0  0  0  0  0  0
  -24.0003   -7.4644   22.7483 H   0  0  0  0  0  0
  -21.0839   -8.8771   19.8956 H   0  0  0  0  0  0
  -22.3684  -10.9673   19.6183 H   0  0  0  0  0  0
  -21.2015   -7.6148   23.9717 H   0  0  0  0  0  0
  -21.1490   -6.0524   25.9078 H   0  0  0  0  0  0
  -22.0597   -2.7610   23.2849 H   0  0  0  0  0  0
  -22.4015  -11.9891   22.4867 H   0  0  0  0  0  0
  -21.1036  -13.1272   22.2627 H   0  0  0  0  0  0
  -24.6422  -15.8516   20.5331 H   0  0  0  0  0  0
  -26.2577  -15.6409   20.0937 H   0  0  0  0  0  0
  -26.7293  -32.5237   23.0963 H   0  0  0  0  0  0
  -25.0043  -33.9581   25.0254 H   0  0  0  0  0  0
  -22.7650  -31.2861   21.3706 H   0  0  0  0  0  0
  -23.3755  -35.9563   23.3284 H   0  0  0  0  0  0
  -24.3569  -36.8915   22.2063 H   0  0  0  0  0  0
  -23.7230  -37.6424   23.6714 H   0  0  0  0  0  0
  -26.1872  -31.4354   20.6221 H   0  0  0  0  0  0
  -26.8765  -30.7336   22.0500 H   0  0  0  0  0  0
  -28.1312  -28.7226   21.2685 H   0  0  0  0  0  0
  -25.9212  -25.8186   18.9808 H   0  0  0  0  0  0
  -23.9871  -27.2976   18.9604 H   0  0  0  0  0  0
  -23.8345  -30.5547   19.3957 H   0  0  0  0  0  0
  -22.7972  -29.2344   19.8332 H   0  0  0  0  0  0
  -25.1320  -36.1820   25.0787 H   0  0  0  0  0  0
  -21.0040  -28.3354   24.1332 H   0  0  0  0  0  0
  -20.5709  -26.2365   23.3638 H   0  0  0  0  0  0
  -21.6665  -26.7451   22.1189 H   0  0  0  0  0  0
  -19.6933  -25.6284   21.1281 H   0  0  0  0  0  0
  -19.6705  -27.3165   20.6718 H   0  0  0  0  0  0
  -17.4221  -26.6704   21.4033 H   0  0  0  0  0  0
  -18.0353  -26.0092   22.9025 H   0  0  0  0  0  0
  -19.7953  -30.7324   24.2233 H   0  0  0  0  0  0
  -17.5023  -31.6285   24.5167 H   0  0  0  0  0  0
  -15.5375  -30.2989   23.7675 H   0  0  0  0  0  0
  -15.8701  -28.0819   22.7108 H   0  0  0  0  0  0
  -24.5852  -30.7188   25.7716 H   0  0  0  0  0  0
  -24.8907  -32.2992   26.4782 H   0  0  0  0  0  0
  -25.7927  -30.8987   27.0228 H   0  0  0  0  0  0
  -26.3055  -29.6666   24.1392 H   0  0  0  0  0  0
  -27.3947  -29.7297   25.5042 H   0  0  0  0  0  0
  -27.9000  -30.4159   23.9797 H   0  0  0  0  0  0
  -27.2572  -33.3696   26.2037 H   0  0  0  0  0  0
  -28.3866  -32.6945   25.0400 H   0  0  0  0  0  0
  -28.0663  -31.8587   26.5521 H   0  0  0  0  0  0
  -28.2568  -38.0092   24.7518 H   0  0  0  0  0  0
  -28.1093  -36.2625   24.6272 H   0  0  0  0  0  0
  -27.2298  -37.1397   25.8862 H   0  0  0  0  0  0
  -20.9490  -29.8759   21.6727 H   0  0  0  0  0  0
  -26.0145  -38.2792   24.1429 H   0  0  0  0  0  0
  -30.7361  -22.8107   20.3393 H   0  0  0  0  0  0
  -30.4315  -24.2950   21.2411 H   0  0  0  0  0  0
  -30.4763  -24.3271   19.4714 H   0  0  0  0  0  0
  -31.6115  -19.2316   20.9546 H   0  0  0  0  0  0
  -32.1687  -17.5815   20.8549 H   0  0  0  0  0  0
  -31.0875  -18.0662   22.1616 H   0  0  0  0  0  0
  -30.7191  -18.9326   18.4409 H   0  0  0  0  0  0
  -29.6439  -17.5823   18.1164 H   0  0  0  0  0  0
  -31.3294  -17.2902   18.5165 H   0  0  0  0  0  0
  -27.6042  -21.6637   19.5228 H   0  0  0  0  0  0
  -27.6779  -21.6853   21.2342 H   0  0  0  0  0  0
  -30.2057  -20.7238   20.0655 H   0  0  0  0  0  0
  -28.7759  -16.1237   20.7205 H   0  0  0  0  0  0
  1 25  1  0  0  0
  1 30  2  0  0  0
  1 80  1  0  0  0
  2  3  1  0  0  0
  2 25  1  0  0  0
  2 82  1  0  0  0
  2 83  1  0  0  0
  3  4  1  0  0  0
  3 84  1  0  0  0
  3 85  1  0  0  0
  4  5  1  0  0  0
  4 86  1  0  0  0
  4 87  1  0  0  0
  5  6  1  0  0  0
  5 26  1  0  0  0
  5 88  1  0  0  0
  6 25  1  0  0  0
  6 89  1  0  0  0
  6 90  1  0  0  0
  7  8  2  0  0  0
  7 26  1  0  0  0
  7 29  1  0  0  0
  8  9  1  0  0  0
  8 22  1  0  0  0
  9 10  1  0  0  0
  9 27  2  0  0  0
 10 11  2  0  0  0
 10 15  1  0  0  0
 11 12  1  0  0  0
 11 91  1  0  0  0
 12 13  2  0  0  0
 12 92  1  0  0  0
 13 14  1  0  0  0
 13 31  1  0  0  0
 14 15  2  0  0  0
 14 93  1  0  0  0
 15 94  1  0  0  0
 16 17  2  0  0  0
 16 21  1  0  0  0
 16 31  1  0  0  0
 17 18  1  0  0  0
 17 95  1  0  0  0
 18 19  2  0  0  0
 18 96  1  0  0  0
 19 20  1  0  0  0
 19 24  1  0  0  0
 20 21  2  0  0  0
 20 97  1  0  0  0
 21 23  1  0  0  0
 22 28  1  0  0  0
 22 32  2  0  0  0
 26 27  1  0  0  0
 28 98  1  0  0  0
 28 99  1  0  0  0
 29100  1  0  0  0
 29101  1  0  0  0
 33 34  1  0  0  0
 33 66  1  0  0  0
 33 70  2  0  0  0
 34 36  1  0  0  0
 34 59  1  0  0  0
 34102  1  0  0  0
 35 44  2  0  0  0
 35 45  1  0  0  0
 35 68  1  0  0  0
 36 56  1  0  0  0
 36103  1  0  0  0
 37 39  1  0  0  0
 37 47  1  0  0  0
 37 66  1  0  0  0
 37104  1  0  0  0
 38 43  2  0  0  0
 38 46  1  0  0  0
 38 47  1  0  0  0
 39 64  1  0  0  0
 39 67  2  0  0  0
 40 52  1  0  0  0
 40 53  2  0  0  0
 40 58  1  0  0  0
 41105  1  0  0  0
 41106  1  0  0  0
 41107  1  0  0  0
 41 48  1  0  0  0
 42 43  1  0  0  0
 42 66  1  0  0  0
 42108  1  0  0  0
 42109  1  0  0  0
 43 44  1  0  0  0
 44110  1  0  0  0
 45 46  2  0  0  0
 45111  1  0  0  0
 46112  1  0  0  0
 47113  1  0  0  0
 47114  1  0  0  0
 48 56  1  0  0  0
 48 65  1  0  0  0
 48115  1  0  0  0
 49 50  1  0  0  0
 49 53  1  0  0  0
 49 64  1  0  0  0
 49116  1  0  0  0
 50 51  1  0  0  0
 50117  1  0  0  0
 50118  1  0  0  0
 51 52  1  0  0  0
 51119  1  0  0  0
 51120  1  0  0  0
 52121  1  0  0  0
 52122  1  0  0  0
 53 54  1  0  0  0
 54 55  2  0  0  0
 54123  1  0  0  0
 55 57  1  0  0  0
 55124  1  0  0  0
 56 69  2  0  0  0
 57 58  2  0  0  0
 57125  1  0  0  0
 58126  1  0  0  0
 59 60  1  0  0  0
 59 61  1  0  0  0
 59 62  1  0  0  0
 60127  1  0  0  0
 60128  1  0  0  0
 60129  1  0  0  0
 61130  1  0  0  0
 61131  1  0  0  0
 61132  1  0  0  0
 62133  1  0  0  0
 62134  1  0  0  0
 62135  1  0  0  0
 63 65  1  0  0  0
 63136  1  0  0  0
 63137  1  0  0  0
 63138  1  0  0  0
 64139  1  0  0  0
 65140  1  0  0  0
 68 78  1  0  0  0
 71 73  1  0  0  0
 71 76  1  0  0  0
 71 78  2  0  0  0
 72 77  1  0  0  0
 72 79  1  0  0  0
 72 81  2  0  0  0
 73141  1  0  0  0
 73142  1  0  0  0
 73143  1  0  0  0
 74144  1  0  0  0
 74145  1  0  0  0
 74146  1  0  0  0
 74 77  1  0  0  0
 75 77  1  0  0  0
 75147  1  0  0  0
 75148  1  0  0  0
 75149  1  0  0  0
 76 79  1  0  0  0
 76150  1  0  0  0
 76151  1  0  0  0
 77 80  1  0  0  0
 79152  1  0  0  0
 80153  1  0  0  0
M  ISO  4   1 100  68 101  78 101  80 100
M  END
> <chiral flag>
0

> <version>
0

> <s_m_source_file>
/data/baiqing/PycharmProjects/Reinvent-master-3.2/result/LINK_invent/BTK/process_docking_weight1_custom_product_contain_oxygen_bond_distance_aromatic_linkinvent_7_9_3/rearranged_h_0079.sdf

> <i_m_source_file_index>
83

> <r_mmod_Potential_Energy-OPLS-2005>
441.021301269531

> <r_mmod_Stretch_Energy-OPLS-2005>
344.085876464844

> <r_mmod_Bend_Energy-OPLS-2005>
284.794525146484

> <r_mmod_Torsional_Energy-OPLS-2005>
208.657104492188

> <r_mmod_Improper_Torsional_Energy-OPLS-2005>
4.46169519424438

> <r_mmod_Van_der_Waal_Energy-OPLS-2005>
111.685279846191

> <r_mmod_Electrostatic_Energy-OPLS-2005>
-535.263366699219

> <r_mmod_Solvation_Energy-OPLS-2005>
-236.724670410156

> <b_mmod_Minimization_Converged-OPLS-2005>
0

> <r_mmod_RMS_Derivative-OPLS-2005>
2.96538949012756

$$$$
83
                    3D
 Structure written by MMmdl.
170179  0  0  1  0            999 V2000
  -30.6260  -14.8180   20.3960 C   0  0  0  0  0  0
  -30.4297  -12.4867   19.4929 C   0  0  0  0  0  0
  -29.5177  -12.4754   18.2487 C   0  0  0  0  0  0
  -28.0473  -12.2607   18.6577 C   0  0  0  0  0  0
  -27.6193  -13.1917   19.8147 C   0  0  2  0  0  0
  -28.6691  -13.2662   20.9464 C   0  0  0  0  0  0
  -25.2554  -13.8082   20.5734 C   0  0  0  0  0  0
  -24.1768  -13.0414   20.9227 C   0  0  0  0  0  0
  -24.6304  -11.6880   20.8805 C   0  0  0  0  0  0
  -23.8979  -10.4293   21.0467 C   0  0  0  0  0  0
  -24.3583   -9.4222   21.9228 C   0  0  0  0  0  0
  -23.6290   -8.2233   22.0750 C   0  0  0  0  0  0
  -22.4271   -8.0262   21.3541 C   0  0  0  0  0  0
  -21.9905   -9.0220   20.4634 C   0  0  0  0  0  0
  -22.7179  -10.2135   20.3077 C   0  0  0  0  0  0
  -21.6830   -6.0695   22.5260 C   0  0  0  0  0  0
  -21.4005   -6.5599   23.8200 C   0  0  0  0  0  0
  -21.3695   -5.6763   24.9175 C   0  0  0  0  0  0
  -21.6070   -4.3023   24.7220 C   0  0  0  0  0  0
  -21.8819   -3.8108   23.4334 C   0  0  0  0  0  0
  -21.9194   -4.6928   22.3392 C   0  0  0  0  0  0
  -22.7803  -13.5255   21.1866 C   0  0  0  0  0  0
  -22.1638   -4.2136   21.0974 F   0  0  0  0  0  0
  -21.5699   -3.4489   25.7717 F   0  0  0  0  0  0
  -29.9735  -13.5965   20.3616 N   0  0  0  0  0  0
  -26.2858  -12.9153   20.3201 N   0  0  0  0  0  0
  -25.9200  -11.6381   20.5761 N   0  0  0  0  0  0
  -22.0404  -12.8279   22.0442 N   0  0  0  0  0  0
  -25.4366  -15.1794   20.4304 N   0  0  0  0  0  0
  -31.8434  -14.8706   20.2121 O   0  0  0  0  0  0
  -21.6617   -6.8860   21.4225 O   0  0  0  0  0  0
  -22.3517  -14.5537   20.6654 O   0  0  0  0  0  0
  -24.6243  -31.8550   23.1942 C   0  0  0  0  0  0
  -25.9070  -32.4754   23.8316 C   0  0  1  0  0  0
  -27.2581  -27.2961   20.1185 C   0  0  0  0  0  0
  -25.5873  -33.8560   24.2238 N   0  0  0  0  0  0
  -23.4254  -30.4648   21.5403 C   0  0  2  0  0  0
  -24.8803  -28.9074   20.1075 C   0  0  0  0  0  0
  -22.7469  -29.4543   22.4958 C   0  0  0  0  0  0
  -18.0274  -28.1419   22.8484 C   0  0  0  0  0  0
  -24.1496  -36.7298   23.2646 C   0  0  0  0  0  0
  -25.9630  -30.7728   21.3706 C   0  0  0  0  0  0
  -26.0390  -29.3934   20.7180 C   0  0  0  0  0  0
  -27.2208  -28.5957   20.7194 C   0  0  0  0  0  0
  -26.0706  -26.8503   19.5008 C   0  0  0  0  0  0
  -24.8969  -27.6429   19.4887 C   0  0  0  0  0  0
  -23.6423  -29.7850   20.1587 C   0  0  0  0  0  0
  -25.4126  -36.3072   24.0329 C   0  0  1  0  0  0
  -20.5878  -28.3698   23.1291 C   0  0  2  0  0  0
  -20.6797  -26.9427   22.5425 C   0  0  0  0  0  0
  -19.5773  -26.6394   21.5232 C   0  0  0  0  0  0
  -18.1933  -26.7964   22.1620 C   0  0  0  0  0  0
  -19.1531  -28.8884   23.2890 C   0  0  0  0  0  0
  -18.9447  -30.1485   23.8912 C   0  0  0  0  0  0
  -17.6443  -30.6623   24.0554 C   0  0  0  0  0  0
  -25.9054  -34.9436   23.5097 C   0  0  0  0  0  0
  -16.5326  -29.9121   23.6317 C   0  0  0  0  0  0
  -16.7261  -28.6543   23.0329 C   0  0  0  0  0  0
  -26.4423  -31.6575   25.0704 C   0  0  0  0  0  0
  -25.3643  -31.3724   26.1424 C   0  0  0  0  0  0
  -27.0272  -30.3003   24.6156 C   0  0  0  0  0  0
  -27.5995  -32.4288   25.7503 C   0  0  0  0  0  0
  -27.5584  -37.1807   24.8455 C   0  0  0  0  0  0
  -21.4192  -29.3032   22.3712 N   0  0  0  0  0  0
  -26.4289  -37.3762   23.9390 N   0  0  0  0  0  0
  -24.6900  -31.0499   22.0917 N   0  0  0  0  0  0
  -23.4186  -28.8125   23.3084 O   0  0  0  0  0  0
  -28.4247  -26.5084   20.2488 O   0  0  0  0  0  0
  -26.5642  -34.8884   22.4676 O   0  0  0  0  0  0
  -23.5390  -32.1373   23.7248 O   0  0  0  0  0  0
  -29.7723  -20.1399   20.3060 C   0  0  0  0  0  0
  -29.7012  -18.6985   18.3472 C   0  0  0  0  0  0
  -29.3933  -21.1378   18.1128 C   0  0  0  0  0  0
  -29.4778  -21.3389   19.5236 C   0  0  0  0  0  0
  -29.9076  -18.7998   19.7383 C   0  0  0  0  0  0
  -29.4701  -19.8357   17.5554 C   0  0  0  0  0  0
  -30.5671  -23.1967   15.4637 C   0  0  0  0  0  0
  -29.1861  -23.1395   15.0540 C   0  0  0  0  0  0
  -30.7105  -22.6346   16.7837 C   0  0  0  0  0  0
  -31.5932  -23.6392   14.7094 C   0  0  0  0  0  0
  -29.8284  -16.2477   20.2286 C   0  0  0  0  0  0
  -28.4220  -22.4818   16.1863 C   0  0  0  0  0  0
  -30.4043  -25.4093   19.7919 C   0  0  0  0  0  0
  -28.6971  -25.6454   18.0008 C   0  0  0  0  0  0
  -28.3893  -23.7871   19.8117 C   0  0  0  0  0  0
  -28.8919  -25.3101   19.4876 C   0  0  0  0  0  0
  -29.4823  -22.2129   17.1819 N   0  0  0  0  0  0
  -28.5508  -16.2189   19.7832 N   0  0  0  0  0  0
  -29.3925  -22.6713   20.1040 N   0  0  0  0  0  0
  -30.3726  -17.5234   20.4241 N   0  3  0  0  0  0
  -28.6870  -23.5308   13.9952 O   0  0  0  0  0  0
  -31.7572  -22.5466   17.4390 O   0  0  0  0  0  0
  -29.4355  -19.6789   16.2080 F   0  0  0  0  0  0
  -31.4699  -12.6136   19.1911 H   0  0  0  0  0  0
  -30.3696  -11.5328   20.0226 H   0  0  0  0  0  0
  -29.8291  -11.6933   17.5612 H   0  0  0  0  0  0
  -29.6208  -13.4187   17.7111 H   0  0  0  0  0  0
  -27.9321  -11.2209   18.9580 H   0  0  0  0  0  0
  -27.3986  -12.4127   17.7934 H   0  0  0  0  0  0
  -27.5307  -14.1417   19.3124 H   0  0  0  0  0  0
  -28.7288  -12.3178   21.4797 H   0  0  0  0  0  0
  -28.3741  -14.0214   21.6775 H   0  0  0  0  0  0
  -25.2745   -9.5660   22.4803 H   0  0  0  0  0  0
  -23.9978   -7.4626   22.7465 H   0  0  0  0  0  0
  -21.0812   -8.8672   19.8981 H   0  0  0  0  0  0
  -22.3587  -10.9646   19.6162 H   0  0  0  0  0  0
  -21.1928   -7.6123   23.9658 H   0  0  0  0  0  0
  -21.1557   -6.0531   25.9089 H   0  0  0  0  0  0
  -22.0575   -2.7564   23.2816 H   0  0  0  0  0  0
  -22.3937  -11.9945   22.4894 H   0  0  0  0  0  0
  -21.1036  -13.1351   22.2611 H   0  0  0  0  0  0
  -24.6899  -15.8450   20.5996 H   0  0  0  0  0  0
  -26.3404  -15.6186   20.2910 H   0  0  0  0  0  0
  -26.7155  -32.5402   23.1083 H   0  0  0  0  0  0
  -24.9956  -33.9709   25.0342 H   0  0  0  0  0  0
  -22.7189  -31.2855   21.3865 H   0  0  0  0  0  0
  -23.3743  -35.9631   23.3286 H   0  0  0  0  0  0
  -24.3601  -36.8950   22.2055 H   0  0  0  0  0  0
  -23.7224  -37.6490   23.6688 H   0  0  0  0  0  0
  -26.0893  -31.5240   20.5919 H   0  0  0  0  0  0
  -26.8462  -30.8319   21.9965 H   0  0  0  0  0  0
  -28.1071  -28.9624   21.2182 H   0  0  0  0  0  0
  -26.0189  -25.8625   19.0698 H   0  0  0  0  0  0
  -24.0053  -27.2564   19.0148 H   0  0  0  0  0  0
  -23.7601  -30.5565   19.3950 H   0  0  0  0  0  0
  -22.7655  -29.2064   19.8623 H   0  0  0  0  0  0
  -25.1305  -36.1945   25.0812 H   0  0  0  0  0  0
  -20.9914  -28.3271   24.1431 H   0  0  0  0  0  0
  -20.5705  -26.2309   23.3616 H   0  0  0  0  0  0
  -21.6653  -26.7500   22.1180 H   0  0  0  0  0  0
  -19.6918  -25.6292   21.1286 H   0  0  0  0  0  0
  -19.6723  -27.3185   20.6733 H   0  0  0  0  0  0
  -17.4207  -26.6685   21.4015 H   0  0  0  0  0  0
  -18.0319  -26.0131   22.9030 H   0  0  0  0  0  0
  -19.7929  -30.7292   24.2279 H   0  0  0  0  0  0
  -17.5003  -31.6293   24.5171 H   0  0  0  0  0  0
  -15.5329  -30.3013   23.7677 H   0  0  0  0  0  0
  -15.8660  -28.0867   22.7026 H   0  0  0  0  0  0
  -24.5794  -30.7120   25.7734 H   0  0  0  0  0  0
  -24.8855  -32.2891   26.4868 H   0  0  0  0  0  0
  -25.7921  -30.8856   27.0206 H   0  0  0  0  0  0
  -26.2865  -29.6782   24.1114 H   0  0  0  0  0  0
  -27.3924  -29.7213   25.4663 H   0  0  0  0  0  0
  -27.8743  -30.4325   23.9416 H   0  0  0  0  0  0
  -27.2609  -33.3575   26.2107 H   0  0  0  0  0  0
  -28.3783  -32.6866   25.0313 H   0  0  0  0  0  0
  -28.0668  -31.8384   26.5388 H   0  0  0  0  0  0
  -28.2578  -38.0130   24.7500 H   0  0  0  0  0  0
  -28.1103  -36.2650   24.6286 H   0  0  0  0  0  0
  -27.2312  -37.1453   25.8864 H   0  0  0  0  0  0
  -20.9406  -29.8720   21.6874 H   0  0  0  0  0  0
  -26.0182  -38.2845   24.1369 H   0  0  0  0  0  0
  -29.9244  -20.2543   21.3695 H   0  0  0  0  0  0
  -29.8168  -17.7464   17.8500 H   0  0  0  0  0  0
  -31.4405  -24.0116   13.7071 H   0  0  0  0  0  0
  -32.6069  -23.6075   15.0804 H   0  0  0  0  0  0
  -27.9257  -21.5769   15.8338 H   0  0  0  0  0  0
  -27.6610  -23.1575   16.5776 H   0  0  0  0  0  0
  -30.8135  -26.3706   19.4708 H   0  0  0  0  0  0
  -30.9846  -24.6376   19.2847 H   0  0  0  0  0  0
  -30.6081  -25.3152   20.8589 H   0  0  0  0  0  0
  -29.2483  -24.9589   17.3702 H   0  0  0  0  0  0
  -29.0586  -26.6465   17.7723 H   0  0  0  0  0  0
  -27.6557  -25.5958   17.6989 H   0  0  0  0  0  0
  -27.7177  -23.4628   19.0134 H   0  0  0  0  0  0
  -27.7506  -23.8432   20.6940 H   0  0  0  0  0  0
  -28.0152  -17.0696   19.6461 H   0  0  0  0  0  0
  -28.2233  -15.3491   19.3912 H   0  0  0  0  0  0
  -29.7466  -22.7279   21.0565 H   0  0  0  0  0  0
  -31.1091  -17.5603   21.1112 H   0  0  0  0  0  0
  1 25  1  0  0  0
  1 30  2  0  0  0
  1 81  1  0  0  0
  2  3  1  0  0  0
  2 25  1  0  0  0
  2 94  1  0  0  0
  2 95  1  0  0  0
  3  4  1  0  0  0
  3 96  1  0  0  0
  3 97  1  0  0  0
  4  5  1  0  0  0
  4 98  1  0  0  0
  4 99  1  0  0  0
  5  6  1  0  0  0
  5 26  1  0  0  0
  5100  1  0  0  0
  6 25  1  0  0  0
  6101  1  0  0  0
  6102  1  0  0  0
  7  8  2  0  0  0
  7 26  1  0  0  0
  7 29  1  0  0  0
  8  9  1  0  0  0
  8 22  1  0  0  0
  9 10  1  0  0  0
  9 27  2  0  0  0
 10 11  2  0  0  0
 10 15  1  0  0  0
 11 12  1  0  0  0
 11103  1  0  0  0
 12 13  2  0  0  0
 12104  1  0  0  0
 13 14  1  0  0  0
 13 31  1  0  0  0
 14 15  2  0  0  0
 14105  1  0  0  0
 15106  1  0  0  0
 16 17  2  0  0  0
 16 21  1  0  0  0
 16 31  1  0  0  0
 17 18  1  0  0  0
 17107  1  0  0  0
 18 19  2  0  0  0
 18108  1  0  0  0
 19 20  1  0  0  0
 19 24  1  0  0  0
 20 21  2  0  0  0
 20109  1  0  0  0
 21 23  1  0  0  0
 22 28  1  0  0  0
 22 32  2  0  0  0
 26 27  1  0  0  0
 28110  1  0  0  0
 28111  1  0  0  0
 29112  1  0  0  0
 29113  1  0  0  0
 33 34  1  0  0  0
 33 66  1  0  0  0
 33 70  2  0  0  0
 34 36  1  0  0  0
 34 59  1  0  0  0
 34114  1  0  0  0
 35 44  2  0  0  0
 35 45  1  0  0  0
 35 68  1  0  0  0
 36 56  1  0  0  0
 36115  1  0  0  0
 37 39  1  0  0  0
 37 47  1  0  0  0
 37 66  1  0  0  0
 37116  1  0  0  0
 38 43  2  0  0  0
 38 46  1  0  0  0
 38 47  1  0  0  0
 39 64  1  0  0  0
 39 67  2  0  0  0
 40 52  1  0  0  0
 40 53  2  0  0  0
 40 58  1  0  0  0
 41117  1  0  0  0
 41118  1  0  0  0
 41119  1  0  0  0
 41 48  1  0  0  0
 42 43  1  0  0  0
 42 66  1  0  0  0
 42120  1  0  0  0
 42121  1  0  0  0
 43 44  1  0  0  0
 44122  1  0  0  0
 45 46  2  0  0  0
 45123  1  0  0  0
 46124  1  0  0  0
 47125  1  0  0  0
 47126  1  0  0  0
 48 56  1  0  0  0
 48 65  1  0  0  0
 48127  1  0  0  0
 49 50  1  0  0  0
 49 53  1  0  0  0
 49 64  1  0  0  0
 49128  1  0  0  0
 50 51  1  0  0  0
 50129  1  0  0  0
 50130  1  0  0  0
 51 52  1  0  0  0
 51131  1  0  0  0
 51132  1  0  0  0
 52133  1  0  0  0
 52134  1  0  0  0
 53 54  1  0  0  0
 54 55  2  0  0  0
 54135  1  0  0  0
 55 57  1  0  0  0
 55136  1  0  0  0
 56 69  2  0  0  0
 57 58  2  0  0  0
 57137  1  0  0  0
 58138  1  0  0  0
 59 60  1  0  0  0
 59 61  1  0  0  0
 59 62  1  0  0  0
 60139  1  0  0  0
 60140  1  0  0  0
 60141  1  0  0  0
 61142  1  0  0  0
 61143  1  0  0  0
 61144  1  0  0  0
 62145  1  0  0  0
 62146  1  0  0  0
 62147  1  0  0  0
 63 65  1  0  0  0
 63148  1  0  0  0
 63149  1  0  0  0
 63150  1  0  0  0
 64151  1  0  0  0
 65152  1  0  0  0
 68 86  1  0  0  0
 71 74  2  0  0  0
 71 75  1  0  0  0
 71153  1  0  0  0
 72 75  2  0  0  0
 72 76  1  0  0  0
 72154  1  0  0  0
 73 74  1  0  0  0
 73 76  2  0  0  0
 73 87  1  0  0  0
 74 89  1  0  0  0
 75 90  1  0  0  0
 76 93  1  0  0  0
 77 78  1  0  0  0
 77 79  1  0  0  0
 77 80  2  0  0  0
 78 82  1  0  0  0
 78 91  2  0  0  0
 79 87  1  0  0  0
 79 92  2  0  0  0
 80155  1  0  0  0
 80156  1  0  0  0
 81 88  1  0  0  0
 81 90  2  0  0  0
 82 87  1  0  0  0
 82157  1  0  0  0
 82158  1  0  0  0
 83159  1  0  0  0
 83160  1  0  0  0
 83161  1  0  0  0
 83 86  1  0  0  0
 84 86  1  0  0  0
 84162  1  0  0  0
 84163  1  0  0  0
 84164  1  0  0  0
 85 86  1  0  0  0
 85 89  1  0  0  0
 85165  1  0  0  0
 85166  1  0  0  0
 88167  1  0  0  0
 88168  1  0  0  0
 89169  1  0  0  0
 90170  1  0  0  0
M  CHG  1  90   1
M  ISO  4   1 100  68 101  81 100  86 101
M  END
> <chiral flag>
0

> <version>
0

> <s_m_source_file>
/data/baiqing/PycharmProjects/Reinvent-master-3.2/result/LINK_invent/BTK/process_docking_weight1_custom_product_contain_oxygen_bond_distance_aromatic_linkinvent_7_9_3/rearranged_h_0079.sdf

> <i_m_source_file_index>
84

> <r_mmod_Potential_Energy-OPLS-2005>
214.104370117188

> <r_mmod_Stretch_Energy-OPLS-2005>
146.842666625977

> <r_mmod_Bend_Energy-OPLS-2005>
275.034545898438

> <r_mmod_Torsional_Energy-OPLS-2005>
322.865203857422

> <r_mmod_Improper_Torsional_Energy-OPLS-2005>
17.1625995635986

> <r_mmod_Van_der_Waal_Energy-OPLS-2005>
135.538101196289

> <r_mmod_Electrostatic_Energy-OPLS-2005>
-256.345367431641

> <r_mmod_Solvation_Energy-OPLS-2005>
-531.81396484375

> <b_mmod_Minimization_Converged-OPLS-2005>
0

> <r_mmod_RMS_Derivative-OPLS-2005>
5.64422607421875

$$$$
84
                    3D
 Structure written by MMmdl.
149157  0  0  1  0            999 V2000
  -30.6158  -14.8229   20.4272 C   0  0  0  0  0  0
  -30.4281  -12.5010   19.4972 C   0  0  0  0  0  0
  -29.5148  -12.5084   18.2519 C   0  0  0  0  0  0
  -28.0436  -12.3219   18.6651 C   0  0  0  0  0  0
  -27.6359  -13.2439   19.8457 C   0  0  2  0  0  0
  -28.6793  -13.2364   20.9846 C   0  0  0  0  0  0
  -25.2479  -13.8219   20.5709 C   0  0  0  0  0  0
  -24.1783  -13.0446   20.9213 C   0  0  0  0  0  0
  -24.6390  -11.6928   20.8747 C   0  0  0  0  0  0
  -23.9071  -10.4295   21.0395 C   0  0  0  0  0  0
  -24.3620   -9.4212   21.9179 C   0  0  0  0  0  0
  -23.6291   -8.2247   22.0752 C   0  0  0  0  0  0
  -22.4274   -8.0279   21.3541 C   0  0  0  0  0  0
  -21.9911   -9.0253   20.4645 C   0  0  0  0  0  0
  -22.7239  -10.2131   20.3049 C   0  0  0  0  0  0
  -21.6858   -6.0728   22.5274 C   0  0  0  0  0  0
  -21.4025   -6.5634   23.8209 C   0  0  0  0  0  0
  -21.3667   -5.6790   24.9175 C   0  0  0  0  0  0
  -21.6044   -4.3051   24.7228 C   0  0  0  0  0  0
  -21.8817   -3.8136   23.4349 C   0  0  0  0  0  0
  -21.9193   -4.6952   22.3403 C   0  0  0  0  0  0
  -22.7809  -13.5218   21.1867 C   0  0  0  0  0  0
  -22.1658   -4.2132   21.0982 F   0  0  0  0  0  0
  -21.5631   -3.4537   25.7743 F   0  0  0  0  0  0
  -29.9734  -13.5964   20.3932 N   0  0  0  0  0  0
  -26.2915  -12.9448   20.3284 N   0  0  0  0  0  0
  -25.9330  -11.6579   20.5761 N   0  0  0  0  0  0
  -22.0459  -12.8205   22.0424 N   0  0  0  0  0  0
  -25.4147  -15.1947   20.4132 N   0  0  0  0  0  0
  -31.8181  -14.8392   20.1541 O   0  0  0  0  0  0
  -21.6648   -6.8869   21.4234 O   0  0  0  0  0  0
  -22.3485  -14.5522   20.6711 O   0  0  0  0  0  0
  -24.6372  -31.8515   23.1957 C   0  0  0  0  0  0
  -25.9176  -32.4733   23.8326 C   0  0  1  0  0  0
  -27.2137  -27.2131   20.1412 C   0  0  0  0  0  0
  -25.5962  -33.8541   24.2247 N   0  0  0  0  0  0
  -23.4384  -30.4724   21.5390 C   0  0  2  0  0  0
  -24.8898  -28.9181   20.1056 C   0  0  0  0  0  0
  -22.7539  -29.4577   22.4881 C   0  0  0  0  0  0
  -18.0303  -28.1388   22.8483 C   0  0  0  0  0  0
  -24.1501  -36.7280   23.2638 C   0  0  0  0  0  0
  -25.9892  -30.7476   21.3875 C   0  0  0  0  0  0
  -26.0639  -29.3674   20.7264 C   0  0  0  0  0  0
  -27.2321  -28.5264   20.7366 C   0  0  0  0  0  0
  -26.0244  -26.8528   19.4741 C   0  0  0  0  0  0
  -24.8777  -27.6707   19.4652 C   0  0  0  0  0  0
  -23.6619  -29.8098   20.1546 C   0  0  0  0  0  0
  -25.4125  -36.3059   24.0318 C   0  0  1  0  0  0
  -20.5908  -28.3712   23.1240 C   0  0  2  0  0  0
  -20.6786  -26.9424   22.5392 C   0  0  0  0  0  0
  -19.5758  -26.6382   21.5202 C   0  0  0  0  0  0
  -18.1944  -26.7926   22.1625 C   0  0  0  0  0  0
  -19.1557  -28.8867   23.2856 C   0  0  0  0  0  0
  -18.9480  -30.1467   23.8876 C   0  0  0  0  0  0
  -17.6473  -30.6590   24.0554 C   0  0  0  0  0  0
  -25.9064  -34.9428   23.5079 C   0  0  0  0  0  0
  -16.5361  -29.9079   23.6329 C   0  0  0  0  0  0
  -16.7288  -28.6495   23.0354 C   0  0  0  0  0  0
  -26.4526  -31.6568   25.0735 C   0  0  0  0  0  0
  -25.3742  -31.3739   26.1449 C   0  0  0  0  0  0
  -27.0366  -30.2968   24.6273 C   0  0  0  0  0  0
  -27.6088  -32.4304   25.7504 C   0  0  0  0  0  0
  -27.5581  -37.1797   24.8469 C   0  0  0  0  0  0
  -21.4241  -29.3054   22.3621 N   0  0  0  0  0  0
  -26.4303  -37.3755   23.9397 N   0  0  0  0  0  0
  -24.7073  -31.0423   22.0969 N   0  0  0  0  0  0
  -23.4209  -28.8117   23.3001 O   0  0  0  0  0  0
  -28.2195  -26.2048   20.2165 O   0  0  0  0  0  0
  -26.5638  -34.8910   22.4651 O   0  0  0  0  0  0
  -23.5507  -32.1363   23.7214 O   0  0  0  0  0  0
  -31.7663  -19.0560   19.1697 C   0  0  0  0  0  0
  -30.9738  -20.1698   19.5022 C   0  0  0  0  0  0
  -31.4014  -17.7444   19.5277 C   0  0  0  0  0  0
  -29.7583  -20.0357   20.2104 C   0  0  0  0  0  0
  -30.2214  -17.4594   20.2573 C   0  0  0  0  0  0
  -29.4091  -18.6484   20.5828 C   0  0  0  0  0  0
  -28.1205  -23.5960   20.8491 C   0  0  0  0  0  0
  -27.8138  -24.9727   20.8393 C   0  0  0  0  0  0
  -29.0817  -22.6406   20.1828 C   0  0  0  0  0  0
  -28.9669  -21.2793   20.5433 N   0  0  0  0  0  0
  -29.8860  -16.0168   20.5850 N   0  0  0  0  0  0
  -29.9098  -23.0283   19.3575 O   0  0  0  0  0  0
  -28.2588  -18.4509   21.2713 F   0  0  0  0  0  0
  -31.4703  -12.6142   19.1947 H   0  0  0  0  0  0
  -30.3750  -11.5413   20.0132 H   0  0  0  0  0  0
  -29.8132  -11.7201   17.5596 H   0  0  0  0  0  0
  -29.6295  -13.4511   17.7141 H   0  0  0  0  0  0
  -27.9163  -11.2771   18.9516 H   0  0  0  0  0  0
  -27.3852  -12.4842   17.8110 H   0  0  0  0  0  0
  -27.6125  -14.2544   19.4369 H   0  0  0  0  0  0
  -28.7325  -12.2568   21.4620 H   0  0  0  0  0  0
  -28.4024  -13.9453   21.7666 H   0  0  0  0  0  0
  -25.2758   -9.5696   22.4760 H   0  0  0  0  0  0
  -23.9998   -7.4643   22.7477 H   0  0  0  0  0  0
  -21.0843   -8.8772   19.8951 H   0  0  0  0  0  0
  -22.3691  -10.9672   19.6161 H   0  0  0  0  0  0
  -21.2024   -7.6143   23.9708 H   0  0  0  0  0  0
  -21.1496   -6.0524   25.9079 H   0  0  0  0  0  0
  -22.0591   -2.7594   23.2859 H   0  0  0  0  0  0
  -22.4090  -11.9875   22.4819 H   0  0  0  0  0  0
  -21.1071  -13.1217   22.2621 H   0  0  0  0  0  0
  -24.6464  -15.8466   20.5298 H   0  0  0  0  0  0
  -26.2621  -15.6396   20.0847 H   0  0  0  0  0  0
  -26.7241  -32.5365   23.1065 H   0  0  0  0  0  0
  -25.0119  -33.9673   25.0399 H   0  0  0  0  0  0
  -22.7375  -31.2966   21.3899 H   0  0  0  0  0  0
  -23.3757  -35.9623   23.3324 H   0  0  0  0  0  0
  -24.3587  -36.8884   22.2050 H   0  0  0  0  0  0
  -23.7268  -37.6494   23.6647 H   0  0  0  0  0  0
  -26.1353  -31.5088   20.6197 H   0  0  0  0  0  0
  -26.8628  -30.7964   22.0256 H   0  0  0  0  0  0
  -28.1226  -28.8545   21.2539 H   0  0  0  0  0  0
  -25.9654  -25.8868   18.9923 H   0  0  0  0  0  0
  -23.9815  -27.3214   18.9708 H   0  0  0  0  0  0
  -23.7923  -30.5897   19.4028 H   0  0  0  0  0  0
  -22.7785  -29.2491   19.8440 H   0  0  0  0  0  0
  -25.1308  -36.1911   25.0809 H   0  0  0  0  0  0
  -20.9998  -28.3302   24.1362 H   0  0  0  0  0  0
  -20.5680  -26.2336   23.3610 H   0  0  0  0  0  0
  -21.6651  -26.7433   22.1185 H   0  0  0  0  0  0
  -19.6927  -25.6291   21.1240 H   0  0  0  0  0  0
  -19.6684  -27.3185   20.6722 H   0  0  0  0  0  0
  -17.4200  -26.6668   21.4043 H   0  0  0  0  0  0
  -18.0366  -26.0073   22.9030 H   0  0  0  0  0  0
  -19.7954  -30.7291   24.2243 H   0  0  0  0  0  0
  -17.5021  -31.6267   24.5162 H   0  0  0  0  0  0
  -15.5360  -30.2971   23.7659 H   0  0  0  0  0  0
  -15.8694  -28.0798   22.7077 H   0  0  0  0  0  0
  -24.5907  -30.7102   25.7776 H   0  0  0  0  0  0
  -24.8951  -32.2916   26.4873 H   0  0  0  0  0  0
  -25.8051  -30.8908   27.0229 H   0  0  0  0  0  0
  -26.2958  -29.6709   24.1285 H   0  0  0  0  0  0
  -27.3998  -29.7247   25.4824 H   0  0  0  0  0  0
  -27.8868  -30.4212   23.9561 H   0  0  0  0  0  0
  -27.2712  -33.3626   26.2046 H   0  0  0  0  0  0
  -28.3917  -32.6823   25.0335 H   0  0  0  0  0  0
  -28.0733  -31.8445   26.5445 H   0  0  0  0  0  0
  -28.2603  -38.0088   24.7484 H   0  0  0  0  0  0
  -28.1071  -36.2615   24.6335 H   0  0  0  0  0  0
  -27.2294  -37.1486   25.8873 H   0  0  0  0  0  0
  -20.9446  -29.8781   21.6821 H   0  0  0  0  0  0
  -26.0189  -38.2837   24.1378 H   0  0  0  0  0  0
  -32.6839  -19.2119   18.6192 H   0  0  0  0  0  0
  -31.3409  -21.1360   19.1960 H   0  0  0  0  0  0
  -32.0698  -16.9638   19.2035 H   0  0  0  0  0  0
  -27.4739  -23.0739   21.5394 H   0  0  0  0  0  0
  -27.0087  -25.2206   21.5195 H   0  0  0  0  0  0
  -28.1983  -21.0973   21.1737 H   0  0  0  0  0  0
  -28.9374  -15.8774   20.8980 H   0  0  0  0  0  0
  1 25  1  0  0  0
  1 30  2  0  0  0
  1 81  1  0  0  0
  2  3  1  0  0  0
  2 25  1  0  0  0
  2 84  1  0  0  0
  2 85  1  0  0  0
  3  4  1  0  0  0
  3 86  1  0  0  0
  3 87  1  0  0  0
  4  5  1  0  0  0
  4 88  1  0  0  0
  4 89  1  0  0  0
  5  6  1  0  0  0
  5 26  1  0  0  0
  5 90  1  0  0  0
  6 25  1  0  0  0
  6 91  1  0  0  0
  6 92  1  0  0  0
  7  8  2  0  0  0
  7 26  1  0  0  0
  7 29  1  0  0  0
  8  9  1  0  0  0
  8 22  1  0  0  0
  9 10  1  0  0  0
  9 27  2  0  0  0
 10 11  2  0  0  0
 10 15  1  0  0  0
 11 12  1  0  0  0
 11 93  1  0  0  0
 12 13  2  0  0  0
 12 94  1  0  0  0
 13 14  1  0  0  0
 13 31  1  0  0  0
 14 15  2  0  0  0
 14 95  1  0  0  0
 15 96  1  0  0  0
 16 17  2  0  0  0
 16 21  1  0  0  0
 16 31  1  0  0  0
 17 18  1  0  0  0
 17 97  1  0  0  0
 18 19  2  0  0  0
 18 98  1  0  0  0
 19 20  1  0  0  0
 19 24  1  0  0  0
 20 21  2  0  0  0
 20 99  1  0  0  0
 21 23  1  0  0  0
 22 28  1  0  0  0
 22 32  2  0  0  0
 26 27  1  0  0  0
 28100  1  0  0  0
 28101  1  0  0  0
 29102  1  0  0  0
 29103  1  0  0  0
 33 34  1  0  0  0
 33 66  1  0  0  0
 33 70  2  0  0  0
 34 36  1  0  0  0
 34 59  1  0  0  0
 34104  1  0  0  0
 35 44  2  0  0  0
 35 45  1  0  0  0
 35 68  1  0  0  0
 36 56  1  0  0  0
 36105  1  0  0  0
 37 39  1  0  0  0
 37 47  1  0  0  0
 37 66  1  0  0  0
 37106  1  0  0  0
 38 43  2  0  0  0
 38 46  1  0  0  0
 38 47  1  0  0  0
 39 64  1  0  0  0
 39 67  2  0  0  0
 40 52  1  0  0  0
 40 53  2  0  0  0
 40 58  1  0  0  0
 41107  1  0  0  0
 41108  1  0  0  0
 41109  1  0  0  0
 41 48  1  0  0  0
 42 43  1  0  0  0
 42 66  1  0  0  0
 42110  1  0  0  0
 42111  1  0  0  0
 43 44  1  0  0  0
 44112  1  0  0  0
 45 46  2  0  0  0
 45113  1  0  0  0
 46114  1  0  0  0
 47115  1  0  0  0
 47116  1  0  0  0
 48 56  1  0  0  0
 48 65  1  0  0  0
 48117  1  0  0  0
 49 50  1  0  0  0
 49 53  1  0  0  0
 49 64  1  0  0  0
 49118  1  0  0  0
 50 51  1  0  0  0
 50119  1  0  0  0
 50120  1  0  0  0
 51 52  1  0  0  0
 51121  1  0  0  0
 51122  1  0  0  0
 52123  1  0  0  0
 52124  1  0  0  0
 53 54  1  0  0  0
 54 55  2  0  0  0
 54125  1  0  0  0
 55 57  1  0  0  0
 55126  1  0  0  0
 56 69  2  0  0  0
 57 58  2  0  0  0
 57127  1  0  0  0
 58128  1  0  0  0
 59 60  1  0  0  0
 59 61  1  0  0  0
 59 62  1  0  0  0
 60129  1  0  0  0
 60130  1  0  0  0
 60131  1  0  0  0
 61132  1  0  0  0
 61133  1  0  0  0
 61134  1  0  0  0
 62135  1  0  0  0
 62136  1  0  0  0
 62137  1  0  0  0
 63 65  1  0  0  0
 63138  1  0  0  0
 63139  1  0  0  0
 63140  1  0  0  0
 64141  1  0  0  0
 65142  1  0  0  0
 68 78  1  0  0  0
 71 72  2  0  0  0
 71 73  1  0  0  0
 71143  1  0  0  0
 72 74  1  0  0  0
 72144  1  0  0  0
 73 75  2  0  0  0
 73145  1  0  0  0
 74 76  2  0  0  0
 74 80  1  0  0  0
 75 76  1  0  0  0
 75 81  1  0  0  0
 76 83  1  0  0  0
 77 78  2  0  0  0
 77 79  1  0  0  0
 77146  1  0  0  0
 78147  1  0  0  0
 79 80  1  0  0  0
 79 82  2  0  0  0
 80148  1  0  0  0
 81149  1  0  0  0
M  ISO  4   1 100  68 101  78 101  81 100
M  END
> <chiral flag>
0

> <version>
0

> <s_m_source_file>
/data/baiqing/PycharmProjects/Reinvent-master-3.2/result/LINK_invent/BTK/process_docking_weight1_custom_product_contain_oxygen_bond_distance_aromatic_linkinvent_7_9_3/rearranged_h_0079.sdf

> <i_m_source_file_index>
85

> <r_mmod_Potential_Energy-OPLS-2005>
267.473724365234

> <r_mmod_Stretch_Energy-OPLS-2005>
164.477188110352

> <r_mmod_Bend_Energy-OPLS-2005>
243.644012451172

> <r_mmod_Torsional_Energy-OPLS-2005>
228.155899047852

> <r_mmod_Improper_Torsional_Energy-OPLS-2005>
4.10193920135498

> <r_mmod_Van_der_Waal_Energy-OPLS-2005>
146.459579467773

> <r_mmod_Electrostatic_Energy-OPLS-2005>
-427.460296630859

> <r_mmod_Solvation_Energy-OPLS-2005>
-224.05729675293

> <b_mmod_Minimization_Converged-OPLS-2005>
0

> <r_mmod_RMS_Derivative-OPLS-2005>
1.28998219966888

$$$$
85
                    3D
 Structure written by MMmdl.
161169  0  0  1  0            999 V2000
  -30.7567  -14.4427   20.8240 C   0  0  0  0  0  0
  -30.4230  -12.3651   19.4724 C   0  0  0  0  0  0
  -29.5127  -12.5766   18.2392 C   0  0  0  0  0  0
  -28.0422  -12.3664   18.6345 C   0  0  0  0  0  0
  -27.6637  -13.2112   19.8754 C   0  0  2  0  0  0
  -28.6770  -13.0259   21.0311 C   0  0  0  0  0  0
  -25.2549  -13.8148   20.5574 C   0  0  0  0  0  0
  -24.1827  -13.0495   20.9033 C   0  0  0  0  0  0
  -24.6334  -11.6931   20.8555 C   0  0  0  0  0  0
  -23.8953  -10.4339   21.0239 C   0  0  0  0  0  0
  -24.3541   -9.4326   21.9095 C   0  0  0  0  0  0
  -23.6255   -8.2337   22.0750 C   0  0  0  0  0  0
  -22.4241   -8.0291   21.3511 C   0  0  0  0  0  0
  -21.9790   -9.0235   20.4611 C   0  0  0  0  0  0
  -22.7065  -10.2145   20.2961 C   0  0  0  0  0  0
  -21.6899   -6.0715   22.5246 C   0  0  0  0  0  0
  -21.4065   -6.5617   23.8178 C   0  0  0  0  0  0
  -21.3644   -5.6765   24.9130 C   0  0  0  0  0  0
  -21.6039   -4.3026   24.7187 C   0  0  0  0  0  0
  -21.8835   -3.8114   23.4304 C   0  0  0  0  0  0
  -21.9208   -4.6939   22.3365 C   0  0  0  0  0  0
  -22.7874  -13.5312   21.1750 C   0  0  0  0  0  0
  -22.1675   -4.2126   21.0938 F   0  0  0  0  0  0
  -21.5602   -3.4498   25.7690 F   0  0  0  0  0  0
  -30.0440  -13.3054   20.5492 N   0  0  0  0  0  0
  -26.2980  -12.9354   20.3192 N   0  0  0  0  0  0
  -25.9263  -11.6490   20.5537 N   0  0  0  0  0  0
  -22.0496  -12.8381   22.0282 N   0  0  0  0  0  0
  -25.4248  -15.1906   20.4092 N   0  0  0  0  0  0
  -31.7219  -14.7851   20.1278 O   0  0  0  0  0  0
  -21.6663   -6.8845   21.4200 O   0  0  0  0  0  0
  -22.3546  -14.5614   20.6536 O   0  0  0  0  0  0
  -24.6441  -31.8569   23.1993 C   0  0  0  0  0  0
  -25.9270  -32.4763   23.8285 C   0  0  1  0  0  0
  -27.1722  -27.2456   20.1254 C   0  0  0  0  0  0
  -25.6067  -33.8547   24.2257 N   0  0  0  0  0  0
  -23.4320  -30.4824   21.5527 C   0  0  2  0  0  0
  -24.8577  -28.9322   20.0862 C   0  0  0  0  0  0
  -22.7568  -29.4585   22.4927 C   0  0  0  0  0  0
  -18.0334  -28.1328   22.8402 C   0  0  0  0  0  0
  -24.1497  -36.7333   23.2607 C   0  0  0  0  0  0
  -25.9784  -30.7404   21.3776 C   0  0  0  0  0  0
  -26.0327  -29.3728   20.7153 C   0  0  0  0  0  0
  -27.1958  -28.5424   20.7168 C   0  0  0  0  0  0
  -25.9951  -26.8916   19.4207 C   0  0  0  0  0  0
  -24.8504  -27.7008   19.4168 C   0  0  0  0  0  0
  -23.6317  -29.8265   20.1558 C   0  0  0  0  0  0
  -25.4098  -36.3079   24.0309 C   0  0  1  0  0  0
  -20.5983  -28.3608   23.1152 C   0  0  2  0  0  0
  -20.6846  -26.9426   22.5051 C   0  0  0  0  0  0
  -19.5780  -26.6681   21.4851 C   0  0  0  0  0  0
  -18.1958  -26.8017   22.1282 C   0  0  0  0  0  0
  -19.1624  -28.8774   23.2830 C   0  0  0  0  0  0
  -18.9542  -30.1303   23.9030 C   0  0  0  0  0  0
  -17.6545  -30.6450   24.0628 C   0  0  0  0  0  0
  -25.9089  -34.9453   23.5089 C   0  0  0  0  0  0
  -16.5402  -29.9034   23.6299 C   0  0  0  0  0  0
  -16.7321  -28.6412   23.0347 C   0  0  0  0  0  0
  -26.4554  -31.6586   25.0717 C   0  0  0  0  0  0
  -25.3730  -31.3767   26.1466 C   0  0  0  0  0  0
  -27.0336  -30.2983   24.6153 C   0  0  0  0  0  0
  -27.6115  -32.4310   25.7536 C   0  0  0  0  0  0
  -27.5559  -37.1830   24.8435 C   0  0  0  0  0  0
  -21.4274  -29.3145   22.3729 N   0  0  0  0  0  0
  -26.4272  -37.3814   23.9403 N   0  0  0  0  0  0
  -24.7068  -31.0436   22.1010 N   0  0  0  0  0  0
  -23.4290  -28.8024   23.2954 O   0  0  0  0  0  0
  -28.2086  -26.3025   20.2862 O   0  0  0  0  0  0
  -26.5644  -34.8967   22.4645 O   0  0  0  0  0  0
  -23.5591  -32.1500   23.7226 O   0  0  0  0  0  0
  -29.8506  -18.8105   21.5111 C   0  0  0  0  0  0
  -30.0696  -18.3712   23.8759 C   0  0  0  0  0  0
  -30.1846  -17.4632   21.2169 C   0  0  0  0  0  0
  -30.3501  -17.0047   23.5828 C   0  0  0  0  0  0
  -29.7366  -19.2955   22.8434 C   0  0  0  0  0  0
  -30.3744  -16.5144   22.2467 C   0  0  0  0  0  0
  -29.1950  -20.6843   23.1160 C   0  0  0  0  0  0
  -28.4963  -22.9054   21.9846 C   0  0  0  0  0  0
  -28.5392  -22.4300   19.5024 C   0  0  0  0  0  0
  -30.1875  -24.0111   20.5511 C   0  0  0  0  0  0
  -27.8017  -24.8614   20.1856 C   0  0  0  0  0  0
  -28.7147  -23.5812   20.5782 C   0  0  0  0  0  0
  -30.4486  -15.0876   21.9831 N   0  0  0  0  0  0
  -29.1669  -21.6111   22.1254 N   0  0  0  0  0  0
  -28.6914  -20.9786   24.3214 N   0  3  0  0  0  0
  -27.8284  -23.4041   22.8997 O   0  0  0  0  0  0
  -31.4722  -12.4743   19.1944 H   0  0  0  0  0  0
  -30.3154  -11.3417   19.8386 H   0  0  0  0  0  0
  -29.7990  -11.8876   17.4428 H   0  0  0  0  0  0
  -29.6420  -13.5776   17.8242 H   0  0  0  0  0  0
  -27.9086  -11.3092   18.8527 H   0  0  0  0  0  0
  -27.3896  -12.6031   17.7918 H   0  0  0  0  0  0
  -27.7053  -14.2540   19.5634 H   0  0  0  0  0  0
  -28.6221  -12.0071   21.4221 H   0  0  0  0  0  0
  -28.3726  -13.6708   21.8540 H   0  0  0  0  0  0
  -25.2670   -9.5941   22.4672 H   0  0  0  0  0  0
  -23.9994   -7.4776   22.7544 H   0  0  0  0  0  0
  -21.0700   -8.8672   19.8965 H   0  0  0  0  0  0
  -22.3375  -10.9661   19.6089 H   0  0  0  0  0  0
  -21.2086   -7.6126   23.9671 H   0  0  0  0  0  0
  -21.1429   -6.0476   25.9022 H   0  0  0  0  0  0
  -22.0607   -2.7571   23.2777 H   0  0  0  0  0  0
  -22.4154  -12.0097   22.4733 H   0  0  0  0  0  0
  -21.1081  -13.1473   22.2385 H   0  0  0  0  0  0
  -24.6476  -15.8375   20.4951 H   0  0  0  0  0  0
  -26.2784  -15.6303   20.0958 H   0  0  0  0  0  0
  -26.7311  -32.5293   23.0961 H   0  0  0  0  0  0
  -25.0244  -33.9606   25.0440 H   0  0  0  0  0  0
  -22.7357  -31.3124   21.4208 H   0  0  0  0  0  0
  -23.3706  -35.9710   23.3311 H   0  0  0  0  0  0
  -24.3559  -36.8952   22.2007 H   0  0  0  0  0  0
  -23.7334  -37.6570   23.6614 H   0  0  0  0  0  0
  -26.1073  -31.4609   20.5722 H   0  0  0  0  0  0
  -26.8604  -30.7827   21.9997 H   0  0  0  0  0  0
  -28.1018  -28.8430   21.2276 H   0  0  0  0  0  0
  -25.8942  -25.9553   18.8850 H   0  0  0  0  0  0
  -23.9680  -27.3357   18.9147 H   0  0  0  0  0  0
  -23.7836  -30.6180   19.4268 H   0  0  0  0  0  0
  -22.7306  -29.2943   19.8292 H   0  0  0  0  0  0
  -25.1252  -36.1933   25.0785 H   0  0  0  0  0  0
  -21.0067  -28.2998   24.1230 H   0  0  0  0  0  0
  -20.5826  -26.2121   23.3081 H   0  0  0  0  0  0
  -21.6665  -26.7605   22.0682 H   0  0  0  0  0  0
  -19.6967  -25.6810   21.0330 H   0  0  0  0  0  0
  -19.6649  -27.3918   20.6741 H   0  0  0  0  0  0
  -17.4260  -26.7008   21.3577 H   0  0  0  0  0  0
  -18.0317  -25.9993   22.8510 H   0  0  0  0  0  0
  -19.8014  -30.7008   24.2549 H   0  0  0  0  0  0
  -17.5132  -31.6107   24.5264 H   0  0  0  0  0  0
  -15.5419  -30.2950   23.7563 H   0  0  0  0  0  0
  -15.8735  -28.0642   22.7136 H   0  0  0  0  0  0
  -24.5831  -30.7261   25.7755 H   0  0  0  0  0  0
  -24.9022  -32.2960   26.4957 H   0  0  0  0  0  0
  -25.8007  -30.8853   27.0220 H   0  0  0  0  0  0
  -26.2852  -29.6851   24.1134 H   0  0  0  0  0  0
  -27.3985  -29.7170   25.4618 H   0  0  0  0  0  0
  -27.8789  -30.4261   23.9376 H   0  0  0  0  0  0
  -27.2660  -33.3516   26.2260 H   0  0  0  0  0  0
  -28.3857  -32.7068   25.0359 H   0  0  0  0  0  0
  -28.0870  -31.8379   26.5379 H   0  0  0  0  0  0
  -28.2584  -38.0113   24.7450 H   0  0  0  0  0  0
  -28.1068  -36.2666   24.6277 H   0  0  0  0  0  0
  -27.2307  -37.1507   25.8845 H   0  0  0  0  0  0
  -20.9489  -29.9206   21.7181 H   0  0  0  0  0  0
  -26.0176  -38.2900   24.1365 H   0  0  0  0  0  0
  -29.6292  -19.4480   20.6687 H   0  0  0  0  0  0
  -30.0619  -18.6828   24.9133 H   0  0  0  0  0  0
  -30.2050  -17.1378   20.1848 H   0  0  0  0  0  0
  -30.5230  -16.3219   24.4086 H   0  0  0  0  0  0
  -29.1185  -21.5303   19.7149 H   0  0  0  0  0  0
  -28.9332  -22.7114   18.5296 H   0  0  0  0  0  0
  -27.5072  -22.0788   19.3758 H   0  0  0  0  0  0
  -30.8663  -23.1679   20.6713 H   0  0  0  0  0  0
  -30.4022  -24.7090   21.3591 H   0  0  0  0  0  0
  -30.4541  -24.4863   19.6107 H   0  0  0  0  0  0
  -26.8158  -24.7440   20.6468 H   0  0  0  0  0  0
  -27.6435  -24.7316   19.1166 H   0  0  0  0  0  0
  -29.9707  -14.5226   22.6680 H   0  0  0  0  0  0
  -29.7298  -21.2825   21.3586 H   0  0  0  0  0  0
  -28.7362  -20.3214   25.0845 H   0  0  0  0  0  0
  -28.2255  -21.8636   24.4693 H   0  0  0  0  0  0
  1 25  1  0  0  0
  1 30  2  0  0  0
  1 83  1  0  0  0
  2  3  1  0  0  0
  2 25  1  0  0  0
  2 87  1  0  0  0
  2 88  1  0  0  0
  3  4  1  0  0  0
  3 89  1  0  0  0
  3 90  1  0  0  0
  4  5  1  0  0  0
  4 91  1  0  0  0
  4 92  1  0  0  0
  5  6  1  0  0  0
  5 26  1  0  0  0
  5 93  1  0  0  0
  6 25  1  0  0  0
  6 94  1  0  0  0
  6 95  1  0  0  0
  7  8  2  0  0  0
  7 26  1  0  0  0
  7 29  1  0  0  0
  8  9  1  0  0  0
  8 22  1  0  0  0
  9 10  1  0  0  0
  9 27  2  0  0  0
 10 11  2  0  0  0
 10 15  1  0  0  0
 11 12  1  0  0  0
 11 96  1  0  0  0
 12 13  2  0  0  0
 12 97  1  0  0  0
 13 14  1  0  0  0
 13 31  1  0  0  0
 14 15  2  0  0  0
 14 98  1  0  0  0
 15 99  1  0  0  0
 16 17  2  0  0  0
 16 21  1  0  0  0
 16 31  1  0  0  0
 17 18  1  0  0  0
 17100  1  0  0  0
 18 19  2  0  0  0
 18101  1  0  0  0
 19 20  1  0  0  0
 19 24  1  0  0  0
 20 21  2  0  0  0
 20102  1  0  0  0
 21 23  1  0  0  0
 22 28  1  0  0  0
 22 32  2  0  0  0
 26 27  1  0  0  0
 28103  1  0  0  0
 28104  1  0  0  0
 29105  1  0  0  0
 29106  1  0  0  0
 33 34  1  0  0  0
 33 66  1  0  0  0
 33 70  2  0  0  0
 34 36  1  0  0  0
 34 59  1  0  0  0
 34107  1  0  0  0
 35 44  2  0  0  0
 35 45  1  0  0  0
 35 68  1  0  0  0
 36 56  1  0  0  0
 36108  1  0  0  0
 37 39  1  0  0  0
 37 47  1  0  0  0
 37 66  1  0  0  0
 37109  1  0  0  0
 38 43  2  0  0  0
 38 46  1  0  0  0
 38 47  1  0  0  0
 39 64  1  0  0  0
 39 67  2  0  0  0
 40 52  1  0  0  0
 40 53  2  0  0  0
 40 58  1  0  0  0
 41110  1  0  0  0
 41111  1  0  0  0
 41112  1  0  0  0
 41 48  1  0  0  0
 42 43  1  0  0  0
 42 66  1  0  0  0
 42113  1  0  0  0
 42114  1  0  0  0
 43 44  1  0  0  0
 44115  1  0  0  0
 45 46  2  0  0  0
 45116  1  0  0  0
 46117  1  0  0  0
 47118  1  0  0  0
 47119  1  0  0  0
 48 56  1  0  0  0
 48 65  1  0  0  0
 48120  1  0  0  0
 49 50  1  0  0  0
 49 53  1  0  0  0
 49 64  1  0  0  0
 49121  1  0  0  0
 50 51  1  0  0  0
 50122  1  0  0  0
 50123  1  0  0  0
 51 52  1  0  0  0
 51124  1  0  0  0
 51125  1  0  0  0
 52126  1  0  0  0
 52127  1  0  0  0
 53 54  1  0  0  0
 54 55  2  0  0  0
 54128  1  0  0  0
 55 57  1  0  0  0
 55129  1  0  0  0
 56 69  2  0  0  0
 57 58  2  0  0  0
 57130  1  0  0  0
 58131  1  0  0  0
 59 60  1  0  0  0
 59 61  1  0  0  0
 59 62  1  0  0  0
 60132  1  0  0  0
 60133  1  0  0  0
 60134  1  0  0  0
 61135  1  0  0  0
 61136  1  0  0  0
 61137  1  0  0  0
 62138  1  0  0  0
 62139  1  0  0  0
 62140  1  0  0  0
 63 65  1  0  0  0
 63141  1  0  0  0
 63142  1  0  0  0
 63143  1  0  0  0
 64144  1  0  0  0
 65145  1  0  0  0
 68 81  1  0  0  0
 71 73  2  0  0  0
 71 75  1  0  0  0
 71146  1  0  0  0
 72 74  1  0  0  0
 72 75  2  0  0  0
 72147  1  0  0  0
 73 76  1  0  0  0
 73148  1  0  0  0
 74 76  2  0  0  0
 74149  1  0  0  0
 75 77  1  0  0  0
 76 83  1  0  0  0
 77 84  1  0  0  0
 77 85  2  0  0  0
 78 82  1  0  0  0
 78 84  1  0  0  0
 78 86  2  0  0  0
 79150  1  0  0  0
 79151  1  0  0  0
 79152  1  0  0  0
 79 82  1  0  0  0
 80 82  1  0  0  0
 80153  1  0  0  0
 80154  1  0  0  0
 80155  1  0  0  0
 81 82  1  0  0  0
 81156  1  0  0  0
 81157  1  0  0  0
 83158  1  0  0  0
 84159  1  0  0  0
 85160  1  0  0  0
 85161  1  0  0  0
M  CHG  1  85   1
M  ISO  4   1 100  68 101  81 101  83 100
M  END
> <chiral flag>
0

> <version>
0

> <s_m_source_file>
/data/baiqing/PycharmProjects/Reinvent-master-3.2/result/LINK_invent/BTK/process_docking_weight1_custom_product_contain_oxygen_bond_distance_aromatic_linkinvent_7_9_3/rearranged_h_0079.sdf

> <i_m_source_file_index>
86

> <r_mmod_Potential_Energy-OPLS-2005>
-127.318061828613

> <r_mmod_Stretch_Energy-OPLS-2005>
89.416748046875

> <r_mmod_Bend_Energy-OPLS-2005>
163.246978759766

> <r_mmod_Torsional_Energy-OPLS-2005>
258.351470947266

> <r_mmod_Improper_Torsional_Energy-OPLS-2005>
5.32147264480591

> <r_mmod_Van_der_Waal_Energy-OPLS-2005>
164.531814575195

> <r_mmod_Electrostatic_Energy-OPLS-2005>
-426.183044433594

> <r_mmod_Solvation_Energy-OPLS-2005>
-451.514373779297

> <b_mmod_Minimization_Converged-OPLS-2005>
0

> <r_mmod_RMS_Derivative-OPLS-2005>
12.1625823974609

$$$$
86
                    3D
 Structure written by MMmdl.
156165  0  0  1  0            999 V2000
  -30.6010  -14.6952   20.4611 C   0  0  0  0  0  0
  -30.4453  -12.4223   19.4506 C   0  0  0  0  0  0
  -29.5090  -12.5070   18.2239 C   0  0  0  0  0  0
  -28.0330  -12.3384   18.6405 C   0  0  0  0  0  0
  -27.6491  -13.2198   19.8594 C   0  0  2  0  0  0
  -28.7012  -13.1040   20.9857 C   0  0  0  0  0  0
  -25.2523  -13.8145   20.5743 C   0  0  0  0  0  0
  -24.1800  -13.0390   20.9184 C   0  0  0  0  0  0
  -24.6395  -11.6878   20.8724 C   0  0  0  0  0  0
  -23.9070  -10.4267   21.0391 C   0  0  0  0  0  0
  -24.3617   -9.4192   21.9180 C   0  0  0  0  0  0
  -23.6287   -8.2232   22.0756 C   0  0  0  0  0  0
  -22.4268   -8.0271   21.3544 C   0  0  0  0  0  0
  -21.9907   -9.0242   20.4644 C   0  0  0  0  0  0
  -22.7240  -10.2116   20.3045 C   0  0  0  0  0  0
  -21.6848   -6.0732   22.5281 C   0  0  0  0  0  0
  -21.4008   -6.5638   23.8213 C   0  0  0  0  0  0
  -21.3659   -5.6791   24.9175 C   0  0  0  0  0  0
  -21.6044   -4.3054   24.7225 C   0  0  0  0  0  0
  -21.8821   -3.8146   23.4347 C   0  0  0  0  0  0
  -21.9194   -4.6962   22.3403 C   0  0  0  0  0  0
  -22.7824  -13.5184   21.1850 C   0  0  0  0  0  0
  -22.1662   -4.2150   21.0979 F   0  0  0  0  0  0
  -21.5632   -3.4538   25.7739 F   0  0  0  0  0  0
  -30.0088  -13.4567   20.4093 N   0  0  0  0  0  0
  -26.2979  -12.9359   20.3348 N   0  0  0  0  0  0
  -25.9331  -11.6501   20.5763 N   0  0  0  0  0  0
  -22.0472  -12.8184   22.0413 N   0  0  0  0  0  0
  -25.4070  -15.1890   20.4328 N   0  0  0  0  0  0
  -31.7856  -14.8506   20.1504 O   0  0  0  0  0  0
  -21.6628   -6.8872   21.4242 O   0  0  0  0  0  0
  -22.3511  -14.5499   20.6710 O   0  0  0  0  0  0
  -24.6281  -31.8576   23.2007 C   0  0  0  0  0  0
  -25.9118  -32.4768   23.8344 C   0  0  1  0  0  0
  -27.2255  -27.2963   20.1221 C   0  0  0  0  0  0
  -25.5926  -33.8569   24.2270 N   0  0  0  0  0  0
  -23.4237  -30.4803   21.5432 C   0  0  2  0  0  0
  -24.8730  -28.9328   20.1096 C   0  0  0  0  0  0
  -22.7485  -29.4608   22.4920 C   0  0  0  0  0  0
  -18.0287  -28.1384   22.8485 C   0  0  0  0  0  0
  -24.1488  -36.7286   23.2639 C   0  0  0  0  0  0
  -25.9670  -30.7797   21.3776 C   0  0  0  0  0  0
  -26.0419  -29.4044   20.7218 C   0  0  0  0  0  0
  -27.2212  -28.5963   20.7224 C   0  0  0  0  0  0
  -26.0391  -26.8910   19.4706 C   0  0  0  0  0  0
  -24.8744  -27.6815   19.4744 C   0  0  0  0  0  0
  -23.6408  -29.8142   20.1592 C   0  0  0  0  0  0
  -25.4116  -36.3078   24.0326 C   0  0  1  0  0  0
  -20.5889  -28.3688   23.1274 C   0  0  2  0  0  0
  -20.6773  -26.9408   22.5407 C   0  0  0  0  0  0
  -19.5750  -26.6378   21.5209 C   0  0  0  0  0  0
  -18.1929  -26.7927   22.1621 C   0  0  0  0  0  0
  -19.1541  -28.8853   23.2873 C   0  0  0  0  0  0
  -18.9462  -30.1456   23.8887 C   0  0  0  0  0  0
  -17.6464  -30.6587   24.0559 C   0  0  0  0  0  0
  -25.9055  -34.9447   23.5101 C   0  0  0  0  0  0
  -16.5355  -29.9084   23.6333 C   0  0  0  0  0  0
  -16.7277  -28.6503   23.0354 C   0  0  0  0  0  0
  -26.4494  -31.6583   25.0722 C   0  0  0  0  0  0
  -25.3721  -31.3718   26.1443 C   0  0  0  0  0  0
  -27.0338  -30.3003   24.6190 C   0  0  0  0  0  0
  -27.6048  -32.4318   25.7501 C   0  0  0  0  0  0
  -27.5578  -37.1800   24.8466 C   0  0  0  0  0  0
  -21.4195  -29.3040   22.3665 N   0  0  0  0  0  0
  -26.4292  -37.3776   23.9407 N   0  0  0  0  0  0
  -24.6916  -31.0563   22.0972 N   0  0  0  0  0  0
  -23.4197  -28.8146   23.3007 O   0  0  0  0  0  0
  -28.3199  -26.4096   20.1526 O   0  0  0  0  0  0
  -26.5627  -34.8917   22.4669 O   0  0  0  0  0  0
  -23.5438  -32.1386   23.7319 O   0  0  0  0  0  0
  -28.5774  -19.3400   20.0734 C   0  0  0  0  0  0
  -30.9444  -18.0344   20.8039 C   0  0  0  0  0  0
  -29.6841  -20.1800   20.3856 C   0  0  0  0  0  0
  -28.6553  -17.9123   20.1097 C   0  0  0  0  0  0
  -29.8288  -17.2119   20.5005 C   0  0  0  0  0  0
  -30.8771  -19.4667   20.7401 C   0  0  0  0  0  0
  -28.9188  -23.9365   20.2339 C   0  0  0  0  0  0
  -30.2927  -23.8891   19.8192 C   0  0  0  0  0  0
  -28.5469  -22.5168   20.5044 C   0  0  0  0  0  0
  -31.0256  -24.9326   19.3938 C   0  0  0  0  0  0
  -28.0777  -25.0269   20.3819 C   0  0  0  0  0  0
  -30.8007  -22.4668   19.9129 C   0  0  0  0  0  0
  -29.6202  -21.6680   20.2889 N   0  0  0  0  0  0
  -27.5515  -17.1640   19.7060 N   0  0  0  0  0  0
  -29.7412  -15.7497   20.6501 N   0  0  0  0  0  0
  -27.4339  -22.1350   20.8817 O   0  0  0  0  0  0
  -31.9989  -20.1520   21.0624 F   0  0  0  0  0  0
  -31.4834  -12.5616   19.1429 H   0  0  0  0  0  0
  -30.3965  -11.4333   19.9087 H   0  0  0  0  0  0
  -29.7788  -11.7462   17.4902 H   0  0  0  0  0  0
  -29.6408  -13.4694   17.7266 H   0  0  0  0  0  0
  -27.8792  -11.2866   18.8841 H   0  0  0  0  0  0
  -27.3754  -12.5529   17.7972 H   0  0  0  0  0  0
  -27.6503  -14.2482   19.5012 H   0  0  0  0  0  0
  -28.7263  -12.0900   21.3873 H   0  0  0  0  0  0
  -28.4475  -13.7539   21.8252 H   0  0  0  0  0  0
  -25.2762   -9.5670   22.4756 H   0  0  0  0  0  0
  -23.9993   -7.4626   22.7479 H   0  0  0  0  0  0
  -21.0839   -8.8760   19.8952 H   0  0  0  0  0  0
  -22.3702  -10.9652   19.6151 H   0  0  0  0  0  0
  -21.1993   -7.6146   23.9718 H   0  0  0  0  0  0
  -21.1482   -6.0520   25.9079 H   0  0  0  0  0  0
  -22.0603   -2.7608   23.2847 H   0  0  0  0  0  0
  -22.4082  -11.9838   22.4794 H   0  0  0  0  0  0
  -21.1096  -13.1219   22.2628 H   0  0  0  0  0  0
  -24.6268  -15.8181   20.5821 H   0  0  0  0  0  0
  -26.2679  -15.6971   20.2314 H   0  0  0  0  0  0
  -26.7186  -32.5434   23.1090 H   0  0  0  0  0  0
  -25.0060  -33.9712   25.0406 H   0  0  0  0  0  0
  -22.7186  -31.3012   21.3976 H   0  0  0  0  0  0
  -23.3751  -35.9619   23.3310 H   0  0  0  0  0  0
  -24.3574  -36.8902   22.2052 H   0  0  0  0  0  0
  -23.7242  -37.6488   23.6660 H   0  0  0  0  0  0
  -26.1014  -31.5407   20.6075 H   0  0  0  0  0  0
  -26.8463  -30.8300   22.0081 H   0  0  0  0  0  0
  -28.1172  -28.9501   21.2126 H   0  0  0  0  0  0
  -25.9987  -25.9341   18.9694 H   0  0  0  0  0  0
  -23.9820  -27.3171   18.9843 H   0  0  0  0  0  0
  -23.7603  -30.5897   19.4018 H   0  0  0  0  0  0
  -22.7607  -29.2435   19.8574 H   0  0  0  0  0  0
  -25.1299  -36.1927   25.0819 H   0  0  0  0  0  0
  -20.9983  -28.3265   24.1395 H   0  0  0  0  0  0
  -20.5666  -26.2299   23.3610 H   0  0  0  0  0  0
  -21.6642  -26.7431   22.1202 H   0  0  0  0  0  0
  -19.6908  -25.6286   21.1244 H   0  0  0  0  0  0
  -19.6687  -27.3184   20.6735 H   0  0  0  0  0  0
  -17.4197  -26.6675   21.4024 H   0  0  0  0  0  0
  -18.0327  -26.0070   22.9017 H   0  0  0  0  0  0
  -19.7937  -30.7273   24.2251 H   0  0  0  0  0  0
  -17.5019  -31.6268   24.5157 H   0  0  0  0  0  0
  -15.5356  -30.2986   23.7658 H   0  0  0  0  0  0
  -15.8676  -28.0823   22.7072 H   0  0  0  0  0  0
  -24.5904  -30.7062   25.7762 H   0  0  0  0  0  0
  -24.8904  -32.2883   26.4862 H   0  0  0  0  0  0
  -25.8044  -30.8896   27.0221 H   0  0  0  0  0  0
  -26.2915  -29.6749   24.1217 H   0  0  0  0  0  0
  -27.4025  -29.7263   25.4700 H   0  0  0  0  0  0
  -27.8791  -30.4273   23.9423 H   0  0  0  0  0  0
  -27.2657  -33.3621   26.2069 H   0  0  0  0  0  0
  -28.3873  -32.6874   25.0343 H   0  0  0  0  0  0
  -28.0701  -31.8448   26.5429 H   0  0  0  0  0  0
  -28.2598  -38.0096   24.7516 H   0  0  0  0  0  0
  -28.1075  -36.2628   24.6296 H   0  0  0  0  0  0
  -27.2293  -37.1450   25.8869 H   0  0  0  0  0  0
  -20.9371  -29.8779   21.6889 H   0  0  0  0  0  0
  -26.0171  -38.2848   24.1412 H   0  0  0  0  0  0
  -27.6513  -19.8001   19.7617 H   0  0  0  0  0  0
  -31.8700  -17.5744   21.1154 H   0  0  0  0  0  0
  -30.6194  -25.9317   19.3345 H   0  0  0  0  0  0
  -32.0556  -24.8015   19.0939 H   0  0  0  0  0  0
  -27.0700  -24.8605   20.7390 H   0  0  0  0  0  0
  -31.5771  -22.4209   20.6757 H   0  0  0  0  0  0
  -31.2109  -22.1321   18.9592 H   0  0  0  0  0  0
  -26.7912  -17.7181   19.3254 H   0  0  0  0  0  0
  -27.7979  -16.4412   19.0392 H   0  0  0  0  0  0
  -28.7864  -15.4482   20.7713 H   0  0  0  0  0  0
  1 25  1  0  0  0
  1 30  2  0  0  0
  1 85  1  0  0  0
  2  3  1  0  0  0
  2 25  1  0  0  0
  2 88  1  0  0  0
  2 89  1  0  0  0
  3  4  1  0  0  0
  3 90  1  0  0  0
  3 91  1  0  0  0
  4  5  1  0  0  0
  4 92  1  0  0  0
  4 93  1  0  0  0
  5  6  1  0  0  0
  5 26  1  0  0  0
  5 94  1  0  0  0
  6 25  1  0  0  0
  6 95  1  0  0  0
  6 96  1  0  0  0
  7  8  2  0  0  0
  7 26  1  0  0  0
  7 29  1  0  0  0
  8  9  1  0  0  0
  8 22  1  0  0  0
  9 10  1  0  0  0
  9 27  2  0  0  0
 10 11  2  0  0  0
 10 15  1  0  0  0
 11 12  1  0  0  0
 11 97  1  0  0  0
 12 13  2  0  0  0
 12 98  1  0  0  0
 13 14  1  0  0  0
 13 31  1  0  0  0
 14 15  2  0  0  0
 14 99  1  0  0  0
 15100  1  0  0  0
 16 17  2  0  0  0
 16 21  1  0  0  0
 16 31  1  0  0  0
 17 18  1  0  0  0
 17101  1  0  0  0
 18 19  2  0  0  0
 18102  1  0  0  0
 19 20  1  0  0  0
 19 24  1  0  0  0
 20 21  2  0  0  0
 20103  1  0  0  0
 21 23  1  0  0  0
 22 28  1  0  0  0
 22 32  2  0  0  0
 26 27  1  0  0  0
 28104  1  0  0  0
 28105  1  0  0  0
 29106  1  0  0  0
 29107  1  0  0  0
 33 34  1  0  0  0
 33 66  1  0  0  0
 33 70  2  0  0  0
 34 36  1  0  0  0
 34 59  1  0  0  0
 34108  1  0  0  0
 35 44  2  0  0  0
 35 45  1  0  0  0
 35 68  1  0  0  0
 36 56  1  0  0  0
 36109  1  0  0  0
 37 39  1  0  0  0
 37 47  1  0  0  0
 37 66  1  0  0  0
 37110  1  0  0  0
 38 43  2  0  0  0
 38 46  1  0  0  0
 38 47  1  0  0  0
 39 64  1  0  0  0
 39 67  2  0  0  0
 40 52  1  0  0  0
 40 53  2  0  0  0
 40 58  1  0  0  0
 41111  1  0  0  0
 41112  1  0  0  0
 41113  1  0  0  0
 41 48  1  0  0  0
 42 43  1  0  0  0
 42 66  1  0  0  0
 42114  1  0  0  0
 42115  1  0  0  0
 43 44  1  0  0  0
 44116  1  0  0  0
 45 46  2  0  0  0
 45117  1  0  0  0
 46118  1  0  0  0
 47119  1  0  0  0
 47120  1  0  0  0
 48 56  1  0  0  0
 48 65  1  0  0  0
 48121  1  0  0  0
 49 50  1  0  0  0
 49 53  1  0  0  0
 49 64  1  0  0  0
 49122  1  0  0  0
 50 51  1  0  0  0
 50123  1  0  0  0
 50124  1  0  0  0
 51 52  1  0  0  0
 51125  1  0  0  0
 51126  1  0  0  0
 52127  1  0  0  0
 52128  1  0  0  0
 53 54  1  0  0  0
 54 55  2  0  0  0
 54129  1  0  0  0
 55 57  1  0  0  0
 55130  1  0  0  0
 56 69  2  0  0  0
 57 58  2  0  0  0
 57131  1  0  0  0
 58132  1  0  0  0
 59 60  1  0  0  0
 59 61  1  0  0  0
 59 62  1  0  0  0
 60133  1  0  0  0
 60134  1  0  0  0
 60135  1  0  0  0
 61136  1  0  0  0
 61137  1  0  0  0
 61138  1  0  0  0
 62139  1  0  0  0
 62140  1  0  0  0
 62141  1  0  0  0
 63 65  1  0  0  0
 63142  1  0  0  0
 63143  1  0  0  0
 63144  1  0  0  0
 64145  1  0  0  0
 65146  1  0  0  0
 68 81  1  0  0  0
 71 73  2  0  0  0
 71 74  1  0  0  0
 71147  1  0  0  0
 72 75  1  0  0  0
 72 76  2  0  0  0
 72148  1  0  0  0
 73 76  1  0  0  0
 73 83  1  0  0  0
 74 75  2  0  0  0
 74 84  1  0  0  0
 75 85  1  0  0  0
 76 87  1  0  0  0
 77 78  1  0  0  0
 77 79  1  0  0  0
 77 81  2  0  0  0
 78 80  2  0  0  0
 78 82  1  0  0  0
 79 83  1  0  0  0
 79 86  2  0  0  0
 80149  1  0  0  0
 80150  1  0  0  0
 81151  1  0  0  0
 82 83  1  0  0  0
 82152  1  0  0  0
 82153  1  0  0  0
 84154  1  0  0  0
 84155  1  0  0  0
 85156  1  0  0  0
M  ISO  4   1 100  68 101  81 101  85 100
M  END
> <chiral flag>
0

> <version>
0

> <s_m_source_file>
/data/baiqing/PycharmProjects/Reinvent-master-3.2/result/LINK_invent/BTK/process_docking_weight1_custom_product_contain_oxygen_bond_distance_aromatic_linkinvent_7_9_3/rearranged_h_0079.sdf

> <i_m_source_file_index>
87

> <r_mmod_Potential_Energy-OPLS-2005>
104.057113647461

> <r_mmod_Stretch_Energy-OPLS-2005>
93.0529632568359

> <r_mmod_Bend_Energy-OPLS-2005>
194.636520385742

> <r_mmod_Torsional_Energy-OPLS-2005>
277.017944335938

> <r_mmod_Improper_Torsional_Energy-OPLS-2005>
11.4835233688354

> <r_mmod_Van_der_Waal_Energy-OPLS-2005>
147.686462402344

> <r_mmod_Electrostatic_Energy-OPLS-2005>
-481.561553955078

> <r_mmod_Solvation_Energy-OPLS-2005>
-204.734405517578

> <b_mmod_Minimization_Converged-OPLS-2005>
0

> <r_mmod_RMS_Derivative-OPLS-2005>
0.503470897674561

$$$$
87
                    3D
 Structure written by MMmdl.
153161  0  0  1  0            999 V2000
  -30.6044  -14.7712   20.4482 C   0  0  0  0  0  0
  -30.4395  -12.4753   19.4546 C   0  0  0  0  0  0
  -29.5077  -12.5018   18.2236 C   0  0  0  0  0  0
  -28.0356  -12.3199   18.6464 C   0  0  0  0  0  0
  -27.6371  -13.2295   19.8390 C   0  0  2  0  0  0
  -28.6893  -13.1883   20.9671 C   0  0  0  0  0  0
  -25.2498  -13.8182   20.5689 C   0  0  0  0  0  0
  -24.1792  -13.0426   20.9205 C   0  0  0  0  0  0
  -24.6384  -11.6907   20.8739 C   0  0  0  0  0  0
  -23.9061  -10.4286   21.0404 C   0  0  0  0  0  0
  -24.3612   -9.4203   21.9185 C   0  0  0  0  0  0
  -23.6288   -8.2238   22.0755 C   0  0  0  0  0  0
  -22.4271   -8.0274   21.3542 C   0  0  0  0  0  0
  -21.9902   -9.0246   20.4643 C   0  0  0  0  0  0
  -22.7229  -10.2126   20.3054 C   0  0  0  0  0  0
  -21.6853   -6.0723   22.5270 C   0  0  0  0  0  0
  -21.4016   -6.5631   23.8202 C   0  0  0  0  0  0
  -21.3665   -5.6788   24.9168 C   0  0  0  0  0  0
  -21.6044   -4.3048   24.7223 C   0  0  0  0  0  0
  -21.8820   -3.8135   23.4346 C   0  0  0  0  0  0
  -21.9194   -4.6949   22.3399 C   0  0  0  0  0  0
  -22.7813  -13.5210   21.1863 C   0  0  0  0  0  0
  -22.1662   -4.2135   21.0976 F   0  0  0  0  0  0
  -21.5636   -3.4535   25.7742 F   0  0  0  0  0  0
  -29.9796  -13.5467   20.3639 N   0  0  0  0  0  0
  -26.2921  -12.9384   20.3249 N   0  0  0  0  0  0
  -25.9312  -11.6530   20.5733 N   0  0  0  0  0  0
  -22.0467  -12.8202   22.0426 N   0  0  0  0  0  0
  -25.4164  -15.1910   20.4111 N   0  0  0  0  0  0
  -31.8190  -14.8546   20.2474 O   0  0  0  0  0  0
  -21.6638   -6.8868   21.4236 O   0  0  0  0  0  0
  -22.3494  -14.5517   20.6714 O   0  0  0  0  0  0
  -24.6356  -31.8550   23.1959 C   0  0  0  0  0  0
  -25.9174  -32.4753   23.8319 C   0  0  1  0  0  0
  -27.2219  -27.2406   20.1125 C   0  0  0  0  0  0
  -25.5959  -33.8550   24.2256 N   0  0  0  0  0  0
  -23.4313  -30.4788   21.5427 C   0  0  2  0  0  0
  -24.8750  -28.9230   20.1154 C   0  0  0  0  0  0
  -22.7517  -29.4615   22.4920 C   0  0  0  0  0  0
  -18.0294  -28.1409   22.8488 C   0  0  0  0  0  0
  -24.1484  -36.7259   23.2643 C   0  0  0  0  0  0
  -25.9818  -30.7627   21.3753 C   0  0  0  0  0  0
  -26.0542  -29.3838   20.7145 C   0  0  0  0  0  0
  -27.2302  -28.5597   20.6935 C   0  0  0  0  0  0
  -25.9976  -26.8421   19.5276 C   0  0  0  0  0  0
  -24.8529  -27.6591   19.5132 C   0  0  0  0  0  0
  -23.6491  -29.8140   20.1599 C   0  0  0  0  0  0
  -25.4115  -36.3057   24.0330 C   0  0  1  0  0  0
  -20.5900  -28.3714   23.1276 C   0  0  2  0  0  0
  -20.6779  -26.9433   22.5413 C   0  0  0  0  0  0
  -19.5746  -26.6399   21.5221 C   0  0  0  0  0  0
  -18.1930  -26.7950   22.1634 C   0  0  0  0  0  0
  -19.1551  -28.8876   23.2877 C   0  0  0  0  0  0
  -18.9470  -30.1475   23.8899 C   0  0  0  0  0  0
  -17.6471  -30.6607   24.0565 C   0  0  0  0  0  0
  -25.9062  -34.9436   23.5090 C   0  0  0  0  0  0
  -16.5361  -29.9105   23.6340 C   0  0  0  0  0  0
  -16.7281  -28.6523   23.0361 C   0  0  0  0  0  0
  -26.4526  -31.6576   25.0714 C   0  0  0  0  0  0
  -25.3738  -31.3728   26.1424 C   0  0  0  0  0  0
  -27.0373  -30.2993   24.6201 C   0  0  0  0  0  0
  -27.6076  -32.4306   25.7501 C   0  0  0  0  0  0
  -27.5573  -37.1798   24.8478 C   0  0  0  0  0  0
  -21.4221  -29.3057   22.3662 N   0  0  0  0  0  0
  -26.4288  -37.3761   23.9415 N   0  0  0  0  0  0
  -24.7029  -31.0499   22.0945 N   0  0  0  0  0  0
  -23.4211  -28.8164   23.3031 O   0  0  0  0  0  0
  -28.3340  -26.3492   20.1369 O   0  0  0  0  0  0
  -26.5626  -34.8911   22.4657 O   0  0  0  0  0  0
  -23.5502  -32.1380   23.7251 O   0  0  0  0  0  0
  -30.6851  -18.7123   22.7889 C   0  0  0  0  0  0
  -30.2597  -19.8872   22.1363 C   0  0  0  0  0  0
  -30.5833  -17.4486   22.1760 C   0  0  0  0  0  0
  -29.6178  -18.5439   20.2218 C   0  0  0  0  0  0
  -29.7334  -19.8745   20.8246 C   0  0  0  0  0  0
  -30.0325  -17.3036   20.8857 C   0  0  0  0  0  0
  -29.4750  -21.2896   20.1942 C   0  0  0  0  0  0
  -28.1178  -24.6650   18.3308 C   0  0  0  0  0  0
  -29.3229  -23.8213   20.3779 C   0  0  0  0  0  0
  -28.1824  -24.8618   19.8623 C   0  0  1  0  0  0
  -28.9940  -22.3755   20.7753 N   0  0  0  0  0  0
  -29.8073  -15.9135   20.4046 N   0  0  0  0  0  0
  -31.4758  -12.6194   19.1429 H   0  0  0  0  0  0
  -30.4044  -11.5057   19.9535 H   0  0  0  0  0  0
  -29.7924  -11.7222   17.5156 H   0  0  0  0  0  0
  -29.6239  -13.4496   17.6950 H   0  0  0  0  0  0
  -27.9006  -11.2739   18.9227 H   0  0  0  0  0  0
  -27.3739  -12.4986   17.7979 H   0  0  0  0  0  0
  -27.6192  -14.2431   19.4411 H   0  0  0  0  0  0
  -28.7365  -12.2000   21.4255 H   0  0  0  0  0  0
  -28.4259  -13.8888   21.7621 H   0  0  0  0  0  0
  -25.2759   -9.5678   22.4754 H   0  0  0  0  0  0
  -23.9994   -7.4629   22.7473 H   0  0  0  0  0  0
  -21.0835   -8.8758   19.8951 H   0  0  0  0  0  0
  -22.3684  -10.9663   19.6157 H   0  0  0  0  0  0
  -21.2009   -7.6141   23.9702 H   0  0  0  0  0  0
  -21.1489   -6.0519   25.9070 H   0  0  0  0  0  0
  -22.0597   -2.7597   23.2848 H   0  0  0  0  0  0
  -22.4092  -11.9866   22.4823 H   0  0  0  0  0  0
  -21.1079  -13.1219   22.2638 H   0  0  0  0  0  0
  -24.6467  -15.8414   20.5262 H   0  0  0  0  0  0
  -26.2623  -15.6386   20.0840 H   0  0  0  0  0  0
  -26.7241  -32.5392   23.1059 H   0  0  0  0  0  0
  -25.0111  -33.9679   25.0404 H   0  0  0  0  0  0
  -22.7288  -31.3021   21.3972 H   0  0  0  0  0  0
  -23.3751  -35.9589   23.3308 H   0  0  0  0  0  0
  -24.3568  -36.8873   22.2057 H   0  0  0  0  0  0
  -23.7229  -37.6460   23.6655 H   0  0  0  0  0  0
  -26.1237  -31.5239   20.6064 H   0  0  0  0  0  0
  -26.8591  -30.8102   22.0097 H   0  0  0  0  0  0
  -28.1366  -28.9166   21.1628 H   0  0  0  0  0  0
  -25.8698  -25.8645   19.0949 H   0  0  0  0  0  0
  -23.9445  -27.2899   19.0575 H   0  0  0  0  0  0
  -23.7819  -30.5910   19.4063 H   0  0  0  0  0  0
  -22.7646  -29.2546   19.8494 H   0  0  0  0  0  0
  -25.1297  -36.1901   25.0822 H   0  0  0  0  0  0
  -20.9993  -28.3293   24.1398 H   0  0  0  0  0  0
  -20.5680  -26.2329   23.3621 H   0  0  0  0  0  0
  -21.6646  -26.7460   22.1206 H   0  0  0  0  0  0
  -19.6896  -25.6306   21.1256 H   0  0  0  0  0  0
  -19.6675  -27.3206   20.6746 H   0  0  0  0  0  0
  -17.4198  -26.6705   21.4040 H   0  0  0  0  0  0
  -18.0325  -26.0102   22.9039 H   0  0  0  0  0  0
  -19.7947  -30.7289   24.2280 H   0  0  0  0  0  0
  -17.5028  -31.6287   24.5166 H   0  0  0  0  0  0
  -15.5363  -30.3009   23.7665 H   0  0  0  0  0  0
  -15.8682  -28.0836   22.7094 H   0  0  0  0  0  0
  -24.5931  -30.7054   25.7755 H   0  0  0  0  0  0
  -24.8907  -32.2897   26.4815 H   0  0  0  0  0  0
  -25.8060  -30.8939   27.0221 H   0  0  0  0  0  0
  -26.2971  -29.6742   24.1198 H   0  0  0  0  0  0
  -27.4026  -29.7250   25.4725 H   0  0  0  0  0  0
  -27.8852  -30.4265   23.9465 H   0  0  0  0  0  0
  -27.2694  -33.3617   26.2061 H   0  0  0  0  0  0
  -28.3916  -32.6853   25.0353 H   0  0  0  0  0  0
  -28.0707  -31.8432   26.5440 H   0  0  0  0  0  0
  -28.2616  -38.0073   24.7505 H   0  0  0  0  0  0
  -28.1043  -36.2605   24.6328 H   0  0  0  0  0  0
  -27.2288  -37.1483   25.8882 H   0  0  0  0  0  0
  -20.9415  -29.8773   21.6855 H   0  0  0  0  0  0
  -26.0154  -38.2835   24.1405 H   0  0  0  0  0  0
  -31.1001  -18.7836   23.7850 H   0  0  0  0  0  0
  -30.3836  -20.8321   22.6483 H   0  0  0  0  0  0
  -30.9001  -16.5786   22.7344 H   0  0  0  0  0  0
  -29.2048  -18.4787   19.2256 H   0  0  0  0  0  0
  -29.8591  -21.3814   19.1745 H   0  0  0  0  0  0
  -27.8480  -23.6371   18.0846 H   0  0  0  0  0  0
  -29.0884  -24.8644   17.8759 H   0  0  0  0  0  0
  -27.4122  -25.3149   17.8205 H   0  0  0  0  0  0
  -29.7438  -24.2893   21.2682 H   0  0  0  0  0  0
  -30.1590  -23.8314   19.6749 H   0  0  0  0  0  0
  -27.2450  -24.5449   20.3198 H   0  0  0  0  0  0
  -28.8535  -15.7202   20.1420 H   0  0  0  0  0  0
  1 25  1  0  0  0
  1 30  2  0  0  0
  1 82  1  0  0  0
  2  3  1  0  0  0
  2 25  1  0  0  0
  2 83  1  0  0  0
  2 84  1  0  0  0
  3  4  1  0  0  0
  3 85  1  0  0  0
  3 86  1  0  0  0
  4  5  1  0  0  0
  4 87  1  0  0  0
  4 88  1  0  0  0
  5  6  1  0  0  0
  5 26  1  0  0  0
  5 89  1  0  0  0
  6 25  1  0  0  0
  6 90  1  0  0  0
  6 91  1  0  0  0
  7  8  2  0  0  0
  7 26  1  0  0  0
  7 29  1  0  0  0
  8  9  1  0  0  0
  8 22  1  0  0  0
  9 10  1  0  0  0
  9 27  2  0  0  0
 10 11  2  0  0  0
 10 15  1  0  0  0
 11 12  1  0  0  0
 11 92  1  0  0  0
 12 13  2  0  0  0
 12 93  1  0  0  0
 13 14  1  0  0  0
 13 31  1  0  0  0
 14 15  2  0  0  0
 14 94  1  0  0  0
 15 95  1  0  0  0
 16 17  2  0  0  0
 16 21  1  0  0  0
 16 31  1  0  0  0
 17 18  1  0  0  0
 17 96  1  0  0  0
 18 19  2  0  0  0
 18 97  1  0  0  0
 19 20  1  0  0  0
 19 24  1  0  0  0
 20 21  2  0  0  0
 20 98  1  0  0  0
 21 23  1  0  0  0
 22 28  1  0  0  0
 22 32  2  0  0  0
 26 27  1  0  0  0
 28 99  1  0  0  0
 28100  1  0  0  0
 29101  1  0  0  0
 29102  1  0  0  0
 33 34  1  0  0  0
 33 66  1  0  0  0
 33 70  2  0  0  0
 34 36  1  0  0  0
 34 59  1  0  0  0
 34103  1  0  0  0
 35 44  2  0  0  0
 35 45  1  0  0  0
 35 68  1  0  0  0
 36 56  1  0  0  0
 36104  1  0  0  0
 37 39  1  0  0  0
 37 47  1  0  0  0
 37 66  1  0  0  0
 37105  1  0  0  0
 38 43  2  0  0  0
 38 46  1  0  0  0
 38 47  1  0  0  0
 39 64  1  0  0  0
 39 67  2  0  0  0
 40 52  1  0  0  0
 40 53  2  0  0  0
 40 58  1  0  0  0
 41106  1  0  0  0
 41107  1  0  0  0
 41108  1  0  0  0
 41 48  1  0  0  0
 42 43  1  0  0  0
 42 66  1  0  0  0
 42109  1  0  0  0
 42110  1  0  0  0
 43 44  1  0  0  0
 44111  1  0  0  0
 45 46  2  0  0  0
 45112  1  0  0  0
 46113  1  0  0  0
 47114  1  0  0  0
 47115  1  0  0  0
 48 56  1  0  0  0
 48 65  1  0  0  0
 48116  1  0  0  0
 49 50  1  0  0  0
 49 53  1  0  0  0
 49 64  1  0  0  0
 49117  1  0  0  0
 50 51  1  0  0  0
 50118  1  0  0  0
 50119  1  0  0  0
 51 52  1  0  0  0
 51120  1  0  0  0
 51121  1  0  0  0
 52122  1  0  0  0
 52123  1  0  0  0
 53 54  1  0  0  0
 54 55  2  0  0  0
 54124  1  0  0  0
 55 57  1  0  0  0
 55125  1  0  0  0
 56 69  2  0  0  0
 57 58  2  0  0  0
 57126  1  0  0  0
 58127  1  0  0  0
 59 60  1  0  0  0
 59 61  1  0  0  0
 59 62  1  0  0  0
 60128  1  0  0  0
 60129  1  0  0  0
 60130  1  0  0  0
 61131  1  0  0  0
 61132  1  0  0  0
 61133  1  0  0  0
 62134  1  0  0  0
 62135  1  0  0  0
 62136  1  0  0  0
 63 65  1  0  0  0
 63137  1  0  0  0
 63138  1  0  0  0
 63139  1  0  0  0
 64140  1  0  0  0
 65141  1  0  0  0
 68 80  1  0  0  0
 71 72  2  0  0  0
 71 73  1  0  0  0
 71142  1  0  0  0
 72 75  1  0  0  0
 72143  1  0  0  0
 73 76  2  0  0  0
 73144  1  0  0  0
 74 75  2  0  0  0
 74 76  1  0  0  0
 74145  1  0  0  0
 75 77  1  0  0  0
 76 82  1  0  0  0
 77 81  2  0  0  0
 77146  1  0  0  0
 78147  1  0  0  0
 78148  1  0  0  0
 78149  1  0  0  0
 78 80  1  0  0  0
 79 80  1  0  0  0
 79 81  1  0  0  0
 79150  1  0  0  0
 79151  1  0  0  0
 80152  1  0  0  0
 82153  1  0  0  0
M  ISO  4   1 100  68 101  80 101  82 100
M  END
> <chiral flag>
0

> <version>
0

> <s_m_source_file>
/data/baiqing/PycharmProjects/Reinvent-master-3.2/result/LINK_invent/BTK/process_docking_weight1_custom_product_contain_oxygen_bond_distance_aromatic_linkinvent_7_9_3/rearranged_h_0079.sdf

> <i_m_source_file_index>
88

> <r_mmod_Potential_Energy-OPLS-2005>
267.753570556641

> <r_mmod_Stretch_Energy-OPLS-2005>
144.720993041992

> <r_mmod_Bend_Energy-OPLS-2005>
179.810409545898

> <r_mmod_Torsional_Energy-OPLS-2005>
267.871337890625

> <r_mmod_Improper_Torsional_Energy-OPLS-2005>
11.2966260910034

> <r_mmod_Van_der_Waal_Energy-OPLS-2005>
139.47102355957

> <r_mmod_Electrostatic_Energy-OPLS-2005>
-352.74951171875

> <r_mmod_Solvation_Energy-OPLS-2005>
-221.912689208984

> <b_mmod_Minimization_Converged-OPLS-2005>
0

> <r_mmod_RMS_Derivative-OPLS-2005>
1.29435980319977

$$$$
88
                    3D
 Structure written by MMmdl.
159168  0  0  1  0            999 V2000
  -30.7387  -14.5379   20.5196 C   0  0  0  0  0  0
  -30.4225  -12.3326   19.4437 C   0  0  0  0  0  0
  -29.5145  -12.5090   18.2123 C   0  0  0  0  0  0
  -28.0331  -12.3667   18.6170 C   0  0  0  0  0  0
  -27.6642  -13.2186   19.8611 C   0  0  2  0  0  0
  -28.7128  -13.0790   20.9897 C   0  0  0  0  0  0
  -25.2680  -13.8198   20.5629 C   0  0  0  0  0  0
  -24.1905  -13.0470   20.9130 C   0  0  0  0  0  0
  -24.6429  -11.6932   20.8676 C   0  0  0  0  0  0
  -23.9067  -10.4331   21.0377 C   0  0  0  0  0  0
  -24.3612   -9.4269   21.9179 C   0  0  0  0  0  0
  -23.6292   -8.2300   22.0767 C   0  0  0  0  0  0
  -22.4281   -8.0317   21.3544 C   0  0  0  0  0  0
  -21.9911   -9.0272   20.4639 C   0  0  0  0  0  0
  -22.7227  -10.2162   20.3051 C   0  0  0  0  0  0
  -21.6896   -6.0752   22.5257 C   0  0  0  0  0  0
  -21.4037   -6.5641   23.8202 C   0  0  0  0  0  0
  -21.3672   -5.6779   24.9152 C   0  0  0  0  0  0
  -21.6048   -4.3049   24.7200 C   0  0  0  0  0  0
  -21.8826   -3.8146   23.4327 C   0  0  0  0  0  0
  -21.9212   -4.6968   22.3382 C   0  0  0  0  0  0
  -22.7925  -13.5281   21.1751 C   0  0  0  0  0  0
  -22.1672   -4.2157   21.0952 F   0  0  0  0  0  0
  -21.5638   -3.4538   25.7709 F   0  0  0  0  0  0
  -30.0348  -13.3717   20.4140 N   0  0  0  0  0  0
  -26.3077  -12.9330   20.3274 N   0  0  0  0  0  0
  -25.9366  -11.6482   20.5725 N   0  0  0  0  0  0
  -22.0511  -12.8308   22.0311 N   0  0  0  0  0  0
  -25.4470  -15.1909   20.4038 N   0  0  0  0  0  0
  -31.9003  -14.6215   20.1125 O   0  0  0  0  0  0
  -21.6661   -6.8903   21.4216 O   0  0  0  0  0  0
  -22.3611  -14.5544   20.6550 O   0  0  0  0  0  0
  -24.6170  -31.8679   23.2036 C   0  0  0  0  0  0
  -25.9051  -32.4818   23.8365 C   0  0  1  0  0  0
  -27.2511  -27.4014   20.1097 C   0  0  0  0  0  0
  -25.5881  -33.8622   24.2311 N   0  0  0  0  0  0
  -23.4100  -30.4838   21.5455 C   0  0  2  0  0  0
  -24.8639  -28.9395   20.1250 C   0  0  0  0  0  0
  -22.7440  -29.4649   22.4975 C   0  0  0  0  0  0
  -18.0276  -28.1412   22.8513 C   0  0  0  0  0  0
  -24.1494  -36.7323   23.2630 C   0  0  0  0  0  0
  -25.9384  -30.8253   21.3613 C   0  0  0  0  0  0
  -26.0263  -29.4499   20.7167 C   0  0  0  0  0  0
  -27.2258  -28.6898   20.7040 C   0  0  0  0  0  0
  -26.0713  -26.9161   19.5083 C   0  0  0  0  0  0
  -24.8807  -27.6685   19.5249 C   0  0  0  0  0  0
  -23.6258  -29.8094   20.1668 C   0  0  0  0  0  0
  -25.4127  -36.3129   24.0330 C   0  0  1  0  0  0
  -20.5871  -28.3715   23.1323 C   0  0  2  0  0  0
  -20.6791  -26.9448   22.5440 C   0  0  0  0  0  0
  -19.5764  -26.6409   21.5261 C   0  0  0  0  0  0
  -18.1920  -26.7958   22.1653 C   0  0  0  0  0  0
  -19.1528  -28.8876   23.2911 C   0  0  0  0  0  0
  -18.9441  -30.1473   23.8935 C   0  0  0  0  0  0
  -17.6446  -30.6621   24.0581 C   0  0  0  0  0  0
  -25.9032  -34.9479   23.5123 C   0  0  0  0  0  0
  -16.5336  -29.9129   23.6340 C   0  0  0  0  0  0
  -16.7262  -28.6541   23.0366 C   0  0  0  0  0  0
  -26.4472  -31.6585   25.0716 C   0  0  0  0  0  0
  -25.3699  -31.3676   26.1419 C   0  0  0  0  0  0
  -27.0280  -30.3021   24.6092 C   0  0  0  0  0  0
  -27.6060  -32.4252   25.7505 C   0  0  0  0  0  0
  -27.5595  -37.1804   24.8466 C   0  0  0  0  0  0
  -21.4158  -29.3075   22.3709 N   0  0  0  0  0  0
  -26.4303  -37.3821   23.9418 N   0  0  0  0  0  0
  -24.6731  -31.0733   22.0954 N   0  0  0  0  0  0
  -23.4185  -28.8178   23.3038 O   0  0  0  0  0  0
  -28.3954  -26.6182   20.0950 O   0  0  0  0  0  0
  -26.5617  -34.8936   22.4709 O   0  0  0  0  0  0
  -23.5351  -32.1447   23.7407 O   0  0  0  0  0  0
  -31.5735  -19.5964   21.7019 C   0  0  0  0  0  0
  -29.7734  -18.1651   20.8638 C   0  0  0  0  0  0
  -31.8635  -17.1795   21.6647 C   0  0  0  0  0  0
  -30.2710  -19.4723   21.1735 C   0  0  0  0  0  0
  -32.3588  -18.4651   21.9667 C   0  0  0  0  0  0
  -30.5710  -16.9959   21.1022 C   0  0  0  0  0  0
  -29.2630  -22.9684   20.8963 C   0  0  0  0  0  0
  -29.3724  -22.7015   22.3065 C   0  0  0  0  0  0
  -29.5149  -21.6717   20.2395 C   0  0  0  0  0  0
  -29.8718  -23.5266   23.2502 C   0  0  0  0  0  0
  -28.8788  -24.1167   20.2585 C   0  0  0  0  0  0
  -29.1604  -21.2302   22.5088 C   0  0  0  0  0  0
  -28.3372  -25.4154   20.9111 C   0  0  0  0  0  0
  -29.4858  -20.6813   21.1877 N   0  0  0  0  0  0
  -33.6061  -18.6310   22.5725 N   0  0  0  0  0  0
  -30.0526  -15.6562   20.8800 N   0  0  0  0  0  0
  -29.6942  -21.4823   19.0332 O   0  0  0  0  0  0
  -31.4756  -12.3739   19.1597 H   0  0  0  0  0  0
  -30.2694  -11.3403   19.8731 H   0  0  0  0  0  0
  -29.7612  -11.7709   17.4471 H   0  0  0  0  0  0
  -29.6862  -13.4919   17.7653 H   0  0  0  0  0  0
  -27.8484  -11.3078   18.8032 H   0  0  0  0  0  0
  -27.3951  -12.6471   17.7799 H   0  0  0  0  0  0
  -27.6855  -14.2541   19.5237 H   0  0  0  0  0  0
  -28.7121  -12.0624   21.3861 H   0  0  0  0  0  0
  -28.4773  -13.7370   21.8288 H   0  0  0  0  0  0
  -25.2774   -9.5748   22.4714 H   0  0  0  0  0  0
  -24.0020   -7.4707   22.7473 H   0  0  0  0  0  0
  -21.0872   -8.8739   19.8923 H   0  0  0  0  0  0
  -22.3679  -10.9662   19.6120 H   0  0  0  0  0  0
  -21.2029   -7.6154   23.9686 H   0  0  0  0  0  0
  -21.1488   -6.0513   25.9035 H   0  0  0  0  0  0
  -22.0597   -2.7609   23.2801 H   0  0  0  0  0  0
  -22.4112  -12.0026   22.4796 H   0  0  0  0  0  0
  -21.1096  -13.1307   22.2385 H   0  0  0  0  0  0
  -24.6813  -15.8508   20.5053 H   0  0  0  0  0  0
  -26.3008  -15.6277   20.0719 H   0  0  0  0  0  0
  -26.7099  -32.5545   23.1099 H   0  0  0  0  0  0
  -24.9952  -33.9734   25.0402 H   0  0  0  0  0  0
  -22.7019  -31.3001   21.3978 H   0  0  0  0  0  0
  -23.3760  -35.9638   23.3286 H   0  0  0  0  0  0
  -24.3562  -36.8947   22.2036 H   0  0  0  0  0  0
  -23.7216  -37.6518   23.6653 H   0  0  0  0  0  0
  -26.0376  -31.5852   20.5840 H   0  0  0  0  0  0
  -26.8297  -30.8985   21.9729 H   0  0  0  0  0  0
  -28.1231  -29.0754   21.1695 H   0  0  0  0  0  0
  -26.0714  -25.9490   19.0283 H   0  0  0  0  0  0
  -23.9885  -27.2613   19.0686 H   0  0  0  0  0  0
  -23.7308  -30.5805   19.4027 H   0  0  0  0  0  0
  -22.7526  -29.2237   19.8811 H   0  0  0  0  0  0
  -25.1305  -36.1983   25.0814 H   0  0  0  0  0  0
  -20.9948  -28.3275   24.1450 H   0  0  0  0  0  0
  -20.5785  -26.2312   23.3624 H   0  0  0  0  0  0
  -21.6633  -26.7533   22.1168 H   0  0  0  0  0  0
  -19.6930  -25.6325   21.1263 H   0  0  0  0  0  0
  -19.6690  -27.3243   20.6802 H   0  0  0  0  0  0
  -17.4222  -26.6748   21.4027 H   0  0  0  0  0  0
  -18.0274  -26.0097   22.9037 H   0  0  0  0  0  0
  -19.7887  -30.7300   24.2338 H   0  0  0  0  0  0
  -17.4986  -31.6306   24.5160 H   0  0  0  0  0  0
  -15.5344  -30.3065   23.7627 H   0  0  0  0  0  0
  -15.8649  -28.0870   22.7092 H   0  0  0  0  0  0
  -24.5855  -30.7089   25.7659 H   0  0  0  0  0  0
  -24.8906  -32.2841   26.4900 H   0  0  0  0  0  0
  -25.7956  -30.8747   27.0168 H   0  0  0  0  0  0
  -26.2827  -29.6809   24.1104 H   0  0  0  0  0  0
  -27.4015  -29.7234   25.4549 H   0  0  0  0  0  0
  -27.8685  -30.4358   23.9272 H   0  0  0  0  0  0
  -27.2693  -33.3504   26.2184 H   0  0  0  0  0  0
  -28.3819  -32.6833   25.0299 H   0  0  0  0  0  0
  -28.0805  -31.8324   26.5336 H   0  0  0  0  0  0
  -28.2578  -38.0117   24.7522 H   0  0  0  0  0  0
  -28.1089  -36.2641   24.6270 H   0  0  0  0  0  0
  -27.2296  -37.1446   25.8851 H   0  0  0  0  0  0
  -20.9353  -29.8722   21.6827 H   0  0  0  0  0  0
  -26.0201  -38.2897   24.1427 H   0  0  0  0  0  0
  -31.9409  -20.5775   21.9767 H   0  0  0  0  0  0
  -28.7662  -18.0588   20.4797 H   0  0  0  0  0  0
  -32.4794  -16.3227   21.8995 H   0  0  0  0  0  0
  -30.2035  -24.5316   23.0341 H   0  0  0  0  0  0
  -30.0406  -23.1677   24.2588 H   0  0  0  0  0  0
  -28.7963  -24.0943   19.1794 H   0  0  0  0  0  0
  -28.1202  -21.0011   22.7502 H   0  0  0  0  0  0
  -29.8040  -20.8332   23.2952 H   0  0  0  0  0  0
  -28.8791  -25.6422   21.8266 H   0  0  0  0  0  0
  -27.3161  -25.1904   21.2325 H   0  0  0  0  0  0
  -34.0259  -19.5534   22.6808 H   0  0  0  0  0  0
  -34.2508  -17.8572   22.7012 H   0  0  0  0  0  0
  -29.0589  -15.5354   20.9938 H   0  0  0  0  0  0
  1 25  1  0  0  0
  1 30  2  0  0  0
  1 86  1  0  0  0
  2  3  1  0  0  0
  2 25  1  0  0  0
  2 88  1  0  0  0
  2 89  1  0  0  0
  3  4  1  0  0  0
  3 90  1  0  0  0
  3 91  1  0  0  0
  4  5  1  0  0  0
  4 92  1  0  0  0
  4 93  1  0  0  0
  5  6  1  0  0  0
  5 26  1  0  0  0
  5 94  1  0  0  0
  6 25  1  0  0  0
  6 95  1  0  0  0
  6 96  1  0  0  0
  7  8  2  0  0  0
  7 26  1  0  0  0
  7 29  1  0  0  0
  8  9  1  0  0  0
  8 22  1  0  0  0
  9 10  1  0  0  0
  9 27  2  0  0  0
 10 11  2  0  0  0
 10 15  1  0  0  0
 11 12  1  0  0  0
 11 97  1  0  0  0
 12 13  2  0  0  0
 12 98  1  0  0  0
 13 14  1  0  0  0
 13 31  1  0  0  0
 14 15  2  0  0  0
 14 99  1  0  0  0
 15100  1  0  0  0
 16 17  2  0  0  0
 16 21  1  0  0  0
 16 31  1  0  0  0
 17 18  1  0  0  0
 17101  1  0  0  0
 18 19  2  0  0  0
 18102  1  0  0  0
 19 20  1  0  0  0
 19 24  1  0  0  0
 20 21  2  0  0  0
 20103  1  0  0  0
 21 23  1  0  0  0
 22 28  1  0  0  0
 22 32  2  0  0  0
 26 27  1  0  0  0
 28104  1  0  0  0
 28105  1  0  0  0
 29106  1  0  0  0
 29107  1  0  0  0
 33 34  1  0  0  0
 33 66  1  0  0  0
 33 70  2  0  0  0
 34 36  1  0  0  0
 34 59  1  0  0  0
 34108  1  0  0  0
 35 44  2  0  0  0
 35 45  1  0  0  0
 35 68  1  0  0  0
 36 56  1  0  0  0
 36109  1  0  0  0
 37 39  1  0  0  0
 37 47  1  0  0  0
 37 66  1  0  0  0
 37110  1  0  0  0
 38 43  2  0  0  0
 38 46  1  0  0  0
 38 47  1  0  0  0
 39 64  1  0  0  0
 39 67  2  0  0  0
 40 52  1  0  0  0
 40 53  2  0  0  0
 40 58  1  0  0  0
 41111  1  0  0  0
 41112  1  0  0  0
 41113  1  0  0  0
 41 48  1  0  0  0
 42 43  1  0  0  0
 42 66  1  0  0  0
 42114  1  0  0  0
 42115  1  0  0  0
 43 44  1  0  0  0
 44116  1  0  0  0
 45 46  2  0  0  0
 45117  1  0  0  0
 46118  1  0  0  0
 47119  1  0  0  0
 47120  1  0  0  0
 48 56  1  0  0  0
 48 65  1  0  0  0
 48121  1  0  0  0
 49 50  1  0  0  0
 49 53  1  0  0  0
 49 64  1  0  0  0
 49122  1  0  0  0
 50 51  1  0  0  0
 50123  1  0  0  0
 50124  1  0  0  0
 51 52  1  0  0  0
 51125  1  0  0  0
 51126  1  0  0  0
 52127  1  0  0  0
 52128  1  0  0  0
 53 54  1  0  0  0
 54 55  2  0  0  0
 54129  1  0  0  0
 55 57  1  0  0  0
 55130  1  0  0  0
 56 69  2  0  0  0
 57 58  2  0  0  0
 57131  1  0  0  0
 58132  1  0  0  0
 59 60  1  0  0  0
 59 61  1  0  0  0
 59 62  1  0  0  0
 60133  1  0  0  0
 60134  1  0  0  0
 60135  1  0  0  0
 61136  1  0  0  0
 61137  1  0  0  0
 61138  1  0  0  0
 62139  1  0  0  0
 62140  1  0  0  0
 62141  1  0  0  0
 63 65  1  0  0  0
 63142  1  0  0  0
 63143  1  0  0  0
 63144  1  0  0  0
 64145  1  0  0  0
 65146  1  0  0  0
 68 83  1  0  0  0
 71 74  2  0  0  0
 71 75  1  0  0  0
 71147  1  0  0  0
 72 74  1  0  0  0
 72 76  2  0  0  0
 72148  1  0  0  0
 73 75  2  0  0  0
 73 76  1  0  0  0
 73149  1  0  0  0
 74 84  1  0  0  0
 75 85  1  0  0  0
 76 86  1  0  0  0
 77 78  1  0  0  0
 77 79  1  0  0  0
 77 81  2  0  0  0
 78 80  2  0  0  0
 78 82  1  0  0  0
 79 84  1  0  0  0
 79 87  2  0  0  0
 80150  1  0  0  0
 80151  1  0  0  0
 81 83  1  0  0  0
 81152  1  0  0  0
 82 84  1  0  0  0
 82153  1  0  0  0
 82154  1  0  0  0
 83155  1  0  0  0
 83156  1  0  0  0
 85157  1  0  0  0
 85158  1  0  0  0
 86159  1  0  0  0
M  ISO  4   1 100  68 101  83 101  86 100
M  END
> <chiral flag>
0

> <version>
0

> <s_m_source_file>
/data/baiqing/PycharmProjects/Reinvent-master-3.2/result/LINK_invent/BTK/process_docking_weight1_custom_product_contain_oxygen_bond_distance_aromatic_linkinvent_7_9_3/rearranged_h_0079.sdf

> <i_m_source_file_index>
89

> <r_mmod_Potential_Energy-OPLS-2005>
213.005142211914

> <r_mmod_Stretch_Energy-OPLS-2005>
57.88818359375

> <r_mmod_Bend_Energy-OPLS-2005>
177.685165405273

> <r_mmod_Torsional_Energy-OPLS-2005>
344.865081787109

> <r_mmod_Improper_Torsional_Energy-OPLS-2005>
9.77345848083496

> <r_mmod_Van_der_Waal_Energy-OPLS-2005>
145.297775268555

> <r_mmod_Electrostatic_Energy-OPLS-2005>
-314.753753662109

> <r_mmod_Solvation_Energy-OPLS-2005>
-231.822555541992

> <b_mmod_Minimization_Converged-OPLS-2005>
0

> <r_mmod_RMS_Derivative-OPLS-2005>
6.12114477157593

$$$$
89
                    3D
 Structure written by MMmdl.
156165  0  0  1  0            999 V2000
  -30.5830  -14.8060   20.4449 C   0  0  0  0  0  0
  -30.4291  -12.4882   19.4962 C   0  0  0  0  0  0
  -29.5139  -12.5259   18.2512 C   0  0  0  0  0  0
  -28.0396  -12.3422   18.6576 C   0  0  0  0  0  0
  -27.6408  -13.2418   19.8576 C   0  0  2  0  0  0
  -28.6812  -13.1944   20.9982 C   0  0  0  0  0  0
  -25.2499  -13.8229   20.5715 C   0  0  0  0  0  0
  -24.1788  -13.0462   20.9202 C   0  0  0  0  0  0
  -24.6392  -11.6937   20.8726 C   0  0  0  0  0  0
  -23.9049  -10.4318   21.0388 C   0  0  0  0  0  0
  -24.3605   -9.4235   21.9173 C   0  0  0  0  0  0
  -23.6295   -8.2257   22.0728 C   0  0  0  0  0  0
  -22.4276   -8.0282   21.3529 C   0  0  0  0  0  0
  -21.9913   -9.0248   20.4623 C   0  0  0  0  0  0
  -22.7218  -10.2143   20.3039 C   0  0  0  0  0  0
  -21.6857   -6.0736   22.5271 C   0  0  0  0  0  0
  -21.4017   -6.5635   23.8211 C   0  0  0  0  0  0
  -21.3663   -5.6786   24.9180 C   0  0  0  0  0  0
  -21.6053   -4.3052   24.7217 C   0  0  0  0  0  0
  -21.8813   -3.8144   23.4335 C   0  0  0  0  0  0
  -21.9196   -4.6966   22.3399 C   0  0  0  0  0  0
  -22.7814  -13.5241   21.1861 C   0  0  0  0  0  0
  -22.1647   -4.2157   21.0977 F   0  0  0  0  0  0
  -21.5643   -3.4521   25.7723 F   0  0  0  0  0  0
  -29.9827  -13.5593   20.4271 N   0  0  0  0  0  0
  -26.2928  -12.9447   20.3324 N   0  0  0  0  0  0
  -25.9327  -11.6575   20.5751 N   0  0  0  0  0  0
  -22.0448  -12.8232   22.0408 N   0  0  0  0  0  0
  -25.4228  -15.1955   20.4143 N   0  0  0  0  0  0
  -31.7459  -14.9106   20.0418 O   0  0  0  0  0  0
  -21.6638   -6.8877   21.4231 O   0  0  0  0  0  0
  -22.3498  -14.5551   20.6710 O   0  0  0  0  0  0
  -24.6356  -31.8516   23.1962 C   0  0  0  0  0  0
  -25.9175  -32.4729   23.8309 C   0  0  1  0  0  0
  -27.2095  -27.1931   20.1419 C   0  0  0  0  0  0
  -25.5971  -33.8533   24.2218 N   0  0  0  0  0  0
  -23.4362  -30.4740   21.5400 C   0  0  2  0  0  0
  -24.8855  -28.9166   20.1091 C   0  0  0  0  0  0
  -22.7525  -29.4582   22.4881 C   0  0  0  0  0  0
  -18.0296  -28.1398   22.8475 C   0  0  0  0  0  0
  -24.1499  -36.7254   23.2642 C   0  0  0  0  0  0
  -25.9893  -30.7379   21.3935 C   0  0  0  0  0  0
  -26.0577  -29.3543   20.7373 C   0  0  0  0  0  0
  -27.2186  -28.5023   20.7535 C   0  0  0  0  0  0
  -26.0248  -26.8688   19.4385 C   0  0  0  0  0  0
  -24.8781  -27.6821   19.4477 C   0  0  0  0  0  0
  -23.6597  -29.8091   20.1563 C   0  0  0  0  0  0
  -25.4134  -36.3035   24.0309 C   0  0  1  0  0  0
  -20.5903  -28.3712   23.1244 C   0  0  2  0  0  0
  -20.6777  -26.9421   22.5403 C   0  0  0  0  0  0
  -19.5753  -26.6384   21.5206 C   0  0  0  0  0  0
  -18.1937  -26.7940   22.1620 C   0  0  0  0  0  0
  -19.1555  -28.8865   23.2859 C   0  0  0  0  0  0
  -18.9471  -30.1461   23.8881 C   0  0  0  0  0  0
  -17.6472  -30.6595   24.0560 C   0  0  0  0  0  0
  -25.9080  -34.9416   23.5056 C   0  0  0  0  0  0
  -16.5359  -29.9094   23.6344 C   0  0  0  0  0  0
  -16.7279  -28.6513   23.0355 C   0  0  0  0  0  0
  -26.4532  -31.6569   25.0715 C   0  0  0  0  0  0
  -25.3721  -31.3742   26.1398 C   0  0  0  0  0  0
  -27.0392  -30.2966   24.6271 C   0  0  0  0  0  0
  -27.6092  -32.4319   25.7477 C   0  0  0  0  0  0
  -27.5585  -37.1783   24.8469 C   0  0  0  0  0  0
  -21.4227  -29.3053   22.3626 N   0  0  0  0  0  0
  -26.4302  -37.3743   23.9409 N   0  0  0  0  0  0
  -24.7057  -31.0409   22.0980 N   0  0  0  0  0  0
  -23.4195  -28.8114   23.3008 O   0  0  0  0  0  0
  -28.2626  -26.2239   20.2191 O   0  0  0  0  0  0
  -26.5663  -34.8911   22.4634 O   0  0  0  0  0  0
  -23.5495  -32.1376   23.7216 O   0  0  0  0  0  0
  -29.0036  -19.6196   18.5771 C   0  0  0  0  0  0
  -29.6299  -18.6104   20.7027 C   0  0  0  0  0  0
  -29.3801  -17.1913   18.7319 C   0  0  0  0  0  0
  -29.2880  -19.8275   19.9465 C   0  0  0  0  0  0
  -29.0454  -18.3399   17.9814 C   0  0  0  0  0  0
  -29.6785  -17.2600   20.1136 C   0  0  0  0  0  0
  -28.7548  -23.6408   20.3503 C   0  0  0  0  0  0
  -30.1493  -23.4673   20.6656 C   0  0  0  0  0  0
  -28.2634  -22.2242   20.1898 C   0  0  0  0  0  0
  -31.0286  -24.4675   20.8428 C   0  0  0  0  0  0
  -27.9759  -24.8006   20.1915 C   0  0  0  0  0  0
  -30.4992  -21.9802   20.7655 C   0  0  0  0  0  0
  -29.2637  -21.2690   20.3983 N   0  0  0  0  0  0
  -28.7424  -18.2100   16.6249 N   0  0  0  0  0  0
  -29.8523  -15.9414   20.8149 N   0  0  0  0  0  0
  -27.1014  -21.9149   19.9093 O   0  0  0  0  0  0
  -31.4688  -12.6116   19.1929 H   0  0  0  0  0  0
  -30.3763  -11.5137   19.9832 H   0  0  0  0  0  0
  -29.8029  -11.7498   17.5430 H   0  0  0  0  0  0
  -29.6402  -13.4757   17.7278 H   0  0  0  0  0  0
  -27.8997  -11.2915   18.9205 H   0  0  0  0  0  0
  -27.3829  -12.5317   17.8069 H   0  0  0  0  0  0
  -27.6322  -14.2636   19.4752 H   0  0  0  0  0  0
  -28.7249  -12.2010   21.4474 H   0  0  0  0  0  0
  -28.4010  -13.8800   21.7971 H   0  0  0  0  0  0
  -25.2744   -9.5720   22.4768 H   0  0  0  0  0  0
  -24.0001   -7.4655   22.7451 H   0  0  0  0  0  0
  -21.0837   -8.8732   19.8944 H   0  0  0  0  0  0
  -22.3641  -10.9664   19.6138 H   0  0  0  0  0  0
  -21.1991   -7.6132   23.9715 H   0  0  0  0  0  0
  -21.1500   -6.0510   25.9081 H   0  0  0  0  0  0
  -22.0595   -2.7597   23.2824 H   0  0  0  0  0  0
  -22.4030  -11.9865   22.4768 H   0  0  0  0  0  0
  -21.1066  -13.1258   22.2605 H   0  0  0  0  0  0
  -24.6617  -15.8563   20.5262 H   0  0  0  0  0  0
  -26.2817  -15.6326   20.1044 H   0  0  0  0  0  0
  -26.7231  -32.5340   23.1036 H   0  0  0  0  0  0
  -25.0113  -33.9677   25.0361 H   0  0  0  0  0  0
  -22.7364  -31.2994   21.3894 H   0  0  0  0  0  0
  -23.3777  -35.9566   23.3271 H   0  0  0  0  0  0
  -24.3597  -36.8920   22.2065 H   0  0  0  0  0  0
  -23.7240  -37.6439   23.6695 H   0  0  0  0  0  0
  -26.1454  -31.4925   20.6216 H   0  0  0  0  0  0
  -26.8622  -30.7833   22.0324 H   0  0  0  0  0  0
  -28.1079  -28.8269   21.2741 H   0  0  0  0  0  0
  -25.9433  -25.9523   18.8743 H   0  0  0  0  0  0
  -23.9882  -27.3500   18.9330 H   0  0  0  0  0  0
  -23.7906  -30.5858   19.4025 H   0  0  0  0  0  0
  -22.7764  -29.2473   19.8460 H   0  0  0  0  0  0
  -25.1322  -36.1859   25.0801 H   0  0  0  0  0  0
  -21.0003  -28.3287   24.1360 H   0  0  0  0  0  0
  -20.5660  -26.2324   23.3623 H   0  0  0  0  0  0
  -21.6642  -26.7429   22.1191 H   0  0  0  0  0  0
  -19.6916  -25.6286   21.1256 H   0  0  0  0  0  0
  -19.6699  -27.3178   20.6726 H   0  0  0  0  0  0
  -17.4209  -26.6685   21.4031 H   0  0  0  0  0  0
  -18.0341  -26.0082   22.9010 H   0  0  0  0  0  0
  -19.7951  -30.7292   24.2243 H   0  0  0  0  0  0
  -17.5027  -31.6281   24.5151 H   0  0  0  0  0  0
  -15.5362  -30.2989   23.7688 H   0  0  0  0  0  0
  -15.8678  -28.0831   22.7084 H   0  0  0  0  0  0
  -24.5915  -30.7085   25.7692 H   0  0  0  0  0  0
  -24.8900  -32.2915   26.4768 H   0  0  0  0  0  0
  -25.7989  -30.8933   27.0197 H   0  0  0  0  0  0
  -26.2988  -29.6690   24.1284 H   0  0  0  0  0  0
  -27.4029  -29.7258   25.4829 H   0  0  0  0  0  0
  -27.8886  -30.4221   23.9553 H   0  0  0  0  0  0
  -27.2717  -33.3651   26.1976 H   0  0  0  0  0  0
  -28.3915  -32.6809   25.0302 H   0  0  0  0  0  0
  -28.0712  -31.8478   26.5435 H   0  0  0  0  0  0
  -28.2575  -38.0107   24.7536 H   0  0  0  0  0  0
  -28.1109  -36.2638   24.6260 H   0  0  0  0  0  0
  -27.2303  -37.1369   25.8872 H   0  0  0  0  0  0
  -20.9420  -29.8776   21.6826 H   0  0  0  0  0  0
  -26.0156  -38.2801   24.1445 H   0  0  0  0  0  0
  -28.7589  -20.4727   17.9595 H   0  0  0  0  0  0
  -29.8483  -18.7141   21.7580 H   0  0  0  0  0  0
  -29.3747  -16.2269   18.2429 H   0  0  0  0  0  0
  -30.7352  -25.5032   20.7608 H   0  0  0  0  0  0
  -32.0639  -24.2636   21.0770 H   0  0  0  0  0  0
  -26.9317  -24.6147   20.0099 H   0  0  0  0  0  0
  -30.8055  -21.7230   21.7800 H   0  0  0  0  0  0
  -31.3070  -21.7273   20.0771 H   0  0  0  0  0  0
  -28.2705  -18.9708   16.1458 H   0  0  0  0  0  0
  -28.5130  -17.2952   16.2464 H   0  0  0  0  0  0
  -29.0843  -15.7161   21.4306 H   0  0  0  0  0  0
  1 25  1  0  0  0
  1 30  2  0  0  0
  1 85  1  0  0  0
  2  3  1  0  0  0
  2 25  1  0  0  0
  2 87  1  0  0  0
  2 88  1  0  0  0
  3  4  1  0  0  0
  3 89  1  0  0  0
  3 90  1  0  0  0
  4  5  1  0  0  0
  4 91  1  0  0  0
  4 92  1  0  0  0
  5  6  1  0  0  0
  5 26  1  0  0  0
  5 93  1  0  0  0
  6 25  1  0  0  0
  6 94  1  0  0  0
  6 95  1  0  0  0
  7  8  2  0  0  0
  7 26  1  0  0  0
  7 29  1  0  0  0
  8  9  1  0  0  0
  8 22  1  0  0  0
  9 10  1  0  0  0
  9 27  2  0  0  0
 10 11  2  0  0  0
 10 15  1  0  0  0
 11 12  1  0  0  0
 11 96  1  0  0  0
 12 13  2  0  0  0
 12 97  1  0  0  0
 13 14  1  0  0  0
 13 31  1  0  0  0
 14 15  2  0  0  0
 14 98  1  0  0  0
 15 99  1  0  0  0
 16 17  2  0  0  0
 16 21  1  0  0  0
 16 31  1  0  0  0
 17 18  1  0  0  0
 17100  1  0  0  0
 18 19  2  0  0  0
 18101  1  0  0  0
 19 20  1  0  0  0
 19 24  1  0  0  0
 20 21  2  0  0  0
 20102  1  0  0  0
 21 23  1  0  0  0
 22 28  1  0  0  0
 22 32  2  0  0  0
 26 27  1  0  0  0
 28103  1  0  0  0
 28104  1  0  0  0
 29105  1  0  0  0
 29106  1  0  0  0
 33 34  1  0  0  0
 33 66  1  0  0  0
 33 70  2  0  0  0
 34 36  1  0  0  0
 34 59  1  0  0  0
 34107  1  0  0  0
 35 44  2  0  0  0
 35 45  1  0  0  0
 35 68  1  0  0  0
 36 56  1  0  0  0
 36108  1  0  0  0
 37 39  1  0  0  0
 37 47  1  0  0  0
 37 66  1  0  0  0
 37109  1  0  0  0
 38 43  2  0  0  0
 38 46  1  0  0  0
 38 47  1  0  0  0
 39 64  1  0  0  0
 39 67  2  0  0  0
 40 52  1  0  0  0
 40 53  2  0  0  0
 40 58  1  0  0  0
 41110  1  0  0  0
 41111  1  0  0  0
 41112  1  0  0  0
 41 48  1  0  0  0
 42 43  1  0  0  0
 42 66  1  0  0  0
 42113  1  0  0  0
 42114  1  0  0  0
 43 44  1  0  0  0
 44115  1  0  0  0
 45 46  2  0  0  0
 45116  1  0  0  0
 46117  1  0  0  0
 47118  1  0  0  0
 47119  1  0  0  0
 48 56  1  0  0  0
 48 65  1  0  0  0
 48120  1  0  0  0
 49 50  1  0  0  0
 49 53  1  0  0  0
 49 64  1  0  0  0
 49121  1  0  0  0
 50 51  1  0  0  0
 50122  1  0  0  0
 50123  1  0  0  0
 51 52  1  0  0  0
 51124  1  0  0  0
 51125  1  0  0  0
 52126  1  0  0  0
 52127  1  0  0  0
 53 54  1  0  0  0
 54 55  2  0  0  0
 54128  1  0  0  0
 55 57  1  0  0  0
 55129  1  0  0  0
 56 69  2  0  0  0
 57 58  2  0  0  0
 57130  1  0  0  0
 58131  1  0  0  0
 59 60  1  0  0  0
 59 61  1  0  0  0
 59 62  1  0  0  0
 60132  1  0  0  0
 60133  1  0  0  0
 60134  1  0  0  0
 61135  1  0  0  0
 61136  1  0  0  0
 61137  1  0  0  0
 62138  1  0  0  0
 62139  1  0  0  0
 62140  1  0  0  0
 63 65  1  0  0  0
 63141  1  0  0  0
 63142  1  0  0  0
 63143  1  0  0  0
 64144  1  0  0  0
 65145  1  0  0  0
 68 81  1  0  0  0
 71 74  2  0  0  0
 71 75  1  0  0  0
 71146  1  0  0  0
 72 74  1  0  0  0
 72 76  2  0  0  0
 72147  1  0  0  0
 73 75  2  0  0  0
 73 76  1  0  0  0
 73148  1  0  0  0
 74 83  1  0  0  0
 75 84  1  0  0  0
 76 85  1  0  0  0
 77 78  1  0  0  0
 77 79  1  0  0  0
 77 81  2  0  0  0
 78 80  2  0  0  0
 78 82  1  0  0  0
 79 83  1  0  0  0
 79 86  2  0  0  0
 80149  1  0  0  0
 80150  1  0  0  0
 81151  1  0  0  0
 82 83  1  0  0  0
 82152  1  0  0  0
 82153  1  0  0  0
 84154  1  0  0  0
 84155  1  0  0  0
 85156  1  0  0  0
M  ISO  4   1 100  68 101  81 101  85 100
M  END
> <chiral flag>
0

> <version>
0

> <s_m_source_file>
/data/baiqing/PycharmProjects/Reinvent-master-3.2/result/LINK_invent/BTK/process_docking_weight1_custom_product_contain_oxygen_bond_distance_aromatic_linkinvent_7_9_3/rearranged_h_0079.sdf

> <i_m_source_file_index>
90

> <r_mmod_Potential_Energy-OPLS-2005>
457.926391601562

> <r_mmod_Stretch_Energy-OPLS-2005>
158.311141967773

> <r_mmod_Bend_Energy-OPLS-2005>
232.005767822266

> <r_mmod_Torsional_Energy-OPLS-2005>
320.142944335938

> <r_mmod_Improper_Torsional_Energy-OPLS-2005>
8.05356121063232

> <r_mmod_Van_der_Waal_Energy-OPLS-2005>
133.388580322266

> <r_mmod_Electrostatic_Energy-OPLS-2005>
-292.097900390625

> <r_mmod_Solvation_Energy-OPLS-2005>
-228.0302734375

> <b_mmod_Minimization_Converged-OPLS-2005>
0

> <r_mmod_RMS_Derivative-OPLS-2005>
2.72665619850159

$$$$
