0
                    3D
 Structure written by MMmdl.
159168  0  0  1  0            999 V2000
  -30.5048  -14.9038   20.4250 C   0  0  0  0  0  0
  -30.4539  -12.5520   19.4901 C   0  0  0  0  0  0
  -29.5299  -12.5287   18.2487 C   0  0  0  0  0  0
  -28.0577  -12.3183   18.6584 C   0  0  0  0  0  0
  -27.6383  -13.2325   19.8404 C   0  0  2  0  0  0
  -28.6812  -13.2041   20.9790 C   0  0  0  0  0  0
  -25.2512  -13.8176   20.5675 C   0  0  0  0  0  0
  -24.1811  -13.0430   20.9227 C   0  0  0  0  0  0
  -24.6408  -11.6907   20.8737 C   0  0  0  0  0  0
  -23.9075  -10.4293   21.0396 C   0  0  0  0  0  0
  -24.3627   -9.4214   21.9182 C   0  0  0  0  0  0
  -23.6313   -8.2240   22.0742 C   0  0  0  0  0  0
  -22.4297   -8.0267   21.3525 C   0  0  0  0  0  0
  -21.9924   -9.0242   20.4630 C   0  0  0  0  0  0
  -22.7240  -10.2136   20.3047 C   0  0  0  0  0  0
  -21.6860   -6.0746   22.5284 C   0  0  0  0  0  0
  -21.4008   -6.5642   23.8222 C   0  0  0  0  0  0
  -21.3660   -5.6785   24.9177 C   0  0  0  0  0  0
  -21.6047   -4.3052   24.7220 C   0  0  0  0  0  0
  -21.8816   -3.8152   23.4340 C   0  0  0  0  0  0
  -21.9194   -4.6974   22.3403 C   0  0  0  0  0  0
  -22.7832  -13.5213   21.1877 C   0  0  0  0  0  0
  -22.1658   -4.2161   21.0980 F   0  0  0  0  0  0
  -21.5640   -3.4533   25.7728 F   0  0  0  0  0  0
  -29.9678  -13.6212   20.4014 N   0  0  0  0  0  0
  -26.2918  -12.9377   20.3198 N   0  0  0  0  0  0
  -25.9328  -11.6523   20.5693 N   0  0  0  0  0  0
  -22.0465  -12.8215   22.0428 N   0  0  0  0  0  0
  -25.4214  -15.1895   20.4071 N   0  0  0  0  0  0
  -31.6941  -15.0487   20.1167 O   0  0  0  0  0  0
  -21.6639   -6.8881   21.4235 O   0  0  0  0  0  0
  -22.3530  -14.5523   20.6720 O   0  0  0  0  0  0
  -24.6407  -31.8460   23.1899 C   0  0  0  0  0  0
  -25.9189  -32.4705   23.8273 C   0  0  1  0  0  0
  -27.2192  -27.1596   20.1453 C   0  0  0  0  0  0
  -25.5949  -33.8509   24.2193 N   0  0  0  0  0  0
  -23.4419  -30.4680   21.5338 C   0  0  2  0  0  0
  -24.8923  -28.8983   20.1107 C   0  0  0  0  0  0
  -22.7547  -29.4570   22.4852 C   0  0  0  0  0  0
  -18.0292  -28.1393   22.8465 C   0  0  0  0  0  0
  -24.1498  -36.7266   23.2640 C   0  0  0  0  0  0
  -25.9984  -30.7275   21.3863 C   0  0  0  0  0  0
  -26.0703  -29.3415   20.7261 C   0  0  0  0  0  0
  -27.2359  -28.4890   20.7245 C   0  0  0  0  0  0
  -26.0118  -26.8128   19.4978 C   0  0  0  0  0  0
  -24.8754  -27.6464   19.4812 C   0  0  0  0  0  0
  -23.6678  -29.7970   20.1533 C   0  0  0  0  0  0
  -25.4133  -36.3040   24.0310 C   0  0  1  0  0  0
  -20.5902  -28.3726   23.1228 C   0  0  2  0  0  0
  -20.6784  -26.9434   22.5391 C   0  0  0  0  0  0
  -19.5759  -26.6381   21.5201 C   0  0  0  0  0  0
  -18.1943  -26.7933   22.1612 C   0  0  0  0  0  0
  -19.1545  -28.8875   23.2844 C   0  0  0  0  0  0
  -18.9473  -30.1474   23.8866 C   0  0  0  0  0  0
  -17.6470  -30.6592   24.0560 C   0  0  0  0  0  0
  -25.9077  -34.9408   23.5064 C   0  0  0  0  0  0
  -16.5359  -29.9084   23.6338 C   0  0  0  0  0  0
  -16.7281  -28.6502   23.0358 C   0  0  0  0  0  0
  -26.4523  -31.6551   25.0699 C   0  0  0  0  0  0
  -25.3705  -31.3742   26.1386 C   0  0  0  0  0  0
  -27.0384  -30.2936   24.6288 C   0  0  0  0  0  0
  -27.6049  -32.4320   25.7488 C   0  0  0  0  0  0
  -27.5586  -37.1788   24.8458 C   0  0  0  0  0  0
  -21.4237  -29.3056   22.3600 N   0  0  0  0  0  0
  -26.4299  -37.3748   23.9399 N   0  0  0  0  0  0
  -24.7131  -31.0343   22.0918 N   0  0  0  0  0  0
  -23.4210  -28.8113   23.2992 O   0  0  0  0  0  0
  -28.2789  -26.1871   20.2116 O   0  0  0  0  0  0
  -26.5664  -34.8894   22.4645 O   0  0  0  0  0  0
  -23.5538  -32.1309   23.7158 O   0  0  0  0  0  0
  -30.2410  -19.9094   19.9718 C   0  0  0  0  0  0
  -30.5070  -18.4746   20.0973 C   0  0  0  0  0  0
  -28.2766  -18.1504   20.7829 C   0  0  0  0  0  0
  -28.9689  -20.5409   20.2309 C   0  0  0  0  0  0
  -29.5242  -17.5035   20.5019 C   0  0  0  0  0  0
  -28.0062  -19.5637   20.6477 C   0  0  0  0  0  0
  -29.5889  -22.8510   17.9642 C   0  0  0  0  0  0
  -30.1458  -23.5439   19.2182 C   0  0  0  0  0  0
  -28.3962  -22.0150   18.4570 C   0  0  0  0  0  0
  -29.0372  -23.3584   20.2619 C   0  0  1  0  0  0
  -29.5665  -23.3667   21.7020 C   0  0  0  0  0  0
  -27.9863  -24.6704   20.0730 C   0  0  0  0  0  0
  -28.5357  -21.9323   19.9067 N   0  0  0  0  0  0
  -29.6148  -15.9796   20.6369 N   0  0  0  0  0  0
  -26.7394  -19.9833   20.8911 F   0  0  0  0  0  0
  -31.4875  -12.7238   19.1842 H   0  0  0  0  0  0
  -30.4478  -11.5837   19.9932 H   0  0  0  0  0  0
  -29.8481  -11.7443   17.5598 H   0  0  0  0  0  0
  -29.6289  -13.4677   17.7031 H   0  0  0  0  0  0
  -27.9451  -11.2735   18.9473 H   0  0  0  0  0  0
  -27.3996  -12.4681   17.8013 H   0  0  0  0  0  0
  -27.6172  -14.2455   19.4398 H   0  0  0  0  0  0
  -28.7554  -12.2054   21.4117 H   0  0  0  0  0  0
  -28.3835  -13.8685   21.7927 H   0  0  0  0  0  0
  -25.2771   -9.5709   22.4748 H   0  0  0  0  0  0
  -24.0030   -7.4638   22.7472 H   0  0  0  0  0  0
  -21.0844   -8.8760   19.8946 H   0  0  0  0  0  0
  -22.3687  -10.9671   19.6154 H   0  0  0  0  0  0
  -21.1981   -7.6149   23.9725 H   0  0  0  0  0  0
  -21.1487   -6.0518   25.9086 H   0  0  0  0  0  0
  -22.0597   -2.7613   23.2835 H   0  0  0  0  0  0
  -22.4069  -11.9891   22.4851 H   0  0  0  0  0  0
  -21.1071  -13.1236   22.2577 H   0  0  0  0  0  0
  -24.6437  -15.8339   20.4999 H   0  0  0  0  0  0
  -26.2325  -15.6143   19.9786 H   0  0  0  0  0  0
  -26.7249  -32.5327   23.1001 H   0  0  0  0  0  0
  -25.0052  -33.9605   25.0311 H   0  0  0  0  0  0
  -22.7430  -31.2936   21.3810 H   0  0  0  0  0  0
  -23.3760  -35.9593   23.3273 H   0  0  0  0  0  0
  -24.3595  -36.8928   22.2061 H   0  0  0  0  0  0
  -23.7231  -37.6447   23.6692 H   0  0  0  0  0  0
  -26.1547  -31.4843   20.6160 H   0  0  0  0  0  0
  -26.8689  -30.7752   22.0292 H   0  0  0  0  0  0
  -28.1364  -28.8264   21.2198 H   0  0  0  0  0  0
  -25.9037  -25.8581   19.0100 H   0  0  0  0  0  0
  -23.9763  -27.3023   18.9882 H   0  0  0  0  0  0
  -23.7991  -30.5691   19.3946 H   0  0  0  0  0  0
  -22.7837  -29.2343   19.8486 H   0  0  0  0  0  0
  -25.1320  -36.1876   25.0803 H   0  0  0  0  0  0
  -21.0004  -28.3328   24.1345 H   0  0  0  0  0  0
  -20.5679  -26.2348   23.3617 H   0  0  0  0  0  0
  -21.6657  -26.7449   22.1190 H   0  0  0  0  0  0
  -19.6933  -25.6286   21.1250 H   0  0  0  0  0  0
  -19.6699  -27.3169   20.6721 H   0  0  0  0  0  0
  -17.4216  -26.6661   21.4020 H   0  0  0  0  0  0
  -18.0363  -26.0080   22.9016 H   0  0  0  0  0  0
  -19.7953  -30.7300   24.2220 H   0  0  0  0  0  0
  -17.5025  -31.6268   24.5174 H   0  0  0  0  0  0
  -15.5360  -30.2989   23.7674 H   0  0  0  0  0  0
  -15.8675  -28.0821   22.7094 H   0  0  0  0  0  0
  -24.5886  -30.7100   25.7683 H   0  0  0  0  0  0
  -24.8898  -32.2932   26.4751 H   0  0  0  0  0  0
  -25.7975  -30.8931   27.0195 H   0  0  0  0  0  0
  -26.2997  -29.6649   24.1308 H   0  0  0  0  0  0
  -27.3984  -29.7248   25.4872 H   0  0  0  0  0  0
  -27.8913  -30.4135   23.9606 H   0  0  0  0  0  0
  -27.2624  -33.3626   26.2029 H   0  0  0  0  0  0
  -28.3886  -32.6877   25.0342 H   0  0  0  0  0  0
  -28.0692  -31.8472   26.5442 H   0  0  0  0  0  0
  -28.2582  -38.0106   24.7539 H   0  0  0  0  0  0
  -28.1104  -36.2638   24.6257 H   0  0  0  0  0  0
  -27.2307  -37.1402   25.8859 H   0  0  0  0  0  0
  -20.9446  -29.8773   21.6777 H   0  0  0  0  0  0
  -26.0171  -38.2815   24.1404 H   0  0  0  0  0  0
  -31.0440  -20.5342   19.6088 H   0  0  0  0  0  0
  -31.4967  -18.1221   19.8475 H   0  0  0  0  0  0
  -27.4453  -17.5341   21.0940 H   0  0  0  0  0  0
  -30.3516  -22.2255   17.4992 H   0  0  0  0  0  0
  -29.2587  -23.5727   17.2159 H   0  0  0  0  0  0
  -30.3946  -24.5916   19.0399 H   0  0  0  0  0  0
  -31.0634  -23.0456   19.5338 H   0  0  0  0  0  0
  -28.3558  -21.0446   17.9573 H   0  0  0  0  0  0
  -27.4553  -22.5139   18.2235 H   0  0  0  0  0  0
  -29.9394  -24.3534   21.9801 H   0  0  0  0  0  0
  -30.3844  -22.6586   21.8367 H   0  0  0  0  0  0
  -28.7791  -23.0990   22.4082 H   0  0  0  0  0  0
  -27.1389  -24.4745   20.7312 H   0  0  0  0  0  0
  -27.5889  -24.5726   19.0658 H   0  0  0  0  0  0
  -28.7237  -15.5840   20.8941 H   0  0  0  0  0  0
  1 25  1  0  0  0
  1 30  2  0  0  0
  1 84  1  0  0  0
  2  3  1  0  0  0
  2 25  1  0  0  0
  2 86  1  0  0  0
  2 87  1  0  0  0
  3  4  1  0  0  0
  3 88  1  0  0  0
  3 89  1  0  0  0
  4  5  1  0  0  0
  4 90  1  0  0  0
  4 91  1  0  0  0
  5  6  1  0  0  0
  5 26  1  0  0  0
  5 92  1  0  0  0
  6 25  1  0  0  0
  6 93  1  0  0  0
  6 94  1  0  0  0
  7  8  2  0  0  0
  7 26  1  0  0  0
  7 29  1  0  0  0
  8  9  1  0  0  0
  8 22  1  0  0  0
  9 10  1  0  0  0
  9 27  2  0  0  0
 10 11  2  0  0  0
 10 15  1  0  0  0
 11 12  1  0  0  0
 11 95  1  0  0  0
 12 13  2  0  0  0
 12 96  1  0  0  0
 13 14  1  0  0  0
 13 31  1  0  0  0
 14 15  2  0  0  0
 14 97  1  0  0  0
 15 98  1  0  0  0
 16 17  2  0  0  0
 16 21  1  0  0  0
 16 31  1  0  0  0
 17 18  1  0  0  0
 17 99  1  0  0  0
 18 19  2  0  0  0
 18100  1  0  0  0
 19 20  1  0  0  0
 19 24  1  0  0  0
 20 21  2  0  0  0
 20101  1  0  0  0
 21 23  1  0  0  0
 22 28  1  0  0  0
 22 32  2  0  0  0
 26 27  1  0  0  0
 28102  1  0  0  0
 28103  1  0  0  0
 29104  1  0  0  0
 29105  1  0  0  0
 33 34  1  0  0  0
 33 66  1  0  0  0
 33 70  2  0  0  0
 34 36  1  0  0  0
 34 59  1  0  0  0
 34106  1  0  0  0
 35 44  2  0  0  0
 35 45  1  0  0  0
 35 68  1  0  0  0
 36 56  1  0  0  0
 36107  1  0  0  0
 37 39  1  0  0  0
 37 47  1  0  0  0
 37 66  1  0  0  0
 37108  1  0  0  0
 38 43  2  0  0  0
 38 46  1  0  0  0
 38 47  1  0  0  0
 39 64  1  0  0  0
 39 67  2  0  0  0
 40 52  1  0  0  0
 40 53  2  0  0  0
 40 58  1  0  0  0
 41109  1  0  0  0
 41110  1  0  0  0
 41111  1  0  0  0
 41 48  1  0  0  0
 42 43  1  0  0  0
 42 66  1  0  0  0
 42112  1  0  0  0
 42113  1  0  0  0
 43 44  1  0  0  0
 44114  1  0  0  0
 45 46  2  0  0  0
 45115  1  0  0  0
 46116  1  0  0  0
 47117  1  0  0  0
 47118  1  0  0  0
 48 56  1  0  0  0
 48 65  1  0  0  0
 48119  1  0  0  0
 49 50  1  0  0  0
 49 53  1  0  0  0
 49 64  1  0  0  0
 49120  1  0  0  0
 50 51  1  0  0  0
 50121  1  0  0  0
 50122  1  0  0  0
 51 52  1  0  0  0
 51123  1  0  0  0
 51124  1  0  0  0
 52125  1  0  0  0
 52126  1  0  0  0
 53 54  1  0  0  0
 54 55  2  0  0  0
 54127  1  0  0  0
 55 57  1  0  0  0
 55128  1  0  0  0
 56 69  2  0  0  0
 57 58  2  0  0  0
 57129  1  0  0  0
 58130  1  0  0  0
 59 60  1  0  0  0
 59 61  1  0  0  0
 59 62  1  0  0  0
 60131  1  0  0  0
 60132  1  0  0  0
 60133  1  0  0  0
 61134  1  0  0  0
 61135  1  0  0  0
 61136  1  0  0  0
 62137  1  0  0  0
 62138  1  0  0  0
 62139  1  0  0  0
 63 65  1  0  0  0
 63140  1  0  0  0
 63141  1  0  0  0
 63142  1  0  0  0
 64143  1  0  0  0
 65144  1  0  0  0
 68 82  1  0  0  0
 71 72  2  0  0  0
 71 74  1  0  0  0
 71145  1  0  0  0
 72 75  1  0  0  0
 72146  1  0  0  0
 73 75  2  0  0  0
 73 76  1  0  0  0
 73147  1  0  0  0
 74 76  2  0  0  0
 74 83  1  0  0  0
 75 84  1  0  0  0
 76 85  1  0  0  0
 77 78  1  0  0  0
 77 79  1  0  0  0
 77148  1  0  0  0
 77149  1  0  0  0
 78 80  1  0  0  0
 78150  1  0  0  0
 78151  1  0  0  0
 79 83  1  0  0  0
 79152  1  0  0  0
 79153  1  0  0  0
 80 81  1  0  0  0
 80 82  1  0  0  0
 80 83  1  0  0  0
 81154  1  0  0  0
 81155  1  0  0  0
 81156  1  0  0  0
 82157  1  0  0  0
 82158  1  0  0  0
 84159  1  0  0  0
M  ISO  4   1 100  68 101  82 101  84 100
M  END
> <chiral flag>
0

> <version>
0

> <s_m_source_file>
/data/baiqing/PycharmProjects/Reinvent-master-3.2/result/LINK_invent/BTK/process_docking_weight1_custom_product_contain_oxygen_bond_distance_aromatic_linkinvent_7_9_3/rearranged_h_0023.sdf

> <i_m_source_file_index>
1

> <r_mmod_Potential_Energy-OPLS-2005>
567.724182128906

> <r_mmod_Stretch_Energy-OPLS-2005>
213.278137207031

> <r_mmod_Bend_Energy-OPLS-2005>
308.187255859375

> <r_mmod_Torsional_Energy-OPLS-2005>
301.020416259766

> <r_mmod_Improper_Torsional_Energy-OPLS-2005>
11.0544557571411

> <r_mmod_Van_der_Waal_Energy-OPLS-2005>
129.29362487793

> <r_mmod_Electrostatic_Energy-OPLS-2005>
-353.305419921875

> <r_mmod_Solvation_Energy-OPLS-2005>
-210.380737304688

> <b_mmod_Minimization_Converged-OPLS-2005>
0

> <r_mmod_RMS_Derivative-OPLS-2005>
2.39038825035095

$$$$
1
                    3D
 Structure written by MMmdl.
161169  0  0  1  0            999 V2000
  -30.6201  -14.6589   20.4987 C   0  0  0  0  0  0
  -30.4460  -12.4028   19.4634 C   0  0  0  0  0  0
  -29.5172  -12.5071   18.2327 C   0  0  0  0  0  0
  -28.0406  -12.3354   18.6458 C   0  0  0  0  0  0
  -27.6578  -13.2165   19.8631 C   0  0  2  0  0  0
  -28.6992  -13.0801   20.9971 C   0  0  0  0  0  0
  -25.2613  -13.8150   20.5697 C   0  0  0  0  0  0
  -24.1865  -13.0427   20.9184 C   0  0  0  0  0  0
  -24.6419  -11.6900   20.8708 C   0  0  0  0  0  0
  -23.9092  -10.4292   21.0396 C   0  0  0  0  0  0
  -24.3647   -9.4213   21.9173 C   0  0  0  0  0  0
  -23.6310   -8.2256   22.0747 C   0  0  0  0  0  0
  -22.4287   -8.0293   21.3542 C   0  0  0  0  0  0
  -21.9929   -9.0269   20.4650 C   0  0  0  0  0  0
  -22.7268  -10.2139   20.3055 C   0  0  0  0  0  0
  -21.6850   -6.0760   22.5279 C   0  0  0  0  0  0
  -21.4018   -6.5648   23.8220 C   0  0  0  0  0  0
  -21.3659   -5.6791   24.9169 C   0  0  0  0  0  0
  -21.6034   -4.3053   24.7222 C   0  0  0  0  0  0
  -21.8817   -3.8161   23.4341 C   0  0  0  0  0  0
  -21.9196   -4.6986   22.3404 C   0  0  0  0  0  0
  -22.7896  -13.5216   21.1869 C   0  0  0  0  0  0
  -22.1660   -4.2172   21.0984 F   0  0  0  0  0  0
  -21.5630   -3.4537   25.7738 F   0  0  0  0  0  0
  -30.0192  -13.4259   20.4398 N   0  0  0  0  0  0
  -26.3029  -12.9341   20.3311 N   0  0  0  0  0  0
  -25.9345  -11.6501   20.5725 N   0  0  0  0  0  0
  -22.0528  -12.8195   22.0405 N   0  0  0  0  0  0
  -25.4373  -15.1865   20.4139 N   0  0  0  0  0  0
  -31.7628  -14.8362   20.0633 O   0  0  0  0  0  0
  -21.6622   -6.8912   21.4249 O   0  0  0  0  0  0
  -22.3595  -14.5526   20.6730 O   0  0  0  0  0  0
  -24.6264  -31.8566   23.2032 C   0  0  0  0  0  0
  -25.9114  -32.4763   23.8354 C   0  0  1  0  0  0
  -27.2404  -27.3205   20.1091 C   0  0  0  0  0  0
  -25.5921  -33.8567   24.2282 N   0  0  0  0  0  0
  -23.4221  -30.4792   21.5442 C   0  0  2  0  0  0
  -24.8711  -28.9327   20.1084 C   0  0  0  0  0  0
  -22.7491  -29.4620   22.4954 C   0  0  0  0  0  0
  -18.0302  -28.1349   22.8460 C   0  0  0  0  0  0
  -24.1487  -36.7299   23.2640 C   0  0  0  0  0  0
  -25.9619  -30.7858   21.3737 C   0  0  0  0  0  0
  -26.0370  -29.4118   20.7188 C   0  0  0  0  0  0
  -27.2212  -28.6157   20.7161 C   0  0  0  0  0  0
  -26.0520  -26.9006   19.4660 C   0  0  0  0  0  0
  -24.8822  -27.6836   19.4703 C   0  0  0  0  0  0
  -23.6348  -29.8073   20.1611 C   0  0  0  0  0  0
  -25.4123  -36.3099   24.0329 C   0  0  1  0  0  0
  -20.5916  -28.3680   23.1310 C   0  0  2  0  0  0
  -20.6830  -26.9416   22.5450 C   0  0  0  0  0  0
  -19.5856  -26.6456   21.5163 C   0  0  0  0  0  0
  -18.1985  -26.7950   22.1486 C   0  0  0  0  0  0
  -19.1550  -28.8807   23.2894 C   0  0  0  0  0  0
  -18.9467  -30.1399   23.8932 C   0  0  0  0  0  0
  -17.6457  -30.6526   24.0585 C   0  0  0  0  0  0
  -25.9051  -34.9453   23.5117 C   0  0  0  0  0  0
  -16.5350  -29.9033   23.6322 C   0  0  0  0  0  0
  -16.7288  -28.6450   23.0352 C   0  0  0  0  0  0
  -26.4494  -31.6584   25.0720 C   0  0  0  0  0  0
  -25.3732  -31.3711   26.1451 C   0  0  0  0  0  0
  -27.0320  -30.3021   24.6137 C   0  0  0  0  0  0
  -27.6065  -32.4318   25.7478 C   0  0  0  0  0  0
  -27.5590  -37.1816   24.8461 C   0  0  0  0  0  0
  -21.4214  -29.3034   22.3697 N   0  0  0  0  0  0
  -26.4303  -37.3792   23.9399 N   0  0  0  0  0  0
  -24.6888  -31.0584   22.0970 N   0  0  0  0  0  0
  -23.4216  -28.8155   23.3046 O   0  0  0  0  0  0
  -28.3703  -26.4840   20.1638 O   0  0  0  0  0  0
  -26.5619  -34.8923   22.4679 O   0  0  0  0  0  0
  -23.5419  -32.1367   23.7346 O   0  0  0  0  0  0
  -29.7279  -19.3827   21.8443 C   0  0  0  0  0  0
  -29.9486  -17.9812   21.9403 C   0  0  0  0  0  0
  -29.4378  -19.1953   19.4602 C   0  0  0  0  0  0
  -29.4210  -20.0361   20.6215 C   0  0  0  0  0  0
  -29.9135  -17.1342   20.8061 C   0  0  0  0  0  0
  -29.6879  -17.7800   19.5572 C   0  0  0  0  0  0
  -29.0918  -19.7840   18.1040 C   0  0  0  0  0  0
  -27.3336  -21.6722   22.5338 C   0  0  0  0  0  0
  -29.3347  -24.0270   20.4135 C   0  0  0  0  0  0
  -27.5446  -21.4937   21.0267 C   0  0  0  0  0  0
  -29.4501  -22.5384   19.8186 C   0  0  0  0  0  0
  -28.2393  -25.0382   19.8526 C   0  0  0  0  0  0
  -29.8585  -15.6827   20.9902 N   0  0  0  0  0  0
  -28.9620  -21.4076   20.6693 N   0  0  0  0  0  0
  -29.6217  -17.0128   18.4406 F   0  0  0  0  0  0
  -31.4878  -12.5280   19.1616 H   0  0  0  0  0  0
  -30.3849  -11.4072   19.9068 H   0  0  0  0  0  0
  -29.7855  -11.7520   17.4925 H   0  0  0  0  0  0
  -29.6602  -13.4748   17.7478 H   0  0  0  0  0  0
  -27.8895  -11.2839   18.8979 H   0  0  0  0  0  0
  -27.3814  -12.5434   17.8020 H   0  0  0  0  0  0
  -27.6733  -14.2491   19.5123 H   0  0  0  0  0  0
  -28.7117  -12.0606   21.3864 H   0  0  0  0  0  0
  -28.4311  -13.7133   21.8440 H   0  0  0  0  0  0
  -25.2817   -9.5661   22.4730 H   0  0  0  0  0  0
  -24.0011   -7.4644   22.7457 H   0  0  0  0  0  0
  -21.0874   -8.8821   19.8949 H   0  0  0  0  0  0
  -22.3764  -10.9687   19.6160 H   0  0  0  0  0  0
  -21.2000   -7.6148   23.9737 H   0  0  0  0  0  0
  -21.1479   -6.0510   25.9071 H   0  0  0  0  0  0
  -22.0597   -2.7630   23.2827 H   0  0  0  0  0  0
  -22.4124  -11.9841   22.4794 H   0  0  0  0  0  0
  -21.1158  -13.1248   22.2630 H   0  0  0  0  0  0
  -24.6797  -15.8484   20.5420 H   0  0  0  0  0  0
  -26.2880  -15.6193   20.0772 H   0  0  0  0  0  0
  -26.7201  -32.5423   23.1120 H   0  0  0  0  0  0
  -25.0029  -33.9686   25.0405 H   0  0  0  0  0  0
  -22.7171  -31.2997   21.3989 H   0  0  0  0  0  0
  -23.3735  -35.9636   23.3299 H   0  0  0  0  0  0
  -24.3576  -36.8914   22.2052 H   0  0  0  0  0  0
  -23.7241  -37.6510   23.6652 H   0  0  0  0  0  0
  -26.0871  -31.5435   20.5991 H   0  0  0  0  0  0
  -26.8439  -30.8386   21.9991 H   0  0  0  0  0  0
  -28.1096  -28.9795   21.2124 H   0  0  0  0  0  0
  -26.0036  -25.9516   18.9532 H   0  0  0  0  0  0
  -23.9941  -27.3143   18.9767 H   0  0  0  0  0  0
  -23.7409  -30.5765   19.3955 H   0  0  0  0  0  0
  -22.7556  -29.2284   19.8698 H   0  0  0  0  0  0
  -25.1306  -36.1968   25.0820 H   0  0  0  0  0  0
  -21.0026  -28.3251   24.1430 H   0  0  0  0  0  0
  -20.5642  -26.2304   23.3650 H   0  0  0  0  0  0
  -21.6719  -26.7445   22.1293 H   0  0  0  0  0  0
  -19.7062  -25.6421   21.1069 H   0  0  0  0  0  0
  -19.6868  -27.3338   20.6752 H   0  0  0  0  0  0
  -17.4313  -26.6795   21.3796 H   0  0  0  0  0  0
  -18.0332  -25.9981   22.8751 H   0  0  0  0  0  0
  -19.7960  -30.7190   24.2322 H   0  0  0  0  0  0
  -17.4979  -31.6191   24.5192 H   0  0  0  0  0  0
  -15.5330  -30.2913   23.7609 H   0  0  0  0  0  0
  -15.8665  -28.0784   22.7059 H   0  0  0  0  0  0
  -24.5900  -30.7062   25.7792 H   0  0  0  0  0  0
  -24.8904  -32.2852   26.4918 H   0  0  0  0  0  0
  -25.8055  -30.8871   27.0212 H   0  0  0  0  0  0
  -26.2855  -29.6795   24.1172 H   0  0  0  0  0  0
  -27.4053  -29.7281   25.4629 H   0  0  0  0  0  0
  -27.8731  -30.4337   23.9318 H   0  0  0  0  0  0
  -27.2686  -33.3613   26.2078 H   0  0  0  0  0  0
  -28.3851  -32.6884   25.0282 H   0  0  0  0  0  0
  -28.0755  -31.8420   26.5367 H   0  0  0  0  0  0
  -28.2640  -38.0093   24.7523 H   0  0  0  0  0  0
  -28.1064  -36.2626   24.6288 H   0  0  0  0  0  0
  -27.2285  -37.1480   25.8860 H   0  0  0  0  0  0
  -20.9410  -29.8732   21.6865 H   0  0  0  0  0  0
  -26.0181  -38.2869   24.1386 H   0  0  0  0  0  0
  -29.7297  -19.9575   22.7588 H   0  0  0  0  0  0
  -30.0943  -17.5513   22.9201 H   0  0  0  0  0  0
  -29.0291  -19.0273   17.3214 H   0  0  0  0  0  0
  -29.8435  -20.5132   17.8029 H   0  0  0  0  0  0
  -28.1249  -20.2846   18.1493 H   0  0  0  0  0  0
  -28.0159  -22.4122   22.9514 H   0  0  0  0  0  0
  -27.4752  -20.7370   23.0750 H   0  0  0  0  0  0
  -26.3172  -22.0132   22.7312 H   0  0  0  0  0  0
  -30.3043  -24.4978   20.2347 H   0  0  0  0  0  0
  -29.2542  -23.9842   21.5002 H   0  0  0  0  0  0
  -27.0874  -22.3388   20.5112 H   0  0  0  0  0  0
  -27.0010  -20.6151   20.6738 H   0  0  0  0  0  0
  -30.5032  -22.3466   19.6006 H   0  0  0  0  0  0
  -28.9472  -22.5025   18.8507 H   0  0  0  0  0  0
  -27.2819  -24.6736   20.2262 H   0  0  0  0  0  0
  -28.2073  -24.9411   18.7662 H   0  0  0  0  0  0
  -29.0240  -15.3658   21.4586 H   0  0  0  0  0  0
  1 25  1  0  0  0
  1 30  2  0  0  0
  1 83  1  0  0  0
  2  3  1  0  0  0
  2 25  1  0  0  0
  2 86  1  0  0  0
  2 87  1  0  0  0
  3  4  1  0  0  0
  3 88  1  0  0  0
  3 89  1  0  0  0
  4  5  1  0  0  0
  4 90  1  0  0  0
  4 91  1  0  0  0
  5  6  1  0  0  0
  5 26  1  0  0  0
  5 92  1  0  0  0
  6 25  1  0  0  0
  6 93  1  0  0  0
  6 94  1  0  0  0
  7  8  2  0  0  0
  7 26  1  0  0  0
  7 29  1  0  0  0
  8  9  1  0  0  0
  8 22  1  0  0  0
  9 10  1  0  0  0
  9 27  2  0  0  0
 10 11  2  0  0  0
 10 15  1  0  0  0
 11 12  1  0  0  0
 11 95  1  0  0  0
 12 13  2  0  0  0
 12 96  1  0  0  0
 13 14  1  0  0  0
 13 31  1  0  0  0
 14 15  2  0  0  0
 14 97  1  0  0  0
 15 98  1  0  0  0
 16 17  2  0  0  0
 16 21  1  0  0  0
 16 31  1  0  0  0
 17 18  1  0  0  0
 17 99  1  0  0  0
 18 19  2  0  0  0
 18100  1  0  0  0
 19 20  1  0  0  0
 19 24  1  0  0  0
 20 21  2  0  0  0
 20101  1  0  0  0
 21 23  1  0  0  0
 22 28  1  0  0  0
 22 32  2  0  0  0
 26 27  1  0  0  0
 28102  1  0  0  0
 28103  1  0  0  0
 29104  1  0  0  0
 29105  1  0  0  0
 33 34  1  0  0  0
 33 66  1  0  0  0
 33 70  2  0  0  0
 34 36  1  0  0  0
 34 59  1  0  0  0
 34106  1  0  0  0
 35 44  2  0  0  0
 35 45  1  0  0  0
 35 68  1  0  0  0
 36 56  1  0  0  0
 36107  1  0  0  0
 37 39  1  0  0  0
 37 47  1  0  0  0
 37 66  1  0  0  0
 37108  1  0  0  0
 38 43  2  0  0  0
 38 46  1  0  0  0
 38 47  1  0  0  0
 39 64  1  0  0  0
 39 67  2  0  0  0
 40 52  1  0  0  0
 40 53  2  0  0  0
 40 58  1  0  0  0
 41109  1  0  0  0
 41110  1  0  0  0
 41111  1  0  0  0
 41 48  1  0  0  0
 42 43  1  0  0  0
 42 66  1  0  0  0
 42112  1  0  0  0
 42113  1  0  0  0
 43 44  1  0  0  0
 44114  1  0  0  0
 45 46  2  0  0  0
 45115  1  0  0  0
 46116  1  0  0  0
 47117  1  0  0  0
 47118  1  0  0  0
 48 56  1  0  0  0
 48 65  1  0  0  0
 48119  1  0  0  0
 49 50  1  0  0  0
 49 53  1  0  0  0
 49 64  1  0  0  0
 49120  1  0  0  0
 50 51  1  0  0  0
 50121  1  0  0  0
 50122  1  0  0  0
 51 52  1  0  0  0
 51123  1  0  0  0
 51124  1  0  0  0
 52125  1  0  0  0
 52126  1  0  0  0
 53 54  1  0  0  0
 54 55  2  0  0  0
 54127  1  0  0  0
 55 57  1  0  0  0
 55128  1  0  0  0
 56 69  2  0  0  0
 57 58  2  0  0  0
 57129  1  0  0  0
 58130  1  0  0  0
 59 60  1  0  0  0
 59 61  1  0  0  0
 59 62  1  0  0  0
 60131  1  0  0  0
 60132  1  0  0  0
 60133  1  0  0  0
 61134  1  0  0  0
 61135  1  0  0  0
 61136  1  0  0  0
 62137  1  0  0  0
 62138  1  0  0  0
 62139  1  0  0  0
 63 65  1  0  0  0
 63140  1  0  0  0
 63141  1  0  0  0
 63142  1  0  0  0
 64143  1  0  0  0
 65144  1  0  0  0
 68 82  1  0  0  0
 71 72  2  0  0  0
 71 74  1  0  0  0
 71145  1  0  0  0
 72 75  1  0  0  0
 72146  1  0  0  0
 73 74  2  0  0  0
 73 76  1  0  0  0
 73 77  1  0  0  0
 74 84  1  0  0  0
 75 76  2  0  0  0
 75 83  1  0  0  0
 76 85  1  0  0  0
 77147  1  0  0  0
 77148  1  0  0  0
 77149  1  0  0  0
 78 80  1  0  0  0
 78150  1  0  0  0
 78151  1  0  0  0
 78152  1  0  0  0
 79 81  1  0  0  0
 79 82  1  0  0  0
 79153  1  0  0  0
 79154  1  0  0  0
 80 84  1  0  0  0
 80155  1  0  0  0
 80156  1  0  0  0
 81 84  1  0  0  0
 81157  1  0  0  0
 81158  1  0  0  0
 82159  1  0  0  0
 82160  1  0  0  0
 83161  1  0  0  0
M  ISO  4   1 100  68 101  82 101  83 100
M  END
> <chiral flag>
0

> <version>
0

> <s_m_source_file>
/data/baiqing/PycharmProjects/Reinvent-master-3.2/result/LINK_invent/BTK/process_docking_weight1_custom_product_contain_oxygen_bond_distance_aromatic_linkinvent_7_9_3/rearranged_h_0023.sdf

> <i_m_source_file_index>
2

> <r_mmod_Potential_Energy-OPLS-2005>
77.0659561157227

> <r_mmod_Stretch_Energy-OPLS-2005>
84.2798614501953

> <r_mmod_Bend_Energy-OPLS-2005>
149.451614379883

> <r_mmod_Torsional_Energy-OPLS-2005>
284.042663574219

> <r_mmod_Improper_Torsional_Energy-OPLS-2005>
7.74354934692383

> <r_mmod_Van_der_Waal_Energy-OPLS-2005>
140.444854736328

> <r_mmod_Electrostatic_Energy-OPLS-2005>
-426.093811035156

> <r_mmod_Solvation_Energy-OPLS-2005>
-214.069641113281

> <b_mmod_Minimization_Converged-OPLS-2005>
0

> <r_mmod_RMS_Derivative-OPLS-2005>
3.61486029624939

$$$$
2
                    3D
 Structure written by MMmdl.
155164  0  0  1  0            999 V2000
  -30.6218  -14.6379   20.5086 C   0  0  0  0  0  0
  -30.4433  -12.3922   19.4553 C   0  0  0  0  0  0
  -29.5102  -12.5047   18.2287 C   0  0  0  0  0  0
  -28.0344  -12.3374   18.6433 C   0  0  0  0  0  0
  -27.6559  -13.2131   19.8668 C   0  0  2  0  0  0
  -28.7001  -13.0647   20.9971 C   0  0  0  0  0  0
  -25.2573  -13.8165   20.5690 C   0  0  0  0  0  0
  -24.1832  -13.0437   20.9192 C   0  0  0  0  0  0
  -24.6396  -11.6905   20.8751 C   0  0  0  0  0  0
  -23.9063  -10.4288   21.0411 C   0  0  0  0  0  0
  -24.3618   -9.4204   21.9189 C   0  0  0  0  0  0
  -23.6291   -8.2243   22.0760 C   0  0  0  0  0  0
  -22.4274   -8.0277   21.3548 C   0  0  0  0  0  0
  -21.9910   -9.0252   20.4653 C   0  0  0  0  0  0
  -22.7239  -10.2129   20.3057 C   0  0  0  0  0  0
  -21.6847   -6.0732   22.5279 C   0  0  0  0  0  0
  -21.4003   -6.5635   23.8212 C   0  0  0  0  0  0
  -21.3662   -5.6791   24.9177 C   0  0  0  0  0  0
  -21.6045   -4.3053   24.7226 C   0  0  0  0  0  0
  -21.8817   -3.8142   23.4347 C   0  0  0  0  0  0
  -21.9191   -4.6958   22.3403 C   0  0  0  0  0  0
  -22.7856  -13.5239   21.1851 C   0  0  0  0  0  0
  -22.1659   -4.2146   21.0979 F   0  0  0  0  0  0
  -21.5639   -3.4536   25.7742 F   0  0  0  0  0  0
  -30.0176  -13.4096   20.4370 N   0  0  0  0  0  0
  -26.3002  -12.9338   20.3340 N   0  0  0  0  0  0
  -25.9322  -11.6494   20.5779 N   0  0  0  0  0  0
  -22.0490  -12.8236   22.0406 N   0  0  0  0  0  0
  -25.4298  -15.1888   20.4095 N   0  0  0  0  0  0
  -31.7786  -14.8083   20.1122 O   0  0  0  0  0  0
  -21.6638   -6.8874   21.4241 O   0  0  0  0  0  0
  -22.3550  -14.5555   20.6714 O   0  0  0  0  0  0
  -24.6256  -31.8595   23.2014 C   0  0  0  0  0  0
  -25.9108  -32.4783   23.8336 C   0  0  1  0  0  0
  -27.2325  -27.3252   20.1137 C   0  0  0  0  0  0
  -25.5928  -33.8581   24.2258 N   0  0  0  0  0  0
  -23.4199  -30.4830   21.5442 C   0  0  2  0  0  0
  -24.8674  -28.9387   20.1110 C   0  0  0  0  0  0
  -22.7475  -29.4625   22.4935 C   0  0  0  0  0  0
  -18.0291  -28.1390   22.8490 C   0  0  0  0  0  0
  -24.1479  -36.7274   23.2638 C   0  0  0  0  0  0
  -25.9597  -30.7928   21.3706 C   0  0  0  0  0  0
  -26.0362  -29.4201   20.7141 C   0  0  0  0  0  0
  -27.2214  -28.6258   20.7048 C   0  0  0  0  0  0
  -26.0376  -26.8981   19.4861 C   0  0  0  0  0  0
  -24.8696  -27.6826   19.4876 C   0  0  0  0  0  0
  -23.6344  -29.8170   20.1603 C   0  0  0  0  0  0
  -25.4109  -36.3076   24.0327 C   0  0  1  0  0  0
  -20.5896  -28.3691   23.1277 C   0  0  2  0  0  0
  -20.6776  -26.9416   22.5397 C   0  0  0  0  0  0
  -19.5753  -26.6391   21.5205 C   0  0  0  0  0  0
  -18.1934  -26.7934   22.1623 C   0  0  0  0  0  0
  -19.1546  -28.8858   23.2880 C   0  0  0  0  0  0
  -18.9478  -30.1468   23.8886 C   0  0  0  0  0  0
  -17.6480  -30.6590   24.0581 C   0  0  0  0  0  0
  -25.9055  -34.9455   23.5090 C   0  0  0  0  0  0
  -16.5366  -29.9097   23.6342 C   0  0  0  0  0  0
  -16.7281  -28.6518   23.0352 C   0  0  0  0  0  0
  -26.4494  -31.6595   25.0703 C   0  0  0  0  0  0
  -25.3728  -31.3743   26.1431 C   0  0  0  0  0  0
  -27.0348  -30.3032   24.6133 C   0  0  0  0  0  0
  -27.6042  -32.4349   25.7479 C   0  0  0  0  0  0
  -27.5575  -37.1793   24.8478 C   0  0  0  0  0  0
  -21.4189  -29.3046   22.3677 N   0  0  0  0  0  0
  -26.4277  -37.3781   23.9431 N   0  0  0  0  0  0
  -24.6870  -31.0613   22.0961 N   0  0  0  0  0  0
  -23.4201  -28.8168   23.3013 O   0  0  0  0  0  0
  -28.3544  -26.4791   20.1660 O   0  0  0  0  0  0
  -26.5629  -34.8936   22.4663 O   0  0  0  0  0  0
  -23.5417  -32.1388   23.7343 O   0  0  0  0  0  0
  -28.6928  -19.3192   20.9354 C   0  0  0  0  0  0
  -28.7337  -17.9009   21.0717 C   0  0  0  0  0  0
  -30.9921  -17.8727   20.2779 C   0  0  0  0  0  0
  -29.7995  -20.0807   20.4601 C   0  0  0  0  0  0
  -29.8762  -17.1276   20.7396 C   0  0  0  0  0  0
  -30.9591  -19.2961   20.1463 C   0  0  0  0  0  0
  -28.8191  -22.4768   20.6912 C   0  0  0  0  0  0
  -30.3915  -23.7682   19.4773 C   0  0  0  0  0  0
  -30.8626  -22.3107   19.6813 C   0  0  0  0  0  0
  -29.2424  -23.9689   20.4644 C   0  0  1  0  0  0
  -28.1254  -25.0205   20.0289 C   0  0  0  0  0  0
  -29.7636  -21.5606   20.3010 N   0  0  0  0  0  0
  -29.8092  -15.6714   20.8950 N   0  0  0  0  0  0
  -27.7255  -22.2068   21.1947 O   0  0  0  0  0  0
  -32.0954  -19.8918   19.7131 F   0  0  0  0  0  0
  -31.4841  -12.5223   19.1528 H   0  0  0  0  0  0
  -30.3841  -11.3959   19.8966 H   0  0  0  0  0  0
  -29.7762  -11.7505   17.4864 H   0  0  0  0  0  0
  -29.6481  -13.4730   17.7447 H   0  0  0  0  0  0
  -27.8817  -11.2850   18.8859 H   0  0  0  0  0  0
  -27.3744  -12.5524   17.8023 H   0  0  0  0  0  0
  -27.6757  -14.2487   19.5253 H   0  0  0  0  0  0
  -28.7115  -12.0417   21.3767 H   0  0  0  0  0  0
  -28.4428  -13.6909   21.8526 H   0  0  0  0  0  0
  -25.2760   -9.5677   22.4770 H   0  0  0  0  0  0
  -23.9994   -7.4631   22.7476 H   0  0  0  0  0  0
  -21.0843   -8.8768   19.8955 H   0  0  0  0  0  0
  -22.3699  -10.9670   19.6168 H   0  0  0  0  0  0
  -21.1980   -7.6143   23.9714 H   0  0  0  0  0  0
  -21.1491   -6.0522   25.9083 H   0  0  0  0  0  0
  -22.0595   -2.7603   23.2848 H   0  0  0  0  0  0
  -22.4082  -11.9880   22.4775 H   0  0  0  0  0  0
  -21.1119  -13.1283   22.2627 H   0  0  0  0  0  0
  -24.6588  -15.8405   20.5079 H   0  0  0  0  0  0
  -26.2740  -15.6247   20.0614 H   0  0  0  0  0  0
  -26.7170  -32.5456   23.1077 H   0  0  0  0  0  0
  -25.0116  -33.9736   25.0431 H   0  0  0  0  0  0
  -22.7141  -31.3036   21.4007 H   0  0  0  0  0  0
  -23.3760  -35.9590   23.3293 H   0  0  0  0  0  0
  -24.3565  -36.8890   22.2052 H   0  0  0  0  0  0
  -23.7205  -37.6461   23.6661 H   0  0  0  0  0  0
  -26.0872  -31.5552   20.6008 H   0  0  0  0  0  0
  -26.8402  -30.8437   21.9985 H   0  0  0  0  0  0
  -28.1179  -28.9926   21.1855 H   0  0  0  0  0  0
  -25.9751  -25.9408   18.9919 H   0  0  0  0  0  0
  -23.9756  -27.3073   19.0088 H   0  0  0  0  0  0
  -23.7542  -30.5931   19.4033 H   0  0  0  0  0  0
  -22.7546  -29.2459   19.8571 H   0  0  0  0  0  0
  -25.1282  -36.1903   25.0815 H   0  0  0  0  0  0
  -20.9993  -28.3247   24.1397 H   0  0  0  0  0  0
  -20.5675  -26.2304   23.3596 H   0  0  0  0  0  0
  -21.6645  -26.7443   22.1190 H   0  0  0  0  0  0
  -19.6917  -25.6302   21.1237 H   0  0  0  0  0  0
  -19.6684  -27.3202   20.6736 H   0  0  0  0  0  0
  -17.4203  -26.6693   21.4025 H   0  0  0  0  0  0
  -18.0335  -26.0061   22.9004 H   0  0  0  0  0  0
  -19.7961  -30.7298   24.2220 H   0  0  0  0  0  0
  -17.5043  -31.6271   24.5188 H   0  0  0  0  0  0
  -15.5370  -30.3013   23.7673 H   0  0  0  0  0  0
  -15.8676  -28.0853   22.7055 H   0  0  0  0  0  0
  -24.5902  -30.7089   25.7764 H   0  0  0  0  0  0
  -24.8937  -32.2925   26.4844 H   0  0  0  0  0  0
  -25.8049  -30.8931   27.0215 H   0  0  0  0  0  0
  -26.2919  -29.6778   24.1169 H   0  0  0  0  0  0
  -27.4091  -29.7273   25.4607 H   0  0  0  0  0  0
  -27.8755  -30.4343   23.9318 H   0  0  0  0  0  0
  -27.2630  -33.3660   26.2018 H   0  0  0  0  0  0
  -28.3867  -32.6893   25.0319 H   0  0  0  0  0  0
  -28.0688  -31.8506   26.5427 H   0  0  0  0  0  0
  -28.2583  -38.0104   24.7550 H   0  0  0  0  0  0
  -28.1074  -36.2637   24.6254 H   0  0  0  0  0  0
  -27.2309  -37.1368   25.8886 H   0  0  0  0  0  0
  -20.9359  -29.8787   21.6905 H   0  0  0  0  0  0
  -26.0144  -38.2841   24.1475 H   0  0  0  0  0  0
  -27.7698  -19.8063   21.2068 H   0  0  0  0  0  0
  -27.8469  -17.4031   21.4406 H   0  0  0  0  0  0
  -31.9073  -17.3635   20.0159 H   0  0  0  0  0  0
  -30.0375  -23.8998   18.4538 H   0  0  0  0  0  0
  -31.1996  -24.4830   19.6357 H   0  0  0  0  0  0
  -31.7276  -22.2858   20.3463 H   0  0  0  0  0  0
  -31.1560  -21.8727   18.7266 H   0  0  0  0  0  0
  -29.6506  -24.2932   21.4219 H   0  0  0  0  0  0
  -27.2345  -24.7818   20.6121 H   0  0  0  0  0  0
  -27.8708  -24.8153   18.9884 H   0  0  0  0  0  0
  -28.9202  -15.3348   21.2328 H   0  0  0  0  0  0
  1 25  1  0  0  0
  1 30  2  0  0  0
  1 83  1  0  0  0
  2  3  1  0  0  0
  2 25  1  0  0  0
  2 86  1  0  0  0
  2 87  1  0  0  0
  3  4  1  0  0  0
  3 88  1  0  0  0
  3 89  1  0  0  0
  4  5  1  0  0  0
  4 90  1  0  0  0
  4 91  1  0  0  0
  5  6  1  0  0  0
  5 26  1  0  0  0
  5 92  1  0  0  0
  6 25  1  0  0  0
  6 93  1  0  0  0
  6 94  1  0  0  0
  7  8  2  0  0  0
  7 26  1  0  0  0
  7 29  1  0  0  0
  8  9  1  0  0  0
  8 22  1  0  0  0
  9 10  1  0  0  0
  9 27  2  0  0  0
 10 11  2  0  0  0
 10 15  1  0  0  0
 11 12  1  0  0  0
 11 95  1  0  0  0
 12 13  2  0  0  0
 12 96  1  0  0  0
 13 14  1  0  0  0
 13 31  1  0  0  0
 14 15  2  0  0  0
 14 97  1  0  0  0
 15 98  1  0  0  0
 16 17  2  0  0  0
 16 21  1  0  0  0
 16 31  1  0  0  0
 17 18  1  0  0  0
 17 99  1  0  0  0
 18 19  2  0  0  0
 18100  1  0  0  0
 19 20  1  0  0  0
 19 24  1  0  0  0
 20 21  2  0  0  0
 20101  1  0  0  0
 21 23  1  0  0  0
 22 28  1  0  0  0
 22 32  2  0  0  0
 26 27  1  0  0  0
 28102  1  0  0  0
 28103  1  0  0  0
 29104  1  0  0  0
 29105  1  0  0  0
 33 34  1  0  0  0
 33 66  1  0  0  0
 33 70  2  0  0  0
 34 36  1  0  0  0
 34 59  1  0  0  0
 34106  1  0  0  0
 35 44  2  0  0  0
 35 45  1  0  0  0
 35 68  1  0  0  0
 36 56  1  0  0  0
 36107  1  0  0  0
 37 39  1  0  0  0
 37 47  1  0  0  0
 37 66  1  0  0  0
 37108  1  0  0  0
 38 43  2  0  0  0
 38 46  1  0  0  0
 38 47  1  0  0  0
 39 64  1  0  0  0
 39 67  2  0  0  0
 40 52  1  0  0  0
 40 53  2  0  0  0
 40 58  1  0  0  0
 41109  1  0  0  0
 41110  1  0  0  0
 41111  1  0  0  0
 41 48  1  0  0  0
 42 43  1  0  0  0
 42 66  1  0  0  0
 42112  1  0  0  0
 42113  1  0  0  0
 43 44  1  0  0  0
 44114  1  0  0  0
 45 46  2  0  0  0
 45115  1  0  0  0
 46116  1  0  0  0
 47117  1  0  0  0
 47118  1  0  0  0
 48 56  1  0  0  0
 48 65  1  0  0  0
 48119  1  0  0  0
 49 50  1  0  0  0
 49 53  1  0  0  0
 49 64  1  0  0  0
 49120  1  0  0  0
 50 51  1  0  0  0
 50121  1  0  0  0
 50122  1  0  0  0
 51 52  1  0  0  0
 51123  1  0  0  0
 51124  1  0  0  0
 52125  1  0  0  0
 52126  1  0  0  0
 53 54  1  0  0  0
 54 55  2  0  0  0
 54127  1  0  0  0
 55 57  1  0  0  0
 55128  1  0  0  0
 56 69  2  0  0  0
 57 58  2  0  0  0
 57129  1  0  0  0
 58130  1  0  0  0
 59 60  1  0  0  0
 59 61  1  0  0  0
 59 62  1  0  0  0
 60131  1  0  0  0
 60132  1  0  0  0
 60133  1  0  0  0
 61134  1  0  0  0
 61135  1  0  0  0
 61136  1  0  0  0
 62137  1  0  0  0
 62138  1  0  0  0
 62139  1  0  0  0
 63 65  1  0  0  0
 63140  1  0  0  0
 63141  1  0  0  0
 63142  1  0  0  0
 64143  1  0  0  0
 65144  1  0  0  0
 68 81  1  0  0  0
 71 72  2  0  0  0
 71 74  1  0  0  0
 71145  1  0  0  0
 72 75  1  0  0  0
 72146  1  0  0  0
 73 75  2  0  0  0
 73 76  1  0  0  0
 73147  1  0  0  0
 74 76  2  0  0  0
 74 82  1  0  0  0
 75 83  1  0  0  0
 76 85  1  0  0  0
 77 80  1  0  0  0
 77 82  1  0  0  0
 77 84  2  0  0  0
 78 79  1  0  0  0
 78 80  1  0  0  0
 78148  1  0  0  0
 78149  1  0  0  0
 79 82  1  0  0  0
 79150  1  0  0  0
 79151  1  0  0  0
 80 81  1  0  0  0
 80152  1  0  0  0
 81153  1  0  0  0
 81154  1  0  0  0
 83155  1  0  0  0
M  ISO  4   1 100  68 101  81 101  83 100
M  END
> <chiral flag>
0

> <version>
0

> <s_m_source_file>
/data/baiqing/PycharmProjects/Reinvent-master-3.2/result/LINK_invent/BTK/process_docking_weight1_custom_product_contain_oxygen_bond_distance_aromatic_linkinvent_7_9_3/rearranged_h_0023.sdf

> <i_m_source_file_index>
3

> <r_mmod_Potential_Energy-OPLS-2005>
135.948196411133

> <r_mmod_Stretch_Energy-OPLS-2005>
83.4098434448242

> <r_mmod_Bend_Energy-OPLS-2005>
168.991851806641

> <r_mmod_Torsional_Energy-OPLS-2005>
252.532943725586

> <r_mmod_Improper_Torsional_Energy-OPLS-2005>
3.93975591659546

> <r_mmod_Van_der_Waal_Energy-OPLS-2005>
152.924697875977

> <r_mmod_Electrostatic_Energy-OPLS-2005>
-359.209838867188

> <r_mmod_Solvation_Energy-OPLS-2005>
-213.683441162109

> <b_mmod_Minimization_Converged-OPLS-2005>
0

> <r_mmod_RMS_Derivative-OPLS-2005>
1.26658821105957

$$$$
3
                    3D
 Structure written by MMmdl.
158166  0  0  1  0            999 V2000
  -30.7369  -14.4535   20.6081 C   0  0  0  0  0  0
  -30.4139  -12.3062   19.4307 C   0  0  0  0  0  0
  -29.4929  -12.5099   18.2106 C   0  0  0  0  0  0
  -28.0151  -12.3686   18.6213 C   0  0  0  0  0  0
  -27.6611  -13.2103   19.8765 C   0  0  2  0  0  0
  -28.6984  -12.9992   21.0005 C   0  0  0  0  0  0
  -25.2593  -13.8169   20.5704 C   0  0  0  0  0  0
  -24.1842  -13.0444   20.9182 C   0  0  0  0  0  0
  -24.6396  -11.6911   20.8733 C   0  0  0  0  0  0
  -23.9066  -10.4297   21.0400 C   0  0  0  0  0  0
  -24.3620   -9.4214   21.9181 C   0  0  0  0  0  0
  -23.6295   -8.2251   22.0751 C   0  0  0  0  0  0
  -22.4275   -8.0289   21.3542 C   0  0  0  0  0  0
  -21.9912   -9.0264   20.4646 C   0  0  0  0  0  0
  -22.7241  -10.2143   20.3051 C   0  0  0  0  0  0
  -21.6861   -6.0738   22.5282 C   0  0  0  0  0  0
  -21.4019   -6.5642   23.8214 C   0  0  0  0  0  0
  -21.3658   -5.6794   24.9175 C   0  0  0  0  0  0
  -21.6045   -4.3056   24.7227 C   0  0  0  0  0  0
  -21.8819   -3.8151   23.4351 C   0  0  0  0  0  0
  -21.9196   -4.6966   22.3405 C   0  0  0  0  0  0
  -22.7865  -13.5240   21.1842 C   0  0  0  0  0  0
  -22.1661   -4.2148   21.0982 F   0  0  0  0  0  0
  -21.5637   -3.4539   25.7742 F   0  0  0  0  0  0
  -30.0327  -13.2958   20.4548 N   0  0  0  0  0  0
  -26.3025  -12.9340   20.3376 N   0  0  0  0  0  0
  -25.9324  -11.6498   20.5770 N   0  0  0  0  0  0
  -22.0512  -12.8231   22.0402 N   0  0  0  0  0  0
  -25.4340  -15.1881   20.4134 N   0  0  0  0  0  0
  -31.8311  -14.6274   20.0598 O   0  0  0  0  0  0
  -21.6644   -6.8883   21.4246 O   0  0  0  0  0  0
  -22.3547  -14.5545   20.6694 O   0  0  0  0  0  0
  -24.6145  -31.8677   23.2094 C   0  0  0  0  0  0
  -25.9039  -32.4821   23.8392 C   0  0  1  0  0  0
  -27.2303  -27.4341   20.0964 C   0  0  0  0  0  0
  -25.5900  -33.8622   24.2326 N   0  0  0  0  0  0
  -23.4028  -30.4912   21.5498 C   0  0  2  0  0  0
  -24.8503  -28.9584   20.1123 C   0  0  0  0  0  0
  -22.7417  -29.4657   22.4987 C   0  0  0  0  0  0
  -18.0285  -28.1372   22.8493 C   0  0  0  0  0  0
  -24.1490  -36.7318   23.2639 C   0  0  0  0  0  0
  -25.9324  -30.8349   21.3614 C   0  0  0  0  0  0
  -26.0114  -29.4698   20.7067 C   0  0  0  0  0  0
  -27.2087  -28.7165   20.6918 C   0  0  0  0  0  0
  -26.0563  -26.9400   19.4904 C   0  0  0  0  0  0
  -24.8672  -27.6932   19.5005 C   0  0  0  0  0  0
  -23.6108  -29.8240   20.1648 C   0  0  0  0  0  0
  -25.4108  -36.3109   24.0337 C   0  0  1  0  0  0
  -20.5872  -28.3662   23.1322 C   0  0  2  0  0  0
  -20.6783  -26.9400   22.5418 C   0  0  0  0  0  0
  -19.5765  -26.6393   21.5211 C   0  0  0  0  0  0
  -18.1938  -26.7926   22.1614 C   0  0  0  0  0  0
  -19.1532  -28.8832   23.2908 C   0  0  0  0  0  0
  -18.9458  -30.1436   23.8920 C   0  0  0  0  0  0
  -17.6458  -30.6578   24.0567 C   0  0  0  0  0  0
  -25.9035  -34.9478   23.5125 C   0  0  0  0  0  0
  -16.5349  -29.9082   23.6324 C   0  0  0  0  0  0
  -16.7273  -28.6491   23.0355 C   0  0  0  0  0  0
  -26.4470  -31.6599   25.0721 C   0  0  0  0  0  0
  -25.3736  -31.3706   26.1471 C   0  0  0  0  0  0
  -27.0298  -30.3039   24.6095 C   0  0  0  0  0  0
  -27.6049  -32.4312   25.7487 C   0  0  0  0  0  0
  -27.5580  -37.1811   24.8465 C   0  0  0  0  0  0
  -21.4142  -29.3036   22.3728 N   0  0  0  0  0  0
  -26.4294  -37.3790   23.9408 N   0  0  0  0  0  0
  -24.6682  -31.0786   22.0987 N   0  0  0  0  0  0
  -23.4190  -28.8194   23.3028 O   0  0  0  0  0  0
  -28.3706  -26.6602   20.1084 O   0  0  0  0  0  0
  -26.5596  -34.8924   22.4685 O   0  0  0  0  0  0
  -23.5339  -32.1427   23.7489 O   0  0  0  0  0  0
  -29.5760  -19.2769   20.4779 C   0  0  0  0  0  0
  -28.0316  -17.7220   21.5415 C   0  0  0  0  0  0
  -27.5110  -20.1101   21.4466 C   0  0  0  0  0  0
  -29.2549  -17.9524   20.8753 C   0  0  0  0  0  0
  -28.7130  -20.3688   20.7462 C   0  0  0  0  0  0
  -27.1735  -18.7982   21.8370 C   0  0  0  0  0  0
  -30.1261  -15.5699   22.6670 C   0  0  0  0  0  0
  -30.2278  -16.8169   20.5207 C   0  0  0  0  0  0
  -28.7824  -24.1753   20.1030 C   0  0  0  0  0  0
  -28.4711  -22.8660   20.8763 C   0  0  0  0  0  0
  -28.2324  -25.4241   20.8371 C   0  0  0  0  0  0
  -29.0704  -21.6590   20.2895 N   0  0  0  0  0  0
  -30.0988  -15.5005   21.1971 N   0  0  0  0  0  0
  -26.0095  -18.5706   22.4920 F   0  0  0  0  0  0
  -31.4599  -12.3878   19.1293 H   0  0  0  0  0  0
  -30.3041  -11.2975   19.8315 H   0  0  0  0  0  0
  -29.7349  -11.7868   17.4305 H   0  0  0  0  0  0
  -29.6618  -13.4976   17.7781 H   0  0  0  0  0  0
  -27.8277  -11.3126   18.8200 H   0  0  0  0  0  0
  -27.3647  -12.6403   17.7892 H   0  0  0  0  0  0
  -27.7051  -14.2590   19.5800 H   0  0  0  0  0  0
  -28.6675  -11.9684   21.3550 H   0  0  0  0  0  0
  -28.4473  -13.6112   21.8656 H   0  0  0  0  0  0
  -25.2762   -9.5689   22.4759 H   0  0  0  0  0  0
  -24.0006   -7.4640   22.7468 H   0  0  0  0  0  0
  -21.0842   -8.8788   19.8949 H   0  0  0  0  0  0
  -22.3698  -10.9690   19.6162 H   0  0  0  0  0  0
  -21.2012   -7.6149   23.9715 H   0  0  0  0  0  0
  -21.1472   -6.0523   25.9074 H   0  0  0  0  0  0
  -22.0593   -2.7612   23.2852 H   0  0  0  0  0  0
  -22.4141  -11.9894   22.4781 H   0  0  0  0  0  0
  -21.1130  -13.1253   22.2606 H   0  0  0  0  0  0
  -24.6770  -15.8497   20.5458 H   0  0  0  0  0  0
  -26.2944  -15.6254   20.1098 H   0  0  0  0  0  0
  -26.7112  -32.5538   23.1160 H   0  0  0  0  0  0
  -25.0051  -33.9790   25.0471 H   0  0  0  0  0  0
  -22.6909  -31.3077   21.4113 H   0  0  0  0  0  0
  -23.3742  -35.9660   23.3312 H   0  0  0  0  0  0
  -24.3584  -36.8920   22.2051 H   0  0  0  0  0  0
  -23.7256  -37.6534   23.6641 H   0  0  0  0  0  0
  -26.0437  -31.6027   20.5945 H   0  0  0  0  0  0
  -26.8212  -30.8880   21.9790 H   0  0  0  0  0  0
  -28.1060  -29.1059   21.1525 H   0  0  0  0  0  0
  -26.0593  -25.9675   19.0181 H   0  0  0  0  0  0
  -23.9744  -27.2957   19.0386 H   0  0  0  0  0  0
  -23.7149  -30.5991   19.4051 H   0  0  0  0  0  0
  -22.7355  -29.2415   19.8714 H   0  0  0  0  0  0
  -25.1283  -36.1973   25.0828 H   0  0  0  0  0  0
  -20.9965  -28.3225   24.1442 H   0  0  0  0  0  0
  -20.5686  -26.2267   23.3599 H   0  0  0  0  0  0
  -21.6657  -26.7435   22.1213 H   0  0  0  0  0  0
  -19.6945  -25.6315   21.1222 H   0  0  0  0  0  0
  -19.6717  -27.3231   20.6766 H   0  0  0  0  0  0
  -17.4204  -26.6690   21.4012 H   0  0  0  0  0  0
  -18.0329  -26.0055   22.8991 H   0  0  0  0  0  0
  -19.7933  -30.7246   24.2303 H   0  0  0  0  0  0
  -17.5009  -31.6263   24.5152 H   0  0  0  0  0  0
  -15.5346  -30.2985   23.7634 H   0  0  0  0  0  0
  -15.8679  -28.0814   22.7052 H   0  0  0  0  0  0
  -24.5908  -30.7056   25.7808 H   0  0  0  0  0  0
  -24.8934  -32.2866   26.4919 H   0  0  0  0  0  0
  -25.8093  -30.8874   27.0226 H   0  0  0  0  0  0
  -26.2844  -29.6808   24.1138 H   0  0  0  0  0  0
  -27.4060  -29.7264   25.4550 H   0  0  0  0  0  0
  -27.8681  -30.4362   23.9250 H   0  0  0  0  0  0
  -27.2670  -33.3595   26.2101 H   0  0  0  0  0  0
  -28.3844  -32.6895   25.0309 H   0  0  0  0  0  0
  -28.0733  -31.8413   26.5374 H   0  0  0  0  0  0
  -28.2602  -38.0101   24.7494 H   0  0  0  0  0  0
  -28.1068  -36.2630   24.6303 H   0  0  0  0  0  0
  -27.2299  -37.1481   25.8869 H   0  0  0  0  0  0
  -20.9286  -29.8767   21.6965 H   0  0  0  0  0  0
  -26.0183  -38.2873   24.1390 H   0  0  0  0  0  0
  -30.5025  -19.4489   19.9474 H   0  0  0  0  0  0
  -27.7342  -16.7254   21.8320 H   0  0  0  0  0  0
  -26.8119  -20.8959   21.6847 H   0  0  0  0  0  0
  -30.4915  -16.5369   23.0150 H   0  0  0  0  0  0
  -30.7762  -14.8111   23.1084 H   0  0  0  0  0  0
  -29.1314  -15.4247   23.0858 H   0  0  0  0  0  0
  -31.2453  -17.1827   20.6756 H   0  0  0  0  0  0
  -30.1278  -16.6650   19.4429 H   0  0  0  0  0  0
  -28.3389  -24.1199   19.1073 H   0  0  0  0  0  0
  -29.8575  -24.2877   19.9612 H   0  0  0  0  0  0
  -27.3870  -22.7653   20.9269 H   0  0  0  0  0  0
  -28.8265  -22.9588   21.9035 H   0  0  0  0  0  0
  -28.7645  -25.5424   21.7814 H   0  0  0  0  0  0
  -27.1960  -25.2283   21.1169 H   0  0  0  0  0  0
  -29.9867  -21.7618   19.8590 H   0  0  0  0  0  0
  1 25  1  0  0  0
  1 30  2  0  0  0
  1 83  1  0  0  0
  2  3  1  0  0  0
  2 25  1  0  0  0
  2 85  1  0  0  0
  2 86  1  0  0  0
  3  4  1  0  0  0
  3 87  1  0  0  0
  3 88  1  0  0  0
  4  5  1  0  0  0
  4 89  1  0  0  0
  4 90  1  0  0  0
  5  6  1  0  0  0
  5 26  1  0  0  0
  5 91  1  0  0  0
  6 25  1  0  0  0
  6 92  1  0  0  0
  6 93  1  0  0  0
  7  8  2  0  0  0
  7 26  1  0  0  0
  7 29  1  0  0  0
  8  9  1  0  0  0
  8 22  1  0  0  0
  9 10  1  0  0  0
  9 27  2  0  0  0
 10 11  2  0  0  0
 10 15  1  0  0  0
 11 12  1  0  0  0
 11 94  1  0  0  0
 12 13  2  0  0  0
 12 95  1  0  0  0
 13 14  1  0  0  0
 13 31  1  0  0  0
 14 15  2  0  0  0
 14 96  1  0  0  0
 15 97  1  0  0  0
 16 17  2  0  0  0
 16 21  1  0  0  0
 16 31  1  0  0  0
 17 18  1  0  0  0
 17 98  1  0  0  0
 18 19  2  0  0  0
 18 99  1  0  0  0
 19 20  1  0  0  0
 19 24  1  0  0  0
 20 21  2  0  0  0
 20100  1  0  0  0
 21 23  1  0  0  0
 22 28  1  0  0  0
 22 32  2  0  0  0
 26 27  1  0  0  0
 28101  1  0  0  0
 28102  1  0  0  0
 29103  1  0  0  0
 29104  1  0  0  0
 33 34  1  0  0  0
 33 66  1  0  0  0
 33 70  2  0  0  0
 34 36  1  0  0  0
 34 59  1  0  0  0
 34105  1  0  0  0
 35 44  2  0  0  0
 35 45  1  0  0  0
 35 68  1  0  0  0
 36 56  1  0  0  0
 36106  1  0  0  0
 37 39  1  0  0  0
 37 47  1  0  0  0
 37 66  1  0  0  0
 37107  1  0  0  0
 38 43  2  0  0  0
 38 46  1  0  0  0
 38 47  1  0  0  0
 39 64  1  0  0  0
 39 67  2  0  0  0
 40 52  1  0  0  0
 40 53  2  0  0  0
 40 58  1  0  0  0
 41108  1  0  0  0
 41109  1  0  0  0
 41110  1  0  0  0
 41 48  1  0  0  0
 42 43  1  0  0  0
 42 66  1  0  0  0
 42111  1  0  0  0
 42112  1  0  0  0
 43 44  1  0  0  0
 44113  1  0  0  0
 45 46  2  0  0  0
 45114  1  0  0  0
 46115  1  0  0  0
 47116  1  0  0  0
 47117  1  0  0  0
 48 56  1  0  0  0
 48 65  1  0  0  0
 48118  1  0  0  0
 49 50  1  0  0  0
 49 53  1  0  0  0
 49 64  1  0  0  0
 49119  1  0  0  0
 50 51  1  0  0  0
 50120  1  0  0  0
 50121  1  0  0  0
 51 52  1  0  0  0
 51122  1  0  0  0
 51123  1  0  0  0
 52124  1  0  0  0
 52125  1  0  0  0
 53 54  1  0  0  0
 54 55  2  0  0  0
 54126  1  0  0  0
 55 57  1  0  0  0
 55127  1  0  0  0
 56 69  2  0  0  0
 57 58  2  0  0  0
 57128  1  0  0  0
 58129  1  0  0  0
 59 60  1  0  0  0
 59 61  1  0  0  0
 59 62  1  0  0  0
 60130  1  0  0  0
 60131  1  0  0  0
 60132  1  0  0  0
 61133  1  0  0  0
 61134  1  0  0  0
 61135  1  0  0  0
 62136  1  0  0  0
 62137  1  0  0  0
 62138  1  0  0  0
 63 65  1  0  0  0
 63139  1  0  0  0
 63140  1  0  0  0
 63141  1  0  0  0
 64142  1  0  0  0
 65143  1  0  0  0
 68 81  1  0  0  0
 71 74  2  0  0  0
 71 75  1  0  0  0
 71144  1  0  0  0
 72 74  1  0  0  0
 72 76  2  0  0  0
 72145  1  0  0  0
 73 75  2  0  0  0
 73 76  1  0  0  0
 73146  1  0  0  0
 74 78  1  0  0  0
 75 82  1  0  0  0
 76 84  1  0  0  0
 77 83  1  0  0  0
 77147  1  0  0  0
 77148  1  0  0  0
 77149  1  0  0  0
 78 83  1  0  0  0
 78150  1  0  0  0
 78151  1  0  0  0
 79 80  1  0  0  0
 79 81  1  0  0  0
 79152  1  0  0  0
 79153  1  0  0  0
 80 82  1  0  0  0
 80154  1  0  0  0
 80155  1  0  0  0
 81156  1  0  0  0
 81157  1  0  0  0
 82158  1  0  0  0
M  ISO  4   1 100  68 101  81 101  83 100
M  END
> <chiral flag>
0

> <version>
0

> <s_m_source_file>
/data/baiqing/PycharmProjects/Reinvent-master-3.2/result/LINK_invent/BTK/process_docking_weight1_custom_product_contain_oxygen_bond_distance_aromatic_linkinvent_7_9_3/rearranged_h_0023.sdf

> <i_m_source_file_index>
4

> <r_mmod_Potential_Energy-OPLS-2005>
103.039337158203

> <r_mmod_Stretch_Energy-OPLS-2005>
41.4471473693848

> <r_mmod_Bend_Energy-OPLS-2005>
108.706115722656

> <r_mmod_Torsional_Energy-OPLS-2005>
269.347412109375

> <r_mmod_Improper_Torsional_Energy-OPLS-2005>
9.65603446960449

> <r_mmod_Van_der_Waal_Energy-OPLS-2005>
154.746322631836

> <r_mmod_Electrostatic_Energy-OPLS-2005>
-295.833984375

> <r_mmod_Solvation_Energy-OPLS-2005>
-197.083633422852

> <b_mmod_Minimization_Converged-OPLS-2005>
0

> <r_mmod_RMS_Derivative-OPLS-2005>
1.39040398597717

$$$$
4
                    3D
 Structure written by MMmdl.
164173  0  0  1  0            999 V2000
  -30.5955  -14.7370   20.4752 C   0  0  0  0  0  0
  -30.4386  -12.4559   19.4562 C   0  0  0  0  0  0
  -29.5050  -12.5069   18.2265 C   0  0  0  0  0  0
  -28.0321  -12.3251   18.6457 C   0  0  0  0  0  0
  -27.6402  -13.2219   19.8496 C   0  0  2  0  0  0
  -28.6900  -13.1489   20.9794 C   0  0  0  0  0  0
  -25.2507  -13.8166   20.5689 C   0  0  0  0  0  0
  -24.1794  -13.0421   20.9204 C   0  0  0  0  0  0
  -24.6378  -11.6895   20.8744 C   0  0  0  0  0  0
  -23.9039  -10.4283   21.0402 C   0  0  0  0  0  0
  -24.3599   -9.4203   21.9177 C   0  0  0  0  0  0
  -23.6283   -8.2233   22.0751 C   0  0  0  0  0  0
  -22.4263   -8.0266   21.3543 C   0  0  0  0  0  0
  -21.9893   -9.0231   20.4642 C   0  0  0  0  0  0
  -22.7208  -10.2117   20.3049 C   0  0  0  0  0  0
  -21.6858   -6.0723   22.5267 C   0  0  0  0  0  0
  -21.4021   -6.5631   23.8202 C   0  0  0  0  0  0
  -21.3659   -5.6786   24.9166 C   0  0  0  0  0  0
  -21.6046   -4.3053   24.7222 C   0  0  0  0  0  0
  -21.8818   -3.8135   23.4350 C   0  0  0  0  0  0
  -21.9195   -4.6948   22.3401 C   0  0  0  0  0  0
  -22.7813  -13.5211   21.1857 C   0  0  0  0  0  0
  -22.1662   -4.2127   21.0984 F   0  0  0  0  0  0
  -21.5627   -3.4539   25.7745 F   0  0  0  0  0  0
  -29.9845  -13.5084   20.3878 N   0  0  0  0  0  0
  -26.2931  -12.9352   20.3290 N   0  0  0  0  0  0
  -25.9311  -11.6506   20.5766 N   0  0  0  0  0  0
  -22.0476  -12.8203   22.0425 N   0  0  0  0  0  0
  -25.4161  -15.1899   20.4086 N   0  0  0  0  0  0
  -31.7997  -14.8527   20.2304 O   0  0  0  0  0  0
  -21.6641   -6.8856   21.4228 O   0  0  0  0  0  0
  -22.3497  -14.5519   20.6708 O   0  0  0  0  0  0
  -24.6322  -31.8563   23.2002 C   0  0  0  0  0  0
  -25.9151  -32.4758   23.8349 C   0  0  1  0  0  0
  -27.2156  -27.2580   20.1256 C   0  0  0  0  0  0
  -25.5939  -33.8551   24.2270 N   0  0  0  0  0  0
  -23.4288  -30.4837   21.5429 C   0  0  2  0  0  0
  -24.8756  -28.9344   20.1104 C   0  0  0  0  0  0
  -22.7511  -29.4607   22.4884 C   0  0  0  0  0  0
  -18.0300  -28.1378   22.8479 C   0  0  0  0  0  0
  -24.1488  -36.7293   23.2643 C   0  0  0  0  0  0
  -25.9770  -30.7686   21.3817 C   0  0  0  0  0  0
  -26.0498  -29.3914   20.7224 C   0  0  0  0  0  0
  -27.2238  -28.5684   20.7171 C   0  0  0  0  0  0
  -26.0148  -26.8767   19.4808 C   0  0  0  0  0  0
  -24.8646  -27.6856   19.4787 C   0  0  0  0  0  0
  -23.6493  -29.8250   20.1574 C   0  0  0  0  0  0
  -25.4108  -36.3067   24.0329 C   0  0  1  0  0  0
  -20.5905  -28.3702   23.1243 C   0  0  2  0  0  0
  -20.6782  -26.9411   22.5397 C   0  0  0  0  0  0
  -19.5763  -26.6371   21.5204 C   0  0  0  0  0  0
  -18.1939  -26.7914   22.1613 C   0  0  0  0  0  0
  -19.1553  -28.8852   23.2862 C   0  0  0  0  0  0
  -18.9480  -30.1455   23.8886 C   0  0  0  0  0  0
  -17.6480  -30.6582   24.0560 C   0  0  0  0  0  0
  -25.9049  -34.9435   23.5097 C   0  0  0  0  0  0
  -16.5374  -29.9081   23.6326 C   0  0  0  0  0  0
  -16.7281  -28.6501   23.0342 C   0  0  0  0  0  0
  -26.4516  -31.6575   25.0740 C   0  0  0  0  0  0
  -25.3725  -31.3726   26.1456 C   0  0  0  0  0  0
  -27.0381  -30.2987   24.6244 C   0  0  0  0  0  0
  -27.6076  -32.4324   25.7505 C   0  0  0  0  0  0
  -27.5574  -37.1798   24.8463 C   0  0  0  0  0  0
  -21.4213  -29.3067   22.3643 N   0  0  0  0  0  0
  -26.4282  -37.3762   23.9413 N   0  0  0  0  0  0
  -24.6987  -31.0531   22.0980 N   0  0  0  0  0  0
  -23.4208  -28.8120   23.2961 O   0  0  0  0  0  0
  -28.3030  -26.3491   20.1773 O   0  0  0  0  0  0
  -26.5613  -34.8910   22.4664 O   0  0  0  0  0  0
  -23.5475  -32.1379   23.7306 O   0  0  0  0  0  0
  -30.5142  -18.6632   22.8895 C   0  0  0  0  0  0
  -29.6264  -18.4511   20.2645 C   0  0  0  0  0  0
  -30.1868  -19.8508   22.1881 C   0  0  0  0  0  0
  -29.7338  -19.7858   20.8396 C   0  0  0  0  0  0
  -29.9753  -17.2273   20.9745 C   0  0  0  0  0  0
  -30.4162  -17.3849   22.3040 C   0  0  0  0  0  0
  -31.5730  -22.0147   24.6722 C   0  0  0  0  0  0
  -30.1027  -22.4080   24.7798 C   0  0  0  0  0  0
  -31.6974  -21.4351   23.2578 C   0  0  0  0  0  0
  -29.4247  -21.3335   23.9379 C   0  0  0  0  0  0
  -29.1065  -23.6925   20.2719 C   0  0  0  0  0  0
  -28.6058  -22.1537   20.4246 C   0  0  0  0  0  0
  -27.9986  -24.8712   20.2065 C   0  0  0  0  0  0
  -30.3412  -21.0979   22.8264 N   0  0  0  0  0  0
  -29.7646  -15.8456   20.4857 N   0  0  0  0  0  0
  -29.5513  -21.0166   20.0873 N   0  0  0  0  0  0
  -30.7048  -16.2942   23.0563 F   0  0  0  0  0  0
  -31.4757  -12.6020   19.1480 H   0  0  0  0  0  0
  -30.3983  -11.4772   19.9381 H   0  0  0  0  0  0
  -29.7870  -11.7380   17.5062 H   0  0  0  0  0  0
  -29.6228  -13.4636   17.7155 H   0  0  0  0  0  0
  -27.8918  -11.2754   18.9074 H   0  0  0  0  0  0
  -27.3709  -12.5185   17.7998 H   0  0  0  0  0  0
  -27.6329  -14.2424   19.4691 H   0  0  0  0  0  0
  -28.7313  -12.1481   21.4131 H   0  0  0  0  0  0
  -28.4304  -13.8281   21.7943 H   0  0  0  0  0  0
  -25.2740   -9.5693   22.4753 H   0  0  0  0  0  0
  -23.9993   -7.4632   22.7486 H   0  0  0  0  0  0
  -21.0818   -8.8738   19.8957 H   0  0  0  0  0  0
  -22.3648  -10.9652   19.6164 H   0  0  0  0  0  0
  -21.2018   -7.6139   23.9697 H   0  0  0  0  0  0
  -21.1485   -6.0525   25.9069 H   0  0  0  0  0  0
  -22.0603   -2.7594   23.2858 H   0  0  0  0  0  0
  -22.4115  -11.9862   22.4791 H   0  0  0  0  0  0
  -21.1096  -13.1215   22.2665 H   0  0  0  0  0  0
  -24.6376  -15.8325   20.5087 H   0  0  0  0  0  0
  -26.2503  -15.6368   20.0518 H   0  0  0  0  0  0
  -26.7222  -32.5409   23.1097 H   0  0  0  0  0  0
  -25.0112  -33.9687   25.0434 H   0  0  0  0  0  0
  -22.7267  -31.3080   21.3988 H   0  0  0  0  0  0
  -23.3745  -35.9632   23.3294 H   0  0  0  0  0  0
  -24.3577  -36.8914   22.2060 H   0  0  0  0  0  0
  -23.7244  -37.6495   23.6670 H   0  0  0  0  0  0
  -26.1155  -31.5295   20.6122 H   0  0  0  0  0  0
  -26.8548  -30.8182   22.0146 H   0  0  0  0  0  0
  -28.1227  -28.9143   21.2098 H   0  0  0  0  0  0
  -25.9192  -25.9348   18.9661 H   0  0  0  0  0  0
  -23.9682  -27.3350   18.9859 H   0  0  0  0  0  0
  -23.7802  -30.6068   19.4080 H   0  0  0  0  0  0
  -22.7645  -29.2674   19.8457 H   0  0  0  0  0  0
  -25.1275  -36.1924   25.0818 H   0  0  0  0  0  0
  -21.0022  -28.3296   24.1356 H   0  0  0  0  0  0
  -20.5666  -26.2324   23.3614 H   0  0  0  0  0  0
  -21.6646  -26.7402   22.1204 H   0  0  0  0  0  0
  -19.6920  -25.6275   21.1252 H   0  0  0  0  0  0
  -19.6695  -27.3172   20.6729 H   0  0  0  0  0  0
  -17.4203  -26.6677   21.4021 H   0  0  0  0  0  0
  -18.0336  -26.0041   22.8998 H   0  0  0  0  0  0
  -19.7961  -30.7277   24.2244 H   0  0  0  0  0  0
  -17.5034  -31.6254   24.5181 H   0  0  0  0  0  0
  -15.5374  -30.2984   23.7643 H   0  0  0  0  0  0
  -15.8682  -28.0823   22.7043 H   0  0  0  0  0  0
  -24.5933  -30.7030   25.7797 H   0  0  0  0  0  0
  -24.8887  -32.2894   26.4833 H   0  0  0  0  0  0
  -25.8034  -30.8951   27.0263 H   0  0  0  0  0  0
  -26.2982  -29.6720   24.1267 H   0  0  0  0  0  0
  -27.4059  -29.7259   25.4768 H   0  0  0  0  0  0
  -27.8843  -30.4259   23.9496 H   0  0  0  0  0  0
  -27.2705  -33.3653   26.2038 H   0  0  0  0  0  0
  -28.3914  -32.6835   25.0347 H   0  0  0  0  0  0
  -28.0725  -31.8474   26.5457 H   0  0  0  0  0  0
  -28.2575  -38.0111   24.7501 H   0  0  0  0  0  0
  -28.1079  -36.2629   24.6284 H   0  0  0  0  0  0
  -27.2297  -37.1442   25.8869 H   0  0  0  0  0  0
  -20.9401  -29.8840   21.6888 H   0  0  0  0  0  0
  -26.0161  -38.2833   24.1423 H   0  0  0  0  0  0
  -30.8534  -18.7250   23.9123 H   0  0  0  0  0  0
  -29.2854  -18.3650   19.2439 H   0  0  0  0  0  0
  -31.7964  -21.2383   25.4064 H   0  0  0  0  0  0
  -32.2531  -22.8487   24.8518 H   0  0  0  0  0  0
  -29.9425  -23.3922   24.3355 H   0  0  0  0  0  0
  -29.7382  -22.4363   25.8079 H   0  0  0  0  0  0
  -32.3852  -20.5878   23.2392 H   0  0  0  0  0  0
  -32.0983  -22.1885   22.5774 H   0  0  0  0  0  0
  -28.4380  -21.6536   23.6011 H   0  0  0  0  0  0
  -29.2877  -20.4288   24.5330 H   0  0  0  0  0  0
  -29.7074  -23.7696   19.3666 H   0  0  0  0  0  0
  -29.7919  -23.9051   21.0932 H   0  0  0  0  0  0
  -27.7505  -22.0296   19.7599 H   0  0  0  0  0  0
  -28.1973  -22.0092   21.4237 H   0  0  0  0  0  0
  -27.3108  -24.7159   21.0398 H   0  0  0  0  0  0
  -27.4412  -24.6247   19.3066 H   0  0  0  0  0  0
  -28.7967  -15.6121   20.3360 H   0  0  0  0  0  0
  -30.4651  -21.3965   19.8569 H   0  0  0  0  0  0
  1 25  1  0  0  0
  1 30  2  0  0  0
  1 85  1  0  0  0
  2  3  1  0  0  0
  2 25  1  0  0  0
  2 88  1  0  0  0
  2 89  1  0  0  0
  3  4  1  0  0  0
  3 90  1  0  0  0
  3 91  1  0  0  0
  4  5  1  0  0  0
  4 92  1  0  0  0
  4 93  1  0  0  0
  5  6  1  0  0  0
  5 26  1  0  0  0
  5 94  1  0  0  0
  6 25  1  0  0  0
  6 95  1  0  0  0
  6 96  1  0  0  0
  7  8  2  0  0  0
  7 26  1  0  0  0
  7 29  1  0  0  0
  8  9  1  0  0  0
  8 22  1  0  0  0
  9 10  1  0  0  0
  9 27  2  0  0  0
 10 11  2  0  0  0
 10 15  1  0  0  0
 11 12  1  0  0  0
 11 97  1  0  0  0
 12 13  2  0  0  0
 12 98  1  0  0  0
 13 14  1  0  0  0
 13 31  1  0  0  0
 14 15  2  0  0  0
 14 99  1  0  0  0
 15100  1  0  0  0
 16 17  2  0  0  0
 16 21  1  0  0  0
 16 31  1  0  0  0
 17 18  1  0  0  0
 17101  1  0  0  0
 18 19  2  0  0  0
 18102  1  0  0  0
 19 20  1  0  0  0
 19 24  1  0  0  0
 20 21  2  0  0  0
 20103  1  0  0  0
 21 23  1  0  0  0
 22 28  1  0  0  0
 22 32  2  0  0  0
 26 27  1  0  0  0
 28104  1  0  0  0
 28105  1  0  0  0
 29106  1  0  0  0
 29107  1  0  0  0
 33 34  1  0  0  0
 33 66  1  0  0  0
 33 70  2  0  0  0
 34 36  1  0  0  0
 34 59  1  0  0  0
 34108  1  0  0  0
 35 44  2  0  0  0
 35 45  1  0  0  0
 35 68  1  0  0  0
 36 56  1  0  0  0
 36109  1  0  0  0
 37 39  1  0  0  0
 37 47  1  0  0  0
 37 66  1  0  0  0
 37110  1  0  0  0
 38 43  2  0  0  0
 38 46  1  0  0  0
 38 47  1  0  0  0
 39 64  1  0  0  0
 39 67  2  0  0  0
 40 52  1  0  0  0
 40 53  2  0  0  0
 40 58  1  0  0  0
 41111  1  0  0  0
 41112  1  0  0  0
 41113  1  0  0  0
 41 48  1  0  0  0
 42 43  1  0  0  0
 42 66  1  0  0  0
 42114  1  0  0  0
 42115  1  0  0  0
 43 44  1  0  0  0
 44116  1  0  0  0
 45 46  2  0  0  0
 45117  1  0  0  0
 46118  1  0  0  0
 47119  1  0  0  0
 47120  1  0  0  0
 48 56  1  0  0  0
 48 65  1  0  0  0
 48121  1  0  0  0
 49 50  1  0  0  0
 49 53  1  0  0  0
 49 64  1  0  0  0
 49122  1  0  0  0
 50 51  1  0  0  0
 50123  1  0  0  0
 50124  1  0  0  0
 51 52  1  0  0  0
 51125  1  0  0  0
 51126  1  0  0  0
 52127  1  0  0  0
 52128  1  0  0  0
 53 54  1  0  0  0
 54 55  2  0  0  0
 54129  1  0  0  0
 55 57  1  0  0  0
 55130  1  0  0  0
 56 69  2  0  0  0
 57 58  2  0  0  0
 57131  1  0  0  0
 58132  1  0  0  0
 59 60  1  0  0  0
 59 61  1  0  0  0
 59 62  1  0  0  0
 60133  1  0  0  0
 60134  1  0  0  0
 60135  1  0  0  0
 61136  1  0  0  0
 61137  1  0  0  0
 61138  1  0  0  0
 62139  1  0  0  0
 62140  1  0  0  0
 62141  1  0  0  0
 63 65  1  0  0  0
 63142  1  0  0  0
 63143  1  0  0  0
 63144  1  0  0  0
 64145  1  0  0  0
 65146  1  0  0  0
 68 83  1  0  0  0
 71 73  2  0  0  0
 71 76  1  0  0  0
 71147  1  0  0  0
 72 74  2  0  0  0
 72 75  1  0  0  0
 72148  1  0  0  0
 73 74  1  0  0  0
 73 84  1  0  0  0
 74 86  1  0  0  0
 75 76  2  0  0  0
 75 85  1  0  0  0
 76 87  1  0  0  0
 77 78  1  0  0  0
 77 79  1  0  0  0
 77149  1  0  0  0
 77150  1  0  0  0
 78 80  1  0  0  0
 78151  1  0  0  0
 78152  1  0  0  0
 79 84  1  0  0  0
 79153  1  0  0  0
 79154  1  0  0  0
 80 84  1  0  0  0
 80155  1  0  0  0
 80156  1  0  0  0
 81 82  1  0  0  0
 81 83  1  0  0  0
 81157  1  0  0  0
 81158  1  0  0  0
 82 86  1  0  0  0
 82159  1  0  0  0
 82160  1  0  0  0
 83161  1  0  0  0
 83162  1  0  0  0
 85163  1  0  0  0
 86164  1  0  0  0
M  ISO  4   1 100  68 101  83 101  85 100
M  END
> <chiral flag>
0

> <version>
0

> <s_m_source_file>
/data/baiqing/PycharmProjects/Reinvent-master-3.2/result/LINK_invent/BTK/process_docking_weight1_custom_product_contain_oxygen_bond_distance_aromatic_linkinvent_7_9_3/rearranged_h_0023.sdf

> <i_m_source_file_index>
5

> <r_mmod_Potential_Energy-OPLS-2005>
288.345733642578

> <r_mmod_Stretch_Energy-OPLS-2005>
121.146987915039

> <r_mmod_Bend_Energy-OPLS-2005>
194.864395141602

> <r_mmod_Torsional_Energy-OPLS-2005>
349.006286621094

> <r_mmod_Improper_Torsional_Energy-OPLS-2005>
20.6242179870605

> <r_mmod_Van_der_Waal_Energy-OPLS-2005>
140.108749389648

> <r_mmod_Electrostatic_Energy-OPLS-2005>
-399.866424560547

> <r_mmod_Solvation_Energy-OPLS-2005>
-225.384643554688

> <b_mmod_Minimization_Converged-OPLS-2005>
0

> <r_mmod_RMS_Derivative-OPLS-2005>
1.79103124141693

$$$$
5
                    3D
 Structure written by MMmdl.
163172  0  0  1  0            999 V2000
  -30.6632  -14.7234   20.4636 C   0  0  0  0  0  0
  -30.4436  -12.4504   19.4511 C   0  0  0  0  0  0
  -29.5141  -12.5331   18.2195 C   0  0  0  0  0  0
  -28.0385  -12.3659   18.6332 C   0  0  0  0  0  0
  -27.6567  -13.2424   19.8552 C   0  0  2  0  0  0
  -28.7148  -13.1636   20.9818 C   0  0  0  0  0  0
  -25.2585  -13.8211   20.5704 C   0  0  0  0  0  0
  -24.1865  -13.0472   20.9196 C   0  0  0  0  0  0
  -24.6442  -11.6935   20.8711 C   0  0  0  0  0  0
  -23.9082  -10.4310   21.0364 C   0  0  0  0  0  0
  -24.3620   -9.4228   21.9147 C   0  0  0  0  0  0
  -23.6310   -8.2266   22.0738 C   0  0  0  0  0  0
  -22.4289   -8.0273   21.3524 C   0  0  0  0  0  0
  -21.9913   -9.0258   20.4642 C   0  0  0  0  0  0
  -22.7256  -10.2140   20.3035 C   0  0  0  0  0  0
  -21.6869   -6.0731   22.5259 C   0  0  0  0  0  0
  -21.4026   -6.5627   23.8205 C   0  0  0  0  0  0
  -21.3656   -5.6769   24.9158 C   0  0  0  0  0  0
  -21.6017   -4.3035   24.7203 C   0  0  0  0  0  0
  -21.8832   -3.8137   23.4337 C   0  0  0  0  0  0
  -21.9212   -4.6956   22.3387 C   0  0  0  0  0  0
  -22.7860  -13.5259   21.1815 C   0  0  0  0  0  0
  -22.1689   -4.2150   21.0958 F   0  0  0  0  0  0
  -21.5611   -3.4523   25.7711 F   0  0  0  0  0  0
  -30.0207  -13.5076   20.3972 N   0  0  0  0  0  0
  -26.3064  -12.9457   20.3316 N   0  0  0  0  0  0
  -25.9389  -11.6584   20.5718 N   0  0  0  0  0  0
  -22.0458  -12.8310   22.0369 N   0  0  0  0  0  0
  -25.4296  -15.1946   20.4178 N   0  0  0  0  0  0
  -31.8451  -14.8181   20.1321 O   0  0  0  0  0  0
  -21.6633   -6.8885   21.4228 O   0  0  0  0  0  0
  -22.3574  -14.5563   20.6624 O   0  0  0  0  0  0
  -24.6338  -31.8532   23.2047 C   0  0  0  0  0  0
  -25.9193  -32.4714   23.8355 C   0  0  1  0  0  0
  -27.2355  -27.2778   20.1788 C   0  0  0  0  0  0
  -25.6028  -33.8500   24.2328 N   0  0  0  0  0  0
  -23.4302  -30.4811   21.5356 C   0  0  2  0  0  0
  -24.8880  -28.9311   20.1132 C   0  0  0  0  0  0
  -22.7514  -29.4597   22.4828 C   0  0  0  0  0  0
  -18.0288  -28.1400   22.8459 C   0  0  0  0  0  0
  -24.1487  -36.7198   23.2649 C   0  0  0  0  0  0
  -25.9781  -30.7776   21.3889 C   0  0  0  0  0  0
  -26.0532  -29.4020   20.7364 C   0  0  0  0  0  0
  -27.2273  -28.5877   20.7605 C   0  0  0  0  0  0
  -26.0561  -26.8865   19.4992 C   0  0  0  0  0  0
  -24.8944  -27.6797   19.4800 C   0  0  0  0  0  0
  -23.6583  -29.8167   20.1505 C   0  0  0  0  0  0
  -25.4106  -36.2996   24.0363 C   0  0  1  0  0  0
  -20.5896  -28.3698   23.1215 C   0  0  2  0  0  0
  -20.6768  -26.9415   22.5366 C   0  0  0  0  0  0
  -19.5742  -26.6380   21.5173 C   0  0  0  0  0  0
  -18.1921  -26.7931   22.1573 C   0  0  0  0  0  0
  -19.1556  -28.8863   23.2831 C   0  0  0  0  0  0
  -18.9464  -30.1455   23.8850 C   0  0  0  0  0  0
  -17.6470  -30.6589   24.0536 C   0  0  0  0  0  0
  -25.9044  -34.9387   23.5126 C   0  0  0  0  0  0
  -16.5353  -29.9071   23.6366 C   0  0  0  0  0  0
  -16.7275  -28.6498   23.0376 C   0  0  0  0  0  0
  -26.4630  -31.6495   25.0693 C   0  0  0  0  0  0
  -25.3935  -31.3547   26.1455 C   0  0  0  0  0  0
  -27.0537  -30.2928   24.6197 C   0  0  0  0  0  0
  -27.6216  -32.4219   25.7445 C   0  0  0  0  0  0
  -27.5577  -37.1744   24.8486 C   0  0  0  0  0  0
  -21.4215  -29.3041   22.3579 N   0  0  0  0  0  0
  -26.4265  -37.3721   23.9448 N   0  0  0  0  0  0
  -24.6965  -31.0562   22.0981 N   0  0  0  0  0  0
  -23.4207  -28.8147   23.2939 O   0  0  0  0  0  0
  -28.3196  -26.3712   20.2977 O   0  0  0  0  0  0
  -26.5539  -34.8864   22.4643 O   0  0  0  0  0  0
  -23.5489  -32.1311   23.7378 O   0  0  0  0  0  0
  -31.3946  -17.9591   20.5756 C   0  0  0  0  0  0
  -29.1595  -19.6149   20.3819 C   0  0  0  0  0  0
  -31.5425  -19.3863   20.5166 C   0  0  0  0  0  0
  -30.4155  -20.2913   20.3569 C   0  0  0  0  0  0
  -30.1340  -17.3040   20.5816 C   0  0  0  0  0  0
  -29.0261  -18.1914   20.5128 C   0  0  0  0  0  0
  -29.5550  -22.7704   19.8785 C   0  0  0  0  0  0
  -29.0274  -23.7733   20.6894 C   0  0  0  0  0  0
  -29.4765  -22.8851   18.3666 C   0  0  0  0  0  0
  -30.9431  -22.8716   18.0078 C   0  0  0  0  0  0
  -31.5361  -21.9134   19.0304 C   0  0  0  0  0  0
  -32.9836  -19.8721   20.6630 C   0  0  0  0  0  0
  -29.2992  -23.8352   22.1962 C   0  0  0  0  0  0
  -28.0103  -24.9080   20.1995 C   0  0  0  0  0  0
  -30.5454  -21.7344   20.1183 N   0  0  0  0  0  0
  -29.8930  -15.8451   20.6997 N   0  0  0  0  0  0
  -27.7820  -17.6493   20.5635 F   0  0  0  0  0  0
  -31.4887  -12.5581   19.1505 H   0  0  0  0  0  0
  -30.3722  -11.4711   19.9253 H   0  0  0  0  0  0
  -29.7896  -11.7737   17.4858 H   0  0  0  0  0  0
  -29.6456  -13.4970   17.7257 H   0  0  0  0  0  0
  -27.8706  -11.3131   18.8617 H   0  0  0  0  0  0
  -27.3870  -12.6027   17.7905 H   0  0  0  0  0  0
  -27.6483  -14.2674   19.4854 H   0  0  0  0  0  0
  -28.7528  -12.1654   21.4199 H   0  0  0  0  0  0
  -28.4643  -13.8437   21.7982 H   0  0  0  0  0  0
  -25.2750   -9.5715   22.4743 H   0  0  0  0  0  0
  -23.9997   -7.4662   22.7479 H   0  0  0  0  0  0
  -21.0802   -8.8796   19.8982 H   0  0  0  0  0  0
  -22.3684  -10.9666   19.6137 H   0  0  0  0  0  0
  -21.2050   -7.6145   23.9709 H   0  0  0  0  0  0
  -21.1449   -6.0479   25.9043 H   0  0  0  0  0  0
  -22.0635   -2.7613   23.2787 H   0  0  0  0  0  0
  -22.4010  -11.9955   22.4782 H   0  0  0  0  0  0
  -21.1087  -13.1394   22.2528 H   0  0  0  0  0  0
  -24.6651  -15.8469   20.5523 H   0  0  0  0  0  0
  -26.2867  -15.6508   20.1306 H   0  0  0  0  0  0
  -26.7255  -32.5404   23.1079 H   0  0  0  0  0  0
  -25.0454  -33.9611   25.0665 H   0  0  0  0  0  0
  -22.7252  -31.3022   21.3850 H   0  0  0  0  0  0
  -23.3770  -35.9504   23.3257 H   0  0  0  0  0  0
  -24.3610  -36.8840   22.2073 H   0  0  0  0  0  0
  -23.7184  -37.6372   23.6675 H   0  0  0  0  0  0
  -26.1327  -31.5420   20.6244 H   0  0  0  0  0  0
  -26.8465  -30.8128   22.0335 H   0  0  0  0  0  0
  -28.1022  -28.9401   21.2899 H   0  0  0  0  0  0
  -25.9845  -25.9424   18.9865 H   0  0  0  0  0  0
  -24.0138  -27.3043   18.9802 H   0  0  0  0  0  0
  -23.8075  -30.5939   19.4001 H   0  0  0  0  0  0
  -22.7785  -29.2576   19.8259 H   0  0  0  0  0  0
  -25.1281  -36.1844   25.0855 H   0  0  0  0  0  0
  -21.0014  -28.3297   24.1320 H   0  0  0  0  0  0
  -20.5644  -26.2332   23.3574 H   0  0  0  0  0  0
  -21.6646  -26.7414   22.1196 H   0  0  0  0  0  0
  -19.6906  -25.6281   21.1225 H   0  0  0  0  0  0
  -19.6704  -27.3176   20.6684 H   0  0  0  0  0  0
  -17.4216  -26.6703   21.3947 H   0  0  0  0  0  0
  -18.0310  -26.0074   22.8969 H   0  0  0  0  0  0
  -19.7961  -30.7290   24.2192 H   0  0  0  0  0  0
  -17.5039  -31.6263   24.5110 H   0  0  0  0  0  0
  -15.5356  -30.2946   23.7718 H   0  0  0  0  0  0
  -15.8676  -28.0782   22.7123 H   0  0  0  0  0  0
  -24.6214  -30.6758   25.7817 H   0  0  0  0  0  0
  -24.9021  -32.2654   26.4893 H   0  0  0  0  0  0
  -25.8395  -30.8786   27.0210 H   0  0  0  0  0  0
  -26.3140  -29.6531   24.1385 H   0  0  0  0  0  0
  -27.4406  -29.7305   25.4705 H   0  0  0  0  0  0
  -27.8934  -30.4160   23.9349 H   0  0  0  0  0  0
  -27.2923  -33.3602   26.1921 H   0  0  0  0  0  0
  -28.4109  -32.6612   25.0298 H   0  0  0  0  0  0
  -28.0823  -31.8385   26.5431 H   0  0  0  0  0  0
  -28.2560  -38.0077   24.7588 H   0  0  0  0  0  0
  -28.1096  -36.2601   24.6246 H   0  0  0  0  0  0
  -27.2302  -37.1334   25.8890 H   0  0  0  0  0  0
  -20.9405  -29.8755   21.6767 H   0  0  0  0  0  0
  -26.0122  -38.2786   24.1459 H   0  0  0  0  0  0
  -32.2863  -17.3536   20.6432 H   0  0  0  0  0  0
  -28.2576  -20.2012   20.3004 H   0  0  0  0  0  0
  -29.0441  -23.7866   17.9411 H   0  0  0  0  0  0
  -28.9564  -22.0183   17.9543 H   0  0  0  0  0  0
  -31.3501  -23.8685   18.1944 H   0  0  0  0  0  0
  -31.1388  -22.6103   16.9657 H   0  0  0  0  0  0
  -32.4622  -22.3648   19.3901 H   0  0  0  0  0  0
  -31.8081  -20.9809   18.5246 H   0  0  0  0  0  0
  -33.4038  -19.4985   21.5952 H   0  0  0  0  0  0
  -33.1032  -20.9481   20.7277 H   0  0  0  0  0  0
  -33.6063  -19.5019   19.8449 H   0  0  0  0  0  0
  -30.0231  -23.0917   22.5360 H   0  0  0  0  0  0
  -28.3869  -23.6723   22.7689 H   0  0  0  0  0  0
  -29.6733  -24.8186   22.4935 H   0  0  0  0  0  0
  -27.1057  -24.7279   20.7860 H   0  0  0  0  0  0
  -27.7122  -24.7075   19.1746 H   0  0  0  0  0  0
  -28.9260  -15.6234   20.8736 H   0  0  0  0  0  0
  1 25  1  0  0  0
  1 30  2  0  0  0
  1 86  1  0  0  0
  2  3  1  0  0  0
  2 25  1  0  0  0
  2 88  1  0  0  0
  2 89  1  0  0  0
  3  4  1  0  0  0
  3 90  1  0  0  0
  3 91  1  0  0  0
  4  5  1  0  0  0
  4 92  1  0  0  0
  4 93  1  0  0  0
  5  6  1  0  0  0
  5 26  1  0  0  0
  5 94  1  0  0  0
  6 25  1  0  0  0
  6 95  1  0  0  0
  6 96  1  0  0  0
  7  8  2  0  0  0
  7 26  1  0  0  0
  7 29  1  0  0  0
  8  9  1  0  0  0
  8 22  1  0  0  0
  9 10  1  0  0  0
  9 27  2  0  0  0
 10 11  2  0  0  0
 10 15  1  0  0  0
 11 12  1  0  0  0
 11 97  1  0  0  0
 12 13  2  0  0  0
 12 98  1  0  0  0
 13 14  1  0  0  0
 13 31  1  0  0  0
 14 15  2  0  0  0
 14 99  1  0  0  0
 15100  1  0  0  0
 16 17  2  0  0  0
 16 21  1  0  0  0
 16 31  1  0  0  0
 17 18  1  0  0  0
 17101  1  0  0  0
 18 19  2  0  0  0
 18102  1  0  0  0
 19 20  1  0  0  0
 19 24  1  0  0  0
 20 21  2  0  0  0
 20103  1  0  0  0
 21 23  1  0  0  0
 22 28  1  0  0  0
 22 32  2  0  0  0
 26 27  1  0  0  0
 28104  1  0  0  0
 28105  1  0  0  0
 29106  1  0  0  0
 29107  1  0  0  0
 33 34  1  0  0  0
 33 66  1  0  0  0
 33 70  2  0  0  0
 34 36  1  0  0  0
 34 59  1  0  0  0
 34108  1  0  0  0
 35 44  2  0  0  0
 35 45  1  0  0  0
 35 68  1  0  0  0
 36 56  1  0  0  0
 36109  1  0  0  0
 37 39  1  0  0  0
 37 47  1  0  0  0
 37 66  1  0  0  0
 37110  1  0  0  0
 38 43  2  0  0  0
 38 46  1  0  0  0
 38 47  1  0  0  0
 39 64  1  0  0  0
 39 67  2  0  0  0
 40 52  1  0  0  0
 40 53  2  0  0  0
 40 58  1  0  0  0
 41111  1  0  0  0
 41112  1  0  0  0
 41113  1  0  0  0
 41 48  1  0  0  0
 42 43  1  0  0  0
 42 66  1  0  0  0
 42114  1  0  0  0
 42115  1  0  0  0
 43 44  1  0  0  0
 44116  1  0  0  0
 45 46  2  0  0  0
 45117  1  0  0  0
 46118  1  0  0  0
 47119  1  0  0  0
 47120  1  0  0  0
 48 56  1  0  0  0
 48 65  1  0  0  0
 48121  1  0  0  0
 49 50  1  0  0  0
 49 53  1  0  0  0
 49 64  1  0  0  0
 49122  1  0  0  0
 50 51  1  0  0  0
 50123  1  0  0  0
 50124  1  0  0  0
 51 52  1  0  0  0
 51125  1  0  0  0
 51126  1  0  0  0
 52127  1  0  0  0
 52128  1  0  0  0
 53 54  1  0  0  0
 54 55  2  0  0  0
 54129  1  0  0  0
 55 57  1  0  0  0
 55130  1  0  0  0
 56 69  2  0  0  0
 57 58  2  0  0  0
 57131  1  0  0  0
 58132  1  0  0  0
 59 60  1  0  0  0
 59 61  1  0  0  0
 59 62  1  0  0  0
 60133  1  0  0  0
 60134  1  0  0  0
 60135  1  0  0  0
 61136  1  0  0  0
 61137  1  0  0  0
 61138  1  0  0  0
 62139  1  0  0  0
 62140  1  0  0  0
 62141  1  0  0  0
 63 65  1  0  0  0
 63142  1  0  0  0
 63143  1  0  0  0
 63144  1  0  0  0
 64145  1  0  0  0
 65146  1  0  0  0
 68 84  1  0  0  0
 71 73  2  0  0  0
 71 75  1  0  0  0
 71147  1  0  0  0
 72 74  2  0  0  0
 72 76  1  0  0  0
 72148  1  0  0  0
 73 74  1  0  0  0
 73 82  1  0  0  0
 74 85  1  0  0  0
 75 76  2  0  0  0
 75 86  1  0  0  0
 76 87  1  0  0  0
 77 78  2  0  0  0
 77 79  1  0  0  0
 77 85  1  0  0  0
 78 83  1  0  0  0
 78 84  1  0  0  0
 79 80  1  0  0  0
 79149  1  0  0  0
 79150  1  0  0  0
 80 81  1  0  0  0
 80151  1  0  0  0
 80152  1  0  0  0
 81 85  1  0  0  0
 81153  1  0  0  0
 81154  1  0  0  0
 82155  1  0  0  0
 82156  1  0  0  0
 82157  1  0  0  0
 83158  1  0  0  0
 83159  1  0  0  0
 83160  1  0  0  0
 84161  1  0  0  0
 84162  1  0  0  0
 86163  1  0  0  0
M  ISO  4   1 100  68 101  84 101  86 100
M  END
> <chiral flag>
0

> <version>
0

> <s_m_source_file>
/data/baiqing/PycharmProjects/Reinvent-master-3.2/result/LINK_invent/BTK/process_docking_weight1_custom_product_contain_oxygen_bond_distance_aromatic_linkinvent_7_9_3/rearranged_h_0023.sdf

> <i_m_source_file_index>
6

> <r_mmod_Potential_Energy-OPLS-2005>
241.388748168945

> <r_mmod_Stretch_Energy-OPLS-2005>
124.576202392578

> <r_mmod_Bend_Energy-OPLS-2005>
228.545013427734

> <r_mmod_Torsional_Energy-OPLS-2005>
273.074798583984

> <r_mmod_Improper_Torsional_Energy-OPLS-2005>
10.8772172927856

> <r_mmod_Van_der_Waal_Energy-OPLS-2005>
156.944396972656

> <r_mmod_Electrostatic_Energy-OPLS-2005>
-441.333129882812

> <r_mmod_Solvation_Energy-OPLS-2005>
-194.160583496094

> <b_mmod_Minimization_Converged-OPLS-2005>
0

> <r_mmod_RMS_Derivative-OPLS-2005>
7.82158279418945

$$$$
6
                    3D
 Structure written by MMmdl.
159168  0  0  1  0            999 V2000
  -30.5145  -14.9053   20.4413 C   0  0  0  0  0  0
  -30.4546  -12.5579   19.4909 C   0  0  0  0  0  0
  -29.5259  -12.5312   18.2524 C   0  0  0  0  0  0
  -28.0557  -12.3220   18.6668 C   0  0  0  0  0  0
  -27.6396  -13.2365   19.8481 C   0  0  2  0  0  0
  -28.6837  -13.2097   20.9861 C   0  0  0  0  0  0
  -25.2506  -13.8193   20.5693 C   0  0  0  0  0  0
  -24.1808  -13.0435   20.9224 C   0  0  0  0  0  0
  -24.6405  -11.6914   20.8756 C   0  0  0  0  0  0
  -23.9079  -10.4291   21.0415 C   0  0  0  0  0  0
  -24.3625   -9.4204   21.9191 C   0  0  0  0  0  0
  -23.6295   -8.2243   22.0757 C   0  0  0  0  0  0
  -22.4277   -8.0285   21.3548 C   0  0  0  0  0  0
  -21.9916   -9.0260   20.4651 C   0  0  0  0  0  0
  -22.7250  -10.2136   20.3063 C   0  0  0  0  0  0
  -21.6853   -6.0738   22.5281 C   0  0  0  0  0  0
  -21.4015   -6.5642   23.8216 C   0  0  0  0  0  0
  -21.3657   -5.6794   24.9176 C   0  0  0  0  0  0
  -21.6044   -4.3058   24.7226 C   0  0  0  0  0  0
  -21.8818   -3.8149   23.4347 C   0  0  0  0  0  0
  -21.9190   -4.6966   22.3403 C   0  0  0  0  0  0
  -22.7829  -13.5216   21.1876 C   0  0  0  0  0  0
  -22.1662   -4.2152   21.0980 F   0  0  0  0  0  0
  -21.5627   -3.4539   25.7736 F   0  0  0  0  0  0
  -29.9696  -13.6259   20.4055 N   0  0  0  0  0  0
  -26.2930  -12.9401   20.3258 N   0  0  0  0  0  0
  -25.9335  -11.6543   20.5742 N   0  0  0  0  0  0
  -22.0472  -12.8209   22.0433 N   0  0  0  0  0  0
  -25.4175  -15.1918   20.4075 N   0  0  0  0  0  0
  -31.7001  -15.0481   20.1188 O   0  0  0  0  0  0
  -21.6641   -6.8883   21.4244 O   0  0  0  0  0  0
  -22.3516  -14.5521   20.6718 O   0  0  0  0  0  0
  -24.6417  -31.8459   23.1905 C   0  0  0  0  0  0
  -25.9198  -32.4705   23.8286 C   0  0  1  0  0  0
  -27.2189  -27.1553   20.1490 C   0  0  0  0  0  0
  -25.5952  -33.8509   24.2200 N   0  0  0  0  0  0
  -23.4443  -30.4663   21.5359 C   0  0  2  0  0  0
  -24.8936  -28.8959   20.1137 C   0  0  0  0  0  0
  -22.7557  -29.4559   22.4871 C   0  0  0  0  0  0
  -18.0303  -28.1395   22.8480 C   0  0  0  0  0  0
  -24.1492  -36.7261   23.2643 C   0  0  0  0  0  0
  -25.9996  -30.7253   21.3874 C   0  0  0  0  0  0
  -26.0711  -29.3379   20.7301 C   0  0  0  0  0  0
  -27.2358  -28.4846   20.7297 C   0  0  0  0  0  0
  -26.0168  -26.8144   19.4897 C   0  0  0  0  0  0
  -24.8779  -27.6461   19.4786 C   0  0  0  0  0  0
  -23.6702  -29.7965   20.1552 C   0  0  0  0  0  0
  -25.4123  -36.3036   24.0317 C   0  0  1  0  0  0
  -20.5915  -28.3719   23.1240 C   0  0  2  0  0  0
  -20.6789  -26.9424   22.5403 C   0  0  0  0  0  0
  -19.5761  -26.6383   21.5213 C   0  0  0  0  0  0
  -18.1943  -26.7935   22.1626 C   0  0  0  0  0  0
  -19.1560  -28.8875   23.2854 C   0  0  0  0  0  0
  -18.9477  -30.1471   23.8878 C   0  0  0  0  0  0
  -17.6474  -30.6592   24.0561 C   0  0  0  0  0  0
  -25.9071  -34.9411   23.5067 C   0  0  0  0  0  0
  -16.5364  -29.9085   23.6337 C   0  0  0  0  0  0
  -16.7288  -28.6504   23.0355 C   0  0  0  0  0  0
  -26.4520  -31.6569   25.0723 C   0  0  0  0  0  0
  -25.3710  -31.3757   26.1423 C   0  0  0  0  0  0
  -27.0381  -30.2965   24.6300 C   0  0  0  0  0  0
  -27.6054  -32.4332   25.7507 C   0  0  0  0  0  0
  -27.5575  -37.1788   24.8465 C   0  0  0  0  0  0
  -21.4253  -29.3050   22.3616 N   0  0  0  0  0  0
  -26.4286  -37.3747   23.9406 N   0  0  0  0  0  0
  -24.7149  -31.0331   22.0930 N   0  0  0  0  0  0
  -23.4207  -28.8108   23.3017 O   0  0  0  0  0  0
  -28.2844  -26.1882   20.1837 O   0  0  0  0  0  0
  -26.5655  -34.8906   22.4644 O   0  0  0  0  0  0
  -23.5541  -32.1329   23.7133 O   0  0  0  0  0  0
  -30.2525  -19.9481   20.2342 C   0  0  0  0  0  0
  -30.5135  -18.5049   20.2245 C   0  0  0  0  0  0
  -28.3108  -18.1277   20.9679 C   0  0  0  0  0  0
  -28.0442  -19.5495   20.9809 C   0  0  0  0  0  0
  -29.0054  -20.5594   20.6270 C   0  0  0  0  0  0
  -29.5486  -17.5075   20.6104 C   0  0  0  0  0  0
  -30.1993  -23.1768   22.3269 C   0  0  0  0  0  0
  -30.3646  -23.7089   20.8994 C   0  0  0  0  0  0
  -28.9623  -22.2668   22.2826 C   0  0  0  0  0  0
  -29.0416  -23.3639   20.2192 C   0  0  2  0  0  0
  -26.6564  -19.9836   21.4293 C   0  0  0  0  0  0
  -27.9995  -24.6775   20.4051 C   0  0  0  0  0  0
  -28.6930  -21.9982   20.8709 N   0  0  0  0  0  0
  -29.6336  -15.9816   20.6871 N   0  0  0  0  0  0
  -31.4867  -12.7308   19.1812 H   0  0  0  0  0  0
  -30.4530  -11.5914   19.9974 H   0  0  0  0  0  0
  -29.8355  -11.7449   17.5626 H   0  0  0  0  0  0
  -29.6203  -13.4708   17.7057 H   0  0  0  0  0  0
  -27.9415  -11.2759   18.9545 H   0  0  0  0  0  0
  -27.3931  -12.4767   17.8143 H   0  0  0  0  0  0
  -27.6184  -14.2489   19.4445 H   0  0  0  0  0  0
  -28.7589  -12.2126   21.4225 H   0  0  0  0  0  0
  -28.3873  -13.8740   21.7994 H   0  0  0  0  0  0
  -25.2771   -9.5674   22.4765 H   0  0  0  0  0  0
  -24.0002   -7.4630   22.7473 H   0  0  0  0  0  0
  -21.0849   -8.8784   19.8955 H   0  0  0  0  0  0
  -22.3716  -10.9676   19.6172 H   0  0  0  0  0  0
  -21.2014   -7.6151   23.9719 H   0  0  0  0  0  0
  -21.1479   -6.0526   25.9079 H   0  0  0  0  0  0
  -22.0597   -2.7610   23.2848 H   0  0  0  0  0  0
  -22.4091  -11.9873   22.4822 H   0  0  0  0  0  0
  -21.1089  -13.1234   22.2635 H   0  0  0  0  0  0
  -24.6341  -15.8306   20.4908 H   0  0  0  0  0  0
  -26.2339  -15.6213   19.9926 H   0  0  0  0  0  0
  -26.7265  -32.5317   23.1018 H   0  0  0  0  0  0
  -25.0074  -33.9627   25.0330 H   0  0  0  0  0  0
  -22.7463  -31.2917   21.3825 H   0  0  0  0  0  0
  -23.3755  -35.9591   23.3296 H   0  0  0  0  0  0
  -24.3577  -36.8902   22.2060 H   0  0  0  0  0  0
  -23.7249  -37.6455   23.6686 H   0  0  0  0  0  0
  -26.1539  -31.4802   20.6151 H   0  0  0  0  0  0
  -26.8706  -30.7746   22.0291 H   0  0  0  0  0  0
  -28.1349  -28.8204   21.2270 H   0  0  0  0  0  0
  -25.9268  -25.8728   18.9712 H   0  0  0  0  0  0
  -23.9819  -27.3060   18.9775 H   0  0  0  0  0  0
  -23.8068  -30.5712   19.3997 H   0  0  0  0  0  0
  -22.7854  -29.2382   19.8446 H   0  0  0  0  0  0
  -25.1312  -36.1864   25.0809 H   0  0  0  0  0  0
  -21.0008  -28.3308   24.1360 H   0  0  0  0  0  0
  -20.5684  -26.2333   23.3620 H   0  0  0  0  0  0
  -21.6655  -26.7430   22.1200 H   0  0  0  0  0  0
  -19.6921  -25.6289   21.1255 H   0  0  0  0  0  0
  -19.6696  -27.3183   20.6733 H   0  0  0  0  0  0
  -17.4211  -26.6678   21.4031 H   0  0  0  0  0  0
  -18.0342  -26.0081   22.9026 H   0  0  0  0  0  0
  -19.7951  -30.7294   24.2240 H   0  0  0  0  0  0
  -17.5024  -31.6270   24.5167 H   0  0  0  0  0  0
  -15.5363  -30.2979   23.7671 H   0  0  0  0  0  0
  -15.8689  -28.0815   22.7081 H   0  0  0  0  0  0
  -24.5889  -30.7105   25.7743 H   0  0  0  0  0  0
  -24.8902  -32.2940   26.4804 H   0  0  0  0  0  0
  -25.7998  -30.8956   27.0229 H   0  0  0  0  0  0
  -26.2994  -29.6695   24.1293 H   0  0  0  0  0  0
  -27.3976  -29.7259   25.4875 H   0  0  0  0  0  0
  -27.8913  -30.4199   23.9625 H   0  0  0  0  0  0
  -27.2650  -33.3650   26.2036 H   0  0  0  0  0  0
  -28.3890  -32.6864   25.0353 H   0  0  0  0  0  0
  -28.0693  -31.8489   26.5463 H   0  0  0  0  0  0
  -28.2586  -38.0090   24.7503 H   0  0  0  0  0  0
  -28.1077  -36.2619   24.6299 H   0  0  0  0  0  0
  -27.2292  -37.1443   25.8867 H   0  0  0  0  0  0
  -20.9460  -29.8764   21.6798 H   0  0  0  0  0  0
  -26.0153  -38.2816   24.1406 H   0  0  0  0  0  0
  -31.0698  -20.6024   19.9676 H   0  0  0  0  0  0
  -31.4974  -18.1725   19.9259 H   0  0  0  0  0  0
  -27.5048  -17.4752   21.2723 H   0  0  0  0  0  0
  -30.0517  -23.9861   23.0436 H   0  0  0  0  0  0
  -31.0894  -22.6258   22.6335 H   0  0  0  0  0  0
  -31.1818  -23.1839   20.4027 H   0  0  0  0  0  0
  -30.5958  -24.7744   20.8660 H   0  0  0  0  0  0
  -28.1001  -22.7726   22.7200 H   0  0  0  0  0  0
  -29.1262  -21.3671   22.8805 H   0  0  0  0  0  0
  -29.2174  -23.2165   19.1526 H   0  0  0  0  0  0
  -25.9523  -19.1514   21.4354 H   0  0  0  0  0  0
  -26.2549  -20.7463   20.7614 H   0  0  0  0  0  0
  -26.6964  -20.3978   22.4372 H   0  0  0  0  0  0
  -27.6408  -24.6443   21.4338 H   0  0  0  0  0  0
  -27.1283  -24.4019   19.8170 H   0  0  0  0  0  0
  -28.7474  -15.5860   20.9604 H   0  0  0  0  0  0
  1 25  1  0  0  0
  1 30  2  0  0  0
  1 84  1  0  0  0
  2  3  1  0  0  0
  2 25  1  0  0  0
  2 85  1  0  0  0
  2 86  1  0  0  0
  3  4  1  0  0  0
  3 87  1  0  0  0
  3 88  1  0  0  0
  4  5  1  0  0  0
  4 89  1  0  0  0
  4 90  1  0  0  0
  5  6  1  0  0  0
  5 26  1  0  0  0
  5 91  1  0  0  0
  6 25  1  0  0  0
  6 92  1  0  0  0
  6 93  1  0  0  0
  7  8  2  0  0  0
  7 26  1  0  0  0
  7 29  1  0  0  0
  8  9  1  0  0  0
  8 22  1  0  0  0
  9 10  1  0  0  0
  9 27  2  0  0  0
 10 11  2  0  0  0
 10 15  1  0  0  0
 11 12  1  0  0  0
 11 94  1  0  0  0
 12 13  2  0  0  0
 12 95  1  0  0  0
 13 14  1  0  0  0
 13 31  1  0  0  0
 14 15  2  0  0  0
 14 96  1  0  0  0
 15 97  1  0  0  0
 16 17  2  0  0  0
 16 21  1  0  0  0
 16 31  1  0  0  0
 17 18  1  0  0  0
 17 98  1  0  0  0
 18 19  2  0  0  0
 18 99  1  0  0  0
 19 20  1  0  0  0
 19 24  1  0  0  0
 20 21  2  0  0  0
 20100  1  0  0  0
 21 23  1  0  0  0
 22 28  1  0  0  0
 22 32  2  0  0  0
 26 27  1  0  0  0
 28101  1  0  0  0
 28102  1  0  0  0
 29103  1  0  0  0
 29104  1  0  0  0
 33 34  1  0  0  0
 33 66  1  0  0  0
 33 70  2  0  0  0
 34 36  1  0  0  0
 34 59  1  0  0  0
 34105  1  0  0  0
 35 44  2  0  0  0
 35 45  1  0  0  0
 35 68  1  0  0  0
 36 56  1  0  0  0
 36106  1  0  0  0
 37 39  1  0  0  0
 37 47  1  0  0  0
 37 66  1  0  0  0
 37107  1  0  0  0
 38 43  2  0  0  0
 38 46  1  0  0  0
 38 47  1  0  0  0
 39 64  1  0  0  0
 39 67  2  0  0  0
 40 52  1  0  0  0
 40 53  2  0  0  0
 40 58  1  0  0  0
 41108  1  0  0  0
 41109  1  0  0  0
 41110  1  0  0  0
 41 48  1  0  0  0
 42 43  1  0  0  0
 42 66  1  0  0  0
 42111  1  0  0  0
 42112  1  0  0  0
 43 44  1  0  0  0
 44113  1  0  0  0
 45 46  2  0  0  0
 45114  1  0  0  0
 46115  1  0  0  0
 47116  1  0  0  0
 47117  1  0  0  0
 48 56  1  0  0  0
 48 65  1  0  0  0
 48118  1  0  0  0
 49 50  1  0  0  0
 49 53  1  0  0  0
 49 64  1  0  0  0
 49119  1  0  0  0
 50 51  1  0  0  0
 50120  1  0  0  0
 50121  1  0  0  0
 51 52  1  0  0  0
 51122  1  0  0  0
 51123  1  0  0  0
 52124  1  0  0  0
 52125  1  0  0  0
 53 54  1  0  0  0
 54 55  2  0  0  0
 54126  1  0  0  0
 55 57  1  0  0  0
 55127  1  0  0  0
 56 69  2  0  0  0
 57 58  2  0  0  0
 57128  1  0  0  0
 58129  1  0  0  0
 59 60  1  0  0  0
 59 61  1  0  0  0
 59 62  1  0  0  0
 60130  1  0  0  0
 60131  1  0  0  0
 60132  1  0  0  0
 61133  1  0  0  0
 61134  1  0  0  0
 61135  1  0  0  0
 62136  1  0  0  0
 62137  1  0  0  0
 62138  1  0  0  0
 63 65  1  0  0  0
 63139  1  0  0  0
 63140  1  0  0  0
 63141  1  0  0  0
 64142  1  0  0  0
 65143  1  0  0  0
 68 82  1  0  0  0
 71 72  2  0  0  0
 71 75  1  0  0  0
 71144  1  0  0  0
 72 76  1  0  0  0
 72145  1  0  0  0
 73 74  1  0  0  0
 73 76  2  0  0  0
 73146  1  0  0  0
 74 75  2  0  0  0
 74 81  1  0  0  0
 75 83  1  0  0  0
 76 84  1  0  0  0
 77 78  1  0  0  0
 77 79  1  0  0  0
 77147  1  0  0  0
 77148  1  0  0  0
 78 80  1  0  0  0
 78149  1  0  0  0
 78150  1  0  0  0
 79 83  1  0  0  0
 79151  1  0  0  0
 79152  1  0  0  0
 80 82  1  0  0  0
 80 83  1  0  0  0
 80153  1  0  0  0
 81154  1  0  0  0
 81155  1  0  0  0
 81156  1  0  0  0
 82157  1  0  0  0
 82158  1  0  0  0
 84159  1  0  0  0
M  ISO  4   1 100  68 101  82 101  84 100
M  END
> <chiral flag>
0

> <version>
0

> <s_m_source_file>
/data/baiqing/PycharmProjects/Reinvent-master-3.2/result/LINK_invent/BTK/process_docking_weight1_custom_product_contain_oxygen_bond_distance_aromatic_linkinvent_7_9_3/rearranged_h_0023.sdf

> <i_m_source_file_index>
7

> <r_mmod_Potential_Energy-OPLS-2005>
528.343688964844

> <r_mmod_Stretch_Energy-OPLS-2005>
212.576995849609

> <r_mmod_Bend_Energy-OPLS-2005>
314.607818603516

> <r_mmod_Torsional_Energy-OPLS-2005>
304.305511474609

> <r_mmod_Improper_Torsional_Energy-OPLS-2005>
9.91728496551514

> <r_mmod_Van_der_Waal_Energy-OPLS-2005>
131.306869506836

> <r_mmod_Electrostatic_Energy-OPLS-2005>
-398.045959472656

> <r_mmod_Solvation_Energy-OPLS-2005>
-214.169494628906

> <b_mmod_Minimization_Converged-OPLS-2005>
0

> <r_mmod_RMS_Derivative-OPLS-2005>
0.529614627361298

$$$$
7
                    3D
 Structure written by MMmdl.
156165  0  0  1  0            999 V2000
  -30.5233  -14.9052   20.4314 C   0  0  0  0  0  0
  -30.4464  -12.5559   19.4945 C   0  0  0  0  0  0
  -29.5210  -12.5308   18.2538 C   0  0  0  0  0  0
  -28.0513  -12.3248   18.6682 C   0  0  0  0  0  0
  -27.6375  -13.2404   19.8495 C   0  0  2  0  0  0
  -28.6798  -13.2190   20.9887 C   0  0  0  0  0  0
  -25.2497  -13.8204   20.5712 C   0  0  0  0  0  0
  -24.1793  -13.0440   20.9214 C   0  0  0  0  0  0
  -24.6390  -11.6918   20.8746 C   0  0  0  0  0  0
  -23.9068  -10.4293   21.0407 C   0  0  0  0  0  0
  -24.3620   -9.4211   21.9187 C   0  0  0  0  0  0
  -23.6298   -8.2244   22.0757 C   0  0  0  0  0  0
  -22.4281   -8.0278   21.3541 C   0  0  0  0  0  0
  -21.9911   -9.0252   20.4644 C   0  0  0  0  0  0
  -22.7237  -10.2133   20.3058 C   0  0  0  0  0  0
  -21.6851   -6.0736   22.5279 C   0  0  0  0  0  0
  -21.4011   -6.5642   23.8213 C   0  0  0  0  0  0
  -21.3663   -5.6795   24.9176 C   0  0  0  0  0  0
  -21.6047   -4.3057   24.7221 C   0  0  0  0  0  0
  -21.8821   -3.8148   23.4340 C   0  0  0  0  0  0
  -21.9190   -4.6965   22.3397 C   0  0  0  0  0  0
  -22.7812  -13.5220   21.1866 C   0  0  0  0  0  0
  -22.1662   -4.2157   21.0972 F   0  0  0  0  0  0
  -21.5633   -3.4540   25.7730 F   0  0  0  0  0  0
  -29.9658  -13.6307   20.4074 N   0  0  0  0  0  0
  -26.2920  -12.9421   20.3279 N   0  0  0  0  0  0
  -25.9326  -11.6554   20.5746 N   0  0  0  0  0  0
  -22.0454  -12.8215   22.0419 N   0  0  0  0  0  0
  -25.4185  -15.1926   20.4139 N   0  0  0  0  0  0
  -31.7019  -15.0277   20.0783 O   0  0  0  0  0  0
  -21.6641   -6.8876   21.4239 O   0  0  0  0  0  0
  -22.3504  -14.5521   20.6702 O   0  0  0  0  0  0
  -24.6432  -31.8449   23.1907 C   0  0  0  0  0  0
  -25.9209  -32.4702   23.8286 C   0  0  1  0  0  0
  -27.2171  -27.1453   20.1352 C   0  0  0  0  0  0
  -25.5960  -33.8506   24.2201 N   0  0  0  0  0  0
  -23.4441  -30.4677   21.5366 C   0  0  2  0  0  0
  -24.8917  -28.8966   20.1091 C   0  0  0  0  0  0
  -22.7556  -29.4562   22.4868 C   0  0  0  0  0  0
  -18.0312  -28.1383   22.8467 C   0  0  0  0  0  0
  -24.1494  -36.7252   23.2641 C   0  0  0  0  0  0
  -26.0008  -30.7188   21.3901 C   0  0  0  0  0  0
  -26.0684  -29.3318   20.7299 C   0  0  0  0  0  0
  -27.2270  -28.4700   20.7319 C   0  0  0  0  0  0
  -26.0132  -26.8160   19.4693 C   0  0  0  0  0  0
  -24.8772  -27.6515   19.4654 C   0  0  0  0  0  0
  -23.6679  -29.7967   20.1561 C   0  0  0  0  0  0
  -25.4124  -36.3033   24.0319 C   0  0  1  0  0  0
  -20.5926  -28.3702   23.1223 C   0  0  2  0  0  0
  -20.6804  -26.9429   22.5337 C   0  0  0  0  0  0
  -19.5776  -26.6408   21.5152 C   0  0  0  0  0  0
  -18.1948  -26.7950   22.1556 C   0  0  0  0  0  0
  -19.1570  -28.8855   23.2847 C   0  0  0  0  0  0
  -18.9488  -30.1454   23.8869 C   0  0  0  0  0  0
  -17.6481  -30.6563   24.0563 C   0  0  0  0  0  0
  -25.9073  -34.9411   23.5066 C   0  0  0  0  0  0
  -16.5370  -29.9056   23.6352 C   0  0  0  0  0  0
  -16.7295  -28.6485   23.0355 C   0  0  0  0  0  0
  -26.4527  -31.6571   25.0726 C   0  0  0  0  0  0
  -25.3706  -31.3761   26.1417 C   0  0  0  0  0  0
  -27.0399  -30.2968   24.6308 C   0  0  0  0  0  0
  -27.6054  -32.4343   25.7511 C   0  0  0  0  0  0
  -27.5574  -37.1783   24.8464 C   0  0  0  0  0  0
  -21.4247  -29.3048   22.3610 N   0  0  0  0  0  0
  -26.4285  -37.3743   23.9408 N   0  0  0  0  0  0
  -24.7159  -31.0314   22.0940 N   0  0  0  0  0  0
  -23.4202  -28.8108   23.3012 O   0  0  0  0  0  0
  -28.2901  -26.1862   20.2332 O   0  0  0  0  0  0
  -26.5656  -34.8900   22.4641 O   0  0  0  0  0  0
  -23.5557  -32.1325   23.7133 O   0  0  0  0  0  0
  -29.3344  -19.9124   21.4104 C   0  0  0  0  0  0
  -29.6141  -18.4925   21.5838 C   0  0  0  0  0  0
  -29.0651  -20.5322   20.1452 C   0  0  0  0  0  0
  -29.6934  -17.5228   20.5217 C   0  0  0  0  0  0
  -29.1753  -19.5623   19.0801 C   0  0  0  0  0  0
  -29.4739  -18.1478   19.2525 C   0  0  0  0  0  0
  -26.5292  -22.3507   21.1305 C   0  0  0  0  0  0
  -27.6796  -23.1683   21.7337 C   0  0  0  0  0  0
  -27.0837  -21.7742   19.8158 C   0  0  0  0  0  0
  -28.6709  -23.2991   20.5787 C   0  0  2  0  0  0
  -28.2527  -24.7085   19.7450 C   0  0  0  0  0  0
  -28.5382  -21.9095   19.8894 N   0  0  0  0  0  0
  -29.7048  -16.0106   20.7552 N   0  0  0  0  0  0
  -28.9257  -19.9910   17.8181 F   0  0  0  0  0  0
  -29.4711  -17.3571   18.1513 F   0  0  0  0  0  0
  -31.4797  -12.7191   19.1831 H   0  0  0  0  0  0
  -30.4393  -11.5901   20.0024 H   0  0  0  0  0  0
  -29.8291  -11.7439   17.5640 H   0  0  0  0  0  0
  -29.6187  -13.4694   17.7068 H   0  0  0  0  0  0
  -27.9333  -11.2784   18.9538 H   0  0  0  0  0  0
  -27.3899  -12.4835   17.8154 H   0  0  0  0  0  0
  -27.6156  -14.2534   19.4466 H   0  0  0  0  0  0
  -28.7516  -12.2242   21.4320 H   0  0  0  0  0  0
  -28.3822  -13.8908   21.7953 H   0  0  0  0  0  0
  -25.2758   -9.5696   22.4768 H   0  0  0  0  0  0
  -24.0008   -7.4638   22.7475 H   0  0  0  0  0  0
  -21.0850   -8.8762   19.8946 H   0  0  0  0  0  0
  -22.3686  -10.9675   19.6175 H   0  0  0  0  0  0
  -21.2002   -7.6150   23.9717 H   0  0  0  0  0  0
  -21.1488   -6.0523   25.9080 H   0  0  0  0  0  0
  -22.0593   -2.7610   23.2834 H   0  0  0  0  0  0
  -22.4074  -11.9884   22.4820 H   0  0  0  0  0  0
  -21.1071  -13.1243   22.2612 H   0  0  0  0  0  0
  -24.6462  -15.8422   20.5142 H   0  0  0  0  0  0
  -26.2584  -15.6297   20.0582 H   0  0  0  0  0  0
  -26.7272  -32.5308   23.1014 H   0  0  0  0  0  0
  -25.0087  -33.9623   25.0335 H   0  0  0  0  0  0
  -22.7477  -31.2945   21.3839 H   0  0  0  0  0  0
  -23.3762  -35.9579   23.3294 H   0  0  0  0  0  0
  -24.3574  -36.8890   22.2056 H   0  0  0  0  0  0
  -23.7246  -37.6443   23.6685 H   0  0  0  0  0  0
  -26.1590  -31.4741   20.6190 H   0  0  0  0  0  0
  -26.8711  -30.7669   22.0335 H   0  0  0  0  0  0
  -28.1209  -28.7960   21.2452 H   0  0  0  0  0  0
  -25.8882  -25.8800   18.9537 H   0  0  0  0  0  0
  -23.9796  -27.3149   18.9652 H   0  0  0  0  0  0
  -23.7998  -30.5704   19.3993 H   0  0  0  0  0  0
  -22.7831  -29.2358   19.8489 H   0  0  0  0  0  0
  -25.1317  -36.1857   25.0812 H   0  0  0  0  0  0
  -21.0039  -28.3256   24.1333 H   0  0  0  0  0  0
  -20.5756  -26.2293   23.3520 H   0  0  0  0  0  0
  -21.6663  -26.7495   22.1087 H   0  0  0  0  0  0
  -19.6965  -25.6330   21.1149 H   0  0  0  0  0  0
  -19.6726  -27.3245   20.6695 H   0  0  0  0  0  0
  -17.4230  -26.6773   21.3931 H   0  0  0  0  0  0
  -18.0304  -26.0054   22.8904 H   0  0  0  0  0  0
  -19.7965  -30.7279   24.2226 H   0  0  0  0  0  0
  -17.5036  -31.6239   24.5165 H   0  0  0  0  0  0
  -15.5366  -30.2947   23.7705 H   0  0  0  0  0  0
  -15.8702  -28.0796   22.7071 H   0  0  0  0  0  0
  -24.5892  -30.7102   25.7734 H   0  0  0  0  0  0
  -24.8886  -32.2947   26.4780 H   0  0  0  0  0  0
  -25.7983  -30.8973   27.0235 H   0  0  0  0  0  0
  -26.3024  -29.6686   24.1298 H   0  0  0  0  0  0
  -27.3994  -29.7271   25.4886 H   0  0  0  0  0  0
  -27.8941  -30.4205   23.9646 H   0  0  0  0  0  0
  -27.2643  -33.3661   26.2033 H   0  0  0  0  0  0
  -28.3896  -32.6872   25.0363 H   0  0  0  0  0  0
  -28.0693  -31.8505   26.5472 H   0  0  0  0  0  0
  -28.2588  -38.0082   24.7512 H   0  0  0  0  0  0
  -28.1078  -36.2612   24.6302 H   0  0  0  0  0  0
  -27.2288  -37.1439   25.8865 H   0  0  0  0  0  0
  -20.9436  -29.8765   21.6812 H   0  0  0  0  0  0
  -26.0155  -38.2814   24.1401 H   0  0  0  0  0  0
  -29.2603  -20.5201   22.2997 H   0  0  0  0  0  0
  -29.7255  -18.1350   22.5974 H   0  0  0  0  0  0
  -25.6525  -22.9721   20.9378 H   0  0  0  0  0  0
  -26.2229  -21.5579   21.8135 H   0  0  0  0  0  0
  -28.1358  -22.6210   22.5594 H   0  0  0  0  0  0
  -27.3547  -24.1340   22.1249 H   0  0  0  0  0  0
  -26.7143  -22.3394   18.9588 H   0  0  0  0  0  0
  -26.7371  -20.7489   19.6696 H   0  0  0  0  0  0
  -29.6842  -23.4112   20.9665 H   0  0  0  0  0  0
  -27.2784  -24.5003   19.3232 H   0  0  0  0  0  0
  -28.9014  -24.7231   18.8693 H   0  0  0  0  0  0
  -28.8394  -15.6866   21.1591 H   0  0  0  0  0  0
  1 25  1  0  0  0
  1 30  2  0  0  0
  1 83  1  0  0  0
  2  3  1  0  0  0
  2 25  1  0  0  0
  2 86  1  0  0  0
  2 87  1  0  0  0
  3  4  1  0  0  0
  3 88  1  0  0  0
  3 89  1  0  0  0
  4  5  1  0  0  0
  4 90  1  0  0  0
  4 91  1  0  0  0
  5  6  1  0  0  0
  5 26  1  0  0  0
  5 92  1  0  0  0
  6 25  1  0  0  0
  6 93  1  0  0  0
  6 94  1  0  0  0
  7  8  2  0  0  0
  7 26  1  0  0  0
  7 29  1  0  0  0
  8  9  1  0  0  0
  8 22  1  0  0  0
  9 10  1  0  0  0
  9 27  2  0  0  0
 10 11  2  0  0  0
 10 15  1  0  0  0
 11 12  1  0  0  0
 11 95  1  0  0  0
 12 13  2  0  0  0
 12 96  1  0  0  0
 13 14  1  0  0  0
 13 31  1  0  0  0
 14 15  2  0  0  0
 14 97  1  0  0  0
 15 98  1  0  0  0
 16 17  2  0  0  0
 16 21  1  0  0  0
 16 31  1  0  0  0
 17 18  1  0  0  0
 17 99  1  0  0  0
 18 19  2  0  0  0
 18100  1  0  0  0
 19 20  1  0  0  0
 19 24  1  0  0  0
 20 21  2  0  0  0
 20101  1  0  0  0
 21 23  1  0  0  0
 22 28  1  0  0  0
 22 32  2  0  0  0
 26 27  1  0  0  0
 28102  1  0  0  0
 28103  1  0  0  0
 29104  1  0  0  0
 29105  1  0  0  0
 33 34  1  0  0  0
 33 66  1  0  0  0
 33 70  2  0  0  0
 34 36  1  0  0  0
 34 59  1  0  0  0
 34106  1  0  0  0
 35 44  2  0  0  0
 35 45  1  0  0  0
 35 68  1  0  0  0
 36 56  1  0  0  0
 36107  1  0  0  0
 37 39  1  0  0  0
 37 47  1  0  0  0
 37 66  1  0  0  0
 37108  1  0  0  0
 38 43  2  0  0  0
 38 46  1  0  0  0
 38 47  1  0  0  0
 39 64  1  0  0  0
 39 67  2  0  0  0
 40 52  1  0  0  0
 40 53  2  0  0  0
 40 58  1  0  0  0
 41109  1  0  0  0
 41110  1  0  0  0
 41111  1  0  0  0
 41 48  1  0  0  0
 42 43  1  0  0  0
 42 66  1  0  0  0
 42112  1  0  0  0
 42113  1  0  0  0
 43 44  1  0  0  0
 44114  1  0  0  0
 45 46  2  0  0  0
 45115  1  0  0  0
 46116  1  0  0  0
 47117  1  0  0  0
 47118  1  0  0  0
 48 56  1  0  0  0
 48 65  1  0  0  0
 48119  1  0  0  0
 49 50  1  0  0  0
 49 53  1  0  0  0
 49 64  1  0  0  0
 49120  1  0  0  0
 50 51  1  0  0  0
 50121  1  0  0  0
 50122  1  0  0  0
 51 52  1  0  0  0
 51123  1  0  0  0
 51124  1  0  0  0
 52125  1  0  0  0
 52126  1  0  0  0
 53 54  1  0  0  0
 54 55  2  0  0  0
 54127  1  0  0  0
 55 57  1  0  0  0
 55128  1  0  0  0
 56 69  2  0  0  0
 57 58  2  0  0  0
 57129  1  0  0  0
 58130  1  0  0  0
 59 60  1  0  0  0
 59 61  1  0  0  0
 59 62  1  0  0  0
 60131  1  0  0  0
 60132  1  0  0  0
 60133  1  0  0  0
 61134  1  0  0  0
 61135  1  0  0  0
 61136  1  0  0  0
 62137  1  0  0  0
 62138  1  0  0  0
 62139  1  0  0  0
 63 65  1  0  0  0
 63140  1  0  0  0
 63141  1  0  0  0
 63142  1  0  0  0
 64143  1  0  0  0
 65144  1  0  0  0
 68 81  1  0  0  0
 71 72  2  0  0  0
 71 73  1  0  0  0
 71145  1  0  0  0
 72 74  1  0  0  0
 72146  1  0  0  0
 73 75  2  0  0  0
 73 82  1  0  0  0
 74 76  2  0  0  0
 74 83  1  0  0  0
 75 76  1  0  0  0
 75 84  1  0  0  0
 76 85  1  0  0  0
 77 78  1  0  0  0
 77 79  1  0  0  0
 77147  1  0  0  0
 77148  1  0  0  0
 78 80  1  0  0  0
 78149  1  0  0  0
 78150  1  0  0  0
 79 82  1  0  0  0
 79151  1  0  0  0
 79152  1  0  0  0
 80 81  1  0  0  0
 80 82  1  0  0  0
 80153  1  0  0  0
 81154  1  0  0  0
 81155  1  0  0  0
 83156  1  0  0  0
M  ISO  4   1 100  68 101  81 101  83 100
M  END
> <chiral flag>
0

> <version>
0

> <s_m_source_file>
/data/baiqing/PycharmProjects/Reinvent-master-3.2/result/LINK_invent/BTK/process_docking_weight1_custom_product_contain_oxygen_bond_distance_aromatic_linkinvent_7_9_3/rearranged_h_0023.sdf

> <i_m_source_file_index>
8

> <r_mmod_Potential_Energy-OPLS-2005>
600.509216308594

> <r_mmod_Stretch_Energy-OPLS-2005>
219.590423583984

> <r_mmod_Bend_Energy-OPLS-2005>
303.919891357422

> <r_mmod_Torsional_Energy-OPLS-2005>
317.160827636719

> <r_mmod_Improper_Torsional_Energy-OPLS-2005>
11.7025451660156

> <r_mmod_Van_der_Waal_Energy-OPLS-2005>
132.615798950195

> <r_mmod_Electrostatic_Energy-OPLS-2005>
-333.434020996094

> <r_mmod_Solvation_Energy-OPLS-2005>
-222.007110595703

> <b_mmod_Minimization_Converged-OPLS-2005>
0

> <r_mmod_RMS_Derivative-OPLS-2005>
1.44694292545319

$$$$
8
                    3D
 Structure written by MMmdl.
150159  0  0  1  0            999 V2000
  -30.4795  -15.0247   20.3999 C   0  0  0  0  0  0
  -30.4520  -12.6378   19.4954 C   0  0  0  0  0  0
  -29.5279  -12.5429   18.2570 C   0  0  0  0  0  0
  -28.0622  -12.3139   18.6760 C   0  0  0  0  0  0
  -27.6276  -13.2496   19.8330 C   0  0  2  0  0  0
  -28.6722  -13.2909   20.9686 C   0  0  0  0  0  0
  -25.2451  -13.8200   20.5716 C   0  0  0  0  0  0
  -24.1780  -13.0421   20.9249 C   0  0  0  0  0  0
  -24.6400  -11.6912   20.8760 C   0  0  0  0  0  0
  -23.9084  -10.4285   21.0408 C   0  0  0  0  0  0
  -24.3628   -9.4199   21.9186 C   0  0  0  0  0  0
  -23.6299   -8.2237   22.0753 C   0  0  0  0  0  0
  -22.4280   -8.0279   21.3544 C   0  0  0  0  0  0
  -21.9919   -9.0254   20.4645 C   0  0  0  0  0  0
  -22.7253  -10.2130   20.3056 C   0  0  0  0  0  0
  -21.6851   -6.0736   22.5280 C   0  0  0  0  0  0
  -21.4013   -6.5640   23.8214 C   0  0  0  0  0  0
  -21.3659   -5.6790   24.9176 C   0  0  0  0  0  0
  -21.6046   -4.3054   24.7224 C   0  0  0  0  0  0
  -21.8819   -3.8146   23.4344 C   0  0  0  0  0  0
  -21.9191   -4.6963   22.3403 C   0  0  0  0  0  0
  -22.7799  -13.5197   21.1896 C   0  0  0  0  0  0
  -22.1661   -4.2149   21.0980 F   0  0  0  0  0  0
  -21.5629   -3.4536   25.7736 F   0  0  0  0  0  0
  -29.9382  -13.7342   20.3675 N   0  0  0  0  0  0
  -26.2877  -12.9442   20.3212 N   0  0  0  0  0  0
  -25.9330  -11.6571   20.5716 N   0  0  0  0  0  0
  -22.0443  -12.8188   22.0451 N   0  0  0  0  0  0
  -25.4047  -15.1927   20.4132 N   0  0  0  0  0  0
  -31.6905  -15.1258   20.1674 O   0  0  0  0  0  0
  -21.6640   -6.8878   21.4241 O   0  0  0  0  0  0
  -22.3479  -14.5500   20.6733 O   0  0  0  0  0  0
  -24.6484  -31.8383   23.1816 C   0  0  0  0  0  0
  -25.9230  -32.4663   23.8231 C   0  0  1  0  0  0
  -27.2249  -27.0879   20.1640 C   0  0  0  0  0  0
  -25.5960  -33.8470   24.2151 N   0  0  0  0  0  0
  -23.4548  -30.4534   21.5282 C   0  0  2  0  0  0
  -24.9052  -28.8623   20.1153 C   0  0  0  0  0  0
  -22.7592  -29.4520   22.4847 C   0  0  0  0  0  0
  -18.0308  -28.1404   22.8474 C   0  0  0  0  0  0
  -24.1492  -36.7241   23.2647 C   0  0  0  0  0  0
  -26.0126  -30.6972   21.3848 C   0  0  0  0  0  0
  -26.0850  -29.3014   20.7302 C   0  0  0  0  0  0
  -27.2464  -28.4336   20.7277 C   0  0  0  0  0  0
  -26.0164  -26.7514   19.5201 C   0  0  0  0  0  0
  -24.8862  -27.6024   19.4936 C   0  0  0  0  0  0
  -23.6842  -29.7722   20.1521 C   0  0  0  0  0  0
  -25.4127  -36.3011   24.0311 C   0  0  1  0  0  0
  -20.5922  -28.3734   23.1226 C   0  0  2  0  0  0
  -20.6789  -26.9433   22.5403 C   0  0  0  0  0  0
  -19.5765  -26.6384   21.5211 C   0  0  0  0  0  0
  -18.1947  -26.7940   22.1621 C   0  0  0  0  0  0
  -19.1566  -28.8887   23.2839 C   0  0  0  0  0  0
  -18.9480  -30.1481   23.8869 C   0  0  0  0  0  0
  -17.6476  -30.6598   24.0558 C   0  0  0  0  0  0
  -25.9082  -34.9390   23.5045 C   0  0  0  0  0  0
  -16.5367  -29.9089   23.6337 C   0  0  0  0  0  0
  -16.7290  -28.6506   23.0360 C   0  0  0  0  0  0
  -26.4533  -31.6556   25.0700 C   0  0  0  0  0  0
  -25.3702  -31.3761   26.1386 C   0  0  0  0  0  0
  -27.0405  -30.2946   24.6317 C   0  0  0  0  0  0
  -27.6053  -32.4333   25.7490 C   0  0  0  0  0  0
  -27.5568  -37.1786   24.8471 C   0  0  0  0  0  0
  -21.4279  -29.3050   22.3595 N   0  0  0  0  0  0
  -26.4287  -37.3728   23.9399 N   0  0  0  0  0  0
  -24.7253  -31.0194   22.0866 N   0  0  0  0  0  0
  -23.4209  -28.8084   23.3031 O   0  0  0  0  0  0
  -28.2889  -26.1008   20.1921 O   0  0  0  0  0  0
  -26.5674  -34.8899   22.4628 O   0  0  0  0  0  0
  -23.5591  -32.1277   23.7012 O   0  0  0  0  0  0
  -28.2797  -19.8314   19.6265 C   0  0  0  0  0  0
  -30.3494  -18.7127   21.0319 C   0  0  0  0  0  0
  -29.0081  -20.8619   20.3300 C   0  0  0  0  0  0
  -29.5639  -17.7082   20.3570 C   0  0  0  0  0  0
  -30.0843  -20.1629   21.0220 C   0  0  0  0  0  0
  -28.5112  -18.3867   19.6429 C   0  0  0  0  0  0
  -29.2174  -23.5716   21.0515 C   0  0  0  0  0  0
  -28.0062  -23.3258   19.3897 C   0  0  0  0  0  0
  -28.0831  -24.5501   20.4421 C   0  0  0  0  0  0
  -28.6016  -22.3763   20.3927 N   0  0  0  0  0  0
  -29.5963  -16.1507   20.4754 N   0  0  0  0  0  0
  -30.9157  -20.9292   21.7690 F   0  0  0  0  0  0
  -27.4047  -17.4047   18.7506 Cl  0  0  0  0  0  0
  -31.4791  -12.8266   19.1784 H   0  0  0  0  0  0
  -30.4756  -11.6915   20.0379 H   0  0  0  0  0  0
  -29.8601  -11.7411   17.5962 H   0  0  0  0  0  0
  -29.6002  -13.4655   17.6787 H   0  0  0  0  0  0
  -27.9688  -11.2741   18.9912 H   0  0  0  0  0  0
  -27.3979  -12.4335   17.8195 H   0  0  0  0  0  0
  -27.5812  -14.2471   19.3958 H   0  0  0  0  0  0
  -28.7793  -12.3142   21.4425 H   0  0  0  0  0  0
  -28.3599  -13.9817   21.7537 H   0  0  0  0  0  0
  -25.2769   -9.5675   22.4763 H   0  0  0  0  0  0
  -24.0005   -7.4626   22.7473 H   0  0  0  0  0  0
  -21.0848   -8.8774   19.8953 H   0  0  0  0  0  0
  -22.3711  -10.9670   19.6166 H   0  0  0  0  0  0
  -21.2006   -7.6147   23.9718 H   0  0  0  0  0  0
  -21.1484   -6.0519   25.9078 H   0  0  0  0  0  0
  -22.0599   -2.7606   23.2843 H   0  0  0  0  0  0
  -22.4060  -11.9856   22.4855 H   0  0  0  0  0  0
  -21.1056  -13.1207   22.2647 H   0  0  0  0  0  0
  -24.6159  -15.8221   20.5082 H   0  0  0  0  0  0
  -26.2045  -15.6360   19.9804 H   0  0  0  0  0  0
  -26.7296  -32.5250   23.0956 H   0  0  0  0  0  0
  -25.0084  -33.9571   25.0284 H   0  0  0  0  0  0
  -22.7601  -31.2799   21.3663 H   0  0  0  0  0  0
  -23.3750  -35.9581   23.3319 H   0  0  0  0  0  0
  -24.3564  -36.8864   22.2059 H   0  0  0  0  0  0
  -23.7261  -37.6443   23.6680 H   0  0  0  0  0  0
  -26.1717  -31.4472   20.6088 H   0  0  0  0  0  0
  -26.8813  -30.7520   22.0292 H   0  0  0  0  0  0
  -28.1494  -28.7711   21.2162 H   0  0  0  0  0  0
  -25.9309  -25.7844   19.0445 H   0  0  0  0  0  0
  -23.9857  -27.2599   19.0021 H   0  0  0  0  0  0
  -23.8269  -30.5408   19.3920 H   0  0  0  0  0  0
  -22.7976  -29.2169   19.8412 H   0  0  0  0  0  0
  -25.1326  -36.1834   25.0805 H   0  0  0  0  0  0
  -21.0009  -28.3325   24.1349 H   0  0  0  0  0  0
  -20.5674  -26.2352   23.3629 H   0  0  0  0  0  0
  -21.6655  -26.7430   22.1208 H   0  0  0  0  0  0
  -19.6926  -25.6284   21.1268 H   0  0  0  0  0  0
  -19.6704  -27.3170   20.6724 H   0  0  0  0  0  0
  -17.4215  -26.6683   21.4024 H   0  0  0  0  0  0
  -18.0346  -26.0091   22.9025 H   0  0  0  0  0  0
  -19.7955  -30.7305   24.2228 H   0  0  0  0  0  0
  -17.5027  -31.6275   24.5167 H   0  0  0  0  0  0
  -15.5365  -30.2983   23.7677 H   0  0  0  0  0  0
  -15.8689  -28.0812   22.7097 H   0  0  0  0  0  0
  -24.5892  -30.7099   25.7701 H   0  0  0  0  0  0
  -24.8879  -32.2947   26.4738 H   0  0  0  0  0  0
  -25.7975  -30.8981   27.0210 H   0  0  0  0  0  0
  -26.3034  -29.6658   24.1311 H   0  0  0  0  0  0
  -27.3986  -29.7266   25.4912 H   0  0  0  0  0  0
  -27.8952  -30.4168   23.9660 H   0  0  0  0  0  0
  -27.2641  -33.3658   26.1997 H   0  0  0  0  0  0
  -28.3902  -32.6856   25.0346 H   0  0  0  0  0  0
  -28.0680  -31.8506   26.5466 H   0  0  0  0  0  0
  -28.2604  -38.0064   24.7472 H   0  0  0  0  0  0
  -28.1048  -36.2590   24.6358 H   0  0  0  0  0  0
  -27.2278  -37.1502   25.8874 H   0  0  0  0  0  0
  -20.9509  -29.8744   21.6743 H   0  0  0  0  0  0
  -26.0152  -38.2802   24.1374 H   0  0  0  0  0  0
  -27.4262  -20.1627   19.0551 H   0  0  0  0  0  0
  -31.1714  -18.3723   21.6430 H   0  0  0  0  0  0
  -29.2141  -23.5239   22.1411 H   0  0  0  0  0  0
  -30.2190  -23.7785   20.6700 H   0  0  0  0  0  0
  -28.6501  -23.4615   18.5193 H   0  0  0  0  0  0
  -26.9886  -23.0712   19.0924 H   0  0  0  0  0  0
  -27.2082  -24.4788   21.0910 H   0  0  0  0  0  0
  -28.6550  -15.7910   20.4940 H   0  0  0  0  0  0
  1 25  1  0  0  0
  1 30  2  0  0  0
  1 81  1  0  0  0
  2  3  1  0  0  0
  2 25  1  0  0  0
  2 84  1  0  0  0
  2 85  1  0  0  0
  3  4  1  0  0  0
  3 86  1  0  0  0
  3 87  1  0  0  0
  4  5  1  0  0  0
  4 88  1  0  0  0
  4 89  1  0  0  0
  5  6  1  0  0  0
  5 26  1  0  0  0
  5 90  1  0  0  0
  6 25  1  0  0  0
  6 91  1  0  0  0
  6 92  1  0  0  0
  7  8  2  0  0  0
  7 26  1  0  0  0
  7 29  1  0  0  0
  8  9  1  0  0  0
  8 22  1  0  0  0
  9 10  1  0  0  0
  9 27  2  0  0  0
 10 11  2  0  0  0
 10 15  1  0  0  0
 11 12  1  0  0  0
 11 93  1  0  0  0
 12 13  2  0  0  0
 12 94  1  0  0  0
 13 14  1  0  0  0
 13 31  1  0  0  0
 14 15  2  0  0  0
 14 95  1  0  0  0
 15 96  1  0  0  0
 16 17  2  0  0  0
 16 21  1  0  0  0
 16 31  1  0  0  0
 17 18  1  0  0  0
 17 97  1  0  0  0
 18 19  2  0  0  0
 18 98  1  0  0  0
 19 20  1  0  0  0
 19 24  1  0  0  0
 20 21  2  0  0  0
 20 99  1  0  0  0
 21 23  1  0  0  0
 22 28  1  0  0  0
 22 32  2  0  0  0
 26 27  1  0  0  0
 28100  1  0  0  0
 28101  1  0  0  0
 29102  1  0  0  0
 29103  1  0  0  0
 33 34  1  0  0  0
 33 66  1  0  0  0
 33 70  2  0  0  0
 34 36  1  0  0  0
 34 59  1  0  0  0
 34104  1  0  0  0
 35 44  2  0  0  0
 35 45  1  0  0  0
 35 68  1  0  0  0
 36 56  1  0  0  0
 36105  1  0  0  0
 37 39  1  0  0  0
 37 47  1  0  0  0
 37 66  1  0  0  0
 37106  1  0  0  0
 38 43  2  0  0  0
 38 46  1  0  0  0
 38 47  1  0  0  0
 39 64  1  0  0  0
 39 67  2  0  0  0
 40 52  1  0  0  0
 40 53  2  0  0  0
 40 58  1  0  0  0
 41107  1  0  0  0
 41108  1  0  0  0
 41109  1  0  0  0
 41 48  1  0  0  0
 42 43  1  0  0  0
 42 66  1  0  0  0
 42110  1  0  0  0
 42111  1  0  0  0
 43 44  1  0  0  0
 44112  1  0  0  0
 45 46  2  0  0  0
 45113  1  0  0  0
 46114  1  0  0  0
 47115  1  0  0  0
 47116  1  0  0  0
 48 56  1  0  0  0
 48 65  1  0  0  0
 48117  1  0  0  0
 49 50  1  0  0  0
 49 53  1  0  0  0
 49 64  1  0  0  0
 49118  1  0  0  0
 50 51  1  0  0  0
 50119  1  0  0  0
 50120  1  0  0  0
 51 52  1  0  0  0
 51121  1  0  0  0
 51122  1  0  0  0
 52123  1  0  0  0
 52124  1  0  0  0
 53 54  1  0  0  0
 54 55  2  0  0  0
 54125  1  0  0  0
 55 57  1  0  0  0
 55126  1  0  0  0
 56 69  2  0  0  0
 57 58  2  0  0  0
 57127  1  0  0  0
 58128  1  0  0  0
 59 60  1  0  0  0
 59 61  1  0  0  0
 59 62  1  0  0  0
 60129  1  0  0  0
 60130  1  0  0  0
 60131  1  0  0  0
 61132  1  0  0  0
 61133  1  0  0  0
 61134  1  0  0  0
 62135  1  0  0  0
 62136  1  0  0  0
 62137  1  0  0  0
 63 65  1  0  0  0
 63138  1  0  0  0
 63139  1  0  0  0
 63140  1  0  0  0
 64141  1  0  0  0
 65142  1  0  0  0
 68 79  1  0  0  0
 71 73  2  0  0  0
 71 76  1  0  0  0
 71143  1  0  0  0
 72 74  1  0  0  0
 72 75  2  0  0  0
 72144  1  0  0  0
 73 75  1  0  0  0
 73 80  1  0  0  0
 74 76  2  0  0  0
 74 81  1  0  0  0
 75 82  1  0  0  0
 76 83  1  0  0  0
 77 79  1  0  0  0
 77 80  1  0  0  0
 77145  1  0  0  0
 77146  1  0  0  0
 78 79  1  0  0  0
 78 80  1  0  0  0
 78147  1  0  0  0
 78148  1  0  0  0
 79149  1  0  0  0
 81150  1  0  0  0
M  ISO  4   1 100  68 101  79 101  81 100
M  END
> <chiral flag>
0

> <version>
0

> <s_m_source_file>
/data/baiqing/PycharmProjects/Reinvent-master-3.2/result/LINK_invent/BTK/process_docking_weight1_custom_product_contain_oxygen_bond_distance_aromatic_linkinvent_7_9_3/rearranged_h_0023.sdf

> <i_m_source_file_index>
9

> <r_mmod_Potential_Energy-OPLS-2005>
695.873291015625

> <r_mmod_Stretch_Energy-OPLS-2005>
269.957366943359

> <r_mmod_Bend_Energy-OPLS-2005>
383.251617431641

> <r_mmod_Torsional_Energy-OPLS-2005>
255.825057983398

> <r_mmod_Improper_Torsional_Energy-OPLS-2005>
10.2702646255493

> <r_mmod_Van_der_Waal_Energy-OPLS-2005>
121.705085754395

> <r_mmod_Electrostatic_Energy-OPLS-2005>
-363.720306396484

> <r_mmod_Solvation_Energy-OPLS-2005>
-224.576431274414

> <b_mmod_Minimization_Converged-OPLS-2005>
0

> <r_mmod_RMS_Derivative-OPLS-2005>
0.658658623695374

$$$$
9
                    3D
 Structure written by MMmdl.
157165  0  0  1  0            999 V2000
  -30.7215  -14.4902   20.6538 C   0  0  0  0  0  0
  -30.4302  -12.3486   19.4228 C   0  0  0  0  0  0
  -29.4935  -12.5408   18.2077 C   0  0  0  0  0  0
  -28.0128  -12.3957   18.6196 C   0  0  0  0  0  0
  -27.6609  -13.2226   19.8837 C   0  0  2  0  0  0
  -28.7030  -12.9917   21.0017 C   0  0  0  0  0  0
  -25.2552  -13.8205   20.5719 C   0  0  0  0  0  0
  -24.1803  -13.0473   20.9171 C   0  0  0  0  0  0
  -24.6364  -11.6926   20.8674 C   0  0  0  0  0  0
  -23.9020  -10.4322   21.0374 C   0  0  0  0  0  0
  -24.3582   -9.4246   21.9147 C   0  0  0  0  0  0
  -23.6267   -8.2284   22.0730 C   0  0  0  0  0  0
  -22.4246   -8.0301   21.3535 C   0  0  0  0  0  0
  -21.9869   -9.0259   20.4627 C   0  0  0  0  0  0
  -22.7175  -10.2157   20.3034 C   0  0  0  0  0  0
  -21.6878   -6.0712   22.5267 C   0  0  0  0  0  0
  -21.4031   -6.5601   23.8203 C   0  0  0  0  0  0
  -21.3670   -5.6732   24.9143 C   0  0  0  0  0  0
  -21.6072   -4.3003   24.7194 C   0  0  0  0  0  0
  -21.8820   -3.8113   23.4307 C   0  0  0  0  0  0
  -21.9204   -4.6940   22.3371 C   0  0  0  0  0  0
  -22.7816  -13.5303   21.1805 C   0  0  0  0  0  0
  -22.1673   -4.2149   21.0948 F   0  0  0  0  0  0
  -21.5648   -3.4485   25.7707 F   0  0  0  0  0  0
  -30.0366  -13.3185   20.4639 N   0  0  0  0  0  0
  -26.3016  -12.9410   20.3409 N   0  0  0  0  0  0
  -25.9295  -11.6543   20.5678 N   0  0  0  0  0  0
  -22.0375  -12.8350   22.0369 N   0  0  0  0  0  0
  -25.4252  -15.1930   20.4210 N   0  0  0  0  0  0
  -31.8107  -14.7094   20.1153 O   0  0  0  0  0  0
  -21.6639   -6.8876   21.4240 O   0  0  0  0  0  0
  -22.3521  -14.5576   20.6559 O   0  0  0  0  0  0
  -24.6148  -31.8700   23.2131 C   0  0  0  0  0  0
  -25.9042  -32.4839   23.8414 C   0  0  1  0  0  0
  -27.2280  -27.4022   20.1140 C   0  0  0  0  0  0
  -25.5901  -33.8645   24.2357 N   0  0  0  0  0  0
  -23.4034  -30.4928   21.5533 C   0  0  2  0  0  0
  -24.8509  -28.9643   20.1114 C   0  0  0  0  0  0
  -22.7444  -29.4657   22.4991 C   0  0  0  0  0  0
  -18.0288  -28.1382   22.8518 C   0  0  0  0  0  0
  -24.1473  -36.7319   23.2640 C   0  0  0  0  0  0
  -25.9362  -30.8247   21.3718 C   0  0  0  0  0  0
  -26.0141  -29.4581   20.7179 C   0  0  0  0  0  0
  -27.2037  -28.6851   20.7187 C   0  0  0  0  0  0
  -26.0524  -26.9571   19.4628 C   0  0  0  0  0  0
  -24.8727  -27.7149   19.4728 C   0  0  0  0  0  0
  -23.6139  -29.8315   20.1660 C   0  0  0  0  0  0
  -25.4101  -36.3135   24.0359 C   0  0  1  0  0  0
  -20.5865  -28.3678   23.1334 C   0  0  2  0  0  0
  -20.6762  -26.9401   22.5440 C   0  0  0  0  0  0
  -19.5730  -26.6381   21.5232 C   0  0  0  0  0  0
  -18.1934  -26.7920   22.1658 C   0  0  0  0  0  0
  -19.1537  -28.8854   23.2924 C   0  0  0  0  0  0
  -18.9472  -30.1456   23.8917 C   0  0  0  0  0  0
  -17.6476  -30.6594   24.0600 C   0  0  0  0  0  0
  -25.9033  -34.9490   23.5155 C   0  0  0  0  0  0
  -16.5355  -29.9096   23.6315 C   0  0  0  0  0  0
  -16.7293  -28.6523   23.0348 C   0  0  0  0  0  0
  -26.4450  -31.6619   25.0726 C   0  0  0  0  0  0
  -25.3731  -31.3727   26.1482 C   0  0  0  0  0  0
  -27.0276  -30.3075   24.6056 C   0  0  0  0  0  0
  -27.6035  -32.4328   25.7496 C   0  0  0  0  0  0
  -27.5588  -37.1817   24.8469 C   0  0  0  0  0  0
  -21.4166  -29.3059   22.3775 N   0  0  0  0  0  0
  -26.4296  -37.3820   23.9422 N   0  0  0  0  0  0
  -24.6698  -31.0763   22.1037 N   0  0  0  0  0  0
  -23.4211  -28.8205   23.3041 O   0  0  0  0  0  0
  -28.3568  -26.5925   20.1711 O   0  0  0  0  0  0
  -26.5561  -34.8930   22.4674 O   0  0  0  0  0  0
  -23.5340  -32.1448   23.7518 O   0  0  0  0  0  0
  -31.9485  -18.3056   22.9645 C   0  0  0  0  0  0
  -31.5993  -16.9937   22.5884 C   0  0  0  0  0  0
  -29.8202  -17.8924   21.2076 C   0  0  0  0  0  0
  -30.1395  -19.2343   21.5832 C   0  0  0  0  0  0
  -31.2327  -19.4286   22.4838 C   0  0  0  0  0  0
  -30.5349  -16.7663   21.6920 C   0  0  0  0  0  0
  -29.2020  -20.3493   21.1209 C   0  0  0  0  0  0
  -31.6640  -20.8015   22.9915 C   0  0  0  0  0  0
  -29.2650  -24.1995   20.6183 C   0  0  0  0  0  0
  -28.7143  -22.7345   20.6154 C   0  0  0  0  0  0
  -28.0831  -25.2206   20.5761 C   0  0  0  0  0  0
  -30.0954  -15.4322   21.3985 N   0  0  0  0  0  0
  -29.6343  -21.6274   20.9647 N   0  0  0  0  0  0
  -28.0282  -20.0554   20.8673 O   0  0  0  0  0  0
  -31.4730  -12.4662   19.1208 H   0  0  0  0  0  0
  -30.3539  -11.3307   19.8139 H   0  0  0  0  0  0
  -29.7279  -11.8259   17.4185 H   0  0  0  0  0  0
  -29.6582  -13.5307   17.7771 H   0  0  0  0  0  0
  -27.8150  -11.3382   18.7903 H   0  0  0  0  0  0
  -27.3669  -12.6849   17.7885 H   0  0  0  0  0  0
  -27.7082  -14.2712   19.5939 H   0  0  0  0  0  0
  -28.6875  -11.9460   21.3173 H   0  0  0  0  0  0
  -28.4496  -13.5657   21.8954 H   0  0  0  0  0  0
  -25.2708   -9.5772   22.4692 H   0  0  0  0  0  0
  -23.9998   -7.4698   22.7429 H   0  0  0  0  0  0
  -21.0813   -8.8720   19.8934 H   0  0  0  0  0  0
  -22.3575  -10.9654   19.6132 H   0  0  0  0  0  0
  -21.2013   -7.6099   23.9713 H   0  0  0  0  0  0
  -21.1502   -6.0444   25.9062 H   0  0  0  0  0  0
  -22.0594   -2.7576   23.2767 H   0  0  0  0  0  0
  -22.3925  -12.0083   22.4912 H   0  0  0  0  0  0
  -21.0982  -13.1419   22.2434 H   0  0  0  0  0  0
  -24.6567  -15.8447   20.5404 H   0  0  0  0  0  0
  -26.2887  -15.6389   20.1317 H   0  0  0  0  0  0
  -26.7117  -32.5544   23.1186 H   0  0  0  0  0  0
  -25.0144  -33.9852   25.0550 H   0  0  0  0  0  0
  -22.6891  -31.3077   21.4183 H   0  0  0  0  0  0
  -23.3749  -35.9634   23.3303 H   0  0  0  0  0  0
  -24.3556  -36.8904   22.2050 H   0  0  0  0  0  0
  -23.7206  -37.6516   23.6616 H   0  0  0  0  0  0
  -26.0394  -31.5874   20.5981 H   0  0  0  0  0  0
  -26.8276  -30.8829   21.9821 H   0  0  0  0  0  0
  -28.0914  -29.0556   21.2100 H   0  0  0  0  0  0
  -26.0330  -26.0205   18.9244 H   0  0  0  0  0  0
  -23.9902  -27.3393   18.9760 H   0  0  0  0  0  0
  -23.7259  -30.6077   19.4083 H   0  0  0  0  0  0
  -22.7356  -29.2534   19.8676 H   0  0  0  0  0  0
  -25.1278  -36.2016   25.0860 H   0  0  0  0  0  0
  -20.9998  -28.3207   24.1451 H   0  0  0  0  0  0
  -20.5641  -26.2275   23.3626 H   0  0  0  0  0  0
  -21.6632  -26.7417   22.1232 H   0  0  0  0  0  0
  -19.6877  -25.6307   21.1239 H   0  0  0  0  0  0
  -19.6657  -27.3201   20.6746 H   0  0  0  0  0  0
  -17.4193  -26.6718   21.4075 H   0  0  0  0  0  0
  -18.0319  -26.0046   22.9033 H   0  0  0  0  0  0
  -19.7958  -30.7276   24.2258 H   0  0  0  0  0  0
  -17.5042  -31.6264   24.5228 H   0  0  0  0  0  0
  -15.5363  -30.3023   23.7647 H   0  0  0  0  0  0
  -15.8674  -28.0885   22.6999 H   0  0  0  0  0  0
  -24.5908  -30.7063   25.7848 H   0  0  0  0  0  0
  -24.8928  -32.2890   26.4939 H   0  0  0  0  0  0
  -25.8125  -30.8919   27.0247 H   0  0  0  0  0  0
  -26.2815  -29.6863   24.1095 H   0  0  0  0  0  0
  -27.4049  -29.7270   25.4494 H   0  0  0  0  0  0
  -27.8651  -30.4422   23.9203 H   0  0  0  0  0  0
  -27.2653  -33.3632   26.2078 H   0  0  0  0  0  0
  -28.3835  -32.6889   25.0316 H   0  0  0  0  0  0
  -28.0669  -31.8436   26.5403 H   0  0  0  0  0  0
  -28.2631  -38.0105   24.7523 H   0  0  0  0  0  0
  -28.1072  -36.2628   24.6287 H   0  0  0  0  0  0
  -27.2300  -37.1465   25.8878 H   0  0  0  0  0  0
  -20.9248  -29.8821   21.7082 H   0  0  0  0  0  0
  -26.0187  -38.2905   24.1396 H   0  0  0  0  0  0
  -32.7611  -18.4432   23.6681 H   0  0  0  0  0  0
  -32.1359  -16.1637   23.0258 H   0  0  0  0  0  0
  -28.9759  -17.7188   20.5506 H   0  0  0  0  0  0
  -32.3956  -20.7345   23.8007 H   0  0  0  0  0  0
  -30.8165  -21.3595   23.3930 H   0  0  0  0  0  0
  -32.1209  -21.3829   22.1892 H   0  0  0  0  0  0
  -29.9107  -24.3462   19.7508 H   0  0  0  0  0  0
  -29.8786  -24.3838   21.5045 H   0  0  0  0  0  0
  -28.2915  -22.5242   19.6321 H   0  0  0  0  0  0
  -27.8746  -22.6916   21.3126 H   0  0  0  0  0  0
  -27.6347  -25.2581   21.5729 H   0  0  0  0  0  0
  -27.3267  -24.7725   19.9363 H   0  0  0  0  0  0
  -29.1799  -15.1741   21.7399 H   0  0  0  0  0  0
  -30.6069  -21.8359   21.1457 H   0  0  0  0  0  0
  1 25  1  0  0  0
  1 30  2  0  0  0
  1 82  1  0  0  0
  2  3  1  0  0  0
  2 25  1  0  0  0
  2 85  1  0  0  0
  2 86  1  0  0  0
  3  4  1  0  0  0
  3 87  1  0  0  0
  3 88  1  0  0  0
  4  5  1  0  0  0
  4 89  1  0  0  0
  4 90  1  0  0  0
  5  6  1  0  0  0
  5 26  1  0  0  0
  5 91  1  0  0  0
  6 25  1  0  0  0
  6 92  1  0  0  0
  6 93  1  0  0  0
  7  8  2  0  0  0
  7 26  1  0  0  0
  7 29  1  0  0  0
  8  9  1  0  0  0
  8 22  1  0  0  0
  9 10  1  0  0  0
  9 27  2  0  0  0
 10 11  2  0  0  0
 10 15  1  0  0  0
 11 12  1  0  0  0
 11 94  1  0  0  0
 12 13  2  0  0  0
 12 95  1  0  0  0
 13 14  1  0  0  0
 13 31  1  0  0  0
 14 15  2  0  0  0
 14 96  1  0  0  0
 15 97  1  0  0  0
 16 17  2  0  0  0
 16 21  1  0  0  0
 16 31  1  0  0  0
 17 18  1  0  0  0
 17 98  1  0  0  0
 18 19  2  0  0  0
 18 99  1  0  0  0
 19 20  1  0  0  0
 19 24  1  0  0  0
 20 21  2  0  0  0
 20100  1  0  0  0
 21 23  1  0  0  0
 22 28  1  0  0  0
 22 32  2  0  0  0
 26 27  1  0  0  0
 28101  1  0  0  0
 28102  1  0  0  0
 29103  1  0  0  0
 29104  1  0  0  0
 33 34  1  0  0  0
 33 66  1  0  0  0
 33 70  2  0  0  0
 34 36  1  0  0  0
 34 59  1  0  0  0
 34105  1  0  0  0
 35 44  2  0  0  0
 35 45  1  0  0  0
 35 68  1  0  0  0
 36 56  1  0  0  0
 36106  1  0  0  0
 37 39  1  0  0  0
 37 47  1  0  0  0
 37 66  1  0  0  0
 37107  1  0  0  0
 38 43  2  0  0  0
 38 46  1  0  0  0
 38 47  1  0  0  0
 39 64  1  0  0  0
 39 67  2  0  0  0
 40 52  1  0  0  0
 40 53  2  0  0  0
 40 58  1  0  0  0
 41108  1  0  0  0
 41109  1  0  0  0
 41110  1  0  0  0
 41 48  1  0  0  0
 42 43  1  0  0  0
 42 66  1  0  0  0
 42111  1  0  0  0
 42112  1  0  0  0
 43 44  1  0  0  0
 44113  1  0  0  0
 45 46  2  0  0  0
 45114  1  0  0  0
 46115  1  0  0  0
 47116  1  0  0  0
 47117  1  0  0  0
 48 56  1  0  0  0
 48 65  1  0  0  0
 48118  1  0  0  0
 49 50  1  0  0  0
 49 53  1  0  0  0
 49 64  1  0  0  0
 49119  1  0  0  0
 50 51  1  0  0  0
 50120  1  0  0  0
 50121  1  0  0  0
 51 52  1  0  0  0
 51122  1  0  0  0
 51123  1  0  0  0
 52124  1  0  0  0
 52125  1  0  0  0
 53 54  1  0  0  0
 54 55  2  0  0  0
 54126  1  0  0  0
 55 57  1  0  0  0
 55127  1  0  0  0
 56 69  2  0  0  0
 57 58  2  0  0  0
 57128  1  0  0  0
 58129  1  0  0  0
 59 60  1  0  0  0
 59 61  1  0  0  0
 59 62  1  0  0  0
 60130  1  0  0  0
 60131  1  0  0  0
 60132  1  0  0  0
 61133  1  0  0  0
 61134  1  0  0  0
 61135  1  0  0  0
 62136  1  0  0  0
 62137  1  0  0  0
 62138  1  0  0  0
 63 65  1  0  0  0
 63139  1  0  0  0
 63140  1  0  0  0
 63141  1  0  0  0
 64142  1  0  0  0
 65143  1  0  0  0
 68 81  1  0  0  0
 71 72  2  0  0  0
 71 75  1  0  0  0
 71144  1  0  0  0
 72 76  1  0  0  0
 72145  1  0  0  0
 73 74  1  0  0  0
 73 76  2  0  0  0
 73146  1  0  0  0
 74 75  2  0  0  0
 74 77  1  0  0  0
 75 78  1  0  0  0
 76 82  1  0  0  0
 77 83  1  0  0  0
 77 84  2  0  0  0
 78147  1  0  0  0
 78148  1  0  0  0
 78149  1  0  0  0
 79 80  1  0  0  0
 79 81  1  0  0  0
 79150  1  0  0  0
 79151  1  0  0  0
 80 83  1  0  0  0
 80152  1  0  0  0
 80153  1  0  0  0
 81154  1  0  0  0
 81155  1  0  0  0
 82156  1  0  0  0
 83157  1  0  0  0
M  ISO  4   1 100  68 101  81 101  82 100
M  END
> <chiral flag>
0

> <version>
0

> <s_m_source_file>
/data/baiqing/PycharmProjects/Reinvent-master-3.2/result/LINK_invent/BTK/process_docking_weight1_custom_product_contain_oxygen_bond_distance_aromatic_linkinvent_7_9_3/rearranged_h_0023.sdf

> <i_m_source_file_index>
10

> <r_mmod_Potential_Energy-OPLS-2005>
-41.2665481567383

> <r_mmod_Stretch_Energy-OPLS-2005>
51.6355667114258

> <r_mmod_Bend_Energy-OPLS-2005>
112.97119140625

> <r_mmod_Torsional_Energy-OPLS-2005>
253.194671630859

> <r_mmod_Improper_Torsional_Energy-OPLS-2005>
3.22162890434265

> <r_mmod_Van_der_Waal_Energy-OPLS-2005>
160.599075317383

> <r_mmod_Electrostatic_Energy-OPLS-2005>
-412.870422363281

> <r_mmod_Solvation_Energy-OPLS-2005>
-228.604461669922

> <b_mmod_Minimization_Converged-OPLS-2005>
0

> <r_mmod_RMS_Derivative-OPLS-2005>
6.44988965988159

$$$$
10
                    3D
 Structure written by MMmdl.
173181  0  0  1  0            999 V2000
  -30.7591  -14.4676   20.5410 C   0  0  0  0  0  0
  -30.3971  -12.2920   19.4523 C   0  0  0  0  0  0
  -29.4897  -12.4923   18.2231 C   0  0  0  0  0  0
  -28.0114  -12.3634   18.6307 C   0  0  0  0  0  0
  -27.6560  -13.2240   19.8737 C   0  0  2  0  0  0
  -28.6982  -13.0631   21.0065 C   0  0  0  0  0  0
  -25.2536  -13.8209   20.5694 C   0  0  0  0  0  0
  -24.1820  -13.0461   20.9187 C   0  0  0  0  0  0
  -24.6399  -11.6928   20.8754 C   0  0  0  0  0  0
  -23.9075  -10.4294   21.0411 C   0  0  0  0  0  0
  -24.3621   -9.4203   21.9186 C   0  0  0  0  0  0
  -23.6291   -8.2243   22.0754 C   0  0  0  0  0  0
  -22.4278   -8.0283   21.3538 C   0  0  0  0  0  0
  -21.9923   -9.0260   20.4639 C   0  0  0  0  0  0
  -22.7256  -10.2136   20.3051 C   0  0  0  0  0  0
  -21.6860   -6.0741   22.5272 C   0  0  0  0  0  0
  -21.4019   -6.5639   23.8213 C   0  0  0  0  0  0
  -21.3657   -5.6789   24.9172 C   0  0  0  0  0  0
  -21.6051   -4.3057   24.7219 C   0  0  0  0  0  0
  -21.8816   -3.8147   23.4341 C   0  0  0  0  0  0
  -21.9186   -4.6962   22.3400 C   0  0  0  0  0  0
  -22.7829  -13.5223   21.1841 C   0  0  0  0  0  0
  -22.1657   -4.2146   21.0979 F   0  0  0  0  0  0
  -21.5626   -3.4541   25.7735 F   0  0  0  0  0  0
  -30.0318  -13.3203   20.4445 N   0  0  0  0  0  0
  -26.2995  -12.9419   20.3388 N   0  0  0  0  0  0
  -25.9330  -11.6557   20.5809 N   0  0  0  0  0  0
  -22.0488  -12.8202   22.0401 N   0  0  0  0  0  0
  -25.4256  -15.1933   20.4063 N   0  0  0  0  0  0
  -31.8901  -14.5331   20.0598 O   0  0  0  0  0  0
  -21.6644   -6.8884   21.4236 O   0  0  0  0  0  0
  -22.3500  -14.5524   20.6694 O   0  0  0  0  0  0
  -24.6159  -31.8684   23.2146 C   0  0  0  0  0  0
  -25.9064  -32.4824   23.8417 C   0  0  1  0  0  0
  -27.2144  -27.4315   20.0792 C   0  0  0  0  0  0
  -25.5932  -33.8619   24.2349 N   0  0  0  0  0  0
  -23.4006  -30.4969   21.5567 C   0  0  2  0  0  0
  -24.8428  -28.9804   20.1048 C   0  0  0  0  0  0
  -22.7430  -29.4641   22.4990 C   0  0  0  0  0  0
  -18.0263  -28.1358   22.8467 C   0  0  0  0  0  0
  -24.1494  -36.7313   23.2625 C   0  0  0  0  0  0
  -25.9320  -30.8361   21.3679 C   0  0  0  0  0  0
  -26.0086  -29.4757   20.7048 C   0  0  0  0  0  0
  -27.2011  -28.7095   20.6897 C   0  0  0  0  0  0
  -26.0326  -26.9801   19.4430 C   0  0  0  0  0  0
  -24.8507  -27.7330   19.4684 C   0  0  0  0  0  0
  -23.6071  -29.8459   20.1652 C   0  0  0  0  0  0
  -25.4107  -36.3107   24.0320 C   0  0  1  0  0  0
  -20.5864  -28.3655   23.1297 C   0  0  2  0  0  0
  -20.6763  -26.9383   22.5406 C   0  0  0  0  0  0
  -19.5753  -26.6367   21.5191 C   0  0  0  0  0  0
  -18.1923  -26.7901   22.1599 C   0  0  0  0  0  0
  -19.1512  -28.8822   23.2883 C   0  0  0  0  0  0
  -18.9452  -30.1431   23.8887 C   0  0  0  0  0  0
  -17.6463  -30.6573   24.0545 C   0  0  0  0  0  0
  -25.9030  -34.9473   23.5128 C   0  0  0  0  0  0
  -16.5352  -29.9067   23.6323 C   0  0  0  0  0  0
  -16.7259  -28.6490   23.0322 C   0  0  0  0  0  0
  -26.4473  -31.6583   25.0735 C   0  0  0  0  0  0
  -25.3740  -31.3682   26.1489 C   0  0  0  0  0  0
  -27.0293  -30.3029   24.6081 C   0  0  0  0  0  0
  -27.6057  -32.4287   25.7502 C   0  0  0  0  0  0
  -27.5585  -37.1801   24.8448 C   0  0  0  0  0  0
  -21.4153  -29.3025   22.3729 N   0  0  0  0  0  0
  -26.4286  -37.3798   23.9402 N   0  0  0  0  0  0
  -24.6675  -31.0807   22.1042 N   0  0  0  0  0  0
  -23.4210  -28.8166   23.3006 O   0  0  0  0  0  0
  -28.3287  -26.6135   20.1436 O   0  0  0  0  0  0
  -26.5591  -34.8922   22.4689 O   0  0  0  0  0  0
  -23.5361  -32.1429   23.7555 O   0  0  0  0  0  0
  -31.9220  -17.3073   20.6737 C   0  0  0  0  0  0
  -32.2857  -18.6312   20.3822 C   0  0  0  0  0  0
  -29.5997  -17.9857   20.9053 C   0  0  0  0  0  0
  -29.9672  -19.3374   20.6440 C   0  0  0  0  0  0
  -30.5647  -16.9408   20.8815 C   0  0  0  0  0  0
  -31.3132  -19.6374   20.3419 C   0  0  0  0  0  0
  -29.8575  -24.0653   19.4189 C   0  0  0  0  0  0
  -30.1487  -24.8214   21.8047 C   0  0  0  0  0  0
  -25.7237  -22.0371   22.4407 C   0  0  0  0  0  0
  -26.8766  -21.7830   24.4858 C   0  0  0  0  0  0
  -28.9297  -20.4679   20.6433 C   0  0  0  0  0  0
  -27.9351  -22.9567   22.7076 C   0  0  0  0  0  0
  -27.9890  -25.2713   20.5564 C   0  0  0  0  0  0
  -28.5102  -22.8852   21.2619 C   0  0  1  0  0  0
  -29.1444  -24.2534   20.7778 C   0  0  0  0  0  0
  -30.1491  -15.5661   21.0507 N   0  0  0  0  0  0
  -27.0478  -21.8368   23.0345 N   0  0  0  0  0  0
  -29.4583  -21.7422   21.2052 N   0  3  0  0  0  0
  -31.6831  -20.9046   20.0309 F   0  0  0  0  0  0
  -31.4469  -12.3312   19.1555 H   0  0  0  0  0  0
  -30.2530  -11.2980   19.8781 H   0  0  0  0  0  0
  -29.7282  -11.7590   17.4516 H   0  0  0  0  0  0
  -29.6699  -13.4751   17.7837 H   0  0  0  0  0  0
  -27.8174  -11.3109   18.8407 H   0  0  0  0  0  0
  -27.3650  -12.6300   17.7931 H   0  0  0  0  0  0
  -27.6858  -14.2640   19.5461 H   0  0  0  0  0  0
  -28.6632  -12.0542   21.4186 H   0  0  0  0  0  0
  -28.4704  -13.7326   21.8371 H   0  0  0  0  0  0
  -25.2771   -9.5677   22.4762 H   0  0  0  0  0  0
  -23.9998   -7.4635   22.7481 H   0  0  0  0  0  0
  -21.0857   -8.8774   19.8948 H   0  0  0  0  0  0
  -22.3718  -10.9666   19.6152 H   0  0  0  0  0  0
  -21.2027   -7.6149   23.9709 H   0  0  0  0  0  0
  -21.1486   -6.0529   25.9075 H   0  0  0  0  0  0
  -22.0602   -2.7604   23.2845 H   0  0  0  0  0  0
  -22.4111  -11.9844   22.4752 H   0  0  0  0  0  0
  -21.1099  -13.1203   22.2627 H   0  0  0  0  0  0
  -24.6597  -15.8513   20.5011 H   0  0  0  0  0  0
  -26.2766  -15.6228   20.0656 H   0  0  0  0  0  0
  -26.7130  -32.5534   23.1170 H   0  0  0  0  0  0
  -25.0131  -33.9786   25.0527 H   0  0  0  0  0  0
  -22.6875  -31.3139   21.4267 H   0  0  0  0  0  0
  -23.3761  -35.9644   23.3271 H   0  0  0  0  0  0
  -24.3623  -36.8948   22.2054 H   0  0  0  0  0  0
  -23.7240  -37.6498   23.6665 H   0  0  0  0  0  0
  -26.0454  -31.6085   20.6074 H   0  0  0  0  0  0
  -26.8179  -30.8818   21.9880 H   0  0  0  0  0  0
  -28.0960  -29.0806   21.1721 H   0  0  0  0  0  0
  -25.9925  -26.0441   18.9093 H   0  0  0  0  0  0
  -23.9610  -27.3553   18.9831 H   0  0  0  0  0  0
  -23.7156  -30.6295   19.4137 H   0  0  0  0  0  0
  -22.7299  -29.2707   19.8640 H   0  0  0  0  0  0
  -25.1277  -36.1964   25.0808 H   0  0  0  0  0  0
  -20.9931  -28.3231   24.1426 H   0  0  0  0  0  0
  -20.5654  -26.2263   23.3594 H   0  0  0  0  0  0
  -21.6634  -26.7428   22.1207 H   0  0  0  0  0  0
  -19.6920  -25.6284   21.1210 H   0  0  0  0  0  0
  -19.6692  -27.3187   20.6726 H   0  0  0  0  0  0
  -17.4187  -26.6629   21.4004 H   0  0  0  0  0  0
  -18.0342  -26.0034   22.8987 H   0  0  0  0  0  0
  -19.7940  -30.7217   24.2268 H   0  0  0  0  0  0
  -17.5030  -31.6253   24.5159 H   0  0  0  0  0  0
  -15.5357  -30.2970   23.7653 H   0  0  0  0  0  0
  -15.8651  -28.0825   22.7016 H   0  0  0  0  0  0
  -24.5964  -30.6943   25.7866 H   0  0  0  0  0  0
  -24.8861  -32.2826   26.4892 H   0  0  0  0  0  0
  -25.8121  -30.8936   27.0279 H   0  0  0  0  0  0
  -26.2825  -29.6806   24.1129 H   0  0  0  0  0  0
  -27.4062  -29.7246   25.4524 H   0  0  0  0  0  0
  -27.8670  -30.4345   23.9219 H   0  0  0  0  0  0
  -27.2695  -33.3606   26.2066 H   0  0  0  0  0  0
  -28.3900  -32.6799   25.0343 H   0  0  0  0  0  0
  -28.0670  -31.8384   26.5432 H   0  0  0  0  0  0
  -28.2550  -38.0155   24.7583 H   0  0  0  0  0  0
  -28.1132  -36.2686   24.6163 H   0  0  0  0  0  0
  -27.2323  -37.1321   25.8855 H   0  0  0  0  0  0
  -20.9317  -29.8821   21.7012 H   0  0  0  0  0  0
  -26.0168  -38.2846   24.1490 H   0  0  0  0  0  0
  -32.7273  -16.5904   20.7037 H   0  0  0  0  0  0
  -33.3180  -18.8781   20.1834 H   0  0  0  0  0  0
  -28.5617  -17.7494   21.0938 H   0  0  0  0  0  0
  -30.1598  -25.0252   18.9975 H   0  0  0  0  0  0
  -29.2061  -23.5896   18.6844 H   0  0  0  0  0  0
  -30.7635  -23.4658   19.5042 H   0  0  0  0  0  0
  -30.5818  -25.7594   21.4549 H   0  0  0  0  0  0
  -30.9747  -24.1349   21.9859 H   0  0  0  0  0  0
  -29.6816  -25.0374   22.7656 H   0  0  0  0  0  0
  -25.0413  -21.2382   22.7356 H   0  0  0  0  0  0
  -25.7565  -22.0290   21.3518 H   0  0  0  0  0  0
  -25.2761  -22.9841   22.7516 H   0  0  0  0  0  0
  -26.1843  -20.9895   24.7751 H   0  0  0  0  0  0
  -26.4890  -22.7247   24.8825 H   0  0  0  0  0  0
  -27.8255  -21.5764   24.9840 H   0  0  0  0  0  0
  -28.0555  -20.1486   21.2112 H   0  0  0  0  0  0
  -28.5985  -20.6331   19.6172 H   0  0  0  0  0  0
  -27.3965  -23.8856   22.8882 H   0  0  0  0  0  0
  -28.7725  -22.9750   23.4089 H   0  0  0  0  0  0
  -27.4019  -25.3740   21.4682 H   0  0  0  0  0  0
  -27.3344  -24.8056   19.8238 H   0  0  0  0  0  0
  -27.7033  -22.6641   20.5622 H   0  0  0  0  0  0
  -29.2178  -15.4127   21.4063 H   0  0  0  0  0  0
  -30.2634  -21.9937   20.6476 H   0  0  0  0  0  0
  -29.7682  -21.5591   22.1459 H   0  0  0  0  0  0
  1 25  1  0  0  0
  1 30  2  0  0  0
  1 86  1  0  0  0
  2  3  1  0  0  0
  2 25  1  0  0  0
  2 90  1  0  0  0
  2 91  1  0  0  0
  3  4  1  0  0  0
  3 92  1  0  0  0
  3 93  1  0  0  0
  4  5  1  0  0  0
  4 94  1  0  0  0
  4 95  1  0  0  0
  5  6  1  0  0  0
  5 26  1  0  0  0
  5 96  1  0  0  0
  6 25  1  0  0  0
  6 97  1  0  0  0
  6 98  1  0  0  0
  7  8  2  0  0  0
  7 26  1  0  0  0
  7 29  1  0  0  0
  8  9  1  0  0  0
  8 22  1  0  0  0
  9 10  1  0  0  0
  9 27  2  0  0  0
 10 11  2  0  0  0
 10 15  1  0  0  0
 11 12  1  0  0  0
 11 99  1  0  0  0
 12 13  2  0  0  0
 12100  1  0  0  0
 13 14  1  0  0  0
 13 31  1  0  0  0
 14 15  2  0  0  0
 14101  1  0  0  0
 15102  1  0  0  0
 16 17  2  0  0  0
 16 21  1  0  0  0
 16 31  1  0  0  0
 17 18  1  0  0  0
 17103  1  0  0  0
 18 19  2  0  0  0
 18104  1  0  0  0
 19 20  1  0  0  0
 19 24  1  0  0  0
 20 21  2  0  0  0
 20105  1  0  0  0
 21 23  1  0  0  0
 22 28  1  0  0  0
 22 32  2  0  0  0
 26 27  1  0  0  0
 28106  1  0  0  0
 28107  1  0  0  0
 29108  1  0  0  0
 29109  1  0  0  0
 33 34  1  0  0  0
 33 66  1  0  0  0
 33 70  2  0  0  0
 34 36  1  0  0  0
 34 59  1  0  0  0
 34110  1  0  0  0
 35 44  2  0  0  0
 35 45  1  0  0  0
 35 68  1  0  0  0
 36 56  1  0  0  0
 36111  1  0  0  0
 37 39  1  0  0  0
 37 47  1  0  0  0
 37 66  1  0  0  0
 37112  1  0  0  0
 38 43  2  0  0  0
 38 46  1  0  0  0
 38 47  1  0  0  0
 39 64  1  0  0  0
 39 67  2  0  0  0
 40 52  1  0  0  0
 40 53  2  0  0  0
 40 58  1  0  0  0
 41113  1  0  0  0
 41114  1  0  0  0
 41115  1  0  0  0
 41 48  1  0  0  0
 42 43  1  0  0  0
 42 66  1  0  0  0
 42116  1  0  0  0
 42117  1  0  0  0
 43 44  1  0  0  0
 44118  1  0  0  0
 45 46  2  0  0  0
 45119  1  0  0  0
 46120  1  0  0  0
 47121  1  0  0  0
 47122  1  0  0  0
 48 56  1  0  0  0
 48 65  1  0  0  0
 48123  1  0  0  0
 49 50  1  0  0  0
 49 53  1  0  0  0
 49 64  1  0  0  0
 49124  1  0  0  0
 50 51  1  0  0  0
 50125  1  0  0  0
 50126  1  0  0  0
 51 52  1  0  0  0
 51127  1  0  0  0
 51128  1  0  0  0
 52129  1  0  0  0
 52130  1  0  0  0
 53 54  1  0  0  0
 54 55  2  0  0  0
 54131  1  0  0  0
 55 57  1  0  0  0
 55132  1  0  0  0
 56 69  2  0  0  0
 57 58  2  0  0  0
 57133  1  0  0  0
 58134  1  0  0  0
 59 60  1  0  0  0
 59 61  1  0  0  0
 59 62  1  0  0  0
 60135  1  0  0  0
 60136  1  0  0  0
 60137  1  0  0  0
 61138  1  0  0  0
 61139  1  0  0  0
 61140  1  0  0  0
 62141  1  0  0  0
 62142  1  0  0  0
 62143  1  0  0  0
 63 65  1  0  0  0
 63144  1  0  0  0
 63145  1  0  0  0
 63146  1  0  0  0
 64147  1  0  0  0
 65148  1  0  0  0
 68 83  1  0  0  0
 71 72  2  0  0  0
 71 75  1  0  0  0
 71149  1  0  0  0
 72 76  1  0  0  0
 72150  1  0  0  0
 73 74  1  0  0  0
 73 75  2  0  0  0
 73151  1  0  0  0
 74 76  2  0  0  0
 74 81  1  0  0  0
 75 86  1  0  0  0
 76 89  1  0  0  0
 77152  1  0  0  0
 77153  1  0  0  0
 77154  1  0  0  0
 77 85  1  0  0  0
 78 85  1  0  0  0
 78155  1  0  0  0
 78156  1  0  0  0
 78157  1  0  0  0
 79 87  1  0  0  0
 79158  1  0  0  0
 79159  1  0  0  0
 79160  1  0  0  0
 80 87  1  0  0  0
 80161  1  0  0  0
 80162  1  0  0  0
 80163  1  0  0  0
 81 88  1  0  0  0
 81164  1  0  0  0
 81165  1  0  0  0
 82 87  1  0  0  0
 82166  1  0  0  0
 82167  1  0  0  0
 82 84  1  0  0  0
 83 85  1  0  0  0
 83168  1  0  0  0
 83169  1  0  0  0
 84 85  1  0  0  0
 84 88  1  0  0  0
 84170  1  0  0  0
 86171  1  0  0  0
 88172  1  0  0  0
 88173  1  0  0  0
M  CHG  1  88   1
M  ISO  4   1 100  68 101  83 101  86 100
M  END
> <chiral flag>
0

> <version>
0

> <s_m_source_file>
/data/baiqing/PycharmProjects/Reinvent-master-3.2/result/LINK_invent/BTK/process_docking_weight1_custom_product_contain_oxygen_bond_distance_aromatic_linkinvent_7_9_3/rearranged_h_0023.sdf

> <i_m_source_file_index>
11

> <r_mmod_Potential_Energy-OPLS-2005>
-157.370269775391

> <r_mmod_Stretch_Energy-OPLS-2005>
47.5146980285645

> <r_mmod_Bend_Energy-OPLS-2005>
110.456031799316

> <r_mmod_Torsional_Energy-OPLS-2005>
252.674606323242

> <r_mmod_Improper_Torsional_Energy-OPLS-2005>
3.78060579299927

> <r_mmod_Van_der_Waal_Energy-OPLS-2005>
182.6181640625

> <r_mmod_Electrostatic_Energy-OPLS-2005>
-358.307250976562

> <r_mmod_Solvation_Energy-OPLS-2005>
-417.846801757812

> <b_mmod_Minimization_Converged-OPLS-2005>
0

> <r_mmod_RMS_Derivative-OPLS-2005>
2.49808645248413

$$$$
11
                    3D
 Structure written by MMmdl.
162170  0  0  1  0            999 V2000
  -30.7022  -14.7462   20.4064 C   0  0  0  0  0  0
  -30.3987  -12.4569   19.4631 C   0  0  0  0  0  0
  -29.4776  -12.4775   18.2277 C   0  0  0  0  0  0
  -28.0172  -12.2849   18.6679 C   0  0  0  0  0  0
  -27.6153  -13.2226   19.8322 C   0  0  2  0  0  0
  -28.6776  -13.2642   20.9559 C   0  0  0  0  0  0
  -25.2404  -13.8166   20.5792 C   0  0  0  0  0  0
  -24.1683  -13.0400   20.9288 C   0  0  0  0  0  0
  -24.6277  -11.6893   20.8853 C   0  0  0  0  0  0
  -23.8960  -10.4277   21.0464 C   0  0  0  0  0  0
  -24.3523   -9.4203   21.9226 C   0  0  0  0  0  0
  -23.6248   -8.2205   22.0747 C   0  0  0  0  0  0
  -22.4243   -8.0241   21.3516 C   0  0  0  0  0  0
  -21.9850   -9.0218   20.4630 C   0  0  0  0  0  0
  -22.7148  -10.2128   20.3095 C   0  0  0  0  0  0
  -21.6842   -6.0717   22.5294 C   0  0  0  0  0  0
  -21.3994   -6.5626   23.8218 C   0  0  0  0  0  0
  -21.3667   -5.6779   24.9178 C   0  0  0  0  0  0
  -21.6058   -4.3042   24.7232 C   0  0  0  0  0  0
  -21.8808   -3.8127   23.4353 C   0  0  0  0  0  0
  -21.9177   -4.6943   22.3408 C   0  0  0  0  0  0
  -22.7715  -13.5225   21.1884 C   0  0  0  0  0  0
  -22.1652   -4.2116   21.0987 F   0  0  0  0  0  0
  -21.5630   -3.4544   25.7747 F   0  0  0  0  0  0
  -29.9793  -13.5717   20.3468 N   0  0  0  0  0  0
  -26.2797  -12.9321   20.3364 N   0  0  0  0  0  0
  -25.9209  -11.6480   20.5859 N   0  0  0  0  0  0
  -22.0309  -12.8282   22.0459 N   0  0  0  0  0  0
  -25.4086  -15.1891   20.4210 N   0  0  0  0  0  0
  -31.8993  -14.7066   20.1133 O   0  0  0  0  0  0
  -21.6615   -6.8856   21.4236 O   0  0  0  0  0  0
  -22.3431  -14.5513   20.6708 O   0  0  0  0  0  0
  -24.6380  -31.8542   23.2006 C   0  0  0  0  0  0
  -25.9211  -32.4728   23.8338 C   0  0  1  0  0  0
  -27.2053  -27.2525   20.1020 C   0  0  0  0  0  0
  -25.6010  -33.8530   24.2275 N   0  0  0  0  0  0
  -23.4289  -30.4848   21.5460 C   0  0  2  0  0  0
  -24.8687  -28.9358   20.1066 C   0  0  0  0  0  0
  -22.7516  -29.4636   22.4912 C   0  0  0  0  0  0
  -18.0298  -28.1399   22.8488 C   0  0  0  0  0  0
  -24.1491  -36.7242   23.2643 C   0  0  0  0  0  0
  -25.9798  -30.7658   21.3798 C   0  0  0  0  0  0
  -26.0463  -29.3917   20.7117 C   0  0  0  0  0  0
  -27.2164  -28.5632   20.6955 C   0  0  0  0  0  0
  -26.0038  -26.8818   19.4507 C   0  0  0  0  0  0
  -24.8532  -27.6896   19.4673 C   0  0  0  0  0  0
  -23.6440  -29.8278   20.1609 C   0  0  0  0  0  0
  -25.4113  -36.3040   24.0342 C   0  0  1  0  0  0
  -20.5902  -28.3716   23.1253 C   0  0  2  0  0  0
  -20.6769  -26.9427   22.5402 C   0  0  0  0  0  0
  -19.5739  -26.6395   21.5211 C   0  0  0  0  0  0
  -18.1929  -26.7938   22.1629 C   0  0  0  0  0  0
  -19.1552  -28.8874   23.2868 C   0  0  0  0  0  0
  -18.9469  -30.1468   23.8897 C   0  0  0  0  0  0
  -17.6466  -30.6596   24.0573 C   0  0  0  0  0  0
  -25.9076  -34.9417   23.5100 C   0  0  0  0  0  0
  -16.5362  -29.9095   23.6328 C   0  0  0  0  0  0
  -16.7280  -28.6510   23.0357 C   0  0  0  0  0  0
  -26.4558  -31.6530   25.0719 C   0  0  0  0  0  0
  -25.3767  -31.3680   26.1423 C   0  0  0  0  0  0
  -27.0404  -30.2923   24.6245 C   0  0  0  0  0  0
  -27.6106  -32.4291   25.7475 C   0  0  0  0  0  0
  -27.5570  -37.1777   24.8480 C   0  0  0  0  0  0
  -21.4221  -29.3057   22.3629 N   0  0  0  0  0  0
  -26.4268  -37.3750   23.9443 N   0  0  0  0  0  0
  -24.7019  -31.0529   22.0977 N   0  0  0  0  0  0
  -23.4211  -28.8158   23.3011 O   0  0  0  0  0  0
  -28.2965  -26.3463   20.1822 O   0  0  0  0  0  0
  -26.5619  -34.8901   22.4649 O   0  0  0  0  0  0
  -23.5535  -32.1382   23.7302 O   0  0  0  0  0  0
  -31.7264  -16.7877   22.1776 C   0  0  0  0  0  0
  -32.6356  -17.6571   22.7892 C   0  0  0  0  0  0
  -31.7028  -19.4721   21.5097 C   0  0  0  0  0  0
  -30.6808  -18.6578   20.9455 C   0  0  0  0  0  0
  -30.7808  -17.1835   21.1808 C   0  0  0  0  0  0
  -32.6545  -18.9953   22.4177 C   0  0  0  0  0  0
  -29.0490  -16.3071   19.5579 C   0  0  0  0  0  0
  -28.6520  -20.8616   22.0628 C   0  0  0  0  0  0
  -29.6234  -19.5785   20.1735 C   0  0  0  0  0  0
  -28.8760  -23.6757   20.5426 C   0  0  0  0  0  0
  -28.8353  -22.1582   19.9357 C   0  0  0  0  0  0
  -28.1903  -24.9038   19.7380 C   0  0  0  0  0  0
  -30.0961  -16.0124   20.5366 N   0  0  0  0  0  0
  -29.3794  -20.9864   20.7829 N   0  3  1  0  0  0
  -33.5624  -19.8327   22.9678 F   0  0  0  0  0  0
  -31.4409  -12.5289   19.1522 H   0  0  0  0  0  0
  -30.3050  -11.5066   19.9896 H   0  0  0  0  0  0
  -29.7580  -11.6924   17.5230 H   0  0  0  0  0  0
  -29.5788  -13.4246   17.6976 H   0  0  0  0  0  0
  -27.9042  -11.2460   18.9809 H   0  0  0  0  0  0
  -27.3377  -12.4162   17.8274 H   0  0  0  0  0  0
  -27.5436  -14.2020   19.3748 H   0  0  0  0  0  0
  -28.7256  -12.3118   21.4800 H   0  0  0  0  0  0
  -28.4124  -14.0172   21.6978 H   0  0  0  0  0  0
  -25.2641   -9.5709   22.4832 H   0  0  0  0  0  0
  -23.9977   -7.4574   22.7443 H   0  0  0  0  0  0
  -21.0796   -8.8736   19.8920 H   0  0  0  0  0  0
  -22.3590  -10.9677   19.6234 H   0  0  0  0  0  0
  -21.1985   -7.6133   23.9716 H   0  0  0  0  0  0
  -21.1505   -6.0513   25.9085 H   0  0  0  0  0  0
  -22.0577   -2.7597   23.2868 H   0  0  0  0  0  0
  -22.3857  -12.0010   22.4994 H   0  0  0  0  0  0
  -21.0895  -13.1343   22.2491 H   0  0  0  0  0  0
  -24.6481  -15.8516   20.5271 H   0  0  0  0  0  0
  -26.2715  -15.6240   20.1204 H   0  0  0  0  0  0
  -26.7267  -32.5358   23.1068 H   0  0  0  0  0  0
  -25.0194  -33.9645   25.0447 H   0  0  0  0  0  0
  -22.7262  -31.3098   21.4070 H   0  0  0  0  0  0
  -23.3757  -35.9567   23.3302 H   0  0  0  0  0  0
  -24.3573  -36.8852   22.2054 H   0  0  0  0  0  0
  -23.7230  -37.6442   23.6654 H   0  0  0  0  0  0
  -26.1247  -31.5304   20.6156 H   0  0  0  0  0  0
  -26.8552  -30.8074   22.0158 H   0  0  0  0  0  0
  -28.1245  -28.9151   21.1653 H   0  0  0  0  0  0
  -25.8976  -25.9534   18.9167 H   0  0  0  0  0  0
  -23.9529  -27.3383   18.9822 H   0  0  0  0  0  0
  -23.7798  -30.6101   19.4146 H   0  0  0  0  0  0
  -22.7571  -29.2753   19.8494 H   0  0  0  0  0  0
  -25.1282  -36.1865   25.0827 H   0  0  0  0  0  0
  -21.0008  -28.3310   24.1366 H   0  0  0  0  0  0
  -20.5636  -26.2355   23.3630 H   0  0  0  0  0  0
  -21.6643  -26.7426   22.1216 H   0  0  0  0  0  0
  -19.6902  -25.6302   21.1251 H   0  0  0  0  0  0
  -19.6666  -27.3193   20.6728 H   0  0  0  0  0  0
  -17.4196  -26.6707   21.4034 H   0  0  0  0  0  0
  -18.0324  -26.0074   22.9016 H   0  0  0  0  0  0
  -19.7944  -30.7286   24.2280 H   0  0  0  0  0  0
  -17.5020  -31.6269   24.5178 H   0  0  0  0  0  0
  -15.5358  -30.3001   23.7642 H   0  0  0  0  0  0
  -15.8686  -28.0825   22.7075 H   0  0  0  0  0  0
  -24.5935  -30.7057   25.7718 H   0  0  0  0  0  0
  -24.8960  -32.2848   26.4848 H   0  0  0  0  0  0
  -25.8056  -30.8825   27.0190 H   0  0  0  0  0  0
  -26.2997  -29.6665   24.1259 H   0  0  0  0  0  0
  -27.4015  -29.7202   25.4801 H   0  0  0  0  0  0
  -27.8910  -30.4137   23.9541 H   0  0  0  0  0  0
  -27.2683  -33.3548   26.2093 H   0  0  0  0  0  0
  -28.3865  -32.6923   25.0279 H   0  0  0  0  0  0
  -28.0846  -31.8418   26.5344 H   0  0  0  0  0  0
  -28.2597  -38.0067   24.7504 H   0  0  0  0  0  0
  -28.1058  -36.2591   24.6318 H   0  0  0  0  0  0
  -27.2294  -37.1438   25.8888 H   0  0  0  0  0  0
  -20.9430  -29.8792   21.6827 H   0  0  0  0  0  0
  -26.0140  -38.2814   24.1454 H   0  0  0  0  0  0
  -31.8344  -15.7582   22.4820 H   0  0  0  0  0  0
  -33.3481  -17.2938   23.5150 H   0  0  0  0  0  0
  -31.7680  -20.5259   21.2845 H   0  0  0  0  0  0
  -28.0672  -16.3168   20.0313 H   0  0  0  0  0  0
  -29.0445  -15.6042   18.7249 H   0  0  0  0  0  0
  -29.2030  -17.2584   19.0645 H   0  0  0  0  0  0
  -27.5869  -20.7158   21.8801 H   0  0  0  0  0  0
  -28.7909  -21.7473   22.6816 H   0  0  0  0  0  0
  -29.0041  -20.0108   22.6437 H   0  0  0  0  0  0
  -29.9638  -19.7059   19.1441 H   0  0  0  0  0  0
  -28.6662  -19.0637   20.1238 H   0  0  0  0  0  0
  -29.9117  -23.9415   20.7583 H   0  0  0  0  0  0
  -28.3767  -23.6469   21.5099 H   0  0  0  0  0  0
  -29.3732  -22.1616   18.9896 H   0  0  0  0  0  0
  -27.8029  -21.9243   19.6776 H   0  0  0  0  0  0
  -27.1530  -24.5892   19.6706 H   0  0  0  0  0  0
  -28.5606  -24.8830   18.7124 H   0  0  0  0  0  0
  -30.3046  -21.2868   21.0367 H   0  0  0  0  0  0
  1 25  1  0  0  0
  1 30  2  0  0  0
  1 83  1  0  0  0
  2  3  1  0  0  0
  2 25  1  0  0  0
  2 86  1  0  0  0
  2 87  1  0  0  0
  3  4  1  0  0  0
  3 88  1  0  0  0
  3 89  1  0  0  0
  4  5  1  0  0  0
  4 90  1  0  0  0
  4 91  1  0  0  0
  5  6  1  0  0  0
  5 26  1  0  0  0
  5 92  1  0  0  0
  6 25  1  0  0  0
  6 93  1  0  0  0
  6 94  1  0  0  0
  7  8  2  0  0  0
  7 26  1  0  0  0
  7 29  1  0  0  0
  8  9  1  0  0  0
  8 22  1  0  0  0
  9 10  1  0  0  0
  9 27  2  0  0  0
 10 11  2  0  0  0
 10 15  1  0  0  0
 11 12  1  0  0  0
 11 95  1  0  0  0
 12 13  2  0  0  0
 12 96  1  0  0  0
 13 14  1  0  0  0
 13 31  1  0  0  0
 14 15  2  0  0  0
 14 97  1  0  0  0
 15 98  1  0  0  0
 16 17  2  0  0  0
 16 21  1  0  0  0
 16 31  1  0  0  0
 17 18  1  0  0  0
 17 99  1  0  0  0
 18 19  2  0  0  0
 18100  1  0  0  0
 19 20  1  0  0  0
 19 24  1  0  0  0
 20 21  2  0  0  0
 20101  1  0  0  0
 21 23  1  0  0  0
 22 28  1  0  0  0
 22 32  2  0  0  0
 26 27  1  0  0  0
 28102  1  0  0  0
 28103  1  0  0  0
 29104  1  0  0  0
 29105  1  0  0  0
 33 34  1  0  0  0
 33 66  1  0  0  0
 33 70  2  0  0  0
 34 36  1  0  0  0
 34 59  1  0  0  0
 34106  1  0  0  0
 35 44  2  0  0  0
 35 45  1  0  0  0
 35 68  1  0  0  0
 36 56  1  0  0  0
 36107  1  0  0  0
 37 39  1  0  0  0
 37 47  1  0  0  0
 37 66  1  0  0  0
 37108  1  0  0  0
 38 43  2  0  0  0
 38 46  1  0  0  0
 38 47  1  0  0  0
 39 64  1  0  0  0
 39 67  2  0  0  0
 40 52  1  0  0  0
 40 53  2  0  0  0
 40 58  1  0  0  0
 41109  1  0  0  0
 41110  1  0  0  0
 41111  1  0  0  0
 41 48  1  0  0  0
 42 43  1  0  0  0
 42 66  1  0  0  0
 42112  1  0  0  0
 42113  1  0  0  0
 43 44  1  0  0  0
 44114  1  0  0  0
 45 46  2  0  0  0
 45115  1  0  0  0
 46116  1  0  0  0
 47117  1  0  0  0
 47118  1  0  0  0
 48 56  1  0  0  0
 48 65  1  0  0  0
 48119  1  0  0  0
 49 50  1  0  0  0
 49 53  1  0  0  0
 49 64  1  0  0  0
 49120  1  0  0  0
 50 51  1  0  0  0
 50121  1  0  0  0
 50122  1  0  0  0
 51 52  1  0  0  0
 51123  1  0  0  0
 51124  1  0  0  0
 52125  1  0  0  0
 52126  1  0  0  0
 53 54  1  0  0  0
 54 55  2  0  0  0
 54127  1  0  0  0
 55 57  1  0  0  0
 55128  1  0  0  0
 56 69  2  0  0  0
 57 58  2  0  0  0
 57129  1  0  0  0
 58130  1  0  0  0
 59 60  1  0  0  0
 59 61  1  0  0  0
 59 62  1  0  0  0
 60131  1  0  0  0
 60132  1  0  0  0
 60133  1  0  0  0
 61134  1  0  0  0
 61135  1  0  0  0
 61136  1  0  0  0
 62137  1  0  0  0
 62138  1  0  0  0
 62139  1  0  0  0
 63 65  1  0  0  0
 63140  1  0  0  0
 63141  1  0  0  0
 63142  1  0  0  0
 64143  1  0  0  0
 65144  1  0  0  0
 68 82  1  0  0  0
 71 72  2  0  0  0
 71 75  1  0  0  0
 71145  1  0  0  0
 72 76  1  0  0  0
 72146  1  0  0  0
 73 74  1  0  0  0
 73 76  2  0  0  0
 73147  1  0  0  0
 74 75  2  0  0  0
 74 79  1  0  0  0
 75 83  1  0  0  0
 76 85  1  0  0  0
 77 83  1  0  0  0
 77148  1  0  0  0
 77149  1  0  0  0
 77150  1  0  0  0
 78151  1  0  0  0
 78152  1  0  0  0
 78153  1  0  0  0
 78 84  1  0  0  0
 79 84  1  0  0  0
 79154  1  0  0  0
 79155  1  0  0  0
 80 81  1  0  0  0
 80 82  1  0  0  0
 80156  1  0  0  0
 80157  1  0  0  0
 81 84  1  0  0  0
 81158  1  0  0  0
 81159  1  0  0  0
 82160  1  0  0  0
 82161  1  0  0  0
 84162  1  0  0  0
M  CHG  1  84   1
M  ISO  4   1 100  68 101  82 101  83 100
M  END
> <chiral flag>
0

> <version>
0

> <s_m_source_file>
/data/baiqing/PycharmProjects/Reinvent-master-3.2/result/LINK_invent/BTK/process_docking_weight1_custom_product_contain_oxygen_bond_distance_aromatic_linkinvent_7_9_3/rearranged_h_0023.sdf

> <i_m_source_file_index>
12

> <r_mmod_Potential_Energy-OPLS-2005>
302.414093017578

> <r_mmod_Stretch_Energy-OPLS-2005>
158.221328735352

> <r_mmod_Bend_Energy-OPLS-2005>
222.590637207031

> <r_mmod_Torsional_Energy-OPLS-2005>
289.822448730469

> <r_mmod_Improper_Torsional_Energy-OPLS-2005>
7.06220722198486

> <r_mmod_Van_der_Waal_Energy-OPLS-2005>
169.87336730957

> <r_mmod_Electrostatic_Energy-OPLS-2005>
-192.039886474609

> <r_mmod_Solvation_Energy-OPLS-2005>
-452.859039306641

> <b_mmod_Minimization_Converged-OPLS-2005>
0

> <r_mmod_RMS_Derivative-OPLS-2005>
5.21524858474731

$$$$
12
                    3D
 Structure written by MMmdl.
152161  0  0  1  0            999 V2000
  -30.6012  -14.8177   20.4608 C   0  0  0  0  0  0
  -30.4336  -12.5071   19.4832 C   0  0  0  0  0  0
  -29.5143  -12.5196   18.2417 C   0  0  0  0  0  0
  -28.0429  -12.3295   18.6558 C   0  0  0  0  0  0
  -27.6370  -13.2399   19.8457 C   0  0  2  0  0  0
  -28.6816  -13.2125   20.9828 C   0  0  0  0  0  0
  -25.2493  -13.8205   20.5698 C   0  0  0  0  0  0
  -24.1802  -13.0437   20.9216 C   0  0  0  0  0  0
  -24.6401  -11.6920   20.8748 C   0  0  0  0  0  0
  -23.9079  -10.4290   21.0406 C   0  0  0  0  0  0
  -24.3632   -9.4203   21.9176 C   0  0  0  0  0  0
  -23.6302   -8.2244   22.0749 C   0  0  0  0  0  0
  -22.4283   -8.0282   21.3542 C   0  0  0  0  0  0
  -21.9923   -9.0259   20.4644 C   0  0  0  0  0  0
  -22.7258  -10.2131   20.3050 C   0  0  0  0  0  0
  -21.6854   -6.0738   22.5280 C   0  0  0  0  0  0
  -21.4015   -6.5641   23.8213 C   0  0  0  0  0  0
  -21.3661   -5.6797   24.9174 C   0  0  0  0  0  0
  -21.6044   -4.3059   24.7229 C   0  0  0  0  0  0
  -21.8820   -3.8147   23.4349 C   0  0  0  0  0  0
  -21.9195   -4.6964   22.3403 C   0  0  0  0  0  0
  -22.7816  -13.5205   21.1875 C   0  0  0  0  0  0
  -22.1663   -4.2153   21.0980 F   0  0  0  0  0  0
  -21.5629   -3.4539   25.7737 F   0  0  0  0  0  0
  -29.9716  -13.5874   20.3917 N   0  0  0  0  0  0
  -26.2921  -12.9432   20.3265 N   0  0  0  0  0  0
  -25.9333  -11.6562   20.5745 N   0  0  0  0  0  0
  -22.0473  -12.8190   22.0430 N   0  0  0  0  0  0
  -25.4148  -15.1937   20.4112 N   0  0  0  0  0  0
  -31.7992  -14.8726   20.1651 O   0  0  0  0  0  0
  -21.6644   -6.8882   21.4240 O   0  0  0  0  0  0
  -22.3495  -14.5518   20.6724 O   0  0  0  0  0  0
  -24.6380  -31.8521   23.1940 C   0  0  0  0  0  0
  -25.9187  -32.4737   23.8309 C   0  0  1  0  0  0
  -27.2060  -27.2032   20.1419 C   0  0  0  0  0  0
  -25.5964  -33.8536   24.2232 N   0  0  0  0  0  0
  -23.4363  -30.4743   21.5400 C   0  0  2  0  0  0
  -24.8805  -28.9164   20.1079 C   0  0  0  0  0  0
  -22.7543  -29.4587   22.4893 C   0  0  0  0  0  0
  -18.0302  -28.1391   22.8483 C   0  0  0  0  0  0
  -24.1483  -36.7273   23.2641 C   0  0  0  0  0  0
  -25.9867  -30.7490   21.3798 C   0  0  0  0  0  0
  -26.0569  -29.3669   20.7217 C   0  0  0  0  0  0
  -27.2237  -28.5257   20.7218 C   0  0  0  0  0  0
  -26.0062  -26.8421   19.4890 C   0  0  0  0  0  0
  -24.8646  -27.6667   19.4767 C   0  0  0  0  0  0
  -23.6562  -29.8111   20.1552 C   0  0  0  0  0  0
  -25.4115  -36.3051   24.0311 C   0  0  1  0  0  0
  -20.5909  -28.3707   23.1258 C   0  0  2  0  0  0
  -20.6780  -26.9419   22.5406 C   0  0  0  0  0  0
  -19.5752  -26.6388   21.5211 C   0  0  0  0  0  0
  -18.1940  -26.7932   22.1625 C   0  0  0  0  0  0
  -19.1556  -28.8870   23.2863 C   0  0  0  0  0  0
  -18.9472  -30.1469   23.8882 C   0  0  0  0  0  0
  -17.6465  -30.6588   24.0562 C   0  0  0  0  0  0
  -25.9057  -34.9423   23.5061 C   0  0  0  0  0  0
  -16.5361  -29.9078   23.6341 C   0  0  0  0  0  0
  -16.7287  -28.6499   23.0366 C   0  0  0  0  0  0
  -26.4524  -31.6585   25.0727 C   0  0  0  0  0  0
  -25.3728  -31.3764   26.1436 C   0  0  0  0  0  0
  -27.0378  -30.2992   24.6255 C   0  0  0  0  0  0
  -27.6050  -32.4348   25.7522 C   0  0  0  0  0  0
  -27.5558  -37.1809   24.8479 C   0  0  0  0  0  0
  -21.4244  -29.3047   22.3640 N   0  0  0  0  0  0
  -26.4290  -37.3751   23.9390 N   0  0  0  0  0  0
  -24.7068  -31.0447   22.0935 N   0  0  0  0  0  0
  -23.4233  -28.8133   23.3013 O   0  0  0  0  0  0
  -28.2652  -26.2480   20.2188 O   0  0  0  0  0  0
  -26.5635  -34.8912   22.4634 O   0  0  0  0  0  0
  -23.5526  -32.1360   23.7225 O   0  0  0  0  0  0
  -31.5427  -17.7682   21.0984 C   0  0  0  0  0  0
  -31.9580  -19.1057   21.2219 C   0  0  0  0  0  0
  -29.7439  -20.0253   20.5677 C   0  0  0  0  0  0
  -30.2269  -17.4429   20.7106 C   0  0  0  0  0  0
  -31.0948  -20.1880   20.9659 C   0  0  0  0  0  0
  -29.3480  -18.6030   20.4698 C   0  0  0  0  0  0
  -29.2626  -22.3917   19.4026 C   0  0  0  0  0  0
  -28.5487  -22.2197   21.3449 C   0  0  0  0  0  0
  -28.9412  -23.5029   20.5023 C   0  0  1  0  0  0
  -27.9439  -24.7523   20.1177 C   0  0  0  0  0  0
  -28.9891  -21.2995   20.2694 N   0  0  0  0  0  0
  -29.8391  -15.9862   20.6270 N   0  0  0  0  0  0
  -29.6878  -22.3926   18.2656 O   0  0  0  0  0  0
  -31.5975  -21.4397   21.1094 F   0  0  0  0  0  0
  -28.0680  -18.3346   20.1149 F   0  0  0  0  0  0
  -31.4730  -12.6411   19.1768 H   0  0  0  0  0  0
  -30.3939  -11.5400   19.9867 H   0  0  0  0  0  0
  -29.8123  -11.7369   17.5431 H   0  0  0  0  0  0
  -29.6285  -13.4654   17.7084 H   0  0  0  0  0  0
  -27.9145  -11.2826   18.9333 H   0  0  0  0  0  0
  -27.3845  -12.5027   17.8039 H   0  0  0  0  0  0
  -27.6180  -14.2549   19.4480 H   0  0  0  0  0  0
  -28.7377  -12.2240   21.4407 H   0  0  0  0  0  0
  -28.4039  -13.9041   21.7794 H   0  0  0  0  0  0
  -25.2776   -9.5681   22.4756 H   0  0  0  0  0  0
  -24.0014   -7.4631   22.7466 H   0  0  0  0  0  0
  -21.0856   -8.8779   19.8946 H   0  0  0  0  0  0
  -22.3717  -10.9673   19.6163 H   0  0  0  0  0  0
  -21.2006   -7.6149   23.9718 H   0  0  0  0  0  0
  -21.1481   -6.0523   25.9079 H   0  0  0  0  0  0
  -22.0598   -2.7611   23.2847 H   0  0  0  0  0  0
  -22.4107  -11.9861   22.4827 H   0  0  0  0  0  0
  -21.1075  -13.1186   22.2618 H   0  0  0  0  0  0
  -24.6414  -15.8409   20.5207 H   0  0  0  0  0  0
  -26.2537  -15.6405   20.0652 H   0  0  0  0  0  0
  -26.7268  -32.5369   23.1060 H   0  0  0  0  0  0
  -25.0109  -33.9670   25.0376 H   0  0  0  0  0  0
  -22.7328  -31.2967   21.3934 H   0  0  0  0  0  0
  -23.3716  -35.9638   23.3357 H   0  0  0  0  0  0
  -24.3550  -36.8844   22.2044 H   0  0  0  0  0  0
  -23.7282  -37.6500   23.6643 H   0  0  0  0  0  0
  -26.1313  -31.5064   20.6086 H   0  0  0  0  0  0
  -26.8620  -30.8009   22.0149 H   0  0  0  0  0  0
  -28.1200  -28.8636   21.2229 H   0  0  0  0  0  0
  -25.9085  -25.8867   18.9974 H   0  0  0  0  0  0
  -23.9679  -27.3179   18.9828 H   0  0  0  0  0  0
  -23.7866  -30.5884   19.4002 H   0  0  0  0  0  0
  -22.7723  -29.2487   19.8488 H   0  0  0  0  0  0
  -25.1305  -36.1880   25.0807 H   0  0  0  0  0  0
  -21.0009  -28.3288   24.1373 H   0  0  0  0  0  0
  -20.5674  -26.2316   23.3618 H   0  0  0  0  0  0
  -21.6647  -26.7424   22.1199 H   0  0  0  0  0  0
  -19.6902  -25.6296   21.1246 H   0  0  0  0  0  0
  -19.6686  -27.3186   20.6737 H   0  0  0  0  0  0
  -17.4205  -26.6695   21.4036 H   0  0  0  0  0  0
  -18.0334  -26.0073   22.9021 H   0  0  0  0  0  0
  -19.7946  -30.7299   24.2239 H   0  0  0  0  0  0
  -17.5017  -31.6267   24.5167 H   0  0  0  0  0  0
  -15.5357  -30.2975   23.7669 H   0  0  0  0  0  0
  -15.8694  -28.0811   22.7094 H   0  0  0  0  0  0
  -24.5906  -30.7110   25.7769 H   0  0  0  0  0  0
  -24.8923  -32.2943   26.4831 H   0  0  0  0  0  0
  -25.8036  -30.8967   27.0233 H   0  0  0  0  0  0
  -26.2983  -29.6740   24.1241 H   0  0  0  0  0  0
  -27.3986  -29.7271   25.4810 H   0  0  0  0  0  0
  -27.8890  -30.4245   23.9561 H   0  0  0  0  0  0
  -27.2622  -33.3638   26.2100 H   0  0  0  0  0  0
  -28.3875  -32.6940   25.0373 H   0  0  0  0  0  0
  -28.0710  -31.8483   26.5453 H   0  0  0  0  0  0
  -28.2624  -38.0053   24.7423 H   0  0  0  0  0  0
  -28.1001  -36.2573   24.6428 H   0  0  0  0  0  0
  -27.2266  -37.1609   25.8885 H   0  0  0  0  0  0
  -20.9444  -29.8769   21.6828 H   0  0  0  0  0  0
  -26.0155  -38.2825   24.1347 H   0  0  0  0  0  0
  -32.2651  -16.9992   21.3258 H   0  0  0  0  0  0
  -32.9747  -19.3139   21.5215 H   0  0  0  0  0  0
  -27.4772  -22.1406   21.5420 H   0  0  0  0  0  0
  -29.1202  -22.1167   22.2700 H   0  0  0  0  0  0
  -29.8630  -23.9013   20.9225 H   0  0  0  0  0  0
  -27.0338  -24.6058   20.7011 H   0  0  0  0  0  0
  -27.6336  -24.5889   19.0861 H   0  0  0  0  0  0
  -28.8458  -15.8204   20.6841 H   0  0  0  0  0  0
  1 25  1  0  0  0
  1 30  2  0  0  0
  1 82  1  0  0  0
  2  3  1  0  0  0
  2 25  1  0  0  0
  2 86  1  0  0  0
  2 87  1  0  0  0
  3  4  1  0  0  0
  3 88  1  0  0  0
  3 89  1  0  0  0
  4  5  1  0  0  0
  4 90  1  0  0  0
  4 91  1  0  0  0
  5  6  1  0  0  0
  5 26  1  0  0  0
  5 92  1  0  0  0
  6 25  1  0  0  0
  6 93  1  0  0  0
  6 94  1  0  0  0
  7  8  2  0  0  0
  7 26  1  0  0  0
  7 29  1  0  0  0
  8  9  1  0  0  0
  8 22  1  0  0  0
  9 10  1  0  0  0
  9 27  2  0  0  0
 10 11  2  0  0  0
 10 15  1  0  0  0
 11 12  1  0  0  0
 11 95  1  0  0  0
 12 13  2  0  0  0
 12 96  1  0  0  0
 13 14  1  0  0  0
 13 31  1  0  0  0
 14 15  2  0  0  0
 14 97  1  0  0  0
 15 98  1  0  0  0
 16 17  2  0  0  0
 16 21  1  0  0  0
 16 31  1  0  0  0
 17 18  1  0  0  0
 17 99  1  0  0  0
 18 19  2  0  0  0
 18100  1  0  0  0
 19 20  1  0  0  0
 19 24  1  0  0  0
 20 21  2  0  0  0
 20101  1  0  0  0
 21 23  1  0  0  0
 22 28  1  0  0  0
 22 32  2  0  0  0
 26 27  1  0  0  0
 28102  1  0  0  0
 28103  1  0  0  0
 29104  1  0  0  0
 29105  1  0  0  0
 33 34  1  0  0  0
 33 66  1  0  0  0
 33 70  2  0  0  0
 34 36  1  0  0  0
 34 59  1  0  0  0
 34106  1  0  0  0
 35 44  2  0  0  0
 35 45  1  0  0  0
 35 68  1  0  0  0
 36 56  1  0  0  0
 36107  1  0  0  0
 37 39  1  0  0  0
 37 47  1  0  0  0
 37 66  1  0  0  0
 37108  1  0  0  0
 38 43  2  0  0  0
 38 46  1  0  0  0
 38 47  1  0  0  0
 39 64  1  0  0  0
 39 67  2  0  0  0
 40 52  1  0  0  0
 40 53  2  0  0  0
 40 58  1  0  0  0
 41109  1  0  0  0
 41110  1  0  0  0
 41111  1  0  0  0
 41 48  1  0  0  0
 42 43  1  0  0  0
 42 66  1  0  0  0
 42112  1  0  0  0
 42113  1  0  0  0
 43 44  1  0  0  0
 44114  1  0  0  0
 45 46  2  0  0  0
 45115  1  0  0  0
 46116  1  0  0  0
 47117  1  0  0  0
 47118  1  0  0  0
 48 56  1  0  0  0
 48 65  1  0  0  0
 48119  1  0  0  0
 49 50  1  0  0  0
 49 53  1  0  0  0
 49 64  1  0  0  0
 49120  1  0  0  0
 50 51  1  0  0  0
 50121  1  0  0  0
 50122  1  0  0  0
 51 52  1  0  0  0
 51123  1  0  0  0
 51124  1  0  0  0
 52125  1  0  0  0
 52126  1  0  0  0
 53 54  1  0  0  0
 54 55  2  0  0  0
 54127  1  0  0  0
 55 57  1  0  0  0
 55128  1  0  0  0
 56 69  2  0  0  0
 57 58  2  0  0  0
 57129  1  0  0  0
 58130  1  0  0  0
 59 60  1  0  0  0
 59 61  1  0  0  0
 59 62  1  0  0  0
 60131  1  0  0  0
 60132  1  0  0  0
 60133  1  0  0  0
 61134  1  0  0  0
 61135  1  0  0  0
 61136  1  0  0  0
 62137  1  0  0  0
 62138  1  0  0  0
 62139  1  0  0  0
 63 65  1  0  0  0
 63140  1  0  0  0
 63141  1  0  0  0
 63142  1  0  0  0
 64143  1  0  0  0
 65144  1  0  0  0
 68 80  1  0  0  0
 71 72  2  0  0  0
 71 74  1  0  0  0
 71145  1  0  0  0
 72 75  1  0  0  0
 72146  1  0  0  0
 73 75  2  0  0  0
 73 76  1  0  0  0
 73 81  1  0  0  0
 74 76  2  0  0  0
 74 82  1  0  0  0
 75 84  1  0  0  0
 76 85  1  0  0  0
 77 79  1  0  0  0
 77 81  1  0  0  0
 77 83  2  0  0  0
 78 79  1  0  0  0
 78 81  1  0  0  0
 78147  1  0  0  0
 78148  1  0  0  0
 79 80  1  0  0  0
 79149  1  0  0  0
 80150  1  0  0  0
 80151  1  0  0  0
 82152  1  0  0  0
M  ISO  4   1 100  68 101  80 101  82 100
M  END
> <chiral flag>
0

> <version>
0

> <s_m_source_file>
/data/baiqing/PycharmProjects/Reinvent-master-3.2/result/LINK_invent/BTK/process_docking_weight1_custom_product_contain_oxygen_bond_distance_aromatic_linkinvent_7_9_3/rearranged_h_0023.sdf

> <i_m_source_file_index>
13

> <r_mmod_Potential_Energy-OPLS-2005>
259.452972412109

> <r_mmod_Stretch_Energy-OPLS-2005>
166.3037109375

> <r_mmod_Bend_Energy-OPLS-2005>
201.894500732422

> <r_mmod_Torsional_Energy-OPLS-2005>
269.606323242188

> <r_mmod_Improper_Torsional_Energy-OPLS-2005>
9.76766586303711

> <r_mmod_Van_der_Waal_Energy-OPLS-2005>
138.8134765625

> <r_mmod_Electrostatic_Energy-OPLS-2005>
-433.712768554688

> <r_mmod_Solvation_Energy-OPLS-2005>
-217.890762329102

> <b_mmod_Minimization_Converged-OPLS-2005>
0

> <r_mmod_RMS_Derivative-OPLS-2005>
2.10466933250427

$$$$
13
                    3D
 Structure written by MMmdl.
161170  0  0  1  0            999 V2000
  -30.5779  -14.8250   20.4483 C   0  0  0  0  0  0
  -30.4389  -12.5122   19.4663 C   0  0  0  0  0  0
  -29.5097  -12.5086   18.2326 C   0  0  0  0  0  0
  -28.0403  -12.3153   18.6563 C   0  0  0  0  0  0
  -27.6340  -13.2341   19.8390 C   0  0  2  0  0  0
  -28.6820  -13.2073   20.9704 C   0  0  0  0  0  0
  -25.2486  -13.8197   20.5699 C   0  0  0  0  0  0
  -24.1789  -13.0436   20.9227 C   0  0  0  0  0  0
  -24.6387  -11.6917   20.8760 C   0  0  0  0  0  0
  -23.9069  -10.4291   21.0417 C   0  0  0  0  0  0
  -24.3619   -9.4206   21.9192 C   0  0  0  0  0  0
  -23.6294   -8.2238   22.0753 C   0  0  0  0  0  0
  -22.4275   -8.0276   21.3543 C   0  0  0  0  0  0
  -21.9916   -9.0254   20.4645 C   0  0  0  0  0  0
  -22.7245  -10.2132   20.3060 C   0  0  0  0  0  0
  -21.6850   -6.0735   22.5280 C   0  0  0  0  0  0
  -21.4010   -6.5640   23.8213 C   0  0  0  0  0  0
  -21.3657   -5.6794   24.9177 C   0  0  0  0  0  0
  -21.6046   -4.3057   24.7227 C   0  0  0  0  0  0
  -21.8818   -3.8147   23.4348 C   0  0  0  0  0  0
  -21.9193   -4.6963   22.3405 C   0  0  0  0  0  0
  -22.7809  -13.5214   21.1892 C   0  0  0  0  0  0
  -22.1661   -4.2150   21.0981 F   0  0  0  0  0  0
  -21.5632   -3.4540   25.7740 F   0  0  0  0  0  0
  -29.9664  -13.5880   20.3703 N   0  0  0  0  0  0
  -26.2903  -12.9406   20.3249 N   0  0  0  0  0  0
  -25.9313  -11.6549   20.5746 N   0  0  0  0  0  0
  -22.0459  -12.8195   22.0444 N   0  0  0  0  0  0
  -25.4160  -15.1920   20.4100 N   0  0  0  0  0  0
  -31.7872  -14.9098   20.2168 O   0  0  0  0  0  0
  -21.6638   -6.8874   21.4241 O   0  0  0  0  0  0
  -22.3493  -14.5524   20.6744 O   0  0  0  0  0  0
  -24.6358  -31.8504   23.1931 C   0  0  0  0  0  0
  -25.9166  -32.4728   23.8300 C   0  0  1  0  0  0
  -27.2224  -27.2173   20.1500 C   0  0  0  0  0  0
  -25.5942  -33.8531   24.2224 N   0  0  0  0  0  0
  -23.4349  -30.4696   21.5372 C   0  0  2  0  0  0
  -24.8835  -28.8994   20.1188 C   0  0  0  0  0  0
  -22.7522  -29.4579   22.4901 C   0  0  0  0  0  0
  -18.0292  -28.1396   22.8483 C   0  0  0  0  0  0
  -24.1478  -36.7251   23.2645 C   0  0  0  0  0  0
  -25.9833  -30.7513   21.3762 C   0  0  0  0  0  0
  -26.0573  -29.3665   20.7246 C   0  0  0  0  0  0
  -27.2330  -28.5414   20.7196 C   0  0  0  0  0  0
  -26.0244  -26.8173   19.5263 C   0  0  0  0  0  0
  -24.8736  -27.6345   19.5073 C   0  0  0  0  0  0
  -23.6567  -29.7942   20.1576 C   0  0  0  0  0  0
  -25.4109  -36.3044   24.0327 C   0  0  1  0  0  0
  -20.5899  -28.3709   23.1258 C   0  0  2  0  0  0
  -20.6780  -26.9420   22.5406 C   0  0  0  0  0  0
  -19.5751  -26.6379   21.5218 C   0  0  0  0  0  0
  -18.1930  -26.7935   22.1627 C   0  0  0  0  0  0
  -19.1549  -28.8871   23.2863 C   0  0  0  0  0  0
  -18.9472  -30.1471   23.8884 C   0  0  0  0  0  0
  -17.6473  -30.6597   24.0564 C   0  0  0  0  0  0
  -25.9060  -34.9423   23.5078 C   0  0  0  0  0  0
  -16.5362  -29.9090   23.6347 C   0  0  0  0  0  0
  -16.7279  -28.6509   23.0365 C   0  0  0  0  0  0
  -26.4521  -31.6580   25.0716 C   0  0  0  0  0  0
  -25.3728  -31.3739   26.1427 C   0  0  0  0  0  0
  -27.0401  -30.3004   24.6232 C   0  0  0  0  0  0
  -27.6054  -32.4347   25.7497 C   0  0  0  0  0  0
  -27.5562  -37.1775   24.8472 C   0  0  0  0  0  0
  -21.4226  -29.3050   22.3647 N   0  0  0  0  0  0
  -26.4270  -37.3757   23.9422 N   0  0  0  0  0  0
  -24.7043  -31.0434   22.0918 N   0  0  0  0  0  0
  -23.4203  -28.8126   23.3022 O   0  0  0  0  0  0
  -28.3193  -26.3159   20.1211 O   0  0  0  0  0  0
  -26.5633  -34.8912   22.4648 O   0  0  0  0  0  0
  -23.5497  -32.1338   23.7203 O   0  0  0  0  0  0
  -27.5791  -20.1881   19.4897 C   0  0  0  0  0  0
  -26.9358  -21.3663   19.2498 C   0  0  0  0  0  0
  -27.0662  -22.6883   20.0540 C   0  0  0  0  0  0
  -29.4844  -22.4172   20.7903 C   0  0  0  0  0  0
  -30.6981  -20.0717   20.6190 C   0  0  0  0  0  0
  -28.6907  -19.9535   20.5028 C   0  0  1  0  0  0
  -28.4371  -23.4443   20.0932 C   0  0  2  0  0  0
  -29.8126  -18.8284   20.2224 C   0  0  2  0  0  0
  -25.8987  -21.4404   18.1442 C   0  0  0  0  0  0
  -30.1462  -17.4200   21.0192 C   0  0  0  0  0  0
  -28.2400  -24.9460   20.7748 C   0  0  0  0  0  0
  -29.7884  -15.9747   20.5921 N   0  0  0  0  0  0
  -29.6559  -21.0186   20.1719 N   0  3  1  0  0  0
  -31.4736  -12.6650   19.1547 H   0  0  0  0  0  0
  -30.4158  -11.5467   19.9743 H   0  0  0  0  0  0
  -29.8055  -11.7208   17.5389 H   0  0  0  0  0  0
  -29.6144  -13.4493   17.6899 H   0  0  0  0  0  0
  -27.9199  -11.2710   18.9464 H   0  0  0  0  0  0
  -27.3753  -12.4728   17.8065 H   0  0  0  0  0  0
  -27.6137  -14.2463   19.4343 H   0  0  0  0  0  0
  -28.7442  -12.2178   21.4253 H   0  0  0  0  0  0
  -28.4060  -13.8972   21.7696 H   0  0  0  0  0  0
  -25.2759   -9.5681   22.4773 H   0  0  0  0  0  0
  -24.0004   -7.4626   22.7469 H   0  0  0  0  0  0
  -21.0850   -8.8773   19.8945 H   0  0  0  0  0  0
  -22.3706  -10.9674   19.6170 H   0  0  0  0  0  0
  -21.1995   -7.6146   23.9718 H   0  0  0  0  0  0
  -21.1482   -6.0523   25.9080 H   0  0  0  0  0  0
  -22.0597   -2.7610   23.2850 H   0  0  0  0  0  0
  -22.4075  -11.9849   22.4820 H   0  0  0  0  0  0
  -21.1074  -13.1211   22.2662 H   0  0  0  0  0  0
  -24.6427  -15.8402   20.5127 H   0  0  0  0  0  0
  -26.2535  -15.6330   20.0539 H   0  0  0  0  0  0
  -26.7234  -32.5369   23.1037 H   0  0  0  0  0  0
  -25.0123  -33.9664   25.0395 H   0  0  0  0  0  0
  -22.7338  -31.2928   21.3840 H   0  0  0  0  0  0
  -23.3753  -35.9571   23.3302 H   0  0  0  0  0  0
  -24.3561  -36.8882   22.2060 H   0  0  0  0  0  0
  -23.7216  -37.6440   23.6681 H   0  0  0  0  0  0
  -26.1240  -31.5067   20.6021 H   0  0  0  0  0  0
  -26.8600  -30.8058   22.0103 H   0  0  0  0  0  0
  -28.1378  -28.9008   21.1885 H   0  0  0  0  0  0
  -25.9754  -25.8457   19.0553 H   0  0  0  0  0  0
  -23.9750  -27.2703   19.0288 H   0  0  0  0  0  0
  -23.7859  -30.5663   19.3981 H   0  0  0  0  0  0
  -22.7741  -29.2293   19.8516 H   0  0  0  0  0  0
  -25.1290  -36.1874   25.0818 H   0  0  0  0  0  0
  -20.9990  -28.3286   24.1379 H   0  0  0  0  0  0
  -20.5690  -26.2317   23.3615 H   0  0  0  0  0  0
  -21.6643  -26.7443   22.1193 H   0  0  0  0  0  0
  -19.6914  -25.6286   21.1258 H   0  0  0  0  0  0
  -19.6691  -27.3184   20.6743 H   0  0  0  0  0  0
  -17.4202  -26.6694   21.4022 H   0  0  0  0  0  0
  -18.0318  -26.0079   22.9021 H   0  0  0  0  0  0
  -19.7953  -30.7289   24.2241 H   0  0  0  0  0  0
  -17.5030  -31.6279   24.5159 H   0  0  0  0  0  0
  -15.5363  -30.2990   23.7683 H   0  0  0  0  0  0
  -15.8675  -28.0823   22.7096 H   0  0  0  0  0  0
  -24.5905  -30.7090   25.7746 H   0  0  0  0  0  0
  -24.8921  -32.2916   26.4833 H   0  0  0  0  0  0
  -25.8031  -30.8925   27.0219 H   0  0  0  0  0  0
  -26.3011  -29.6710   24.1262 H   0  0  0  0  0  0
  -27.4097  -29.7307   25.4768 H   0  0  0  0  0  0
  -27.8867  -30.4289   23.9483 H   0  0  0  0  0  0
  -27.2650  -33.3667   26.2025 H   0  0  0  0  0  0
  -28.3889  -32.6883   25.0342 H   0  0  0  0  0  0
  -28.0698  -31.8512   26.5456 H   0  0  0  0  0  0
  -28.2576  -38.0076   24.7528 H   0  0  0  0  0  0
  -28.1058  -36.2606   24.6286 H   0  0  0  0  0  0
  -27.2281  -37.1407   25.8876 H   0  0  0  0  0  0
  -20.9423  -29.8757   21.6832 H   0  0  0  0  0  0
  -26.0135  -38.2819   24.1455 H   0  0  0  0  0  0
  -27.3441  -19.3289   18.8765 H   0  0  0  0  0  0
  -26.7461  -22.4767   21.0755 H   0  0  0  0  0  0
  -26.3166  -23.3833   19.6718 H   0  0  0  0  0  0
  -29.2317  -22.2966   21.8439 H   0  0  0  0  0  0
  -30.4667  -22.8890   20.7804 H   0  0  0  0  0  0
  -31.6294  -20.1579   20.0585 H   0  0  0  0  0  0
  -30.8881  -20.1414   21.6925 H   0  0  0  0  0  0
  -28.3500  -19.9910   21.5403 H   0  0  0  0  0  0
  -28.7686  -23.6069   19.0673 H   0  0  0  0  0  0
  -29.9065  -18.6739   19.1454 H   0  0  0  0  0  0
  -25.8340  -20.5083   17.5811 H   0  0  0  0  0  0
  -26.1476  -22.2366   17.4415 H   0  0  0  0  0  0
  -24.9123  -21.6478   18.5603 H   0  0  0  0  0  0
  -29.7425  -17.5156   22.0277 H   0  0  0  0  0  0
  -31.2247  -17.3992   21.1824 H   0  0  0  0  0  0
  -29.0116  -25.0087   21.5424 H   0  0  0  0  0  0
  -27.3207  -24.9264   21.3622 H   0  0  0  0  0  0
  -28.8002  -15.7742   20.6201 H   0  0  0  0  0  0
  -29.7265  -21.1056   19.1693 H   0  0  0  0  0  0
  1 25  1  0  0  0
  1 30  2  0  0  0
  1 82  1  0  0  0
  2  3  1  0  0  0
  2 25  1  0  0  0
  2 84  1  0  0  0
  2 85  1  0  0  0
  3  4  1  0  0  0
  3 86  1  0  0  0
  3 87  1  0  0  0
  4  5  1  0  0  0
  4 88  1  0  0  0
  4 89  1  0  0  0
  5  6  1  0  0  0
  5 26  1  0  0  0
  5 90  1  0  0  0
  6 25  1  0  0  0
  6 91  1  0  0  0
  6 92  1  0  0  0
  7  8  2  0  0  0
  7 26  1  0  0  0
  7 29  1  0  0  0
  8  9  1  0  0  0
  8 22  1  0  0  0
  9 10  1  0  0  0
  9 27  2  0  0  0
 10 11  2  0  0  0
 10 15  1  0  0  0
 11 12  1  0  0  0
 11 93  1  0  0  0
 12 13  2  0  0  0
 12 94  1  0  0  0
 13 14  1  0  0  0
 13 31  1  0  0  0
 14 15  2  0  0  0
 14 95  1  0  0  0
 15 96  1  0  0  0
 16 17  2  0  0  0
 16 21  1  0  0  0
 16 31  1  0  0  0
 17 18  1  0  0  0
 17 97  1  0  0  0
 18 19  2  0  0  0
 18 98  1  0  0  0
 19 20  1  0  0  0
 19 24  1  0  0  0
 20 21  2  0  0  0
 20 99  1  0  0  0
 21 23  1  0  0  0
 22 28  1  0  0  0
 22 32  2  0  0  0
 26 27  1  0  0  0
 28100  1  0  0  0
 28101  1  0  0  0
 29102  1  0  0  0
 29103  1  0  0  0
 33 34  1  0  0  0
 33 66  1  0  0  0
 33 70  2  0  0  0
 34 36  1  0  0  0
 34 59  1  0  0  0
 34104  1  0  0  0
 35 44  2  0  0  0
 35 45  1  0  0  0
 35 68  1  0  0  0
 36 56  1  0  0  0
 36105  1  0  0  0
 37 39  1  0  0  0
 37 47  1  0  0  0
 37 66  1  0  0  0
 37106  1  0  0  0
 38 43  2  0  0  0
 38 46  1  0  0  0
 38 47  1  0  0  0
 39 64  1  0  0  0
 39 67  2  0  0  0
 40 52  1  0  0  0
 40 53  2  0  0  0
 40 58  1  0  0  0
 41107  1  0  0  0
 41108  1  0  0  0
 41109  1  0  0  0
 41 48  1  0  0  0
 42 43  1  0  0  0
 42 66  1  0  0  0
 42110  1  0  0  0
 42111  1  0  0  0
 43 44  1  0  0  0
 44112  1  0  0  0
 45 46  2  0  0  0
 45113  1  0  0  0
 46114  1  0  0  0
 47115  1  0  0  0
 47116  1  0  0  0
 48 56  1  0  0  0
 48 65  1  0  0  0
 48117  1  0  0  0
 49 50  1  0  0  0
 49 53  1  0  0  0
 49 64  1  0  0  0
 49118  1  0  0  0
 50 51  1  0  0  0
 50119  1  0  0  0
 50120  1  0  0  0
 51 52  1  0  0  0
 51121  1  0  0  0
 51122  1  0  0  0
 52123  1  0  0  0
 52124  1  0  0  0
 53 54  1  0  0  0
 54 55  2  0  0  0
 54125  1  0  0  0
 55 57  1  0  0  0
 55126  1  0  0  0
 56 69  2  0  0  0
 57 58  2  0  0  0
 57127  1  0  0  0
 58128  1  0  0  0
 59 60  1  0  0  0
 59 61  1  0  0  0
 59 62  1  0  0  0
 60129  1  0  0  0
 60130  1  0  0  0
 60131  1  0  0  0
 61132  1  0  0  0
 61133  1  0  0  0
 61134  1  0  0  0
 62135  1  0  0  0
 62136  1  0  0  0
 62137  1  0  0  0
 63 65  1  0  0  0
 63138  1  0  0  0
 63139  1  0  0  0
 63140  1  0  0  0
 64141  1  0  0  0
 65142  1  0  0  0
 68 81  1  0  0  0
 71 72  2  0  0  0
 71143  1  0  0  0
 71 76  1  0  0  0
 72 73  1  0  0  0
 72 79  1  0  0  0
 73 77  1  0  0  0
 73144  1  0  0  0
 73145  1  0  0  0
 74 77  1  0  0  0
 74146  1  0  0  0
 74147  1  0  0  0
 74 83  1  0  0  0
 75 78  1  0  0  0
 75 83  1  0  0  0
 75148  1  0  0  0
 75149  1  0  0  0
 76 78  1  0  0  0
 76 83  1  0  0  0
 76150  1  0  0  0
 77 81  1  0  0  0
 77151  1  0  0  0
 78 80  1  0  0  0
 78152  1  0  0  0
 79153  1  0  0  0
 79154  1  0  0  0
 79155  1  0  0  0
 80 82  1  0  0  0
 80156  1  0  0  0
 80157  1  0  0  0
 81158  1  0  0  0
 81159  1  0  0  0
 82160  1  0  0  0
 83161  1  0  0  0
M  CHG  1  83   1
M  ISO  4   1 100  68 101  81 101  82 100
M  END
> <chiral flag>
0

> <version>
0

> <s_m_source_file>
/data/baiqing/PycharmProjects/Reinvent-master-3.2/result/LINK_invent/BTK/process_docking_weight1_custom_product_contain_oxygen_bond_distance_aromatic_linkinvent_7_9_3/rearranged_h_0023.sdf

> <i_m_source_file_index>
14

> <r_mmod_Potential_Energy-OPLS-2005>
224.294891357422

> <r_mmod_Stretch_Energy-OPLS-2005>
160.661437988281

> <r_mmod_Bend_Energy-OPLS-2005>
257.095977783203

> <r_mmod_Torsional_Energy-OPLS-2005>
295.513153076172

> <r_mmod_Improper_Torsional_Energy-OPLS-2005>
4.72559261322021

> <r_mmod_Van_der_Waal_Energy-OPLS-2005>
116.329849243164

> <r_mmod_Electrostatic_Energy-OPLS-2005>
-276.669860839844

> <r_mmod_Solvation_Energy-OPLS-2005>
-451.948364257812

> <b_mmod_Minimization_Converged-OPLS-2005>
0

> <r_mmod_RMS_Derivative-OPLS-2005>
0.757898688316345

$$$$
14
                    3D
 Structure written by MMmdl.
162171  0  0  1  0            999 V2000
  -30.6635  -14.6399   20.4577 C   0  0  0  0  0  0
  -30.4185  -12.3858   19.4636 C   0  0  0  0  0  0
  -29.5038  -12.4953   18.2265 C   0  0  0  0  0  0
  -28.0285  -12.3417   18.6382 C   0  0  0  0  0  0
  -27.6463  -13.2294   19.8555 C   0  0  2  0  0  0
  -28.6893  -13.1347   20.9903 C   0  0  0  0  0  0
  -25.2530  -13.8196   20.5696 C   0  0  0  0  0  0
  -24.1815  -13.0449   20.9200 C   0  0  0  0  0  0
  -24.6398  -11.6932   20.8753 C   0  0  0  0  0  0
  -23.9083  -10.4305   21.0411 C   0  0  0  0  0  0
  -24.3640   -9.4213   21.9177 C   0  0  0  0  0  0
  -23.6312   -8.2251   22.0735 C   0  0  0  0  0  0
  -22.4298   -8.0284   21.3528 C   0  0  0  0  0  0
  -21.9935   -9.0260   20.4638 C   0  0  0  0  0  0
  -22.7263  -10.2137   20.3055 C   0  0  0  0  0  0
  -21.6856   -6.0750   22.5277 C   0  0  0  0  0  0
  -21.4023   -6.5642   23.8215 C   0  0  0  0  0  0
  -21.3667   -5.6780   24.9170 C   0  0  0  0  0  0
  -21.6036   -4.3047   24.7208 C   0  0  0  0  0  0
  -21.8829   -3.8152   23.4334 C   0  0  0  0  0  0
  -21.9201   -4.6978   22.3392 C   0  0  0  0  0  0
  -22.7837  -13.5233   21.1842 C   0  0  0  0  0  0
  -22.1662   -4.2158   21.0972 F   0  0  0  0  0  0
  -21.5628   -3.4533   25.7720 F   0  0  0  0  0  0
  -30.0011  -13.4423   20.4101 N   0  0  0  0  0  0
  -26.2964  -12.9408   20.3310 N   0  0  0  0  0  0
  -25.9323  -11.6555   20.5755 N   0  0  0  0  0  0
  -22.0485  -12.8247   22.0418 N   0  0  0  0  0  0
  -25.4233  -15.1918   20.4109 N   0  0  0  0  0  0
  -31.8486  -14.7081   20.1284 O   0  0  0  0  0  0
  -21.6649   -6.8895   21.4236 O   0  0  0  0  0  0
  -22.3529  -14.5527   20.6658 O   0  0  0  0  0  0
  -24.6232  -31.8611   23.2025 C   0  0  0  0  0  0
  -25.9092  -32.4786   23.8364 C   0  0  1  0  0  0
  -27.2217  -27.3376   20.1339 C   0  0  0  0  0  0
  -25.5910  -33.8588   24.2288 N   0  0  0  0  0  0
  -23.4171  -30.4819   21.5451 C   0  0  2  0  0  0
  -24.8647  -28.9330   20.1159 C   0  0  0  0  0  0
  -22.7450  -29.4634   22.4963 C   0  0  0  0  0  0
  -18.0274  -28.1390   22.8496 C   0  0  0  0  0  0
  -24.1486  -36.7298   23.2641 C   0  0  0  0  0  0
  -25.9541  -30.8010   21.3677 C   0  0  0  0  0  0
  -26.0311  -29.4270   20.7157 C   0  0  0  0  0  0
  -27.2173  -28.6414   20.7081 C   0  0  0  0  0  0
  -26.0370  -26.8784   19.5244 C   0  0  0  0  0  0
  -24.8679  -27.6649   19.5095 C   0  0  0  0  0  0
  -23.6310  -29.8110   20.1618 C   0  0  0  0  0  0
  -25.4113  -36.3092   24.0329 C   0  0  1  0  0  0
  -20.5870  -28.3696   23.1293 C   0  0  2  0  0  0
  -20.6773  -26.9427   22.5419 C   0  0  0  0  0  0
  -19.5749  -26.6390   21.5223 C   0  0  0  0  0  0
  -18.1925  -26.7946   22.1624 C   0  0  0  0  0  0
  -19.1525  -28.8861   23.2890 C   0  0  0  0  0  0
  -18.9451  -30.1460   23.8910 C   0  0  0  0  0  0
  -17.6453  -30.6600   24.0569 C   0  0  0  0  0  0
  -25.9045  -34.9460   23.5114 C   0  0  0  0  0  0
  -16.5342  -29.9101   23.6332 C   0  0  0  0  0  0
  -16.7264  -28.6512   23.0367 C   0  0  0  0  0  0
  -26.4494  -31.6594   25.0729 C   0  0  0  0  0  0
  -25.3747  -31.3716   26.1465 C   0  0  0  0  0  0
  -27.0336  -30.3021   24.6168 C   0  0  0  0  0  0
  -27.6047  -32.4339   25.7500 C   0  0  0  0  0  0
  -27.5580  -37.1801   24.8457 C   0  0  0  0  0  0
  -21.4166  -29.3041   22.3687 N   0  0  0  0  0  0
  -26.4290  -37.3785   23.9409 N   0  0  0  0  0  0
  -24.6836  -31.0644   22.0958 N   0  0  0  0  0  0
  -23.4183  -28.8191   23.3040 O   0  0  0  0  0  0
  -28.3434  -26.5124   20.1333 O   0  0  0  0  0  0
  -26.5609  -34.8920   22.4678 O   0  0  0  0  0  0
  -23.5396  -32.1377   23.7373 O   0  0  0  0  0  0
  -28.9965  -19.2405   19.4896 C   0  0  0  0  0  0
  -28.7678  -20.6483   19.6107 C   0  0  0  0  0  0
  -30.3311  -19.2741   21.4854 C   0  0  0  0  0  0
  -29.8284  -18.5250   20.3963 C   0  0  0  0  0  0
  -30.1089  -20.6785   21.6131 C   0  0  0  0  0  0
  -29.3684  -21.4233   20.6407 C   0  0  0  0  0  0
  -30.5070  -23.8891   18.8227 C   0  0  0  0  0  0
  -28.9944  -24.0345   18.6368 C   0  0  0  0  0  0
  -30.6828  -23.3741   20.2576 C   0  0  0  0  0  0
  -28.4154  -23.8191   20.0370 C   0  0  2  0  0  0
  -30.7398  -21.3861   22.8051 C   0  0  0  0  0  0
  -30.4276  -17.1134   20.0520 C   0  0  0  0  0  0
  -28.2435  -25.2107   20.8206 C   0  0  0  0  0  0
  -29.3759  -22.8673   20.6807 N   0  0  0  0  0  0
  -29.9355  -15.7973   20.5950 N   0  0  0  0  0  0
  -31.4653  -12.4745   19.1658 H   0  0  0  0  0  0
  -30.3231  -11.4018   19.9243 H   0  0  0  0  0  0
  -29.7713  -11.7361   17.4905 H   0  0  0  0  0  0
  -29.6519  -13.4614   17.7415 H   0  0  0  0  0  0
  -27.8707  -11.2898   18.8817 H   0  0  0  0  0  0
  -27.3760  -12.5617   17.7926 H   0  0  0  0  0  0
  -27.6512  -14.2581   19.4940 H   0  0  0  0  0  0
  -28.6929  -12.1370   21.4296 H   0  0  0  0  0  0
  -28.4438  -13.8241   21.7998 H   0  0  0  0  0  0
  -25.2786   -9.5692   22.4748 H   0  0  0  0  0  0
  -24.0023   -7.4656   22.7455 H   0  0  0  0  0  0
  -21.0854   -8.8782   19.8963 H   0  0  0  0  0  0
  -22.3708  -10.9673   19.6168 H   0  0  0  0  0  0
  -21.2012   -7.6147   23.9724 H   0  0  0  0  0  0
  -21.1477   -6.0505   25.9069 H   0  0  0  0  0  0
  -22.0605   -2.7614   23.2818 H   0  0  0  0  0  0
  -22.4099  -11.9920   22.4821 H   0  0  0  0  0  0
  -21.1090  -13.1242   22.2592 H   0  0  0  0  0  0
  -24.6573  -15.8469   20.5241 H   0  0  0  0  0  0
  -26.2710  -15.6334   20.0789 H   0  0  0  0  0  0
  -26.7172  -32.5472   23.1122 H   0  0  0  0  0  0
  -25.0064  -33.9735   25.0439 H   0  0  0  0  0  0
  -22.7114  -31.3023   21.4014 H   0  0  0  0  0  0
  -23.3753  -35.9625   23.3296 H   0  0  0  0  0  0
  -24.3579  -36.8934   22.2058 H   0  0  0  0  0  0
  -23.7228  -37.6496   23.6663 H   0  0  0  0  0  0
  -26.0759  -31.5657   20.5992 H   0  0  0  0  0  0
  -26.8362  -30.8554   21.9928 H   0  0  0  0  0  0
  -28.1194  -29.0187   21.1709 H   0  0  0  0  0  0
  -26.0192  -25.8998   19.0669 H   0  0  0  0  0  0
  -23.9719  -27.2817   19.0391 H   0  0  0  0  0  0
  -23.7466  -30.5848   19.4027 H   0  0  0  0  0  0
  -22.7529  -29.2359   19.8631 H   0  0  0  0  0  0
  -25.1298  -36.1955   25.0823 H   0  0  0  0  0  0
  -20.9948  -28.3277   24.1416 H   0  0  0  0  0  0
  -20.5696  -26.2306   23.3615 H   0  0  0  0  0  0
  -21.6646  -26.7487   22.1194 H   0  0  0  0  0  0
  -19.6914  -25.6298   21.1262 H   0  0  0  0  0  0
  -19.6689  -27.3194   20.6752 H   0  0  0  0  0  0
  -17.4199  -26.6690   21.4022 H   0  0  0  0  0  0
  -18.0314  -26.0087   22.9012 H   0  0  0  0  0  0
  -19.7928  -30.7268   24.2285 H   0  0  0  0  0  0
  -17.5014  -31.6286   24.5167 H   0  0  0  0  0  0
  -15.5348  -30.3014   23.7649 H   0  0  0  0  0  0
  -15.8655  -28.0830   22.7097 H   0  0  0  0  0  0
  -24.5896  -30.7097   25.7788 H   0  0  0  0  0  0
  -24.8964  -32.2887   26.4931 H   0  0  0  0  0  0
  -25.8083  -30.8856   27.0221 H   0  0  0  0  0  0
  -26.2901  -29.6772   24.1202 H   0  0  0  0  0  0
  -27.4054  -29.7274   25.4668 H   0  0  0  0  0  0
  -27.8767  -30.4316   23.9371 H   0  0  0  0  0  0
  -27.2635  -33.3625   26.2098 H   0  0  0  0  0  0
  -28.3841  -32.6943   25.0324 H   0  0  0  0  0  0
  -28.0742  -31.8471   26.5408 H   0  0  0  0  0  0
  -28.2591  -38.0104   24.7527 H   0  0  0  0  0  0
  -28.1078  -36.2639   24.6261 H   0  0  0  0  0  0
  -27.2296  -37.1434   25.8857 H   0  0  0  0  0  0
  -20.9333  -29.8752   21.6894 H   0  0  0  0  0  0
  -26.0175  -38.2859   24.1426 H   0  0  0  0  0  0
  -28.5951  -18.7274   18.6268 H   0  0  0  0  0  0
  -28.1831  -21.1375   18.8462 H   0  0  0  0  0  0
  -30.9797  -18.7749   22.1928 H   0  0  0  0  0  0
  -31.0299  -24.8358   18.6826 H   0  0  0  0  0  0
  -30.9082  -23.1828   18.0951 H   0  0  0  0  0  0
  -28.6279  -23.2556   17.9675 H   0  0  0  0  0  0
  -28.7076  -24.9866   18.1910 H   0  0  0  0  0  0
  -30.9770  -24.1889   20.9214 H   0  0  0  0  0  0
  -31.4836  -22.6322   20.2946 H   0  0  0  0  0  0
  -27.4315  -23.3556   19.9440 H   0  0  0  0  0  0
  -31.0753  -20.6746   23.5591 H   0  0  0  0  0  0
  -30.0240  -22.0564   23.2813 H   0  0  0  0  0  0
  -31.6066  -21.9703   22.4992 H   0  0  0  0  0  0
  -31.4869  -17.1936   20.3050 H   0  0  0  0  0  0
  -30.4225  -17.0272   18.9637 H   0  0  0  0  0  0
  -29.0101  -25.2629   21.5944 H   0  0  0  0  0  0
  -27.3122  -25.1633   21.3866 H   0  0  0  0  0  0
  -28.9587  -15.7195   20.8304 H   0  0  0  0  0  0
  1 25  1  0  0  0
  1 30  2  0  0  0
  1 85  1  0  0  0
  2  3  1  0  0  0
  2 25  1  0  0  0
  2 86  1  0  0  0
  2 87  1  0  0  0
  3  4  1  0  0  0
  3 88  1  0  0  0
  3 89  1  0  0  0
  4  5  1  0  0  0
  4 90  1  0  0  0
  4 91  1  0  0  0
  5  6  1  0  0  0
  5 26  1  0  0  0
  5 92  1  0  0  0
  6 25  1  0  0  0
  6 93  1  0  0  0
  6 94  1  0  0  0
  7  8  2  0  0  0
  7 26  1  0  0  0
  7 29  1  0  0  0
  8  9  1  0  0  0
  8 22  1  0  0  0
  9 10  1  0  0  0
  9 27  2  0  0  0
 10 11  2  0  0  0
 10 15  1  0  0  0
 11 12  1  0  0  0
 11 95  1  0  0  0
 12 13  2  0  0  0
 12 96  1  0  0  0
 13 14  1  0  0  0
 13 31  1  0  0  0
 14 15  2  0  0  0
 14 97  1  0  0  0
 15 98  1  0  0  0
 16 17  2  0  0  0
 16 21  1  0  0  0
 16 31  1  0  0  0
 17 18  1  0  0  0
 17 99  1  0  0  0
 18 19  2  0  0  0
 18100  1  0  0  0
 19 20  1  0  0  0
 19 24  1  0  0  0
 20 21  2  0  0  0
 20101  1  0  0  0
 21 23  1  0  0  0
 22 28  1  0  0  0
 22 32  2  0  0  0
 26 27  1  0  0  0
 28102  1  0  0  0
 28103  1  0  0  0
 29104  1  0  0  0
 29105  1  0  0  0
 33 34  1  0  0  0
 33 66  1  0  0  0
 33 70  2  0  0  0
 34 36  1  0  0  0
 34 59  1  0  0  0
 34106  1  0  0  0
 35 44  2  0  0  0
 35 45  1  0  0  0
 35 68  1  0  0  0
 36 56  1  0  0  0
 36107  1  0  0  0
 37 39  1  0  0  0
 37 47  1  0  0  0
 37 66  1  0  0  0
 37108  1  0  0  0
 38 43  2  0  0  0
 38 46  1  0  0  0
 38 47  1  0  0  0
 39 64  1  0  0  0
 39 67  2  0  0  0
 40 52  1  0  0  0
 40 53  2  0  0  0
 40 58  1  0  0  0
 41109  1  0  0  0
 41110  1  0  0  0
 41111  1  0  0  0
 41 48  1  0  0  0
 42 43  1  0  0  0
 42 66  1  0  0  0
 42112  1  0  0  0
 42113  1  0  0  0
 43 44  1  0  0  0
 44114  1  0  0  0
 45 46  2  0  0  0
 45115  1  0  0  0
 46116  1  0  0  0
 47117  1  0  0  0
 47118  1  0  0  0
 48 56  1  0  0  0
 48 65  1  0  0  0
 48119  1  0  0  0
 49 50  1  0  0  0
 49 53  1  0  0  0
 49 64  1  0  0  0
 49120  1  0  0  0
 50 51  1  0  0  0
 50121  1  0  0  0
 50122  1  0  0  0
 51 52  1  0  0  0
 51123  1  0  0  0
 51124  1  0  0  0
 52125  1  0  0  0
 52126  1  0  0  0
 53 54  1  0  0  0
 54 55  2  0  0  0
 54127  1  0  0  0
 55 57  1  0  0  0
 55128  1  0  0  0
 56 69  2  0  0  0
 57 58  2  0  0  0
 57129  1  0  0  0
 58130  1  0  0  0
 59 60  1  0  0  0
 59 61  1  0  0  0
 59 62  1  0  0  0
 60131  1  0  0  0
 60132  1  0  0  0
 60133  1  0  0  0
 61134  1  0  0  0
 61135  1  0  0  0
 61136  1  0  0  0
 62137  1  0  0  0
 62138  1  0  0  0
 62139  1  0  0  0
 63 65  1  0  0  0
 63140  1  0  0  0
 63141  1  0  0  0
 63142  1  0  0  0
 64143  1  0  0  0
 65144  1  0  0  0
 68 83  1  0  0  0
 71 72  2  0  0  0
 71 74  1  0  0  0
 71145  1  0  0  0
 72 76  1  0  0  0
 72146  1  0  0  0
 73 74  2  0  0  0
 73 75  1  0  0  0
 73147  1  0  0  0
 74 82  1  0  0  0
 75 76  2  0  0  0
 75 81  1  0  0  0
 76 84  1  0  0  0
 77 78  1  0  0  0
 77 79  1  0  0  0
 77148  1  0  0  0
 77149  1  0  0  0
 78 80  1  0  0  0
 78150  1  0  0  0
 78151  1  0  0  0
 79 84  1  0  0  0
 79152  1  0  0  0
 79153  1  0  0  0
 80 83  1  0  0  0
 80 84  1  0  0  0
 80154  1  0  0  0
 81155  1  0  0  0
 81156  1  0  0  0
 81157  1  0  0  0
 82 85  1  0  0  0
 82158  1  0  0  0
 82159  1  0  0  0
 83160  1  0  0  0
 83161  1  0  0  0
 85162  1  0  0  0
M  ISO  4   1 100  68 101  83 101  85 100
M  END
> <chiral flag>
0

> <version>
0

> <s_m_source_file>
/data/baiqing/PycharmProjects/Reinvent-master-3.2/result/LINK_invent/BTK/process_docking_weight1_custom_product_contain_oxygen_bond_distance_aromatic_linkinvent_7_9_3/rearranged_h_0023.sdf

> <i_m_source_file_index>
15

> <r_mmod_Potential_Energy-OPLS-2005>
159.192443847656

> <r_mmod_Stretch_Energy-OPLS-2005>
77.2739181518555

> <r_mmod_Bend_Energy-OPLS-2005>
182.957366943359

> <r_mmod_Torsional_Energy-OPLS-2005>
339.343933105469

> <r_mmod_Improper_Torsional_Energy-OPLS-2005>
15.5919151306152

> <r_mmod_Van_der_Waal_Energy-OPLS-2005>
143.272048950195

> <r_mmod_Electrostatic_Energy-OPLS-2005>
-432.191223144531

> <r_mmod_Solvation_Energy-OPLS-2005>
-214.048873901367

> <b_mmod_Minimization_Converged-OPLS-2005>
0

> <r_mmod_RMS_Derivative-OPLS-2005>
2.45341229438782

$$$$
15
                    3D
 Structure written by MMmdl.
172180  0  0  1  0            999 V2000
  -30.7241  -14.4759   20.4340 C   0  0  0  0  0  0
  -30.4097  -12.2683   19.4468 C   0  0  0  0  0  0
  -29.4923  -12.4193   18.2156 C   0  0  0  0  0  0
  -28.0094  -12.3270   18.6226 C   0  0  0  0  0  0
  -27.6508  -13.2106   19.8486 C   0  0  2  0  0  0
  -28.6965  -13.0727   20.9795 C   0  0  0  0  0  0
  -25.2547  -13.8185   20.5623 C   0  0  0  0  0  0
  -24.1825  -13.0453   20.9171 C   0  0  0  0  0  0
  -24.6390  -11.6926   20.8742 C   0  0  0  0  0  0
  -23.9063  -10.4302   21.0399 C   0  0  0  0  0  0
  -24.3624   -9.4213   21.9164 C   0  0  0  0  0  0
  -23.6306   -8.2238   22.0730 C   0  0  0  0  0  0
  -22.4286   -8.0277   21.3518 C   0  0  0  0  0  0
  -21.9922   -9.0253   20.4627 C   0  0  0  0  0  0
  -22.7244  -10.2134   20.3044 C   0  0  0  0  0  0
  -21.6851   -6.0735   22.5275 C   0  0  0  0  0  0
  -21.4021   -6.5635   23.8211 C   0  0  0  0  0  0
  -21.3661   -5.6784   24.9166 C   0  0  0  0  0  0
  -21.6039   -4.3043   24.7214 C   0  0  0  0  0  0
  -21.8821   -3.8139   23.4333 C   0  0  0  0  0  0
  -21.9190   -4.6961   22.3398 C   0  0  0  0  0  0
  -22.7843  -13.5227   21.1834 C   0  0  0  0  0  0
  -22.1647   -4.2145   21.0978 F   0  0  0  0  0  0
  -21.5638   -3.4535   25.7728 F   0  0  0  0  0  0
  -30.0269  -13.3137   20.4052 N   0  0  0  0  0  0
  -26.2978  -12.9362   20.3269 N   0  0  0  0  0  0
  -25.9316  -11.6525   20.5779 N   0  0  0  0  0  0
  -22.0472  -12.8244   22.0408 N   0  0  0  0  0  0
  -25.4254  -15.1908   20.4020 N   0  0  0  0  0  0
  -31.9329  -14.5388   20.1996 O   0  0  0  0  0  0
  -21.6635   -6.8882   21.4237 O   0  0  0  0  0  0
  -22.3525  -14.5502   20.6645 O   0  0  0  0  0  0
  -24.6112  -31.8679   23.2121 C   0  0  0  0  0  0
  -25.9019  -32.4818   23.8412 C   0  0  1  0  0  0
  -27.2425  -27.4589   20.0781 C   0  0  0  0  0  0
  -25.5899  -33.8623   24.2354 N   0  0  0  0  0  0
  -23.3979  -30.4925   21.5503 C   0  0  2  0  0  0
  -24.8438  -28.9601   20.1123 C   0  0  0  0  0  0
  -22.7382  -29.4673   22.5004 C   0  0  0  0  0  0
  -18.0239  -28.1385   22.8497 C   0  0  0  0  0  0
  -24.1484  -36.7306   23.2645 C   0  0  0  0  0  0
  -25.9233  -30.8415   21.3598 C   0  0  0  0  0  0
  -25.9997  -29.4792   20.7036 C   0  0  0  0  0  0
  -27.1983  -28.7351   20.6824 C   0  0  0  0  0  0
  -26.0632  -26.9450   19.4904 C   0  0  0  0  0  0
  -24.8684  -27.6919   19.5046 C   0  0  0  0  0  0
  -23.6037  -29.8237   20.1643 C   0  0  0  0  0  0
  -25.4105  -36.3108   24.0344 C   0  0  1  0  0  0
  -20.5838  -28.3660   23.1323 C   0  0  2  0  0  0
  -20.6748  -26.9396   22.5419 C   0  0  0  0  0  0
  -19.5730  -26.6394   21.5211 C   0  0  0  0  0  0
  -18.1899  -26.7932   22.1620 C   0  0  0  0  0  0
  -19.1495  -28.8832   23.2907 C   0  0  0  0  0  0
  -18.9434  -30.1449   23.8907 C   0  0  0  0  0  0
  -17.6442  -30.6587   24.0563 C   0  0  0  0  0  0
  -25.9033  -34.9467   23.5136 C   0  0  0  0  0  0
  -16.5330  -29.9094   23.6333 C   0  0  0  0  0  0
  -16.7237  -28.6513   23.0348 C   0  0  0  0  0  0
  -26.4496  -31.6589   25.0716 C   0  0  0  0  0  0
  -25.3831  -31.3656   26.1512 C   0  0  0  0  0  0
  -27.0292  -30.3033   24.6038 C   0  0  0  0  0  0
  -27.6050  -32.4339   25.7480 C   0  0  0  0  0  0
  -27.5576  -37.1798   24.8465 C   0  0  0  0  0  0
  -21.4110  -29.3045   22.3751 N   0  0  0  0  0  0
  -26.4282  -37.3797   23.9416 N   0  0  0  0  0  0
  -24.6620  -31.0810   22.1001 N   0  0  0  0  0  0
  -23.4165  -28.8227   23.3035 O   0  0  0  0  0  0
  -28.4498  -26.7926   20.0946 O   0  0  0  0  0  0
  -26.5580  -34.8913   22.4688 O   0  0  0  0  0  0
  -23.5318  -32.1424   23.7543 O   0  0  0  0  0  0
  -31.0077  -17.3185   17.2385 C   0  0  0  0  0  0
  -30.4130  -16.3972   18.1093 C   0  0  0  0  0  0
  -30.7313  -17.9472   19.9548 C   0  0  0  0  0  0
  -31.5135  -18.5429   17.7125 C   0  0  0  0  0  0
  -30.3573  -16.6618   19.4925 C   0  0  0  0  0  0
  -31.2884  -18.9200   19.0743 C   0  0  0  0  0  0
  -32.3613  -19.3415   16.7247 C   0  0  0  0  0  0
  -29.9587  -26.3244   17.7367 C   0  0  0  0  0  0
  -32.6420  -20.1351   20.6616 C   0  0  0  0  0  0
  -31.5549  -21.3701   18.7296 C   0  0  0  0  0  0
  -29.4491  -23.8078   17.8884 C   0  0  0  0  0  0
  -28.5536  -25.4231   19.6923 C   0  0  0  0  0  0
  -31.1667  -22.7501   19.3346 C   0  0  1  0  0  0
  -28.9593  -25.2486   18.2057 C   0  0  1  0  0  0
  -32.2869  -23.4914   20.1254 C   0  0  0  0  0  0
  -29.9907  -15.6070   20.3861 N   0  0  0  0  0  0
  -30.8693  -23.6015   18.1764 N   0  0  0  0  0  0
  -31.6292  -20.1891   19.6084 N   0  0  0  0  0  0
  -27.8614  -25.4133   17.4688 F   0  0  0  0  0  0
  -32.5224  -22.9372   21.3118 F   0  0  0  0  0  0
  -33.4229  -23.5284   19.4263 F   0  0  0  0  0  0
  -31.9086  -24.7538   20.3438 F   0  0  0  0  0  0
  -31.4572  -12.3345   19.1453 H   0  0  0  0  0  0
  -30.2902  -11.2828   19.9015 H   0  0  0  0  0  0
  -29.7246  -11.6434   17.4850 H   0  0  0  0  0  0
  -29.6789  -13.3652   17.7128 H   0  0  0  0  0  0
  -27.8042  -11.2799   18.8488 H   0  0  0  0  0  0
  -27.3699  -12.5774   17.7750 H   0  0  0  0  0  0
  -27.6715  -14.2417   19.4961 H   0  0  0  0  0  0
  -28.6578  -12.0748   21.4186 H   0  0  0  0  0  0
  -28.4869  -13.7734   21.7894 H   0  0  0  0  0  0
  -25.2776   -9.5693   22.4734 H   0  0  0  0  0  0
  -24.0010   -7.4636   22.7462 H   0  0  0  0  0  0
  -21.0840   -8.8787   19.8953 H   0  0  0  0  0  0
  -22.3696  -10.9672   19.6162 H   0  0  0  0  0  0
  -21.2013   -7.6145   23.9722 H   0  0  0  0  0  0
  -21.1478   -6.0503   25.9074 H   0  0  0  0  0  0
  -22.0598   -2.7604   23.2833 H   0  0  0  0  0  0
  -22.4098  -11.9960   22.4903 H   0  0  0  0  0  0
  -21.1073  -13.1262   22.2541 H   0  0  0  0  0  0
  -24.6621  -15.8489   20.5213 H   0  0  0  0  0  0
  -26.2759  -15.6296   20.0750 H   0  0  0  0  0  0
  -26.7078  -32.5551   23.1171 H   0  0  0  0  0  0
  -25.0093  -33.9806   25.0532 H   0  0  0  0  0  0
  -22.6844  -31.3069   21.4128 H   0  0  0  0  0  0
  -23.3736  -35.9646   23.3312 H   0  0  0  0  0  0
  -24.3576  -36.8916   22.2058 H   0  0  0  0  0  0
  -23.7249  -37.6517   23.6654 H   0  0  0  0  0  0
  -26.0366  -31.6152   20.5995 H   0  0  0  0  0  0
  -26.8113  -30.8914   21.9755 H   0  0  0  0  0  0
  -28.0944  -29.1392   21.1310 H   0  0  0  0  0  0
  -26.0462  -25.9810   19.0060 H   0  0  0  0  0  0
  -23.9782  -27.2903   19.0404 H   0  0  0  0  0  0
  -23.7057  -30.6000   19.4050 H   0  0  0  0  0  0
  -22.7294  -29.2399   19.8725 H   0  0  0  0  0  0
  -25.1290  -36.1957   25.0838 H   0  0  0  0  0  0
  -20.9918  -28.3211   24.1447 H   0  0  0  0  0  0
  -20.5650  -26.2260   23.3599 H   0  0  0  0  0  0
  -21.6617  -26.7454   22.1208 H   0  0  0  0  0  0
  -19.6901  -25.6311   21.1223 H   0  0  0  0  0  0
  -19.6671  -27.3212   20.6746 H   0  0  0  0  0  0
  -17.4179  -26.6671   21.4012 H   0  0  0  0  0  0
  -18.0294  -26.0066   22.9014 H   0  0  0  0  0  0
  -19.7913  -30.7259   24.2275 H   0  0  0  0  0  0
  -17.4996  -31.6259   24.5174 H   0  0  0  0  0  0
  -15.5337  -30.3002   23.7658 H   0  0  0  0  0  0
  -15.8629  -28.0846   22.7055 H   0  0  0  0  0  0
  -24.6004  -30.6977   25.7918 H   0  0  0  0  0  0
  -24.9032  -32.2784   26.5042 H   0  0  0  0  0  0
  -25.8287  -30.8828   27.0216 H   0  0  0  0  0  0
  -26.2766  -29.6799   24.1188 H   0  0  0  0  0  0
  -27.4180  -29.7271   25.4447 H   0  0  0  0  0  0
  -27.8575  -30.4354   23.9068 H   0  0  0  0  0  0
  -27.2608  -33.3614   26.2072 H   0  0  0  0  0  0
  -28.3836  -32.6953   25.0303 H   0  0  0  0  0  0
  -28.0734  -31.8475   26.5390 H   0  0  0  0  0  0
  -28.2604  -38.0091   24.7504 H   0  0  0  0  0  0
  -28.1060  -36.2614   24.6289 H   0  0  0  0  0  0
  -27.2287  -37.1454   25.8870 H   0  0  0  0  0  0
  -20.9256  -29.8750   21.6968 H   0  0  0  0  0  0
  -26.0162  -38.2876   24.1416 H   0  0  0  0  0  0
  -31.1277  -17.0443   16.2002 H   0  0  0  0  0  0
  -30.0856  -15.4520   17.7082 H   0  0  0  0  0  0
  -30.6358  -18.1749   21.0058 H   0  0  0  0  0  0
  -32.6512  -18.7281   15.8698 H   0  0  0  0  0  0
  -33.2910  -19.6710   17.1915 H   0  0  0  0  0  0
  -31.8290  -20.2026   16.3232 H   0  0  0  0  0  0
  -30.8628  -26.3280   18.3442 H   0  0  0  0  0  0
  -29.5207  -27.3201   17.8090 H   0  0  0  0  0  0
  -30.2499  -26.1716   16.6976 H   0  0  0  0  0  0
  -33.0544  -19.1321   20.7919 H   0  0  0  0  0  0
  -32.2132  -20.4399   21.6184 H   0  0  0  0  0  0
  -33.4799  -20.7964   20.4378 H   0  0  0  0  0  0
  -32.5056  -21.4807   18.2072 H   0  0  0  0  0  0
  -30.7941  -21.1490   17.9807 H   0  0  0  0  0  0
  -29.3383  -23.6529   16.8131 H   0  0  0  0  0  0
  -28.8148  -23.0541   18.3557 H   0  0  0  0  0  0
  -29.3524  -25.0135   20.3095 H   0  0  0  0  0  0
  -27.6723  -24.8327   19.9474 H   0  0  0  0  0  0
  -30.2876  -22.6569   19.9729 H   0  0  0  0  0  0
  -29.0157  -15.5292   20.6265 H   0  0  0  0  0  0
  -31.3126  -24.5005   18.3409 H   0  0  0  0  0  0
  1 25  1  0  0  0
  1 30  2  0  0  0
  1 86  1  0  0  0
  2  3  1  0  0  0
  2 25  1  0  0  0
  2 93  1  0  0  0
  2 94  1  0  0  0
  3  4  1  0  0  0
  3 95  1  0  0  0
  3 96  1  0  0  0
  4  5  1  0  0  0
  4 97  1  0  0  0
  4 98  1  0  0  0
  5  6  1  0  0  0
  5 26  1  0  0  0
  5 99  1  0  0  0
  6 25  1  0  0  0
  6100  1  0  0  0
  6101  1  0  0  0
  7  8  2  0  0  0
  7 26  1  0  0  0
  7 29  1  0  0  0
  8  9  1  0  0  0
  8 22  1  0  0  0
  9 10  1  0  0  0
  9 27  2  0  0  0
 10 11  2  0  0  0
 10 15  1  0  0  0
 11 12  1  0  0  0
 11102  1  0  0  0
 12 13  2  0  0  0
 12103  1  0  0  0
 13 14  1  0  0  0
 13 31  1  0  0  0
 14 15  2  0  0  0
 14104  1  0  0  0
 15105  1  0  0  0
 16 17  2  0  0  0
 16 21  1  0  0  0
 16 31  1  0  0  0
 17 18  1  0  0  0
 17106  1  0  0  0
 18 19  2  0  0  0
 18107  1  0  0  0
 19 20  1  0  0  0
 19 24  1  0  0  0
 20 21  2  0  0  0
 20108  1  0  0  0
 21 23  1  0  0  0
 22 28  1  0  0  0
 22 32  2  0  0  0
 26 27  1  0  0  0
 28109  1  0  0  0
 28110  1  0  0  0
 29111  1  0  0  0
 29112  1  0  0  0
 33 34  1  0  0  0
 33 66  1  0  0  0
 33 70  2  0  0  0
 34 36  1  0  0  0
 34 59  1  0  0  0
 34113  1  0  0  0
 35 44  2  0  0  0
 35 45  1  0  0  0
 35 68  1  0  0  0
 36 56  1  0  0  0
 36114  1  0  0  0
 37 39  1  0  0  0
 37 47  1  0  0  0
 37 66  1  0  0  0
 37115  1  0  0  0
 38 43  2  0  0  0
 38 46  1  0  0  0
 38 47  1  0  0  0
 39 64  1  0  0  0
 39 67  2  0  0  0
 40 52  1  0  0  0
 40 53  2  0  0  0
 40 58  1  0  0  0
 41116  1  0  0  0
 41117  1  0  0  0
 41118  1  0  0  0
 41 48  1  0  0  0
 42 43  1  0  0  0
 42 66  1  0  0  0
 42119  1  0  0  0
 42120  1  0  0  0
 43 44  1  0  0  0
 44121  1  0  0  0
 45 46  2  0  0  0
 45122  1  0  0  0
 46123  1  0  0  0
 47124  1  0  0  0
 47125  1  0  0  0
 48 56  1  0  0  0
 48 65  1  0  0  0
 48126  1  0  0  0
 49 50  1  0  0  0
 49 53  1  0  0  0
 49 64  1  0  0  0
 49127  1  0  0  0
 50 51  1  0  0  0
 50128  1  0  0  0
 50129  1  0  0  0
 51 52  1  0  0  0
 51130  1  0  0  0
 51131  1  0  0  0
 52132  1  0  0  0
 52133  1  0  0  0
 53 54  1  0  0  0
 54 55  2  0  0  0
 54134  1  0  0  0
 55 57  1  0  0  0
 55135  1  0  0  0
 56 69  2  0  0  0
 57 58  2  0  0  0
 57136  1  0  0  0
 58137  1  0  0  0
 59 60  1  0  0  0
 59 61  1  0  0  0
 59 62  1  0  0  0
 60138  1  0  0  0
 60139  1  0  0  0
 60140  1  0  0  0
 61141  1  0  0  0
 61142  1  0  0  0
 61143  1  0  0  0
 62144  1  0  0  0
 62145  1  0  0  0
 62146  1  0  0  0
 63 65  1  0  0  0
 63147  1  0  0  0
 63148  1  0  0  0
 63149  1  0  0  0
 64150  1  0  0  0
 65151  1  0  0  0
 68 82  1  0  0  0
 71 72  2  0  0  0
 71 74  1  0  0  0
 71152  1  0  0  0
 72 75  1  0  0  0
 72153  1  0  0  0
 73 75  2  0  0  0
 73 76  1  0  0  0
 73154  1  0  0  0
 74 76  2  0  0  0
 74 77  1  0  0  0
 75 86  1  0  0  0
 76 88  1  0  0  0
 77155  1  0  0  0
 77156  1  0  0  0
 77157  1  0  0  0
 78158  1  0  0  0
 78159  1  0  0  0
 78160  1  0  0  0
 78 84  1  0  0  0
 79 88  1  0  0  0
 79161  1  0  0  0
 79162  1  0  0  0
 79163  1  0  0  0
 80 88  1  0  0  0
 80164  1  0  0  0
 80165  1  0  0  0
 80 83  1  0  0  0
 81 84  1  0  0  0
 81 87  1  0  0  0
 81166  1  0  0  0
 81167  1  0  0  0
 82 84  1  0  0  0
 82168  1  0  0  0
 82169  1  0  0  0
 83 85  1  0  0  0
 83 87  1  0  0  0
 83170  1  0  0  0
 84 89  1  0  0  0
 85 90  1  0  0  0
 85 91  1  0  0  0
 85 92  1  0  0  0
 86171  1  0  0  0
 87172  1  0  0  0
M  ISO  4   1 100  68 101  82 101  86 100
M  END
> <chiral flag>
0

> <version>
0

> <s_m_source_file>
/data/baiqing/PycharmProjects/Reinvent-master-3.2/result/LINK_invent/BTK/process_docking_weight1_custom_product_contain_oxygen_bond_distance_aromatic_linkinvent_7_9_3/rearranged_h_0023.sdf

> <i_m_source_file_index>
16

> <r_mmod_Potential_Energy-OPLS-2005>
232.057281494141

> <r_mmod_Stretch_Energy-OPLS-2005>
42.1826324462891

> <r_mmod_Bend_Energy-OPLS-2005>
133.697814941406

> <r_mmod_Torsional_Energy-OPLS-2005>
324.835906982422

> <r_mmod_Improper_Torsional_Energy-OPLS-2005>
13.1693658828735

> <r_mmod_Van_der_Waal_Energy-OPLS-2005>
169.078125

> <r_mmod_Electrostatic_Energy-OPLS-2005>
-265.193389892578

> <r_mmod_Solvation_Energy-OPLS-2005>
-211.557525634766

> <b_mmod_Minimization_Converged-OPLS-2005>
0

> <r_mmod_RMS_Derivative-OPLS-2005>
2.93504977226257

$$$$
16
                    3D
 Structure written by MMmdl.
156165  0  0  1  0            999 V2000
  -30.5221  -14.8969   20.4389 C   0  0  0  0  0  0
  -30.4459  -12.5504   19.4949 C   0  0  0  0  0  0
  -29.5236  -12.5402   18.2518 C   0  0  0  0  0  0
  -28.0513  -12.3348   18.6601 C   0  0  0  0  0  0
  -27.6375  -13.2412   19.8496 C   0  0  2  0  0  0
  -28.6799  -13.2113   20.9888 C   0  0  0  0  0  0
  -25.2488  -13.8199   20.5705 C   0  0  0  0  0  0
  -24.1791  -13.0432   20.9208 C   0  0  0  0  0  0
  -24.6393  -11.6913   20.8733 C   0  0  0  0  0  0
  -23.9072  -10.4292   21.0400 C   0  0  0  0  0  0
  -24.3624   -9.4207   21.9180 C   0  0  0  0  0  0
  -23.6294   -8.2244   22.0753 C   0  0  0  0  0  0
  -22.4274   -8.0280   21.3541 C   0  0  0  0  0  0
  -21.9910   -9.0255   20.4644 C   0  0  0  0  0  0
  -22.7240  -10.2134   20.3053 C   0  0  0  0  0  0
  -21.6851   -6.0733   22.5278 C   0  0  0  0  0  0
  -21.4016   -6.5639   23.8213 C   0  0  0  0  0  0
  -21.3661   -5.6792   24.9175 C   0  0  0  0  0  0
  -21.6048   -4.3054   24.7223 C   0  0  0  0  0  0
  -21.8817   -3.8142   23.4343 C   0  0  0  0  0  0
  -21.9192   -4.6961   22.3399 C   0  0  0  0  0  0
  -22.7812  -13.5208   21.1873 C   0  0  0  0  0  0
  -22.1662   -4.2148   21.0976 F   0  0  0  0  0  0
  -21.5630   -3.4538   25.7734 F   0  0  0  0  0  0
  -29.9670  -13.6220   20.4103 N   0  0  0  0  0  0
  -26.2914  -12.9421   20.3264 N   0  0  0  0  0  0
  -25.9326  -11.6552   20.5726 N   0  0  0  0  0  0
  -22.0470  -12.8202   22.0435 N   0  0  0  0  0  0
  -25.4170  -15.1932   20.4153 N   0  0  0  0  0  0
  -31.7026  -15.0264   20.0960 O   0  0  0  0  0  0
  -21.6638   -6.8874   21.4238 O   0  0  0  0  0  0
  -22.3496  -14.5517   20.6723 O   0  0  0  0  0  0
  -24.6425  -31.8467   23.1909 C   0  0  0  0  0  0
  -25.9212  -32.4699   23.8289 C   0  0  1  0  0  0
  -27.2112  -27.1537   20.1391 C   0  0  0  0  0  0
  -25.5973  -33.8505   24.2209 N   0  0  0  0  0  0
  -23.4437  -30.4681   21.5366 C   0  0  2  0  0  0
  -24.8915  -28.9009   20.1057 C   0  0  0  0  0  0
  -22.7561  -29.4564   22.4874 C   0  0  0  0  0  0
  -18.0317  -28.1388   22.8459 C   0  0  0  0  0  0
  -24.1494  -36.7260   23.2638 C   0  0  0  0  0  0
  -25.9983  -30.7220   21.3906 C   0  0  0  0  0  0
  -26.0664  -29.3359   20.7311 C   0  0  0  0  0  0
  -27.2245  -28.4745   20.7390 C   0  0  0  0  0  0
  -26.0195  -26.8321   19.4501 C   0  0  0  0  0  0
  -24.8804  -27.6626   19.4498 C   0  0  0  0  0  0
  -23.6672  -29.8008   20.1539 C   0  0  0  0  0  0
  -25.4124  -36.3034   24.0317 C   0  0  1  0  0  0
  -20.5921  -28.3723   23.1229 C   0  0  2  0  0  0
  -20.6827  -26.9436   22.5366 C   0  0  0  0  0  0
  -19.5778  -26.6338   21.5212 C   0  0  0  0  0  0
  -18.1945  -26.7931   22.1590 C   0  0  0  0  0  0
  -19.1566  -28.8865   23.2846 C   0  0  0  0  0  0
  -18.9477  -30.1453   23.8886 C   0  0  0  0  0  0
  -17.6469  -30.6575   24.0561 C   0  0  0  0  0  0
  -25.9080  -34.9408   23.5068 C   0  0  0  0  0  0
  -16.5366  -29.9070   23.6319 C   0  0  0  0  0  0
  -16.7302  -28.6493   23.0334 C   0  0  0  0  0  0
  -26.4536  -31.6553   25.0720 C   0  0  0  0  0  0
  -25.3717  -31.3748   26.1412 C   0  0  0  0  0  0
  -27.0400  -30.2950   24.6294 C   0  0  0  0  0  0
  -27.6064  -32.4315   25.7501 C   0  0  0  0  0  0
  -27.5575  -37.1793   24.8465 C   0  0  0  0  0  0
  -21.4252  -29.3083   22.3640 N   0  0  0  0  0  0
  -26.4290  -37.3746   23.9404 N   0  0  0  0  0  0
  -24.7144  -31.0332   22.0942 N   0  0  0  0  0  0
  -23.4222  -28.8087   23.2993 O   0  0  0  0  0  0
  -28.2606  -26.1718   20.2384 O   0  0  0  0  0  0
  -26.5655  -34.8904   22.4639 O   0  0  0  0  0  0
  -23.5552  -32.1353   23.7137 O   0  0  0  0  0  0
  -29.5997  -19.9256   21.3663 C   0  0  0  0  0  0
  -29.9094  -18.5055   21.4998 C   0  0  0  0  0  0
  -29.0874  -18.1093   19.3281 C   0  0  0  0  0  0
  -28.9795  -20.5166   20.2126 C   0  0  0  0  0  0
  -29.6634  -17.5067   20.4918 C   0  0  0  0  0  0
  -28.7645  -19.5175   19.1953 C   0  0  0  0  0  0
  -26.9878  -22.3775   21.9471 C   0  0  0  0  0  0
  -28.2500  -23.2498   22.0354 C   0  0  0  0  0  0
  -27.0137  -21.7667   20.5369 C   0  0  0  0  0  0
  -28.7577  -23.3075   20.5922 C   0  0  2  0  0  0
  -28.0459  -24.6722   19.8971 C   0  0  0  0  0  0
  -28.3946  -21.8854   20.0758 N   0  0  0  0  0  0
  -29.6830  -15.9970   20.7294 N   0  0  0  0  0  0
  -28.1591  -19.9068   18.0458 F   0  0  0  0  0  0
  -31.4824  -12.7075   19.1927 H   0  0  0  0  0  0
  -30.4268  -11.5819   19.9966 H   0  0  0  0  0  0
  -29.8328  -11.7622   17.5528 H   0  0  0  0  0  0
  -29.6232  -13.4861   17.7171 H   0  0  0  0  0  0
  -27.9257  -11.2866   18.9324 H   0  0  0  0  0  0
  -27.3949  -12.5071   17.8063 H   0  0  0  0  0  0
  -27.6169  -14.2567   19.4522 H   0  0  0  0  0  0
  -28.7491  -12.2143   21.4270 H   0  0  0  0  0  0
  -28.3853  -13.8783   21.7999 H   0  0  0  0  0  0
  -25.2774   -9.5681   22.4747 H   0  0  0  0  0  0
  -24.0003   -7.4636   22.7474 H   0  0  0  0  0  0
  -21.0838   -8.8771   19.8953 H   0  0  0  0  0  0
  -22.3696  -10.9670   19.6158 H   0  0  0  0  0  0
  -21.2010   -7.6148   23.9712 H   0  0  0  0  0  0
  -21.1487   -6.0526   25.9081 H   0  0  0  0  0  0
  -22.0592   -2.7603   23.2845 H   0  0  0  0  0  0
  -22.4101  -11.9866   22.4818 H   0  0  0  0  0  0
  -21.1089  -13.1221   22.2648 H   0  0  0  0  0  0
  -24.6459  -15.8424   20.5279 H   0  0  0  0  0  0
  -26.2569  -15.6359   20.0669 H   0  0  0  0  0  0
  -26.7265  -32.5311   23.1003 H   0  0  0  0  0  0
  -25.0100  -33.9621   25.0343 H   0  0  0  0  0  0
  -22.7447  -31.2940   21.3855 H   0  0  0  0  0  0
  -23.3759  -35.9589   23.3292 H   0  0  0  0  0  0
  -24.3583  -36.8905   22.2057 H   0  0  0  0  0  0
  -23.7257  -37.6457   23.6678 H   0  0  0  0  0  0
  -26.1539  -31.4764   20.6182 H   0  0  0  0  0  0
  -26.8694  -30.7703   22.0322 H   0  0  0  0  0  0
  -28.1136  -28.7960   21.2623 H   0  0  0  0  0  0
  -25.9262  -25.9025   18.9103 H   0  0  0  0  0  0
  -23.9887  -27.3331   18.9337 H   0  0  0  0  0  0
  -23.8000  -30.5766   19.3994 H   0  0  0  0  0  0
  -22.7820  -29.2421   19.8451 H   0  0  0  0  0  0
  -25.1308  -36.1862   25.0811 H   0  0  0  0  0  0
  -20.9999  -28.3291   24.1355 H   0  0  0  0  0  0
  -20.5798  -26.2330   23.3581 H   0  0  0  0  0  0
  -21.6679  -26.7491   22.1108 H   0  0  0  0  0  0
  -19.6938  -25.6216   21.1318 H   0  0  0  0  0  0
  -19.6705  -27.3071   20.6684 H   0  0  0  0  0  0
  -17.4240  -26.6739   21.3953 H   0  0  0  0  0  0
  -18.0284  -26.0054   22.8952 H   0  0  0  0  0  0
  -19.7949  -30.7265   24.2274 H   0  0  0  0  0  0
  -17.5025  -31.6236   24.5200 H   0  0  0  0  0  0
  -15.5362  -30.2956   23.7649 H   0  0  0  0  0  0
  -15.8718  -28.0795   22.7036 H   0  0  0  0  0  0
  -24.5905  -30.7079   25.7742 H   0  0  0  0  0  0
  -24.8891  -32.2930   26.4767 H   0  0  0  0  0  0
  -25.8001  -30.8979   27.0236 H   0  0  0  0  0  0
  -26.3024  -29.6667   24.1291 H   0  0  0  0  0  0
  -27.4007  -29.7247   25.4865 H   0  0  0  0  0  0
  -27.8926  -30.4184   23.9613 H   0  0  0  0  0  0
  -27.2658  -33.3635   26.2020 H   0  0  0  0  0  0
  -28.3902  -32.6851   25.0347 H   0  0  0  0  0  0
  -28.0695  -31.8483   26.5471 H   0  0  0  0  0  0
  -28.2584  -38.0093   24.7497 H   0  0  0  0  0  0
  -28.1083  -36.2628   24.6302 H   0  0  0  0  0  0
  -27.2295  -37.1440   25.8868 H   0  0  0  0  0  0
  -20.9462  -29.8870   21.6881 H   0  0  0  0  0  0
  -26.0160  -38.2816   24.1396 H   0  0  0  0  0  0
  -29.7809  -20.5571   22.2224 H   0  0  0  0  0  0
  -30.2993  -18.1738   22.4519 H   0  0  0  0  0  0
  -28.8081  -17.4646   18.5084 H   0  0  0  0  0  0
  -26.0767  -22.9580   22.0962 H   0  0  0  0  0  0
  -27.0118  -21.5989   22.7115 H   0  0  0  0  0  0
  -28.9909  -22.7731   22.6773 H   0  0  0  0  0  0
  -28.0493  -24.2386   22.4519 H   0  0  0  0  0  0
  -26.3622  -22.3252   19.8634 H   0  0  0  0  0  0
  -26.6275  -20.7446   20.5489 H   0  0  0  0  0  0
  -29.8419  -23.4308   20.5755 H   0  0  0  0  0  0
  -28.2231  -24.6042   18.8238 H   0  0  0  0  0  0
  -26.9814  -24.4891   20.0179 H   0  0  0  0  0  0
  -28.7941  -15.6553   21.0630 H   0  0  0  0  0  0
  1 25  1  0  0  0
  1 30  2  0  0  0
  1 83  1  0  0  0
  2  3  1  0  0  0
  2 25  1  0  0  0
  2 85  1  0  0  0
  2 86  1  0  0  0
  3  4  1  0  0  0
  3 87  1  0  0  0
  3 88  1  0  0  0
  4  5  1  0  0  0
  4 89  1  0  0  0
  4 90  1  0  0  0
  5  6  1  0  0  0
  5 26  1  0  0  0
  5 91  1  0  0  0
  6 25  1  0  0  0
  6 92  1  0  0  0
  6 93  1  0  0  0
  7  8  2  0  0  0
  7 26  1  0  0  0
  7 29  1  0  0  0
  8  9  1  0  0  0
  8 22  1  0  0  0
  9 10  1  0  0  0
  9 27  2  0  0  0
 10 11  2  0  0  0
 10 15  1  0  0  0
 11 12  1  0  0  0
 11 94  1  0  0  0
 12 13  2  0  0  0
 12 95  1  0  0  0
 13 14  1  0  0  0
 13 31  1  0  0  0
 14 15  2  0  0  0
 14 96  1  0  0  0
 15 97  1  0  0  0
 16 17  2  0  0  0
 16 21  1  0  0  0
 16 31  1  0  0  0
 17 18  1  0  0  0
 17 98  1  0  0  0
 18 19  2  0  0  0
 18 99  1  0  0  0
 19 20  1  0  0  0
 19 24  1  0  0  0
 20 21  2  0  0  0
 20100  1  0  0  0
 21 23  1  0  0  0
 22 28  1  0  0  0
 22 32  2  0  0  0
 26 27  1  0  0  0
 28101  1  0  0  0
 28102  1  0  0  0
 29103  1  0  0  0
 29104  1  0  0  0
 33 34  1  0  0  0
 33 66  1  0  0  0
 33 70  2  0  0  0
 34 36  1  0  0  0
 34 59  1  0  0  0
 34105  1  0  0  0
 35 44  2  0  0  0
 35 45  1  0  0  0
 35 68  1  0  0  0
 36 56  1  0  0  0
 36106  1  0  0  0
 37 39  1  0  0  0
 37 47  1  0  0  0
 37 66  1  0  0  0
 37107  1  0  0  0
 38 43  2  0  0  0
 38 46  1  0  0  0
 38 47  1  0  0  0
 39 64  1  0  0  0
 39 67  2  0  0  0
 40 52  1  0  0  0
 40 53  2  0  0  0
 40 58  1  0  0  0
 41108  1  0  0  0
 41109  1  0  0  0
 41110  1  0  0  0
 41 48  1  0  0  0
 42 43  1  0  0  0
 42 66  1  0  0  0
 42111  1  0  0  0
 42112  1  0  0  0
 43 44  1  0  0  0
 44113  1  0  0  0
 45 46  2  0  0  0
 45114  1  0  0  0
 46115  1  0  0  0
 47116  1  0  0  0
 47117  1  0  0  0
 48 56  1  0  0  0
 48 65  1  0  0  0
 48118  1  0  0  0
 49 50  1  0  0  0
 49 53  1  0  0  0
 49 64  1  0  0  0
 49119  1  0  0  0
 50 51  1  0  0  0
 50120  1  0  0  0
 50121  1  0  0  0
 51 52  1  0  0  0
 51122  1  0  0  0
 51123  1  0  0  0
 52124  1  0  0  0
 52125  1  0  0  0
 53 54  1  0  0  0
 54 55  2  0  0  0
 54126  1  0  0  0
 55 57  1  0  0  0
 55127  1  0  0  0
 56 69  2  0  0  0
 57 58  2  0  0  0
 57128  1  0  0  0
 58129  1  0  0  0
 59 60  1  0  0  0
 59 61  1  0  0  0
 59 62  1  0  0  0
 60130  1  0  0  0
 60131  1  0  0  0
 60132  1  0  0  0
 61133  1  0  0  0
 61134  1  0  0  0
 61135  1  0  0  0
 62136  1  0  0  0
 62137  1  0  0  0
 62138  1  0  0  0
 63 65  1  0  0  0
 63139  1  0  0  0
 63140  1  0  0  0
 63141  1  0  0  0
 64142  1  0  0  0
 65143  1  0  0  0
 68 81  1  0  0  0
 71 72  2  0  0  0
 71 74  1  0  0  0
 71144  1  0  0  0
 72 75  1  0  0  0
 72145  1  0  0  0
 73 75  2  0  0  0
 73 76  1  0  0  0
 73146  1  0  0  0
 74 76  2  0  0  0
 74 82  1  0  0  0
 75 83  1  0  0  0
 76 84  1  0  0  0
 77 78  1  0  0  0
 77 79  1  0  0  0
 77147  1  0  0  0
 77148  1  0  0  0
 78 80  1  0  0  0
 78149  1  0  0  0
 78150  1  0  0  0
 79 82  1  0  0  0
 79151  1  0  0  0
 79152  1  0  0  0
 80 81  1  0  0  0
 80 82  1  0  0  0
 80153  1  0  0  0
 81154  1  0  0  0
 81155  1  0  0  0
 83156  1  0  0  0
M  ISO  4   1 100  68 101  81 101  83 100
M  END
> <chiral flag>
0

> <version>
0

> <s_m_source_file>
/data/baiqing/PycharmProjects/Reinvent-master-3.2/result/LINK_invent/BTK/process_docking_weight1_custom_product_contain_oxygen_bond_distance_aromatic_linkinvent_7_9_3/rearranged_h_0023.sdf

> <i_m_source_file_index>
17

> <r_mmod_Potential_Energy-OPLS-2005>
604.973327636719

> <r_mmod_Stretch_Energy-OPLS-2005>
213.610977172852

> <r_mmod_Bend_Energy-OPLS-2005>
295.256744384766

> <r_mmod_Torsional_Energy-OPLS-2005>
325.764038085938

> <r_mmod_Improper_Torsional_Energy-OPLS-2005>
12.984546661377

> <r_mmod_Van_der_Waal_Energy-OPLS-2005>
134.237396240234

> <r_mmod_Electrostatic_Energy-OPLS-2005>
-322.065826416016

> <r_mmod_Solvation_Energy-OPLS-2005>
-223.904541015625

> <b_mmod_Minimization_Converged-OPLS-2005>
0

> <r_mmod_RMS_Derivative-OPLS-2005>
1.20590484142303

$$$$
17
                    3D
 Structure written by MMmdl.
159168  0  0  1  0            999 V2000
  -30.5145  -14.9053   20.4413 C   0  0  0  0  0  0
  -30.4546  -12.5579   19.4909 C   0  0  0  0  0  0
  -29.5259  -12.5312   18.2524 C   0  0  0  0  0  0
  -28.0557  -12.3220   18.6668 C   0  0  0  0  0  0
  -27.6396  -13.2365   19.8481 C   0  0  2  0  0  0
  -28.6837  -13.2097   20.9861 C   0  0  0  0  0  0
  -25.2506  -13.8193   20.5693 C   0  0  0  0  0  0
  -24.1808  -13.0435   20.9224 C   0  0  0  0  0  0
  -24.6405  -11.6914   20.8756 C   0  0  0  0  0  0
  -23.9079  -10.4291   21.0415 C   0  0  0  0  0  0
  -24.3625   -9.4204   21.9191 C   0  0  0  0  0  0
  -23.6295   -8.2243   22.0757 C   0  0  0  0  0  0
  -22.4277   -8.0285   21.3548 C   0  0  0  0  0  0
  -21.9916   -9.0260   20.4651 C   0  0  0  0  0  0
  -22.7250  -10.2136   20.3063 C   0  0  0  0  0  0
  -21.6853   -6.0738   22.5281 C   0  0  0  0  0  0
  -21.4015   -6.5642   23.8216 C   0  0  0  0  0  0
  -21.3657   -5.6794   24.9176 C   0  0  0  0  0  0
  -21.6044   -4.3058   24.7226 C   0  0  0  0  0  0
  -21.8818   -3.8149   23.4347 C   0  0  0  0  0  0
  -21.9190   -4.6966   22.3403 C   0  0  0  0  0  0
  -22.7829  -13.5216   21.1876 C   0  0  0  0  0  0
  -22.1662   -4.2152   21.0980 F   0  0  0  0  0  0
  -21.5627   -3.4539   25.7736 F   0  0  0  0  0  0
  -29.9696  -13.6259   20.4055 N   0  0  0  0  0  0
  -26.2930  -12.9401   20.3258 N   0  0  0  0  0  0
  -25.9335  -11.6543   20.5742 N   0  0  0  0  0  0
  -22.0472  -12.8209   22.0433 N   0  0  0  0  0  0
  -25.4175  -15.1918   20.4075 N   0  0  0  0  0  0
  -31.7001  -15.0481   20.1188 O   0  0  0  0  0  0
  -21.6641   -6.8883   21.4244 O   0  0  0  0  0  0
  -22.3516  -14.5521   20.6718 O   0  0  0  0  0  0
  -24.6417  -31.8459   23.1905 C   0  0  0  0  0  0
  -25.9198  -32.4705   23.8286 C   0  0  1  0  0  0
  -27.2189  -27.1553   20.1490 C   0  0  0  0  0  0
  -25.5952  -33.8509   24.2200 N   0  0  0  0  0  0
  -23.4443  -30.4663   21.5359 C   0  0  2  0  0  0
  -24.8936  -28.8959   20.1137 C   0  0  0  0  0  0
  -22.7557  -29.4559   22.4871 C   0  0  0  0  0  0
  -18.0303  -28.1395   22.8480 C   0  0  0  0  0  0
  -24.1492  -36.7261   23.2643 C   0  0  0  0  0  0
  -25.9996  -30.7253   21.3874 C   0  0  0  0  0  0
  -26.0711  -29.3379   20.7301 C   0  0  0  0  0  0
  -27.2358  -28.4846   20.7297 C   0  0  0  0  0  0
  -26.0168  -26.8144   19.4897 C   0  0  0  0  0  0
  -24.8779  -27.6461   19.4786 C   0  0  0  0  0  0
  -23.6702  -29.7965   20.1552 C   0  0  0  0  0  0
  -25.4123  -36.3036   24.0317 C   0  0  1  0  0  0
  -20.5915  -28.3719   23.1240 C   0  0  2  0  0  0
  -20.6789  -26.9424   22.5403 C   0  0  0  0  0  0
  -19.5761  -26.6383   21.5213 C   0  0  0  0  0  0
  -18.1943  -26.7935   22.1626 C   0  0  0  0  0  0
  -19.1560  -28.8875   23.2854 C   0  0  0  0  0  0
  -18.9477  -30.1471   23.8878 C   0  0  0  0  0  0
  -17.6474  -30.6592   24.0561 C   0  0  0  0  0  0
  -25.9071  -34.9411   23.5067 C   0  0  0  0  0  0
  -16.5364  -29.9085   23.6337 C   0  0  0  0  0  0
  -16.7288  -28.6504   23.0355 C   0  0  0  0  0  0
  -26.4520  -31.6569   25.0723 C   0  0  0  0  0  0
  -25.3710  -31.3757   26.1423 C   0  0  0  0  0  0
  -27.0381  -30.2965   24.6300 C   0  0  0  0  0  0
  -27.6054  -32.4332   25.7507 C   0  0  0  0  0  0
  -27.5575  -37.1788   24.8465 C   0  0  0  0  0  0
  -21.4253  -29.3050   22.3616 N   0  0  0  0  0  0
  -26.4286  -37.3747   23.9406 N   0  0  0  0  0  0
  -24.7149  -31.0331   22.0930 N   0  0  0  0  0  0
  -23.4207  -28.8108   23.3017 O   0  0  0  0  0  0
  -28.2844  -26.1882   20.1837 O   0  0  0  0  0  0
  -26.5655  -34.8906   22.4644 O   0  0  0  0  0  0
  -23.5541  -32.1329   23.7133 O   0  0  0  0  0  0
  -30.2525  -19.9481   20.2342 C   0  0  0  0  0  0
  -30.5135  -18.5049   20.2245 C   0  0  0  0  0  0
  -28.3108  -18.1277   20.9679 C   0  0  0  0  0  0
  -28.0442  -19.5495   20.9809 C   0  0  0  0  0  0
  -29.0054  -20.5594   20.6270 C   0  0  0  0  0  0
  -29.5486  -17.5075   20.6104 C   0  0  0  0  0  0
  -30.1993  -23.1768   22.3269 C   0  0  0  0  0  0
  -30.3646  -23.7089   20.8994 C   0  0  0  0  0  0
  -28.9623  -22.2668   22.2826 C   0  0  0  0  0  0
  -29.0416  -23.3639   20.2192 C   0  0  2  0  0  0
  -26.6564  -19.9836   21.4293 C   0  0  0  0  0  0
  -27.9995  -24.6775   20.4051 C   0  0  0  0  0  0
  -28.6930  -21.9982   20.8709 N   0  0  0  0  0  0
  -29.6336  -15.9816   20.6871 N   0  0  0  0  0  0
  -31.4867  -12.7308   19.1812 H   0  0  0  0  0  0
  -30.4530  -11.5914   19.9974 H   0  0  0  0  0  0
  -29.8355  -11.7449   17.5626 H   0  0  0  0  0  0
  -29.6203  -13.4708   17.7057 H   0  0  0  0  0  0
  -27.9415  -11.2759   18.9545 H   0  0  0  0  0  0
  -27.3931  -12.4767   17.8143 H   0  0  0  0  0  0
  -27.6184  -14.2489   19.4445 H   0  0  0  0  0  0
  -28.7589  -12.2126   21.4225 H   0  0  0  0  0  0
  -28.3873  -13.8740   21.7994 H   0  0  0  0  0  0
  -25.2771   -9.5674   22.4765 H   0  0  0  0  0  0
  -24.0002   -7.4630   22.7473 H   0  0  0  0  0  0
  -21.0849   -8.8784   19.8955 H   0  0  0  0  0  0
  -22.3716  -10.9676   19.6172 H   0  0  0  0  0  0
  -21.2014   -7.6151   23.9719 H   0  0  0  0  0  0
  -21.1479   -6.0526   25.9079 H   0  0  0  0  0  0
  -22.0597   -2.7610   23.2848 H   0  0  0  0  0  0
  -22.4091  -11.9873   22.4822 H   0  0  0  0  0  0
  -21.1089  -13.1234   22.2635 H   0  0  0  0  0  0
  -24.6341  -15.8306   20.4908 H   0  0  0  0  0  0
  -26.2339  -15.6213   19.9926 H   0  0  0  0  0  0
  -26.7265  -32.5317   23.1018 H   0  0  0  0  0  0
  -25.0074  -33.9627   25.0330 H   0  0  0  0  0  0
  -22.7463  -31.2917   21.3825 H   0  0  0  0  0  0
  -23.3755  -35.9591   23.3296 H   0  0  0  0  0  0
  -24.3577  -36.8902   22.2060 H   0  0  0  0  0  0
  -23.7249  -37.6455   23.6686 H   0  0  0  0  0  0
  -26.1539  -31.4802   20.6151 H   0  0  0  0  0  0
  -26.8706  -30.7746   22.0291 H   0  0  0  0  0  0
  -28.1349  -28.8204   21.2270 H   0  0  0  0  0  0
  -25.9268  -25.8728   18.9712 H   0  0  0  0  0  0
  -23.9819  -27.3060   18.9775 H   0  0  0  0  0  0
  -23.8068  -30.5712   19.3997 H   0  0  0  0  0  0
  -22.7854  -29.2382   19.8446 H   0  0  0  0  0  0
  -25.1312  -36.1864   25.0809 H   0  0  0  0  0  0
  -21.0008  -28.3308   24.1360 H   0  0  0  0  0  0
  -20.5684  -26.2333   23.3620 H   0  0  0  0  0  0
  -21.6655  -26.7430   22.1200 H   0  0  0  0  0  0
  -19.6921  -25.6289   21.1255 H   0  0  0  0  0  0
  -19.6696  -27.3183   20.6733 H   0  0  0  0  0  0
  -17.4211  -26.6678   21.4031 H   0  0  0  0  0  0
  -18.0342  -26.0081   22.9026 H   0  0  0  0  0  0
  -19.7951  -30.7294   24.2240 H   0  0  0  0  0  0
  -17.5024  -31.6270   24.5167 H   0  0  0  0  0  0
  -15.5363  -30.2979   23.7671 H   0  0  0  0  0  0
  -15.8689  -28.0815   22.7081 H   0  0  0  0  0  0
  -24.5889  -30.7105   25.7743 H   0  0  0  0  0  0
  -24.8902  -32.2940   26.4804 H   0  0  0  0  0  0
  -25.7998  -30.8956   27.0229 H   0  0  0  0  0  0
  -26.2994  -29.6695   24.1293 H   0  0  0  0  0  0
  -27.3976  -29.7259   25.4875 H   0  0  0  0  0  0
  -27.8913  -30.4199   23.9625 H   0  0  0  0  0  0
  -27.2650  -33.3650   26.2036 H   0  0  0  0  0  0
  -28.3890  -32.6864   25.0353 H   0  0  0  0  0  0
  -28.0693  -31.8489   26.5463 H   0  0  0  0  0  0
  -28.2586  -38.0090   24.7503 H   0  0  0  0  0  0
  -28.1077  -36.2619   24.6299 H   0  0  0  0  0  0
  -27.2292  -37.1443   25.8867 H   0  0  0  0  0  0
  -20.9460  -29.8764   21.6798 H   0  0  0  0  0  0
  -26.0153  -38.2816   24.1406 H   0  0  0  0  0  0
  -31.0698  -20.6024   19.9676 H   0  0  0  0  0  0
  -31.4974  -18.1725   19.9259 H   0  0  0  0  0  0
  -27.5048  -17.4752   21.2723 H   0  0  0  0  0  0
  -30.0517  -23.9861   23.0436 H   0  0  0  0  0  0
  -31.0894  -22.6258   22.6335 H   0  0  0  0  0  0
  -31.1818  -23.1839   20.4027 H   0  0  0  0  0  0
  -30.5958  -24.7744   20.8660 H   0  0  0  0  0  0
  -28.1001  -22.7726   22.7200 H   0  0  0  0  0  0
  -29.1262  -21.3671   22.8805 H   0  0  0  0  0  0
  -29.2174  -23.2165   19.1526 H   0  0  0  0  0  0
  -25.9523  -19.1514   21.4354 H   0  0  0  0  0  0
  -26.2549  -20.7463   20.7614 H   0  0  0  0  0  0
  -26.6964  -20.3978   22.4372 H   0  0  0  0  0  0
  -27.6408  -24.6443   21.4338 H   0  0  0  0  0  0
  -27.1283  -24.4019   19.8170 H   0  0  0  0  0  0
  -28.7474  -15.5860   20.9604 H   0  0  0  0  0  0
  1 25  1  0  0  0
  1 30  2  0  0  0
  1 84  1  0  0  0
  2  3  1  0  0  0
  2 25  1  0  0  0
  2 85  1  0  0  0
  2 86  1  0  0  0
  3  4  1  0  0  0
  3 87  1  0  0  0
  3 88  1  0  0  0
  4  5  1  0  0  0
  4 89  1  0  0  0
  4 90  1  0  0  0
  5  6  1  0  0  0
  5 26  1  0  0  0
  5 91  1  0  0  0
  6 25  1  0  0  0
  6 92  1  0  0  0
  6 93  1  0  0  0
  7  8  2  0  0  0
  7 26  1  0  0  0
  7 29  1  0  0  0
  8  9  1  0  0  0
  8 22  1  0  0  0
  9 10  1  0  0  0
  9 27  2  0  0  0
 10 11  2  0  0  0
 10 15  1  0  0  0
 11 12  1  0  0  0
 11 94  1  0  0  0
 12 13  2  0  0  0
 12 95  1  0  0  0
 13 14  1  0  0  0
 13 31  1  0  0  0
 14 15  2  0  0  0
 14 96  1  0  0  0
 15 97  1  0  0  0
 16 17  2  0  0  0
 16 21  1  0  0  0
 16 31  1  0  0  0
 17 18  1  0  0  0
 17 98  1  0  0  0
 18 19  2  0  0  0
 18 99  1  0  0  0
 19 20  1  0  0  0
 19 24  1  0  0  0
 20 21  2  0  0  0
 20100  1  0  0  0
 21 23  1  0  0  0
 22 28  1  0  0  0
 22 32  2  0  0  0
 26 27  1  0  0  0
 28101  1  0  0  0
 28102  1  0  0  0
 29103  1  0  0  0
 29104  1  0  0  0
 33 34  1  0  0  0
 33 66  1  0  0  0
 33 70  2  0  0  0
 34 36  1  0  0  0
 34 59  1  0  0  0
 34105  1  0  0  0
 35 44  2  0  0  0
 35 45  1  0  0  0
 35 68  1  0  0  0
 36 56  1  0  0  0
 36106  1  0  0  0
 37 39  1  0  0  0
 37 47  1  0  0  0
 37 66  1  0  0  0
 37107  1  0  0  0
 38 43  2  0  0  0
 38 46  1  0  0  0
 38 47  1  0  0  0
 39 64  1  0  0  0
 39 67  2  0  0  0
 40 52  1  0  0  0
 40 53  2  0  0  0
 40 58  1  0  0  0
 41108  1  0  0  0
 41109  1  0  0  0
 41110  1  0  0  0
 41 48  1  0  0  0
 42 43  1  0  0  0
 42 66  1  0  0  0
 42111  1  0  0  0
 42112  1  0  0  0
 43 44  1  0  0  0
 44113  1  0  0  0
 45 46  2  0  0  0
 45114  1  0  0  0
 46115  1  0  0  0
 47116  1  0  0  0
 47117  1  0  0  0
 48 56  1  0  0  0
 48 65  1  0  0  0
 48118  1  0  0  0
 49 50  1  0  0  0
 49 53  1  0  0  0
 49 64  1  0  0  0
 49119  1  0  0  0
 50 51  1  0  0  0
 50120  1  0  0  0
 50121  1  0  0  0
 51 52  1  0  0  0
 51122  1  0  0  0
 51123  1  0  0  0
 52124  1  0  0  0
 52125  1  0  0  0
 53 54  1  0  0  0
 54 55  2  0  0  0
 54126  1  0  0  0
 55 57  1  0  0  0
 55127  1  0  0  0
 56 69  2  0  0  0
 57 58  2  0  0  0
 57128  1  0  0  0
 58129  1  0  0  0
 59 60  1  0  0  0
 59 61  1  0  0  0
 59 62  1  0  0  0
 60130  1  0  0  0
 60131  1  0  0  0
 60132  1  0  0  0
 61133  1  0  0  0
 61134  1  0  0  0
 61135  1  0  0  0
 62136  1  0  0  0
 62137  1  0  0  0
 62138  1  0  0  0
 63 65  1  0  0  0
 63139  1  0  0  0
 63140  1  0  0  0
 63141  1  0  0  0
 64142  1  0  0  0
 65143  1  0  0  0
 68 82  1  0  0  0
 71 72  2  0  0  0
 71 75  1  0  0  0
 71144  1  0  0  0
 72 76  1  0  0  0
 72145  1  0  0  0
 73 74  1  0  0  0
 73 76  2  0  0  0
 73146  1  0  0  0
 74 75  2  0  0  0
 74 81  1  0  0  0
 75 83  1  0  0  0
 76 84  1  0  0  0
 77 78  1  0  0  0
 77 79  1  0  0  0
 77147  1  0  0  0
 77148  1  0  0  0
 78 80  1  0  0  0
 78149  1  0  0  0
 78150  1  0  0  0
 79 83  1  0  0  0
 79151  1  0  0  0
 79152  1  0  0  0
 80 82  1  0  0  0
 80 83  1  0  0  0
 80153  1  0  0  0
 81154  1  0  0  0
 81155  1  0  0  0
 81156  1  0  0  0
 82157  1  0  0  0
 82158  1  0  0  0
 84159  1  0  0  0
M  ISO  4   1 100  68 101  82 101  84 100
M  END
> <chiral flag>
0

> <version>
0

> <s_m_source_file>
/data/baiqing/PycharmProjects/Reinvent-master-3.2/result/LINK_invent/BTK/process_docking_weight1_custom_product_contain_oxygen_bond_distance_aromatic_linkinvent_7_9_3/rearranged_h_0023.sdf

> <i_m_source_file_index>
18

> <r_mmod_Potential_Energy-OPLS-2005>
528.343688964844

> <r_mmod_Stretch_Energy-OPLS-2005>
212.576995849609

> <r_mmod_Bend_Energy-OPLS-2005>
314.607818603516

> <r_mmod_Torsional_Energy-OPLS-2005>
304.305511474609

> <r_mmod_Improper_Torsional_Energy-OPLS-2005>
9.91728496551514

> <r_mmod_Van_der_Waal_Energy-OPLS-2005>
131.306869506836

> <r_mmod_Electrostatic_Energy-OPLS-2005>
-398.045959472656

> <r_mmod_Solvation_Energy-OPLS-2005>
-214.169494628906

> <b_mmod_Minimization_Converged-OPLS-2005>
0

> <r_mmod_RMS_Derivative-OPLS-2005>
0.529614627361298

$$$$
18
                    3D
 Structure written by MMmdl.
159168  0  0  1  0            999 V2000
  -30.5145  -14.9053   20.4413 C   0  0  0  0  0  0
  -30.4546  -12.5579   19.4909 C   0  0  0  0  0  0
  -29.5259  -12.5312   18.2524 C   0  0  0  0  0  0
  -28.0557  -12.3220   18.6668 C   0  0  0  0  0  0
  -27.6396  -13.2365   19.8481 C   0  0  2  0  0  0
  -28.6837  -13.2097   20.9861 C   0  0  0  0  0  0
  -25.2506  -13.8193   20.5693 C   0  0  0  0  0  0
  -24.1808  -13.0435   20.9224 C   0  0  0  0  0  0
  -24.6405  -11.6914   20.8756 C   0  0  0  0  0  0
  -23.9079  -10.4291   21.0415 C   0  0  0  0  0  0
  -24.3625   -9.4204   21.9191 C   0  0  0  0  0  0
  -23.6295   -8.2243   22.0757 C   0  0  0  0  0  0
  -22.4277   -8.0285   21.3548 C   0  0  0  0  0  0
  -21.9916   -9.0260   20.4651 C   0  0  0  0  0  0
  -22.7250  -10.2136   20.3063 C   0  0  0  0  0  0
  -21.6853   -6.0738   22.5281 C   0  0  0  0  0  0
  -21.4015   -6.5642   23.8216 C   0  0  0  0  0  0
  -21.3657   -5.6794   24.9176 C   0  0  0  0  0  0
  -21.6044   -4.3058   24.7226 C   0  0  0  0  0  0
  -21.8818   -3.8149   23.4347 C   0  0  0  0  0  0
  -21.9190   -4.6966   22.3403 C   0  0  0  0  0  0
  -22.7829  -13.5216   21.1876 C   0  0  0  0  0  0
  -22.1662   -4.2152   21.0980 F   0  0  0  0  0  0
  -21.5627   -3.4539   25.7736 F   0  0  0  0  0  0
  -29.9696  -13.6259   20.4055 N   0  0  0  0  0  0
  -26.2930  -12.9401   20.3258 N   0  0  0  0  0  0
  -25.9335  -11.6543   20.5742 N   0  0  0  0  0  0
  -22.0472  -12.8209   22.0433 N   0  0  0  0  0  0
  -25.4175  -15.1918   20.4075 N   0  0  0  0  0  0
  -31.7001  -15.0481   20.1188 O   0  0  0  0  0  0
  -21.6641   -6.8883   21.4244 O   0  0  0  0  0  0
  -22.3516  -14.5521   20.6718 O   0  0  0  0  0  0
  -24.6417  -31.8459   23.1905 C   0  0  0  0  0  0
  -25.9198  -32.4705   23.8286 C   0  0  1  0  0  0
  -27.2189  -27.1553   20.1490 C   0  0  0  0  0  0
  -25.5952  -33.8509   24.2200 N   0  0  0  0  0  0
  -23.4443  -30.4663   21.5359 C   0  0  2  0  0  0
  -24.8936  -28.8959   20.1137 C   0  0  0  0  0  0
  -22.7557  -29.4559   22.4871 C   0  0  0  0  0  0
  -18.0303  -28.1395   22.8480 C   0  0  0  0  0  0
  -24.1492  -36.7261   23.2643 C   0  0  0  0  0  0
  -25.9996  -30.7253   21.3874 C   0  0  0  0  0  0
  -26.0711  -29.3379   20.7301 C   0  0  0  0  0  0
  -27.2358  -28.4846   20.7297 C   0  0  0  0  0  0
  -26.0168  -26.8144   19.4897 C   0  0  0  0  0  0
  -24.8779  -27.6461   19.4786 C   0  0  0  0  0  0
  -23.6702  -29.7965   20.1552 C   0  0  0  0  0  0
  -25.4123  -36.3036   24.0317 C   0  0  1  0  0  0
  -20.5915  -28.3719   23.1240 C   0  0  2  0  0  0
  -20.6789  -26.9424   22.5403 C   0  0  0  0  0  0
  -19.5761  -26.6383   21.5213 C   0  0  0  0  0  0
  -18.1943  -26.7935   22.1626 C   0  0  0  0  0  0
  -19.1560  -28.8875   23.2854 C   0  0  0  0  0  0
  -18.9477  -30.1471   23.8878 C   0  0  0  0  0  0
  -17.6474  -30.6592   24.0561 C   0  0  0  0  0  0
  -25.9071  -34.9411   23.5067 C   0  0  0  0  0  0
  -16.5364  -29.9085   23.6337 C   0  0  0  0  0  0
  -16.7288  -28.6504   23.0355 C   0  0  0  0  0  0
  -26.4520  -31.6569   25.0723 C   0  0  0  0  0  0
  -25.3710  -31.3757   26.1423 C   0  0  0  0  0  0
  -27.0381  -30.2965   24.6300 C   0  0  0  0  0  0
  -27.6054  -32.4332   25.7507 C   0  0  0  0  0  0
  -27.5575  -37.1788   24.8465 C   0  0  0  0  0  0
  -21.4253  -29.3050   22.3616 N   0  0  0  0  0  0
  -26.4286  -37.3747   23.9406 N   0  0  0  0  0  0
  -24.7149  -31.0331   22.0930 N   0  0  0  0  0  0
  -23.4207  -28.8108   23.3017 O   0  0  0  0  0  0
  -28.2844  -26.1882   20.1837 O   0  0  0  0  0  0
  -26.5655  -34.8906   22.4644 O   0  0  0  0  0  0
  -23.5541  -32.1329   23.7133 O   0  0  0  0  0  0
  -30.2525  -19.9481   20.2342 C   0  0  0  0  0  0
  -30.5135  -18.5049   20.2245 C   0  0  0  0  0  0
  -28.3108  -18.1277   20.9679 C   0  0  0  0  0  0
  -28.0442  -19.5495   20.9809 C   0  0  0  0  0  0
  -29.0054  -20.5594   20.6270 C   0  0  0  0  0  0
  -29.5486  -17.5075   20.6104 C   0  0  0  0  0  0
  -30.1993  -23.1768   22.3269 C   0  0  0  0  0  0
  -30.3646  -23.7089   20.8994 C   0  0  0  0  0  0
  -28.9623  -22.2668   22.2826 C   0  0  0  0  0  0
  -29.0416  -23.3639   20.2192 C   0  0  2  0  0  0
  -26.6564  -19.9836   21.4293 C   0  0  0  0  0  0
  -27.9995  -24.6775   20.4051 C   0  0  0  0  0  0
  -28.6930  -21.9982   20.8709 N   0  0  0  0  0  0
  -29.6336  -15.9816   20.6871 N   0  0  0  0  0  0
  -31.4867  -12.7308   19.1812 H   0  0  0  0  0  0
  -30.4530  -11.5914   19.9974 H   0  0  0  0  0  0
  -29.8355  -11.7449   17.5626 H   0  0  0  0  0  0
  -29.6203  -13.4708   17.7057 H   0  0  0  0  0  0
  -27.9415  -11.2759   18.9545 H   0  0  0  0  0  0
  -27.3931  -12.4767   17.8143 H   0  0  0  0  0  0
  -27.6184  -14.2489   19.4445 H   0  0  0  0  0  0
  -28.7589  -12.2126   21.4225 H   0  0  0  0  0  0
  -28.3873  -13.8740   21.7994 H   0  0  0  0  0  0
  -25.2771   -9.5674   22.4765 H   0  0  0  0  0  0
  -24.0002   -7.4630   22.7473 H   0  0  0  0  0  0
  -21.0849   -8.8784   19.8955 H   0  0  0  0  0  0
  -22.3716  -10.9676   19.6172 H   0  0  0  0  0  0
  -21.2014   -7.6151   23.9719 H   0  0  0  0  0  0
  -21.1479   -6.0526   25.9079 H   0  0  0  0  0  0
  -22.0597   -2.7610   23.2848 H   0  0  0  0  0  0
  -22.4091  -11.9873   22.4822 H   0  0  0  0  0  0
  -21.1089  -13.1234   22.2635 H   0  0  0  0  0  0
  -24.6341  -15.8306   20.4908 H   0  0  0  0  0  0
  -26.2339  -15.6213   19.9926 H   0  0  0  0  0  0
  -26.7265  -32.5317   23.1018 H   0  0  0  0  0  0
  -25.0074  -33.9627   25.0330 H   0  0  0  0  0  0
  -22.7463  -31.2917   21.3825 H   0  0  0  0  0  0
  -23.3755  -35.9591   23.3296 H   0  0  0  0  0  0
  -24.3577  -36.8902   22.2060 H   0  0  0  0  0  0
  -23.7249  -37.6455   23.6686 H   0  0  0  0  0  0
  -26.1539  -31.4802   20.6151 H   0  0  0  0  0  0
  -26.8706  -30.7746   22.0291 H   0  0  0  0  0  0
  -28.1349  -28.8204   21.2270 H   0  0  0  0  0  0
  -25.9268  -25.8728   18.9712 H   0  0  0  0  0  0
  -23.9819  -27.3060   18.9775 H   0  0  0  0  0  0
  -23.8068  -30.5712   19.3997 H   0  0  0  0  0  0
  -22.7854  -29.2382   19.8446 H   0  0  0  0  0  0
  -25.1312  -36.1864   25.0809 H   0  0  0  0  0  0
  -21.0008  -28.3308   24.1360 H   0  0  0  0  0  0
  -20.5684  -26.2333   23.3620 H   0  0  0  0  0  0
  -21.6655  -26.7430   22.1200 H   0  0  0  0  0  0
  -19.6921  -25.6289   21.1255 H   0  0  0  0  0  0
  -19.6696  -27.3183   20.6733 H   0  0  0  0  0  0
  -17.4211  -26.6678   21.4031 H   0  0  0  0  0  0
  -18.0342  -26.0081   22.9026 H   0  0  0  0  0  0
  -19.7951  -30.7294   24.2240 H   0  0  0  0  0  0
  -17.5024  -31.6270   24.5167 H   0  0  0  0  0  0
  -15.5363  -30.2979   23.7671 H   0  0  0  0  0  0
  -15.8689  -28.0815   22.7081 H   0  0  0  0  0  0
  -24.5889  -30.7105   25.7743 H   0  0  0  0  0  0
  -24.8902  -32.2940   26.4804 H   0  0  0  0  0  0
  -25.7998  -30.8956   27.0229 H   0  0  0  0  0  0
  -26.2994  -29.6695   24.1293 H   0  0  0  0  0  0
  -27.3976  -29.7259   25.4875 H   0  0  0  0  0  0
  -27.8913  -30.4199   23.9625 H   0  0  0  0  0  0
  -27.2650  -33.3650   26.2036 H   0  0  0  0  0  0
  -28.3890  -32.6864   25.0353 H   0  0  0  0  0  0
  -28.0693  -31.8489   26.5463 H   0  0  0  0  0  0
  -28.2586  -38.0090   24.7503 H   0  0  0  0  0  0
  -28.1077  -36.2619   24.6299 H   0  0  0  0  0  0
  -27.2292  -37.1443   25.8867 H   0  0  0  0  0  0
  -20.9460  -29.8764   21.6798 H   0  0  0  0  0  0
  -26.0153  -38.2816   24.1406 H   0  0  0  0  0  0
  -31.0698  -20.6024   19.9676 H   0  0  0  0  0  0
  -31.4974  -18.1725   19.9259 H   0  0  0  0  0  0
  -27.5048  -17.4752   21.2723 H   0  0  0  0  0  0
  -30.0517  -23.9861   23.0436 H   0  0  0  0  0  0
  -31.0894  -22.6258   22.6335 H   0  0  0  0  0  0
  -31.1818  -23.1839   20.4027 H   0  0  0  0  0  0
  -30.5958  -24.7744   20.8660 H   0  0  0  0  0  0
  -28.1001  -22.7726   22.7200 H   0  0  0  0  0  0
  -29.1262  -21.3671   22.8805 H   0  0  0  0  0  0
  -29.2174  -23.2165   19.1526 H   0  0  0  0  0  0
  -25.9523  -19.1514   21.4354 H   0  0  0  0  0  0
  -26.2549  -20.7463   20.7614 H   0  0  0  0  0  0
  -26.6964  -20.3978   22.4372 H   0  0  0  0  0  0
  -27.6408  -24.6443   21.4338 H   0  0  0  0  0  0
  -27.1283  -24.4019   19.8170 H   0  0  0  0  0  0
  -28.7474  -15.5860   20.9604 H   0  0  0  0  0  0
  1 25  1  0  0  0
  1 30  2  0  0  0
  1 84  1  0  0  0
  2  3  1  0  0  0
  2 25  1  0  0  0
  2 85  1  0  0  0
  2 86  1  0  0  0
  3  4  1  0  0  0
  3 87  1  0  0  0
  3 88  1  0  0  0
  4  5  1  0  0  0
  4 89  1  0  0  0
  4 90  1  0  0  0
  5  6  1  0  0  0
  5 26  1  0  0  0
  5 91  1  0  0  0
  6 25  1  0  0  0
  6 92  1  0  0  0
  6 93  1  0  0  0
  7  8  2  0  0  0
  7 26  1  0  0  0
  7 29  1  0  0  0
  8  9  1  0  0  0
  8 22  1  0  0  0
  9 10  1  0  0  0
  9 27  2  0  0  0
 10 11  2  0  0  0
 10 15  1  0  0  0
 11 12  1  0  0  0
 11 94  1  0  0  0
 12 13  2  0  0  0
 12 95  1  0  0  0
 13 14  1  0  0  0
 13 31  1  0  0  0
 14 15  2  0  0  0
 14 96  1  0  0  0
 15 97  1  0  0  0
 16 17  2  0  0  0
 16 21  1  0  0  0
 16 31  1  0  0  0
 17 18  1  0  0  0
 17 98  1  0  0  0
 18 19  2  0  0  0
 18 99  1  0  0  0
 19 20  1  0  0  0
 19 24  1  0  0  0
 20 21  2  0  0  0
 20100  1  0  0  0
 21 23  1  0  0  0
 22 28  1  0  0  0
 22 32  2  0  0  0
 26 27  1  0  0  0
 28101  1  0  0  0
 28102  1  0  0  0
 29103  1  0  0  0
 29104  1  0  0  0
 33 34  1  0  0  0
 33 66  1  0  0  0
 33 70  2  0  0  0
 34 36  1  0  0  0
 34 59  1  0  0  0
 34105  1  0  0  0
 35 44  2  0  0  0
 35 45  1  0  0  0
 35 68  1  0  0  0
 36 56  1  0  0  0
 36106  1  0  0  0
 37 39  1  0  0  0
 37 47  1  0  0  0
 37 66  1  0  0  0
 37107  1  0  0  0
 38 43  2  0  0  0
 38 46  1  0  0  0
 38 47  1  0  0  0
 39 64  1  0  0  0
 39 67  2  0  0  0
 40 52  1  0  0  0
 40 53  2  0  0  0
 40 58  1  0  0  0
 41108  1  0  0  0
 41109  1  0  0  0
 41110  1  0  0  0
 41 48  1  0  0  0
 42 43  1  0  0  0
 42 66  1  0  0  0
 42111  1  0  0  0
 42112  1  0  0  0
 43 44  1  0  0  0
 44113  1  0  0  0
 45 46  2  0  0  0
 45114  1  0  0  0
 46115  1  0  0  0
 47116  1  0  0  0
 47117  1  0  0  0
 48 56  1  0  0  0
 48 65  1  0  0  0
 48118  1  0  0  0
 49 50  1  0  0  0
 49 53  1  0  0  0
 49 64  1  0  0  0
 49119  1  0  0  0
 50 51  1  0  0  0
 50120  1  0  0  0
 50121  1  0  0  0
 51 52  1  0  0  0
 51122  1  0  0  0
 51123  1  0  0  0
 52124  1  0  0  0
 52125  1  0  0  0
 53 54  1  0  0  0
 54 55  2  0  0  0
 54126  1  0  0  0
 55 57  1  0  0  0
 55127  1  0  0  0
 56 69  2  0  0  0
 57 58  2  0  0  0
 57128  1  0  0  0
 58129  1  0  0  0
 59 60  1  0  0  0
 59 61  1  0  0  0
 59 62  1  0  0  0
 60130  1  0  0  0
 60131  1  0  0  0
 60132  1  0  0  0
 61133  1  0  0  0
 61134  1  0  0  0
 61135  1  0  0  0
 62136  1  0  0  0
 62137  1  0  0  0
 62138  1  0  0  0
 63 65  1  0  0  0
 63139  1  0  0  0
 63140  1  0  0  0
 63141  1  0  0  0
 64142  1  0  0  0
 65143  1  0  0  0
 68 82  1  0  0  0
 71 72  2  0  0  0
 71 75  1  0  0  0
 71144  1  0  0  0
 72 76  1  0  0  0
 72145  1  0  0  0
 73 74  1  0  0  0
 73 76  2  0  0  0
 73146  1  0  0  0
 74 75  2  0  0  0
 74 81  1  0  0  0
 75 83  1  0  0  0
 76 84  1  0  0  0
 77 78  1  0  0  0
 77 79  1  0  0  0
 77147  1  0  0  0
 77148  1  0  0  0
 78 80  1  0  0  0
 78149  1  0  0  0
 78150  1  0  0  0
 79 83  1  0  0  0
 79151  1  0  0  0
 79152  1  0  0  0
 80 82  1  0  0  0
 80 83  1  0  0  0
 80153  1  0  0  0
 81154  1  0  0  0
 81155  1  0  0  0
 81156  1  0  0  0
 82157  1  0  0  0
 82158  1  0  0  0
 84159  1  0  0  0
M  ISO  4   1 100  68 101  82 101  84 100
M  END
> <chiral flag>
0

> <version>
0

> <s_m_source_file>
/data/baiqing/PycharmProjects/Reinvent-master-3.2/result/LINK_invent/BTK/process_docking_weight1_custom_product_contain_oxygen_bond_distance_aromatic_linkinvent_7_9_3/rearranged_h_0023.sdf

> <i_m_source_file_index>
19

> <r_mmod_Potential_Energy-OPLS-2005>
528.343688964844

> <r_mmod_Stretch_Energy-OPLS-2005>
212.576995849609

> <r_mmod_Bend_Energy-OPLS-2005>
314.607818603516

> <r_mmod_Torsional_Energy-OPLS-2005>
304.305511474609

> <r_mmod_Improper_Torsional_Energy-OPLS-2005>
9.91728496551514

> <r_mmod_Van_der_Waal_Energy-OPLS-2005>
131.306869506836

> <r_mmod_Electrostatic_Energy-OPLS-2005>
-398.045959472656

> <r_mmod_Solvation_Energy-OPLS-2005>
-214.169494628906

> <b_mmod_Minimization_Converged-OPLS-2005>
0

> <r_mmod_RMS_Derivative-OPLS-2005>
0.529614627361298

$$$$
19
                    3D
 Structure written by MMmdl.
158167  0  0  1  0            999 V2000
  -30.6243  -14.6131   20.5409 C   0  0  0  0  0  0
  -30.4484  -12.3962   19.4368 C   0  0  0  0  0  0
  -29.5016  -12.5194   18.2225 C   0  0  0  0  0  0
  -28.0289  -12.3483   18.6379 C   0  0  0  0  0  0
  -27.6552  -13.2123   19.8649 C   0  0  2  0  0  0
  -28.6987  -13.0328   20.9894 C   0  0  0  0  0  0
  -25.2530  -13.8172   20.5648 C   0  0  0  0  0  0
  -24.1787  -13.0463   20.9203 C   0  0  0  0  0  0
  -24.6366  -11.6957   20.8744 C   0  0  0  0  0  0
  -23.9046  -10.4304   21.0411 C   0  0  0  0  0  0
  -24.3584   -9.4225   21.9207 C   0  0  0  0  0  0
  -23.6250   -8.2253   22.0728 C   0  0  0  0  0  0
  -22.4231   -8.0270   21.3548 C   0  0  0  0  0  0
  -21.9863   -9.0246   20.4671 C   0  0  0  0  0  0
  -22.7204  -10.2125   20.3105 C   0  0  0  0  0  0
  -21.6864   -6.0691   22.5256 C   0  0  0  0  0  0
  -21.3995   -6.5573   23.8187 C   0  0  0  0  0  0
  -21.3673   -5.6740   24.9176 C   0  0  0  0  0  0
  -21.6059   -4.3005   24.7233 C   0  0  0  0  0  0
  -21.8804   -3.8103   23.4351 C   0  0  0  0  0  0
  -21.9189   -4.6922   22.3408 C   0  0  0  0  0  0
  -22.7800  -13.5294   21.1823 C   0  0  0  0  0  0
  -22.1685   -4.2098   21.1003 F   0  0  0  0  0  0
  -21.5675   -3.4526   25.7764 F   0  0  0  0  0  0
  -30.0249  -13.3856   20.4468 N   0  0  0  0  0  0
  -26.2958  -12.9353   20.3278 N   0  0  0  0  0  0
  -25.9283  -11.6527   20.5715 N   0  0  0  0  0  0
  -22.0406  -12.8334   22.0364 N   0  0  0  0  0  0
  -25.4266  -15.1869   20.4070 N   0  0  0  0  0  0
  -31.7744  -14.8082   20.1284 O   0  0  0  0  0  0
  -21.6665   -6.8844   21.4209 O   0  0  0  0  0  0
  -22.3498  -14.5626   20.6700 O   0  0  0  0  0  0
  -24.6281  -31.8579   23.1980 C   0  0  0  0  0  0
  -25.9149  -32.4749   23.8292 C   0  0  1  0  0  0
  -27.2104  -27.2847   20.1219 C   0  0  0  0  0  0
  -25.5949  -33.8551   24.2243 N   0  0  0  0  0  0
  -23.4201  -30.4792   21.5386 C   0  0  2  0  0  0
  -24.8715  -28.9240   20.1121 C   0  0  0  0  0  0
  -22.7471  -29.4603   22.4863 C   0  0  0  0  0  0
  -18.0310  -28.1347   22.8480 C   0  0  0  0  0  0
  -24.1514  -36.7287   23.2598 C   0  0  0  0  0  0
  -25.9680  -30.7754   21.3764 C   0  0  0  0  0  0
  -26.0408  -29.3984   20.7217 C   0  0  0  0  0  0
  -27.2202  -28.5891   20.7147 C   0  0  0  0  0  0
  -26.0238  -26.8663   19.4943 C   0  0  0  0  0  0
  -24.8671  -27.6659   19.4860 C   0  0  0  0  0  0
  -23.6426  -29.8093   20.1562 C   0  0  0  0  0  0
  -25.4123  -36.3080   24.0325 C   0  0  1  0  0  0
  -20.5910  -28.3673   23.1273 C   0  0  2  0  0  0
  -20.6808  -26.9351   22.5467 C   0  0  0  0  0  0
  -19.5780  -26.6268   21.5253 C   0  0  0  0  0  0
  -18.1951  -26.7856   22.1631 C   0  0  0  0  0  0
  -19.1557  -28.8821   23.2867 C   0  0  0  0  0  0
  -18.9459  -30.1445   23.8851 C   0  0  0  0  0  0
  -17.6451  -30.6548   24.0560 C   0  0  0  0  0  0
  -25.9069  -34.9441   23.5090 C   0  0  0  0  0  0
  -16.5361  -29.9047   23.6307 C   0  0  0  0  0  0
  -16.7299  -28.6469   23.0332 C   0  0  0  0  0  0
  -26.4491  -31.6560   25.0683 C   0  0  0  0  0  0
  -25.3717  -31.3845   26.1429 C   0  0  0  0  0  0
  -27.0200  -30.2891   24.6231 C   0  0  0  0  0  0
  -27.6082  -32.4220   25.7449 C   0  0  0  0  0  0
  -27.5615  -37.1777   24.8461 C   0  0  0  0  0  0
  -21.4170  -29.3053   22.3666 N   0  0  0  0  0  0
  -26.4299  -37.3776   23.9435 N   0  0  0  0  0  0
  -24.6901  -31.0569   22.0927 N   0  0  0  0  0  0
  -23.4235  -28.8154   23.2911 O   0  0  0  0  0  0
  -28.3040  -26.4049   20.0896 O   0  0  0  0  0  0
  -26.5617  -34.8933   22.4659 O   0  0  0  0  0  0
  -23.5415  -32.1375   23.7302 O   0  0  0  0  0  0
  -28.4396  -19.1554   21.0097 C   0  0  0  0  0  0
  -28.6169  -17.7597   21.2274 C   0  0  0  0  0  0
  -30.8341  -17.8640   20.2691 C   0  0  0  0  0  0
  -29.4436  -19.9372   20.3724 C   0  0  0  0  0  0
  -29.7923  -17.0667   20.8305 C   0  0  0  0  0  0
  -30.6589  -19.2638   20.0375 C   0  0  0  0  0  0
  -28.9115  -22.4042   20.6743 C   0  0  0  0  0  0
  -27.6915  -22.1046   18.0450 C   0  0  0  0  0  0
  -27.6482  -23.5329   18.6320 C   0  0  0  0  0  0
  -29.0068  -21.4154   18.4266 C   0  0  0  0  0  0
  -28.0047  -23.6123   20.1487 C   0  0  2  0  0  0
  -28.2033  -25.0910   20.7982 C   0  0  0  0  0  0
  -29.1345  -21.2884   19.8887 N   0  0  0  0  0  0
  -29.8132  -15.6155   20.9972 N   0  0  0  0  0  0
  -29.3608  -22.4706   21.8253 O   0  0  0  0  0  0
  -31.6697  -19.9511   19.4466 F   0  0  0  0  0  0
  -31.4831  -12.5318   19.1192 H   0  0  0  0  0  0
  -30.4118  -11.3920   19.8543 H   0  0  0  0  0  0
  -29.7596  -11.7929   17.4531 H   0  0  0  0  0  0
  -29.6255  -13.4966   17.7563 H   0  0  0  0  0  0
  -27.8567  -11.2955   18.8644 H   0  0  0  0  0  0
  -27.3803  -12.5982   17.7996 H   0  0  0  0  0  0
  -27.6866  -14.2480   19.5234 H   0  0  0  0  0  0
  -28.7009  -11.9989   21.3355 H   0  0  0  0  0  0
  -28.4269  -13.6357   21.8563 H   0  0  0  0  0  0
  -25.2716   -9.5710   22.4827 H   0  0  0  0  0  0
  -23.9937   -7.4643   22.7433 H   0  0  0  0  0  0
  -21.0770   -8.8805   19.8999 H   0  0  0  0  0  0
  -22.3640  -10.9672   19.6255 H   0  0  0  0  0  0
  -21.1944   -7.6074   23.9685 H   0  0  0  0  0  0
  -21.1548   -6.0482   25.9088 H   0  0  0  0  0  0
  -22.0581   -2.7558   23.2893 H   0  0  0  0  0  0
  -22.4007  -12.0083   22.4916 H   0  0  0  0  0  0
  -21.1085  -13.1530   22.2649 H   0  0  0  0  0  0
  -24.6511  -15.8346   20.4794 H   0  0  0  0  0  0
  -26.2729  -15.6180   20.0570 H   0  0  0  0  0  0
  -26.7211  -32.5453   23.1012 H   0  0  0  0  0  0
  -25.0183  -33.9682   25.0436 H   0  0  0  0  0  0
  -22.7107  -31.2961   21.3884 H   0  0  0  0  0  0
  -23.3768  -35.9627   23.3253 H   0  0  0  0  0  0
  -24.3613  -36.8887   22.2012 H   0  0  0  0  0  0
  -23.7254  -37.6481   23.6611 H   0  0  0  0  0  0
  -26.1194  -31.5382   20.6132 H   0  0  0  0  0  0
  -26.8366  -30.8136   22.0192 H   0  0  0  0  0  0
  -28.1275  -28.9483   21.1795 H   0  0  0  0  0  0
  -25.9947  -25.9058   19.0116 H   0  0  0  0  0  0
  -23.9778  -27.2925   19.0021 H   0  0  0  0  0  0
  -23.7808  -30.5839   19.4010 H   0  0  0  0  0  0
  -22.7586  -29.2481   19.8434 H   0  0  0  0  0  0
  -25.1275  -36.1909   25.0798 H   0  0  0  0  0  0
  -20.9992  -28.3330   24.1402 H   0  0  0  0  0  0
  -20.5607  -26.2280   23.3704 H   0  0  0  0  0  0
  -21.6706  -26.7338   22.1354 H   0  0  0  0  0  0
  -19.6912  -25.6112   21.1429 H   0  0  0  0  0  0
  -19.6742  -27.2938   20.6678 H   0  0  0  0  0  0
  -17.4196  -26.6545   21.4086 H   0  0  0  0  0  0
  -18.0422  -25.9992   22.9031 H   0  0  0  0  0  0
  -19.7955  -30.7305   24.2131 H   0  0  0  0  0  0
  -17.5010  -31.6218   24.5161 H   0  0  0  0  0  0
  -15.5355  -30.2953   23.7554 H   0  0  0  0  0  0
  -15.8720  -28.0786   22.7045 H   0  0  0  0  0  0
  -24.6018  -30.6963   25.7944 H   0  0  0  0  0  0
  -24.8733  -32.3032   26.4548 H   0  0  0  0  0  0
  -25.8051  -30.9392   27.0401 H   0  0  0  0  0  0
  -26.2757  -29.6706   24.1197 H   0  0  0  0  0  0
  -27.3674  -29.7111   25.4812 H   0  0  0  0  0  0
  -27.8777  -30.3978   23.9571 H   0  0  0  0  0  0
  -27.2738  -33.3526   26.2069 H   0  0  0  0  0  0
  -28.3892  -32.6739   25.0257 H   0  0  0  0  0  0
  -28.0764  -31.8301   26.5332 H   0  0  0  0  0  0
  -28.2619  -38.0081   24.7476 H   0  0  0  0  0  0
  -28.1083  -36.2598   24.6256 H   0  0  0  0  0  0
  -27.2363  -37.1451   25.8868 H   0  0  0  0  0  0
  -20.9267  -29.8800   21.6954 H   0  0  0  0  0  0
  -26.0184  -38.2859   24.1386 H   0  0  0  0  0  0
  -27.4839  -19.6034   21.2653 H   0  0  0  0  0  0
  -27.7945  -17.2146   21.6753 H   0  0  0  0  0  0
  -31.7750  -17.4173   19.9766 H   0  0  0  0  0  0
  -27.5854  -22.1315   16.9562 H   0  0  0  0  0  0
  -26.8482  -21.5074   18.4102 H   0  0  0  0  0  0
  -26.6303  -23.8981   18.4690 H   0  0  0  0  0  0
  -28.3011  -24.1843   18.0490 H   0  0  0  0  0  0
  -29.8586  -21.9734   18.0264 H   0  0  0  0  0  0
  -29.0547  -20.4340   17.9494 H   0  0  0  0  0  0
  -27.0714  -23.2881   20.6166 H   0  0  0  0  0  0
  -29.1175  -25.0609   21.3929 H   0  0  0  0  0  0
  -27.4312  -25.1947   21.5639 H   0  0  0  0  0  0
  -28.9411  -15.2413   21.3389 H   0  0  0  0  0  0
  1 25  1  0  0  0
  1 30  2  0  0  0
  1 84  1  0  0  0
  2  3  1  0  0  0
  2 25  1  0  0  0
  2 87  1  0  0  0
  2 88  1  0  0  0
  3  4  1  0  0  0
  3 89  1  0  0  0
  3 90  1  0  0  0
  4  5  1  0  0  0
  4 91  1  0  0  0
  4 92  1  0  0  0
  5  6  1  0  0  0
  5 26  1  0  0  0
  5 93  1  0  0  0
  6 25  1  0  0  0
  6 94  1  0  0  0
  6 95  1  0  0  0
  7  8  2  0  0  0
  7 26  1  0  0  0
  7 29  1  0  0  0
  8  9  1  0  0  0
  8 22  1  0  0  0
  9 10  1  0  0  0
  9 27  2  0  0  0
 10 11  2  0  0  0
 10 15  1  0  0  0
 11 12  1  0  0  0
 11 96  1  0  0  0
 12 13  2  0  0  0
 12 97  1  0  0  0
 13 14  1  0  0  0
 13 31  1  0  0  0
 14 15  2  0  0  0
 14 98  1  0  0  0
 15 99  1  0  0  0
 16 17  2  0  0  0
 16 21  1  0  0  0
 16 31  1  0  0  0
 17 18  1  0  0  0
 17100  1  0  0  0
 18 19  2  0  0  0
 18101  1  0  0  0
 19 20  1  0  0  0
 19 24  1  0  0  0
 20 21  2  0  0  0
 20102  1  0  0  0
 21 23  1  0  0  0
 22 28  1  0  0  0
 22 32  2  0  0  0
 26 27  1  0  0  0
 28103  1  0  0  0
 28104  1  0  0  0
 29105  1  0  0  0
 29106  1  0  0  0
 33 34  1  0  0  0
 33 66  1  0  0  0
 33 70  2  0  0  0
 34 36  1  0  0  0
 34 59  1  0  0  0
 34107  1  0  0  0
 35 44  2  0  0  0
 35 45  1  0  0  0
 35 68  1  0  0  0
 36 56  1  0  0  0
 36108  1  0  0  0
 37 39  1  0  0  0
 37 47  1  0  0  0
 37 66  1  0  0  0
 37109  1  0  0  0
 38 43  2  0  0  0
 38 46  1  0  0  0
 38 47  1  0  0  0
 39 64  1  0  0  0
 39 67  2  0  0  0
 40 52  1  0  0  0
 40 53  2  0  0  0
 40 58  1  0  0  0
 41110  1  0  0  0
 41111  1  0  0  0
 41112  1  0  0  0
 41 48  1  0  0  0
 42 43  1  0  0  0
 42 66  1  0  0  0
 42113  1  0  0  0
 42114  1  0  0  0
 43 44  1  0  0  0
 44115  1  0  0  0
 45 46  2  0  0  0
 45116  1  0  0  0
 46117  1  0  0  0
 47118  1  0  0  0
 47119  1  0  0  0
 48 56  1  0  0  0
 48 65  1  0  0  0
 48120  1  0  0  0
 49 50  1  0  0  0
 49 53  1  0  0  0
 49 64  1  0  0  0
 49121  1  0  0  0
 50 51  1  0  0  0
 50122  1  0  0  0
 50123  1  0  0  0
 51 52  1  0  0  0
 51124  1  0  0  0
 51125  1  0  0  0
 52126  1  0  0  0
 52127  1  0  0  0
 53 54  1  0  0  0
 54 55  2  0  0  0
 54128  1  0  0  0
 55 57  1  0  0  0
 55129  1  0  0  0
 56 69  2  0  0  0
 57 58  2  0  0  0
 57130  1  0  0  0
 58131  1  0  0  0
 59 60  1  0  0  0
 59 61  1  0  0  0
 59 62  1  0  0  0
 60132  1  0  0  0
 60133  1  0  0  0
 60134  1  0  0  0
 61135  1  0  0  0
 61136  1  0  0  0
 61137  1  0  0  0
 62138  1  0  0  0
 62139  1  0  0  0
 62140  1  0  0  0
 63 65  1  0  0  0
 63141  1  0  0  0
 63142  1  0  0  0
 63143  1  0  0  0
 64144  1  0  0  0
 65145  1  0  0  0
 68 82  1  0  0  0
 71 72  2  0  0  0
 71 74  1  0  0  0
 71146  1  0  0  0
 72 75  1  0  0  0
 72147  1  0  0  0
 73 75  2  0  0  0
 73 76  1  0  0  0
 73148  1  0  0  0
 74 76  2  0  0  0
 74 83  1  0  0  0
 75 84  1  0  0  0
 76 86  1  0  0  0
 77 81  1  0  0  0
 77 83  1  0  0  0
 77 85  2  0  0  0
 78 79  1  0  0  0
 78 80  1  0  0  0
 78149  1  0  0  0
 78150  1  0  0  0
 79 81  1  0  0  0
 79151  1  0  0  0
 79152  1  0  0  0
 80 83  1  0  0  0
 80153  1  0  0  0
 80154  1  0  0  0
 81 82  1  0  0  0
 81155  1  0  0  0
 82156  1  0  0  0
 82157  1  0  0  0
 84158  1  0  0  0
M  ISO  4   1 100  68 101  82 101  84 100
M  END
> <chiral flag>
0

> <version>
0

> <s_m_source_file>
/data/baiqing/PycharmProjects/Reinvent-master-3.2/result/LINK_invent/BTK/process_docking_weight1_custom_product_contain_oxygen_bond_distance_aromatic_linkinvent_7_9_3/rearranged_h_0023.sdf

> <i_m_source_file_index>
20

> <r_mmod_Potential_Energy-OPLS-2005>
240.714477539062

> <r_mmod_Stretch_Energy-OPLS-2005>
96.2031555175781

> <r_mmod_Bend_Energy-OPLS-2005>
173.957412719727

> <r_mmod_Torsional_Energy-OPLS-2005>
331.731506347656

> <r_mmod_Improper_Torsional_Energy-OPLS-2005>
5.76158475875854

> <r_mmod_Van_der_Waal_Energy-OPLS-2005>
139.327911376953

> <r_mmod_Electrostatic_Energy-OPLS-2005>
-338.388824462891

> <r_mmod_Solvation_Energy-OPLS-2005>
-219.654388427734

> <b_mmod_Minimization_Converged-OPLS-2005>
0

> <r_mmod_RMS_Derivative-OPLS-2005>
9.48785305023193

$$$$
20
                    3D
 Structure written by MMmdl.
163172  0  0  1  0            999 V2000
  -30.6412  -14.6958   20.3713 C   0  0  0  0  0  0
  -30.4413  -12.3937   19.4607 C   0  0  0  0  0  0
  -29.5017  -12.3635   18.2329 C   0  0  0  0  0  0
  -28.0211  -12.2829   18.6553 C   0  0  0  0  0  0
  -27.6421  -13.2143   19.8402 C   0  0  2  0  0  0
  -28.7005  -13.1785   20.9618 C   0  0  0  0  0  0
  -25.2559  -13.8177   20.5733 C   0  0  0  0  0  0
  -24.1817  -13.0452   20.9219 C   0  0  0  0  0  0
  -24.6381  -11.6915   20.8793 C   0  0  0  0  0  0
  -23.9056  -10.4297   21.0440 C   0  0  0  0  0  0
  -24.3617   -9.4205   21.9205 C   0  0  0  0  0  0
  -23.6296   -8.2237   22.0763 C   0  0  0  0  0  0
  -22.4279   -8.0281   21.3548 C   0  0  0  0  0  0
  -21.9911   -9.0259   20.4652 C   0  0  0  0  0  0
  -22.7238  -10.2140   20.3071 C   0  0  0  0  0  0
  -21.6850   -6.0743   22.5282 C   0  0  0  0  0  0
  -21.4015   -6.5648   23.8216 C   0  0  0  0  0  0
  -21.3657   -5.6799   24.9177 C   0  0  0  0  0  0
  -21.6039   -4.3062   24.7228 C   0  0  0  0  0  0
  -21.8821   -3.8156   23.4348 C   0  0  0  0  0  0
  -21.9192   -4.6972   22.3405 C   0  0  0  0  0  0
  -22.7837  -13.5248   21.1860 C   0  0  0  0  0  0
  -22.1661   -4.2161   21.0982 F   0  0  0  0  0  0
  -21.5625   -3.4541   25.7738 F   0  0  0  0  0  0
  -29.9965  -13.4849   20.3469 N   0  0  0  0  0  0
  -26.2969  -12.9344   20.3341 N   0  0  0  0  0  0
  -25.9311  -11.6509   20.5847 N   0  0  0  0  0  0
  -22.0468  -12.8240   22.0403 N   0  0  0  0  0  0
  -25.4309  -15.1898   20.4159 N   0  0  0  0  0  0
  -31.8706  -14.7497   20.2885 O   0  0  0  0  0  0
  -21.6638   -6.8882   21.4242 O   0  0  0  0  0  0
  -22.3526  -14.5550   20.6695 O   0  0  0  0  0  0
  -24.6252  -31.8615   23.2042 C   0  0  0  0  0  0
  -25.9108  -32.4782   23.8364 C   0  0  1  0  0  0
  -27.2178  -27.3190   20.1116 C   0  0  0  0  0  0
  -25.5936  -33.8588   24.2291 N   0  0  0  0  0  0
  -23.4172  -30.4873   21.5479 C   0  0  2  0  0  0
  -24.8602  -28.9455   20.1105 C   0  0  0  0  0  0
  -22.7467  -29.4632   22.4945 C   0  0  0  0  0  0
  -18.0281  -28.1381   22.8483 C   0  0  0  0  0  0
  -24.1492  -36.7296   23.2640 C   0  0  0  0  0  0
  -25.9590  -30.7902   21.3769 C   0  0  0  0  0  0
  -26.0286  -29.4186   20.7185 C   0  0  0  0  0  0
  -27.2061  -28.6152   20.7135 C   0  0  0  0  0  0
  -26.0266  -26.9091   19.4634 C   0  0  0  0  0  0
  -24.8615  -27.6961   19.4766 C   0  0  0  0  0  0
  -23.6298  -29.8265   20.1616 C   0  0  0  0  0  0
  -25.4118  -36.3090   24.0328 C   0  0  1  0  0  0
  -20.5880  -28.3681   23.1282 C   0  0  2  0  0  0
  -20.6766  -26.9409   22.5405 C   0  0  0  0  0  0
  -19.5743  -26.6382   21.5209 C   0  0  0  0  0  0
  -18.1922  -26.7922   22.1622 C   0  0  0  0  0  0
  -19.1534  -28.8847   23.2874 C   0  0  0  0  0  0
  -18.9464  -30.1450   23.8889 C   0  0  0  0  0  0
  -17.6465  -30.6582   24.0564 C   0  0  0  0  0  0
  -25.9058  -34.9457   23.5108 C   0  0  0  0  0  0
  -16.5353  -29.9085   23.6327 C   0  0  0  0  0  0
  -16.7269  -28.6503   23.0345 C   0  0  0  0  0  0
  -26.4490  -31.6587   25.0731 C   0  0  0  0  0  0
  -25.3721  -31.3732   26.1457 C   0  0  0  0  0  0
  -27.0328  -30.3008   24.6190 C   0  0  0  0  0  0
  -27.6043  -32.4327   25.7503 C   0  0  0  0  0  0
  -27.5582  -37.1808   24.8468 C   0  0  0  0  0  0
  -21.4181  -29.3038   22.3680 N   0  0  0  0  0  0
  -26.4299  -37.3784   23.9405 N   0  0  0  0  0  0
  -24.6858  -31.0632   22.0994 N   0  0  0  0  0  0
  -23.4198  -28.8163   23.3009 O   0  0  0  0  0  0
  -28.3573  -26.4994   20.1761 O   0  0  0  0  0  0
  -26.5621  -34.8921   22.4672 O   0  0  0  0  0  0
  -23.5414  -32.1424   23.7365 O   0  0  0  0  0  0
  -28.7117  -19.3792   19.9326 C   0  0  0  0  0  0
  -28.7640  -17.9690   19.7413 C   0  0  0  0  0  0
  -30.6602  -17.7972   21.2065 C   0  0  0  0  0  0
  -29.6507  -20.0487   20.7548 C   0  0  0  0  0  0
  -29.7703  -17.1372   20.3185 C   0  0  0  0  0  0
  -30.6007  -19.2115   21.4125 C   0  0  0  0  0  0
  -27.5282  -22.9466   22.8085 C   0  0  0  0  0  0
  -27.9668  -24.3079   22.2797 C   0  0  0  0  0  0
  -27.4061  -22.1108   21.5393 C   0  0  0  0  0  0
  -28.7604  -24.0198   20.9856 C   0  0  2  0  0  0
  -29.8714  -15.7068   18.3550 C   0  0  0  0  0  0
  -29.7525  -21.6205   20.8831 C   0  0  0  0  0  0
  -28.3150  -25.0481   19.8563 C   0  0  0  0  0  0
  -29.9220  -15.7534   19.8326 N   0  0  0  0  0  0
  -28.5450  -22.5266   20.6882 N   0  3  1  0  0  0
  -31.5238  -19.7828   22.2221 F   0  0  0  0  0  0
  -31.4754  -12.5243   19.1367 H   0  0  0  0  0  0
  -30.4101  -11.4435   19.9956 H   0  0  0  0  0  0
  -29.7466  -11.4975   17.6160 H   0  0  0  0  0  0
  -29.6587  -13.2148   17.5793 H   0  0  0  0  0  0
  -27.8385  -11.2461   18.9383 H   0  0  0  0  0  0
  -27.3735  -12.4755   17.7995 H   0  0  0  0  0  0
  -27.6214  -14.2260   19.4414 H   0  0  0  0  0  0
  -28.7255  -12.2035   21.4487 H   0  0  0  0  0  0
  -28.4624  -13.9120   21.7343 H   0  0  0  0  0  0
  -25.2760   -9.5683   22.4785 H   0  0  0  0  0  0
  -24.0011   -7.4623   22.7477 H   0  0  0  0  0  0
  -21.0842   -8.8775   19.8950 H   0  0  0  0  0  0
  -22.3700  -10.9685   19.6185 H   0  0  0  0  0  0
  -21.2009   -7.6156   23.9725 H   0  0  0  0  0  0
  -21.1474   -6.0527   25.9081 H   0  0  0  0  0  0
  -22.0602   -2.7619   23.2843 H   0  0  0  0  0  0
  -22.4068  -11.9908   22.4816 H   0  0  0  0  0  0
  -21.1082  -13.1264   22.2587 H   0  0  0  0  0  0
  -24.6741  -15.8524   20.5429 H   0  0  0  0  0  0
  -26.3004  -15.6267   20.1389 H   0  0  0  0  0  0
  -26.7174  -32.5449   23.1108 H   0  0  0  0  0  0
  -25.0075  -33.9743   25.0429 H   0  0  0  0  0  0
  -22.7099  -31.3070   21.4071 H   0  0  0  0  0  0
  -23.3755  -35.9630   23.3311 H   0  0  0  0  0  0
  -24.3586  -36.8914   22.2056 H   0  0  0  0  0  0
  -23.7246  -37.6502   23.6652 H   0  0  0  0  0  0
  -26.0955  -31.5544   20.6099 H   0  0  0  0  0  0
  -26.8384  -30.8335   22.0082 H   0  0  0  0  0  0
  -28.1016  -28.9756   21.1995 H   0  0  0  0  0  0
  -25.9404  -25.9816   18.9233 H   0  0  0  0  0  0
  -23.9696  -27.3318   18.9846 H   0  0  0  0  0  0
  -23.7500  -30.6056   19.4079 H   0  0  0  0  0  0
  -22.7483  -29.2593   19.8579 H   0  0  0  0  0  0
  -25.1298  -36.1945   25.0821 H   0  0  0  0  0  0
  -20.9967  -28.3256   24.1407 H   0  0  0  0  0  0
  -20.5663  -26.2301   23.3606 H   0  0  0  0  0  0
  -21.6635  -26.7436   22.1207 H   0  0  0  0  0  0
  -19.6911  -25.6296   21.1235 H   0  0  0  0  0  0
  -19.6679  -27.3193   20.6738 H   0  0  0  0  0  0
  -17.4191  -26.6663   21.4024 H   0  0  0  0  0  0
  -18.0323  -26.0071   22.9025 H   0  0  0  0  0  0
  -19.7944  -30.7263   24.2257 H   0  0  0  0  0  0
  -17.5023  -31.6261   24.5168 H   0  0  0  0  0  0
  -15.5352  -30.2985   23.7660 H   0  0  0  0  0  0
  -15.8667  -28.0825   22.7057 H   0  0  0  0  0  0
  -24.5884  -30.7096   25.7792 H   0  0  0  0  0  0
  -24.8921  -32.2900   26.4890 H   0  0  0  0  0  0
  -25.8042  -30.8907   27.0232 H   0  0  0  0  0  0
  -26.2903  -29.6766   24.1205 H   0  0  0  0  0  0
  -27.4010  -29.7261   25.4699 H   0  0  0  0  0  0
  -27.8780  -30.4296   23.9425 H   0  0  0  0  0  0
  -27.2644  -33.3626   26.2080 H   0  0  0  0  0  0
  -28.3850  -32.6900   25.0329 H   0  0  0  0  0  0
  -28.0713  -31.8456   26.5426 H   0  0  0  0  0  0
  -28.2602  -38.0102   24.7507 H   0  0  0  0  0  0
  -28.1070  -36.2634   24.6294 H   0  0  0  0  0  0
  -27.2296  -37.1460   25.8869 H   0  0  0  0  0  0
  -20.9349  -29.8795   21.6929 H   0  0  0  0  0  0
  -26.0182  -38.2862   24.1397 H   0  0  0  0  0  0
  -27.9595  -19.9430   19.3997 H   0  0  0  0  0  0
  -28.0438  -17.5324   19.0627 H   0  0  0  0  0  0
  -31.4592  -17.2439   21.6787 H   0  0  0  0  0  0
  -26.5986  -22.9891   23.3776 H   0  0  0  0  0  0
  -28.2989  -22.5277   23.4573 H   0  0  0  0  0  0
  -28.5508  -24.8679   23.0109 H   0  0  0  0  0  0
  -27.0786  -24.9030   22.0598 H   0  0  0  0  0  0
  -26.4776  -22.3662   21.0260 H   0  0  0  0  0  0
  -27.3655  -21.0426   21.7504 H   0  0  0  0  0  0
  -29.8203  -24.1831   21.1850 H   0  0  0  0  0  0
  -28.9050  -15.3482   18.0040 H   0  0  0  0  0  0
  -30.6552  -15.0837   17.9211 H   0  0  0  0  0  0
  -30.0350  -16.6824   17.8962 H   0  0  0  0  0  0
  -30.5266  -21.9465   20.1884 H   0  0  0  0  0  0
  -30.1513  -21.8294   21.8766 H   0  0  0  0  0  0
  -27.3412  -24.7074   19.5274 H   0  0  0  0  0  0
  -28.9646  -24.9061   18.9924 H   0  0  0  0  0  0
  -28.2685  -22.4173   19.7226 H   0  0  0  0  0  0
  1 25  1  0  0  0
  1 30  2  0  0  0
  1 84  1  0  0  0
  2  3  1  0  0  0
  2 25  1  0  0  0
  2 87  1  0  0  0
  2 88  1  0  0  0
  3  4  1  0  0  0
  3 89  1  0  0  0
  3 90  1  0  0  0
  4  5  1  0  0  0
  4 91  1  0  0  0
  4 92  1  0  0  0
  5  6  1  0  0  0
  5 26  1  0  0  0
  5 93  1  0  0  0
  6 25  1  0  0  0
  6 94  1  0  0  0
  6 95  1  0  0  0
  7  8  2  0  0  0
  7 26  1  0  0  0
  7 29  1  0  0  0
  8  9  1  0  0  0
  8 22  1  0  0  0
  9 10  1  0  0  0
  9 27  2  0  0  0
 10 11  2  0  0  0
 10 15  1  0  0  0
 11 12  1  0  0  0
 11 96  1  0  0  0
 12 13  2  0  0  0
 12 97  1  0  0  0
 13 14  1  0  0  0
 13 31  1  0  0  0
 14 15  2  0  0  0
 14 98  1  0  0  0
 15 99  1  0  0  0
 16 17  2  0  0  0
 16 21  1  0  0  0
 16 31  1  0  0  0
 17 18  1  0  0  0
 17100  1  0  0  0
 18 19  2  0  0  0
 18101  1  0  0  0
 19 20  1  0  0  0
 19 24  1  0  0  0
 20 21  2  0  0  0
 20102  1  0  0  0
 21 23  1  0  0  0
 22 28  1  0  0  0
 22 32  2  0  0  0
 26 27  1  0  0  0
 28103  1  0  0  0
 28104  1  0  0  0
 29105  1  0  0  0
 29106  1  0  0  0
 33 34  1  0  0  0
 33 66  1  0  0  0
 33 70  2  0  0  0
 34 36  1  0  0  0
 34 59  1  0  0  0
 34107  1  0  0  0
 35 44  2  0  0  0
 35 45  1  0  0  0
 35 68  1  0  0  0
 36 56  1  0  0  0
 36108  1  0  0  0
 37 39  1  0  0  0
 37 47  1  0  0  0
 37 66  1  0  0  0
 37109  1  0  0  0
 38 43  2  0  0  0
 38 46  1  0  0  0
 38 47  1  0  0  0
 39 64  1  0  0  0
 39 67  2  0  0  0
 40 52  1  0  0  0
 40 53  2  0  0  0
 40 58  1  0  0  0
 41110  1  0  0  0
 41111  1  0  0  0
 41112  1  0  0  0
 41 48  1  0  0  0
 42 43  1  0  0  0
 42 66  1  0  0  0
 42113  1  0  0  0
 42114  1  0  0  0
 43 44  1  0  0  0
 44115  1  0  0  0
 45 46  2  0  0  0
 45116  1  0  0  0
 46117  1  0  0  0
 47118  1  0  0  0
 47119  1  0  0  0
 48 56  1  0  0  0
 48 65  1  0  0  0
 48120  1  0  0  0
 49 50  1  0  0  0
 49 53  1  0  0  0
 49 64  1  0  0  0
 49121  1  0  0  0
 50 51  1  0  0  0
 50122  1  0  0  0
 50123  1  0  0  0
 51 52  1  0  0  0
 51124  1  0  0  0
 51125  1  0  0  0
 52126  1  0  0  0
 52127  1  0  0  0
 53 54  1  0  0  0
 54 55  2  0  0  0
 54128  1  0  0  0
 55 57  1  0  0  0
 55129  1  0  0  0
 56 69  2  0  0  0
 57 58  2  0  0  0
 57130  1  0  0  0
 58131  1  0  0  0
 59 60  1  0  0  0
 59 61  1  0  0  0
 59 62  1  0  0  0
 60132  1  0  0  0
 60133  1  0  0  0
 60134  1  0  0  0
 61135  1  0  0  0
 61136  1  0  0  0
 61137  1  0  0  0
 62138  1  0  0  0
 62139  1  0  0  0
 62140  1  0  0  0
 63 65  1  0  0  0
 63141  1  0  0  0
 63142  1  0  0  0
 63143  1  0  0  0
 64144  1  0  0  0
 65145  1  0  0  0
 68 83  1  0  0  0
 71 72  2  0  0  0
 71 74  1  0  0  0
 71146  1  0  0  0
 72 75  1  0  0  0
 72147  1  0  0  0
 73 75  2  0  0  0
 73 76  1  0  0  0
 73148  1  0  0  0
 74 76  2  0  0  0
 74 82  1  0  0  0
 75 84  1  0  0  0
 76 86  1  0  0  0
 77 78  1  0  0  0
 77 79  1  0  0  0
 77149  1  0  0  0
 77150  1  0  0  0
 78 80  1  0  0  0
 78151  1  0  0  0
 78152  1  0  0  0
 79 85  1  0  0  0
 79153  1  0  0  0
 79154  1  0  0  0
 80 83  1  0  0  0
 80 85  1  0  0  0
 80155  1  0  0  0
 81 84  1  0  0  0
 81156  1  0  0  0
 81157  1  0  0  0
 81158  1  0  0  0
 82159  1  0  0  0
 82160  1  0  0  0
 82 85  1  0  0  0
 83161  1  0  0  0
 83162  1  0  0  0
 85163  1  0  0  0
M  CHG  1  85   1
M  ISO  4   1 100  68 101  83 101  84 100
M  END
> <chiral flag>
0

> <version>
0

> <s_m_source_file>
/data/baiqing/PycharmProjects/Reinvent-master-3.2/result/LINK_invent/BTK/process_docking_weight1_custom_product_contain_oxygen_bond_distance_aromatic_linkinvent_7_9_3/rearranged_h_0023.sdf

> <i_m_source_file_index>
21

> <r_mmod_Potential_Energy-OPLS-2005>
319.413970947266

> <r_mmod_Stretch_Energy-OPLS-2005>
88.928840637207

> <r_mmod_Bend_Energy-OPLS-2005>
182.652526855469

> <r_mmod_Torsional_Energy-OPLS-2005>
377.273254394531

> <r_mmod_Improper_Torsional_Energy-OPLS-2005>
26.9459533691406

> <r_mmod_Van_der_Waal_Energy-OPLS-2005>
151.028076171875

> <r_mmod_Electrostatic_Energy-OPLS-2005>
-160.018966674805

> <r_mmod_Solvation_Energy-OPLS-2005>
-421.357604980469

> <b_mmod_Minimization_Converged-OPLS-2005>
0

> <r_mmod_RMS_Derivative-OPLS-2005>
1.25289273262024

$$$$
21
                    3D
 Structure written by MMmdl.
155164  0  0  1  0            999 V2000
  -30.6164  -14.6314   20.5106 C   0  0  0  0  0  0
  -30.4426  -12.3888   19.4532 C   0  0  0  0  0  0
  -29.5099  -12.5126   18.2270 C   0  0  0  0  0  0
  -28.0319  -12.3483   18.6372 C   0  0  0  0  0  0
  -27.6548  -13.2136   19.8686 C   0  0  2  0  0  0
  -28.7007  -13.0570   20.9964 C   0  0  0  0  0  0
  -25.2548  -13.8148   20.5682 C   0  0  0  0  0  0
  -24.1822  -13.0410   20.9200 C   0  0  0  0  0  0
  -24.6389  -11.6887   20.8743 C   0  0  0  0  0  0
  -23.9058  -10.4276   21.0400 C   0  0  0  0  0  0
  -24.3606   -9.4188   21.9181 C   0  0  0  0  0  0
  -23.6281   -8.2224   22.0751 C   0  0  0  0  0  0
  -22.4262   -8.0273   21.3539 C   0  0  0  0  0  0
  -21.9890   -9.0252   20.4649 C   0  0  0  0  0  0
  -22.7219  -10.2124   20.3060 C   0  0  0  0  0  0
  -21.6848   -6.0736   22.5280 C   0  0  0  0  0  0
  -21.4020   -6.5634   23.8216 C   0  0  0  0  0  0
  -21.3658   -5.6789   24.9177 C   0  0  0  0  0  0
  -21.6047   -4.3055   24.7224 C   0  0  0  0  0  0
  -21.8814   -3.8142   23.4346 C   0  0  0  0  0  0
  -21.9189   -4.6961   22.3401 C   0  0  0  0  0  0
  -22.7843  -13.5212   21.1855 C   0  0  0  0  0  0
  -22.1656   -4.2142   21.0977 F   0  0  0  0  0  0
  -21.5611   -3.4545   25.7735 F   0  0  0  0  0  0
  -30.0175  -13.4026   20.4361 N   0  0  0  0  0  0
  -26.2991  -12.9327   20.3348 N   0  0  0  0  0  0
  -25.9328  -11.6485   20.5777 N   0  0  0  0  0  0
  -22.0472  -12.8249   22.0430 N   0  0  0  0  0  0
  -25.4215  -15.1871   20.4044 N   0  0  0  0  0  0
  -31.7825  -14.8090   20.1445 O   0  0  0  0  0  0
  -21.6629   -6.8877   21.4241 O   0  0  0  0  0  0
  -22.3542  -14.5518   20.6680 O   0  0  0  0  0  0
  -24.6269  -31.8602   23.2043 C   0  0  0  0  0  0
  -25.9115  -32.4787   23.8377 C   0  0  1  0  0  0
  -27.2205  -27.3170   20.1181 C   0  0  0  0  0  0
  -25.5931  -33.8585   24.2307 N   0  0  0  0  0  0
  -23.4208  -30.4860   21.5453 C   0  0  2  0  0  0
  -24.8676  -28.9469   20.1090 C   0  0  0  0  0  0
  -22.7483  -29.4618   22.4908 C   0  0  0  0  0  0
  -18.0298  -28.1378   22.8480 C   0  0  0  0  0  0
  -24.1482  -36.7295   23.2633 C   0  0  0  0  0  0
  -25.9627  -30.7930   21.3743 C   0  0  0  0  0  0
  -26.0377  -29.4206   20.7160 C   0  0  0  0  0  0
  -27.2182  -28.6184   20.7101 C   0  0  0  0  0  0
  -26.0267  -26.9035   19.4788 C   0  0  0  0  0  0
  -24.8649  -27.6948   19.4796 C   0  0  0  0  0  0
  -23.6371  -29.8281   20.1583 C   0  0  0  0  0  0
  -25.4100  -36.3085   24.0336 C   0  0  1  0  0  0
  -20.5894  -28.3689   23.1271 C   0  0  2  0  0  0
  -20.6781  -26.9409   22.5401 C   0  0  0  0  0  0
  -19.5758  -26.6378   21.5205 C   0  0  0  0  0  0
  -18.1943  -26.7923   22.1620 C   0  0  0  0  0  0
  -19.1547  -28.8848   23.2878 C   0  0  0  0  0  0
  -18.9465  -30.1440   23.8909 C   0  0  0  0  0  0
  -17.6464  -30.6573   24.0562 C   0  0  0  0  0  0
  -25.9038  -34.9453   23.5120 C   0  0  0  0  0  0
  -16.5357  -29.9075   23.6314 C   0  0  0  0  0  0
  -16.7282  -28.6489   23.0344 C   0  0  0  0  0  0
  -26.4500  -31.6579   25.0731 C   0  0  0  0  0  0
  -25.3746  -31.3716   26.1468 C   0  0  0  0  0  0
  -27.0329  -30.3008   24.6153 C   0  0  0  0  0  0
  -27.6074  -32.4294   25.7494 C   0  0  0  0  0  0
  -27.5582  -37.1791   24.8457 C   0  0  0  0  0  0
  -21.4194  -29.3048   22.3664 N   0  0  0  0  0  0
  -26.4276  -37.3783   23.9424 N   0  0  0  0  0  0
  -24.6891  -31.0621   22.0990 N   0  0  0  0  0  0
  -23.4209  -28.8146   23.2982 O   0  0  0  0  0  0
  -28.3269  -26.4511   20.1819 O   0  0  0  0  0  0
  -26.5597  -34.8918   22.4680 O   0  0  0  0  0  0
  -23.5429  -32.1383   23.7377 O   0  0  0  0  0  0
  -28.6681  -19.2866   20.4541 C   0  0  0  0  0  0
  -28.6711  -17.8653   20.5585 C   0  0  0  0  0  0
  -31.0590  -17.8713   20.8006 C   0  0  0  0  0  0
  -29.8614  -20.0547   20.5046 C   0  0  0  0  0  0
  -29.8660  -17.1132   20.7034 C   0  0  0  0  0  0
  -31.0616  -19.3007   20.7385 C   0  0  0  0  0  0
  -30.6374  -22.2494   19.5403 C   0  0  0  0  0  0
  -30.3044  -23.7467   19.5285 C   0  0  0  0  0  0
  -28.6835  -22.4164   20.6965 C   0  0  0  0  0  0
  -29.1490  -23.9177   20.5195 C   0  0  2  0  0  0
  -28.0527  -24.9946   20.1028 C   0  0  0  0  0  0
  -29.8155  -21.5225   20.3291 N   0  0  0  0  0  0
  -29.7715  -15.6612   20.8281 N   0  0  0  0  0  0
  -31.5508  -21.8070   18.8390 O   0  0  0  0  0  0
  -32.5778  -20.0716   21.0607 Cl  0  0  0  0  0  0
  -31.4836  -12.5169   19.1532 H   0  0  0  0  0  0
  -30.3789  -11.3924   19.8927 H   0  0  0  0  0  0
  -29.7713  -11.7678   17.4741 H   0  0  0  0  0  0
  -29.6532  -13.4866   17.7563 H   0  0  0  0  0  0
  -27.8670  -11.2939   18.8635 H   0  0  0  0  0  0
  -27.3787  -12.5844   17.7962 H   0  0  0  0  0  0
  -27.6732  -14.2500   19.5320 H   0  0  0  0  0  0
  -28.7123  -12.0310   21.3659 H   0  0  0  0  0  0
  -28.4489  -13.6771   21.8586 H   0  0  0  0  0  0
  -25.2739   -9.5664   22.4769 H   0  0  0  0  0  0
  -23.9983   -7.4615   22.7471 H   0  0  0  0  0  0
  -21.0805   -8.8771   19.8964 H   0  0  0  0  0  0
  -22.3663  -10.9672   19.6189 H   0  0  0  0  0  0
  -21.2024   -7.6149   23.9715 H   0  0  0  0  0  0
  -21.1484   -6.0523   25.9077 H   0  0  0  0  0  0
  -22.0596   -2.7603   23.2847 H   0  0  0  0  0  0
  -22.4073  -11.9933   22.4864 H   0  0  0  0  0  0
  -21.1093  -13.1307   22.2618 H   0  0  0  0  0  0
  -24.6345  -15.8234   20.4784 H   0  0  0  0  0  0
  -26.2391  -15.6173   19.9930 H   0  0  0  0  0  0
  -26.7187  -32.5462   23.1130 H   0  0  0  0  0  0
  -25.0105  -33.9735   25.0472 H   0  0  0  0  0  0
  -22.7147  -31.3066   21.4043 H   0  0  0  0  0  0
  -23.3752  -35.9618   23.3267 H   0  0  0  0  0  0
  -24.3592  -36.8935   22.2053 H   0  0  0  0  0  0
  -23.7216  -37.6486   23.6661 H   0  0  0  0  0  0
  -26.0905  -31.5557   20.6048 H   0  0  0  0  0  0
  -26.8458  -30.8455   21.9993 H   0  0  0  0  0  0
  -28.1150  -28.9764   21.1968 H   0  0  0  0  0  0
  -25.9562  -25.9507   18.9768 H   0  0  0  0  0  0
  -23.9703  -27.3311   18.9931 H   0  0  0  0  0  0
  -23.7633  -30.6096   19.4078 H   0  0  0  0  0  0
  -22.7571  -29.2619   19.8482 H   0  0  0  0  0  0
  -25.1265  -36.1941   25.0827 H   0  0  0  0  0  0
  -20.9994  -28.3271   24.1389 H   0  0  0  0  0  0
  -20.5673  -26.2303   23.3604 H   0  0  0  0  0  0
  -21.6652  -26.7422   22.1205 H   0  0  0  0  0  0
  -19.6921  -25.6289   21.1238 H   0  0  0  0  0  0
  -19.6701  -27.3183   20.6733 H   0  0  0  0  0  0
  -17.4208  -26.6660   21.4032 H   0  0  0  0  0  0
  -18.0354  -26.0065   22.9014 H   0  0  0  0  0  0
  -19.7938  -30.7250   24.2303 H   0  0  0  0  0  0
  -17.5012  -31.6258   24.5158 H   0  0  0  0  0  0
  -15.5358  -30.2978   23.7617 H   0  0  0  0  0  0
  -15.8688  -28.0800   22.7060 H   0  0  0  0  0  0
  -24.5927  -30.7053   25.7809 H   0  0  0  0  0  0
  -24.8940  -32.2884   26.4892 H   0  0  0  0  0  0
  -25.8088  -30.8904   27.0241 H   0  0  0  0  0  0
  -26.2891  -29.6770   24.1187 H   0  0  0  0  0  0
  -27.4057  -29.7246   25.4628 H   0  0  0  0  0  0
  -27.8748  -30.4309   23.9350 H   0  0  0  0  0  0
  -27.2707  -33.3593   26.2087 H   0  0  0  0  0  0
  -28.3881  -32.6847   25.0315 H   0  0  0  0  0  0
  -28.0744  -31.8404   26.5395 H   0  0  0  0  0  0
  -28.2563  -38.0120   24.7546 H   0  0  0  0  0  0
  -28.1109  -36.2660   24.6208 H   0  0  0  0  0  0
  -27.2322  -37.1351   25.8862 H   0  0  0  0  0  0
  -20.9364  -29.8799   21.6900 H   0  0  0  0  0  0
  -26.0156  -38.2849   24.1467 H   0  0  0  0  0  0
  -27.7185  -19.7834   20.3197 H   0  0  0  0  0  0
  -27.7218  -17.3509   20.5188 H   0  0  0  0  0  0
  -31.9973  -17.3618   20.9644 H   0  0  0  0  0  0
  -30.0088  -24.0290   18.5181 H   0  0  0  0  0  0
  -31.1704  -24.3450   19.8129 H   0  0  0  0  0  0
  -27.8459  -22.2003   20.0309 H   0  0  0  0  0  0
  -28.3507  -22.2198   21.7162 H   0  0  0  0  0  0
  -29.5678  -24.2314   21.4770 H   0  0  0  0  0  0
  -27.1810  -24.7940   20.7285 H   0  0  0  0  0  0
  -27.7501  -24.7589   19.0820 H   0  0  0  0  0  0
  -28.8457  -15.3223   21.0391 H   0  0  0  0  0  0
  1 25  1  0  0  0
  1 30  2  0  0  0
  1 83  1  0  0  0
  2  3  1  0  0  0
  2 25  1  0  0  0
  2 86  1  0  0  0
  2 87  1  0  0  0
  3  4  1  0  0  0
  3 88  1  0  0  0
  3 89  1  0  0  0
  4  5  1  0  0  0
  4 90  1  0  0  0
  4 91  1  0  0  0
  5  6  1  0  0  0
  5 26  1  0  0  0
  5 92  1  0  0  0
  6 25  1  0  0  0
  6 93  1  0  0  0
  6 94  1  0  0  0
  7  8  2  0  0  0
  7 26  1  0  0  0
  7 29  1  0  0  0
  8  9  1  0  0  0
  8 22  1  0  0  0
  9 10  1  0  0  0
  9 27  2  0  0  0
 10 11  2  0  0  0
 10 15  1  0  0  0
 11 12  1  0  0  0
 11 95  1  0  0  0
 12 13  2  0  0  0
 12 96  1  0  0  0
 13 14  1  0  0  0
 13 31  1  0  0  0
 14 15  2  0  0  0
 14 97  1  0  0  0
 15 98  1  0  0  0
 16 17  2  0  0  0
 16 21  1  0  0  0
 16 31  1  0  0  0
 17 18  1  0  0  0
 17 99  1  0  0  0
 18 19  2  0  0  0
 18100  1  0  0  0
 19 20  1  0  0  0
 19 24  1  0  0  0
 20 21  2  0  0  0
 20101  1  0  0  0
 21 23  1  0  0  0
 22 28  1  0  0  0
 22 32  2  0  0  0
 26 27  1  0  0  0
 28102  1  0  0  0
 28103  1  0  0  0
 29104  1  0  0  0
 29105  1  0  0  0
 33 34  1  0  0  0
 33 66  1  0  0  0
 33 70  2  0  0  0
 34 36  1  0  0  0
 34 59  1  0  0  0
 34106  1  0  0  0
 35 44  2  0  0  0
 35 45  1  0  0  0
 35 68  1  0  0  0
 36 56  1  0  0  0
 36107  1  0  0  0
 37 39  1  0  0  0
 37 47  1  0  0  0
 37 66  1  0  0  0
 37108  1  0  0  0
 38 43  2  0  0  0
 38 46  1  0  0  0
 38 47  1  0  0  0
 39 64  1  0  0  0
 39 67  2  0  0  0
 40 52  1  0  0  0
 40 53  2  0  0  0
 40 58  1  0  0  0
 41109  1  0  0  0
 41110  1  0  0  0
 41111  1  0  0  0
 41 48  1  0  0  0
 42 43  1  0  0  0
 42 66  1  0  0  0
 42112  1  0  0  0
 42113  1  0  0  0
 43 44  1  0  0  0
 44114  1  0  0  0
 45 46  2  0  0  0
 45115  1  0  0  0
 46116  1  0  0  0
 47117  1  0  0  0
 47118  1  0  0  0
 48 56  1  0  0  0
 48 65  1  0  0  0
 48119  1  0  0  0
 49 50  1  0  0  0
 49 53  1  0  0  0
 49 64  1  0  0  0
 49120  1  0  0  0
 50 51  1  0  0  0
 50121  1  0  0  0
 50122  1  0  0  0
 51 52  1  0  0  0
 51123  1  0  0  0
 51124  1  0  0  0
 52125  1  0  0  0
 52126  1  0  0  0
 53 54  1  0  0  0
 54 55  2  0  0  0
 54127  1  0  0  0
 55 57  1  0  0  0
 55128  1  0  0  0
 56 69  2  0  0  0
 57 58  2  0  0  0
 57129  1  0  0  0
 58130  1  0  0  0
 59 60  1  0  0  0
 59 61  1  0  0  0
 59 62  1  0  0  0
 60131  1  0  0  0
 60132  1  0  0  0
 60133  1  0  0  0
 61134  1  0  0  0
 61135  1  0  0  0
 61136  1  0  0  0
 62137  1  0  0  0
 62138  1  0  0  0
 62139  1  0  0  0
 63 65  1  0  0  0
 63140  1  0  0  0
 63141  1  0  0  0
 63142  1  0  0  0
 64143  1  0  0  0
 65144  1  0  0  0
 68 81  1  0  0  0
 71 72  2  0  0  0
 71 74  1  0  0  0
 71145  1  0  0  0
 72 75  1  0  0  0
 72146  1  0  0  0
 73 75  2  0  0  0
 73 76  1  0  0  0
 73147  1  0  0  0
 74 76  2  0  0  0
 74 82  1  0  0  0
 75 83  1  0  0  0
 76 85  1  0  0  0
 77 78  1  0  0  0
 77 82  1  0  0  0
 77 84  2  0  0  0
 78 80  1  0  0  0
 78148  1  0  0  0
 78149  1  0  0  0
 79 80  1  0  0  0
 79 82  1  0  0  0
 79150  1  0  0  0
 79151  1  0  0  0
 80 81  1  0  0  0
 80152  1  0  0  0
 81153  1  0  0  0
 81154  1  0  0  0
 83155  1  0  0  0
M  ISO  4   1 100  68 101  81 101  83 100
M  END
> <chiral flag>
0

> <version>
0

> <s_m_source_file>
/data/baiqing/PycharmProjects/Reinvent-master-3.2/result/LINK_invent/BTK/process_docking_weight1_custom_product_contain_oxygen_bond_distance_aromatic_linkinvent_7_9_3/rearranged_h_0023.sdf

> <i_m_source_file_index>
22

> <r_mmod_Potential_Energy-OPLS-2005>
119.584396362305

> <r_mmod_Stretch_Energy-OPLS-2005>
79.1779937744141

> <r_mmod_Bend_Energy-OPLS-2005>
160.687805175781

> <r_mmod_Torsional_Energy-OPLS-2005>
279.815460205078

> <r_mmod_Improper_Torsional_Energy-OPLS-2005>
6.21020364761353

> <r_mmod_Van_der_Waal_Energy-OPLS-2005>
145.426162719727

> <r_mmod_Electrostatic_Energy-OPLS-2005>
-369.132537841797

> <r_mmod_Solvation_Energy-OPLS-2005>
-232.244613647461

> <b_mmod_Minimization_Converged-OPLS-2005>
0

> <r_mmod_RMS_Derivative-OPLS-2005>
1.90557706356049

$$$$
22
                    3D
 Structure written by MMmdl.
155163  0  0  1  0            999 V2000
  -30.6953  -14.6098   20.5114 C   0  0  0  0  0  0
  -30.4227  -12.3879   19.4363 C   0  0  0  0  0  0
  -29.4954  -12.5213   18.2097 C   0  0  0  0  0  0
  -28.0175  -12.3721   18.6222 C   0  0  0  0  0  0
  -27.6538  -13.2244   19.8691 C   0  0  2  0  0  0
  -28.7047  -13.0534   20.9857 C   0  0  0  0  0  0
  -25.2559  -13.8195   20.5710 C   0  0  0  0  0  0
  -24.1828  -13.0438   20.9199 C   0  0  0  0  0  0
  -24.6410  -11.6912   20.8745 C   0  0  0  0  0  0
  -23.9082  -10.4277   21.0401 C   0  0  0  0  0  0
  -24.3626   -9.4196   21.9181 C   0  0  0  0  0  0
  -23.6292   -8.2239   22.0752 C   0  0  0  0  0  0
  -22.4280   -8.0285   21.3535 C   0  0  0  0  0  0
  -21.9924   -9.0263   20.4643 C   0  0  0  0  0  0
  -22.7257  -10.2130   20.3049 C   0  0  0  0  0  0
  -21.6846   -6.0749   22.5270 C   0  0  0  0  0  0
  -21.4004   -6.5651   23.8204 C   0  0  0  0  0  0
  -21.3655   -5.6797   24.9172 C   0  0  0  0  0  0
  -21.6043   -4.3062   24.7222 C   0  0  0  0  0  0
  -21.8816   -3.8161   23.4338 C   0  0  0  0  0  0
  -21.9185   -4.6976   22.3395 C   0  0  0  0  0  0
  -22.7842  -13.5222   21.1853 C   0  0  0  0  0  0
  -22.1656   -4.2159   21.0971 F   0  0  0  0  0  0
  -21.5635   -3.4546   25.7739 F   0  0  0  0  0  0
  -30.0117  -13.4189   20.4157 N   0  0  0  0  0  0
  -26.3009  -12.9389   20.3386 N   0  0  0  0  0  0
  -25.9347  -11.6527   20.5780 N   0  0  0  0  0  0
  -22.0472  -12.8193   22.0394 N   0  0  0  0  0  0
  -25.4250  -15.1916   20.4136 N   0  0  0  0  0  0
  -31.8574  -14.6725   20.0993 O   0  0  0  0  0  0
  -21.6628   -6.8892   21.4236 O   0  0  0  0  0  0
  -22.3507  -14.5520   20.6693 O   0  0  0  0  0  0
  -24.6267  -31.8584   23.2065 C   0  0  0  0  0  0
  -25.9125  -32.4744   23.8384 C   0  0  1  0  0  0
  -27.2052  -27.3339   20.1157 C   0  0  0  0  0  0
  -25.5906  -33.8553   24.2286 N   0  0  0  0  0  0
  -23.4172  -30.4902   21.5456 C   0  0  2  0  0  0
  -24.8601  -28.9540   20.1036 C   0  0  0  0  0  0
  -22.7443  -29.4637   22.4884 C   0  0  0  0  0  0
  -18.0269  -28.1370   22.8472 C   0  0  0  0  0  0
  -24.1470  -36.7301   23.2645 C   0  0  0  0  0  0
  -25.9592  -30.7942   21.3779 C   0  0  0  0  0  0
  -26.0293  -29.4263   20.7154 C   0  0  0  0  0  0
  -27.2088  -28.6282   20.7120 C   0  0  0  0  0  0
  -26.0264  -26.9193   19.4584 C   0  0  0  0  0  0
  -24.8600  -27.7042   19.4651 C   0  0  0  0  0  0
  -23.6306  -29.8374   20.1565 C   0  0  0  0  0  0
  -25.4086  -36.3060   24.0322 C   0  0  1  0  0  0
  -20.5871  -28.3680   23.1233 C   0  0  2  0  0  0
  -20.6752  -26.9392   22.5380 C   0  0  0  0  0  0
  -19.5720  -26.6371   21.5176 C   0  0  0  0  0  0
  -18.1906  -26.7912   22.1604 C   0  0  0  0  0  0
  -19.1524  -28.8838   23.2856 C   0  0  0  0  0  0
  -18.9479  -30.1449   23.8860 C   0  0  0  0  0  0
  -17.6485  -30.6575   24.0569 C   0  0  0  0  0  0
  -25.9028  -34.9432   23.5105 C   0  0  0  0  0  0
  -16.5372  -29.9080   23.6332 C   0  0  0  0  0  0
  -16.7263  -28.6508   23.0324 C   0  0  0  0  0  0
  -26.4522  -31.6562   25.0768 C   0  0  0  0  0  0
  -25.3774  -31.3698   26.1517 C   0  0  0  0  0  0
  -27.0404  -30.2979   24.6278 C   0  0  0  0  0  0
  -27.6079  -32.4326   25.7510 C   0  0  0  0  0  0
  -27.5563  -37.1790   24.8447 C   0  0  0  0  0  0
  -21.4159  -29.3053   22.3642 N   0  0  0  0  0  0
  -26.4242  -37.3777   23.9438 N   0  0  0  0  0  0
  -24.6867  -31.0629   22.0996 N   0  0  0  0  0  0
  -23.4171  -28.8153   23.2944 O   0  0  0  0  0  0
  -28.2905  -26.4573   20.1674 O   0  0  0  0  0  0
  -26.5614  -34.8914   22.4682 O   0  0  0  0  0  0
  -23.5429  -32.1373   23.7393 O   0  0  0  0  0  0
  -28.5037  -18.7638   20.5754 C   0  0  0  0  0  0
  -30.1782  -20.9856   20.2153 C   0  0  0  0  0  0
  -29.8626  -18.5021   20.2600 C   0  0  0  0  0  0
  -28.8255  -21.2374   20.5428 C   0  0  0  0  0  0
  -28.0058  -20.0899   20.7235 C   0  0  0  0  0  0
  -30.6854  -19.6600   20.0734 C   0  0  0  0  0  0
  -29.3555  -16.0154   22.0285 C   0  0  0  0  0  0
  -30.4254  -17.0475   19.9956 C   0  0  0  0  0  0
  -28.8042  -23.8437   20.2183 C   0  0  0  0  0  0
  -27.9893  -25.1159   20.7114 C   0  0  0  0  0  0
  -28.2574  -22.5435   20.7066 N   0  0  0  0  0  0
  -30.0013  -15.7895   20.7327 N   0  0  0  0  0  0
  -26.6958  -20.2643   21.0330 F   0  0  0  0  0  0
  -32.3507  -19.5093   19.6286 Cl  0  0  0  0  0  0
  -31.4637  -12.4856   19.1242 H   0  0  0  0  0  0
  -30.3458  -11.3893   19.8705 H   0  0  0  0  0  0
  -29.7514  -11.7751   17.4565 H   0  0  0  0  0  0
  -29.6470  -13.4946   17.7399 H   0  0  0  0  0  0
  -27.8414  -11.3162   18.8332 H   0  0  0  0  0  0
  -27.3637  -12.6283   17.7879 H   0  0  0  0  0  0
  -27.6792  -14.2674   19.5561 H   0  0  0  0  0  0
  -28.7229  -12.0144   21.3199 H   0  0  0  0  0  0
  -28.4449  -13.6269   21.8704 H   0  0  0  0  0  0
  -25.2769   -9.5652   22.4767 H   0  0  0  0  0  0
  -23.9994   -7.4627   22.7474 H   0  0  0  0  0  0
  -21.0857   -8.8798   19.8937 H   0  0  0  0  0  0
  -22.3744  -10.9680   19.6162 H   0  0  0  0  0  0
  -21.1990   -7.6154   23.9718 H   0  0  0  0  0  0
  -21.1485   -6.0528   25.9071 H   0  0  0  0  0  0
  -22.0600   -2.7626   23.2846 H   0  0  0  0  0  0
  -22.4100  -11.9868   22.4787 H   0  0  0  0  0  0
  -21.1073  -13.1191   22.2572 H   0  0  0  0  0  0
  -24.6568  -15.8441   20.5255 H   0  0  0  0  0  0
  -26.2811  -15.6343   20.1057 H   0  0  0  0  0  0
  -26.7199  -32.5457   23.1140 H   0  0  0  0  0  0
  -25.0028  -33.9686   25.0411 H   0  0  0  0  0  0
  -22.7129  -31.3145   21.4110 H   0  0  0  0  0  0
  -23.3721  -35.9630   23.3213 H   0  0  0  0  0  0
  -24.3570  -36.9037   22.2081 H   0  0  0  0  0  0
  -23.7246  -37.6478   23.6744 H   0  0  0  0  0  0
  -26.0945  -31.5557   20.6092 H   0  0  0  0  0  0
  -26.8382  -30.8378   22.0097 H   0  0  0  0  0  0
  -28.1060  -28.9809   21.2011 H   0  0  0  0  0  0
  -25.9946  -25.9675   18.9476 H   0  0  0  0  0  0
  -23.9645  -27.3427   18.9773 H   0  0  0  0  0  0
  -23.7592  -30.6233   19.4117 H   0  0  0  0  0  0
  -22.7460  -29.2797   19.8432 H   0  0  0  0  0  0
  -25.1253  -36.1897   25.0805 H   0  0  0  0  0  0
  -20.9985  -28.3289   24.1338 H   0  0  0  0  0  0
  -20.5609  -26.2299   23.3595 H   0  0  0  0  0  0
  -21.6628  -26.7370   22.1211 H   0  0  0  0  0  0
  -19.6867  -25.6276   21.1219 H   0  0  0  0  0  0
  -19.6650  -27.3170   20.6698 H   0  0  0  0  0  0
  -17.4167  -26.6647   21.4021 H   0  0  0  0  0  0
  -18.0313  -26.0037   22.8993 H   0  0  0  0  0  0
  -19.7964  -30.7282   24.2177 H   0  0  0  0  0  0
  -17.5049  -31.6243   24.5197 H   0  0  0  0  0  0
  -15.5381  -30.2998   23.7658 H   0  0  0  0  0  0
  -15.8658  -28.0872   22.6984 H   0  0  0  0  0  0
  -24.5871  -30.7105   25.7902 H   0  0  0  0  0  0
  -24.9043  -32.2856   26.5053 H   0  0  0  0  0  0
  -25.8120  -30.8808   27.0239 H   0  0  0  0  0  0
  -26.3007  -29.6665   24.1346 H   0  0  0  0  0  0
  -27.4136  -29.7300   25.4820 H   0  0  0  0  0  0
  -27.8832  -30.4251   23.9484 H   0  0  0  0  0  0
  -27.2699  -33.3672   26.1993 H   0  0  0  0  0  0
  -28.3911  -32.6829   25.0340 H   0  0  0  0  0  0
  -28.0685  -31.8509   26.5498 H   0  0  0  0  0  0
  -28.2530  -38.0139   24.7566 H   0  0  0  0  0  0
  -28.1123  -36.2688   24.6164 H   0  0  0  0  0  0
  -27.2303  -37.1299   25.8852 H   0  0  0  0  0  0
  -20.9316  -29.8854   21.6938 H   0  0  0  0  0  0
  -26.0103  -38.2826   24.1516 H   0  0  0  0  0  0
  -27.8152  -17.9408   20.6872 H   0  0  0  0  0  0
  -30.8529  -21.8151   20.0662 H   0  0  0  0  0  0
  -28.2718  -15.9256   21.9366 H   0  0  0  0  0  0
  -29.5823  -17.0034   22.4284 H   0  0  0  0  0  0
  -29.6976  -15.3049   22.7834 H   0  0  0  0  0  0
  -31.5090  -17.1065   20.0869 H   0  0  0  0  0  0
  -30.2488  -16.8548   18.9345 H   0  0  0  0  0  0
  -29.8474  -23.9400   20.5189 H   0  0  0  0  0  0
  -28.7882  -23.8203   19.1281 H   0  0  0  0  0  0
  -28.1078  -25.1991   21.7921 H   0  0  0  0  0  0
  -26.9361  -24.8682   20.5869 H   0  0  0  0  0  0
  -27.2609  -22.5343   20.9164 H   0  0  0  0  0  0
  1 25  1  0  0  0
  1 30  2  0  0  0
  1 82  1  0  0  0
  2  3  1  0  0  0
  2 25  1  0  0  0
  2 85  1  0  0  0
  2 86  1  0  0  0
  3  4  1  0  0  0
  3 87  1  0  0  0
  3 88  1  0  0  0
  4  5  1  0  0  0
  4 89  1  0  0  0
  4 90  1  0  0  0
  5  6  1  0  0  0
  5 26  1  0  0  0
  5 91  1  0  0  0
  6 25  1  0  0  0
  6 92  1  0  0  0
  6 93  1  0  0  0
  7  8  2  0  0  0
  7 26  1  0  0  0
  7 29  1  0  0  0
  8  9  1  0  0  0
  8 22  1  0  0  0
  9 10  1  0  0  0
  9 27  2  0  0  0
 10 11  2  0  0  0
 10 15  1  0  0  0
 11 12  1  0  0  0
 11 94  1  0  0  0
 12 13  2  0  0  0
 12 95  1  0  0  0
 13 14  1  0  0  0
 13 31  1  0  0  0
 14 15  2  0  0  0
 14 96  1  0  0  0
 15 97  1  0  0  0
 16 17  2  0  0  0
 16 21  1  0  0  0
 16 31  1  0  0  0
 17 18  1  0  0  0
 17 98  1  0  0  0
 18 19  2  0  0  0
 18 99  1  0  0  0
 19 20  1  0  0  0
 19 24  1  0  0  0
 20 21  2  0  0  0
 20100  1  0  0  0
 21 23  1  0  0  0
 22 28  1  0  0  0
 22 32  2  0  0  0
 26 27  1  0  0  0
 28101  1  0  0  0
 28102  1  0  0  0
 29103  1  0  0  0
 29104  1  0  0  0
 33 34  1  0  0  0
 33 66  1  0  0  0
 33 70  2  0  0  0
 34 36  1  0  0  0
 34 59  1  0  0  0
 34105  1  0  0  0
 35 44  2  0  0  0
 35 45  1  0  0  0
 35 68  1  0  0  0
 36 56  1  0  0  0
 36106  1  0  0  0
 37 39  1  0  0  0
 37 47  1  0  0  0
 37 66  1  0  0  0
 37107  1  0  0  0
 38 43  2  0  0  0
 38 46  1  0  0  0
 38 47  1  0  0  0
 39 64  1  0  0  0
 39 67  2  0  0  0
 40 52  1  0  0  0
 40 53  2  0  0  0
 40 58  1  0  0  0
 41108  1  0  0  0
 41109  1  0  0  0
 41110  1  0  0  0
 41 48  1  0  0  0
 42 43  1  0  0  0
 42 66  1  0  0  0
 42111  1  0  0  0
 42112  1  0  0  0
 43 44  1  0  0  0
 44113  1  0  0  0
 45 46  2  0  0  0
 45114  1  0  0  0
 46115  1  0  0  0
 47116  1  0  0  0
 47117  1  0  0  0
 48 56  1  0  0  0
 48 65  1  0  0  0
 48118  1  0  0  0
 49 50  1  0  0  0
 49 53  1  0  0  0
 49 64  1  0  0  0
 49119  1  0  0  0
 50 51  1  0  0  0
 50120  1  0  0  0
 50121  1  0  0  0
 51 52  1  0  0  0
 51122  1  0  0  0
 51123  1  0  0  0
 52124  1  0  0  0
 52125  1  0  0  0
 53 54  1  0  0  0
 54 55  2  0  0  0
 54126  1  0  0  0
 55 57  1  0  0  0
 55127  1  0  0  0
 56 69  2  0  0  0
 57 58  2  0  0  0
 57128  1  0  0  0
 58129  1  0  0  0
 59 60  1  0  0  0
 59 61  1  0  0  0
 59 62  1  0  0  0
 60130  1  0  0  0
 60131  1  0  0  0
 60132  1  0  0  0
 61133  1  0  0  0
 61134  1  0  0  0
 61135  1  0  0  0
 62136  1  0  0  0
 62137  1  0  0  0
 62138  1  0  0  0
 63 65  1  0  0  0
 63139  1  0  0  0
 63140  1  0  0  0
 63141  1  0  0  0
 64142  1  0  0  0
 65143  1  0  0  0
 68 80  1  0  0  0
 71 73  2  0  0  0
 71 75  1  0  0  0
 71144  1  0  0  0
 72 74  1  0  0  0
 72 76  2  0  0  0
 72145  1  0  0  0
 73 76  1  0  0  0
 73 78  1  0  0  0
 74 75  2  0  0  0
 74 81  1  0  0  0
 75 83  1  0  0  0
 76 84  1  0  0  0
 77 82  1  0  0  0
 77146  1  0  0  0
 77147  1  0  0  0
 77148  1  0  0  0
 78 82  1  0  0  0
 78149  1  0  0  0
 78150  1  0  0  0
 79 80  1  0  0  0
 79 81  1  0  0  0
 79151  1  0  0  0
 79152  1  0  0  0
 80153  1  0  0  0
 80154  1  0  0  0
 81155  1  0  0  0
M  ISO  4   1 100  68 101  80 101  82 100
M  END
> <chiral flag>
0

> <version>
0

> <s_m_source_file>
/data/baiqing/PycharmProjects/Reinvent-master-3.2/result/LINK_invent/BTK/process_docking_weight1_custom_product_contain_oxygen_bond_distance_aromatic_linkinvent_7_9_3/rearranged_h_0023.sdf

> <i_m_source_file_index>
23

> <r_mmod_Potential_Energy-OPLS-2005>
228.021865844727

> <r_mmod_Stretch_Energy-OPLS-2005>
79.6120529174805

> <r_mmod_Bend_Energy-OPLS-2005>
157.496719360352

> <r_mmod_Torsional_Energy-OPLS-2005>
261.616363525391

> <r_mmod_Improper_Torsional_Energy-OPLS-2005>
12.0629816055298

> <r_mmod_Van_der_Waal_Energy-OPLS-2005>
155.833480834961

> <r_mmod_Electrostatic_Energy-OPLS-2005>
-281.522918701172

> <r_mmod_Solvation_Energy-OPLS-2005>
-200.987670898438

> <b_mmod_Minimization_Converged-OPLS-2005>
0

> <r_mmod_RMS_Derivative-OPLS-2005>
3.20760488510132

$$$$
23
                    3D
 Structure written by MMmdl.
158167  0  0  1  0            999 V2000
  -30.7037  -14.4497   20.6047 C   0  0  0  0  0  0
  -30.4279  -12.3000   19.4258 C   0  0  0  0  0  0
  -29.5003  -12.5189   18.2124 C   0  0  0  0  0  0
  -28.0212  -12.3711   18.6208 C   0  0  0  0  0  0
  -27.6680  -13.2039   19.8811 C   0  0  2  0  0  0
  -28.7041  -12.9624   21.0028 C   0  0  0  0  0  0
  -25.2604  -13.8161   20.5669 C   0  0  0  0  0  0
  -24.1848  -13.0443   20.9169 C   0  0  0  0  0  0
  -24.6392  -11.6907   20.8725 C   0  0  0  0  0  0
  -23.9051  -10.4295   21.0403 C   0  0  0  0  0  0
  -24.3606   -9.4214   21.9177 C   0  0  0  0  0  0
  -23.6293   -8.2243   22.0744 C   0  0  0  0  0  0
  -22.4274   -8.0270   21.3539 C   0  0  0  0  0  0
  -21.9904   -9.0242   20.4641 C   0  0  0  0  0  0
  -22.7224  -10.2126   20.3055 C   0  0  0  0  0  0
  -21.6844   -6.0733   22.5281 C   0  0  0  0  0  0
  -21.4006   -6.5641   23.8215 C   0  0  0  0  0  0
  -21.3668   -5.6795   24.9182 C   0  0  0  0  0  0
  -21.6055   -4.3059   24.7233 C   0  0  0  0  0  0
  -21.8816   -3.8144   23.4355 C   0  0  0  0  0  0
  -21.9188   -4.6960   22.3407 C   0  0  0  0  0  0
  -22.7870  -13.5239   21.1853 C   0  0  0  0  0  0
  -22.1657   -4.2142   21.0987 F   0  0  0  0  0  0
  -21.5638   -3.4546   25.7750 F   0  0  0  0  0  0
  -30.0474  -13.2642   20.4691 N   0  0  0  0  0  0
  -26.3050  -12.9326   20.3366 N   0  0  0  0  0  0
  -25.9320  -11.6491   20.5752 N   0  0  0  0  0  0
  -22.0511  -12.8219   22.0410 N   0  0  0  0  0  0
  -25.4337  -15.1877   20.4086 N   0  0  0  0  0  0
  -31.7844  -14.6924   20.0573 O   0  0  0  0  0  0
  -21.6636   -6.8869   21.4241 O   0  0  0  0  0  0
  -22.3550  -14.5548   20.6710 O   0  0  0  0  0  0
  -24.6150  -31.8687   23.2134 C   0  0  0  0  0  0
  -25.9044  -32.4829   23.8422 C   0  0  1  0  0  0
  -27.2252  -27.4273   20.0928 C   0  0  0  0  0  0
  -25.5901  -33.8628   24.2347 N   0  0  0  0  0  0
  -23.4038  -30.4942   21.5540 C   0  0  2  0  0  0
  -24.8484  -28.9647   20.1153 C   0  0  0  0  0  0
  -22.7413  -29.4661   22.4996 C   0  0  0  0  0  0
  -18.0297  -28.1367   22.8512 C   0  0  0  0  0  0
  -24.1488  -36.7330   23.2639 C   0  0  0  0  0  0
  -25.9355  -30.8275   21.3731 C   0  0  0  0  0  0
  -26.0103  -29.4625   20.7195 C   0  0  0  0  0  0
  -27.2027  -28.6987   20.7120 C   0  0  0  0  0  0
  -26.0563  -26.9723   19.4474 C   0  0  0  0  0  0
  -24.8655  -27.7161   19.4763 C   0  0  0  0  0  0
  -23.6124  -29.8323   20.1669 C   0  0  0  0  0  0
  -25.4108  -36.3121   24.0341 C   0  0  1  0  0  0
  -20.5885  -28.3635   23.1303 C   0  0  2  0  0  0
  -20.6785  -26.9406   22.5324 C   0  0  0  0  0  0
  -19.5740  -26.6447   21.5132 C   0  0  0  0  0  0
  -18.1944  -26.7919   22.1622 C   0  0  0  0  0  0
  -19.1543  -28.8817   23.2921 C   0  0  0  0  0  0
  -18.9479  -30.1425   23.8934 C   0  0  0  0  0  0
  -17.6488  -30.6573   24.0586 C   0  0  0  0  0  0
  -25.9028  -34.9480   23.5138 C   0  0  0  0  0  0
  -16.5378  -29.9081   23.6352 C   0  0  0  0  0  0
  -16.7292  -28.6502   23.0369 C   0  0  0  0  0  0
  -26.4471  -31.6615   25.0758 C   0  0  0  0  0  0
  -25.3745  -31.3720   26.1514 C   0  0  0  0  0  0
  -27.0295  -30.3056   24.6133 C   0  0  0  0  0  0
  -27.6038  -32.4343   25.7518 C   0  0  0  0  0  0
  -27.5584  -37.1821   24.8463 C   0  0  0  0  0  0
  -21.4140  -29.3042   22.3745 N   0  0  0  0  0  0
  -26.4298  -37.3804   23.9399 N   0  0  0  0  0  0
  -24.6697  -31.0771   22.1051 N   0  0  0  0  0  0
  -23.4182  -28.8171   23.3010 O   0  0  0  0  0  0
  -28.3783  -26.6472   20.0876 O   0  0  0  0  0  0
  -26.5582  -34.8928   22.4695 O   0  0  0  0  0  0
  -23.5339  -32.1434   23.7524 O   0  0  0  0  0  0
  -29.1046  -18.4607   19.4546 C   0  0  0  0  0  0
  -29.4143  -17.5879   22.1018 C   0  0  0  0  0  0
  -28.6705  -19.2941   20.5090 C   0  0  0  0  0  0
  -29.7668  -16.7127   21.0483 C   0  0  0  0  0  0
  -29.6318  -17.1777   19.7121 C   0  0  0  0  0  0
  -28.8657  -18.8624   21.8394 C   0  0  0  0  0  0
  -28.1874  -22.7751   21.3367 C   0  0  0  0  0  0
  -28.4301  -22.9397   19.3155 C   0  0  0  0  0  0
  -27.7398  -23.8702   20.3319 C   0  0  1  0  0  0
  -26.1888  -23.8590   20.3284 C   0  0  0  0  0  0
  -27.7917  -20.5045   20.1962 C   0  0  0  0  0  0
  -28.3235  -25.2898   20.6350 C   0  0  0  0  0  0
  -28.3308  -21.8633   20.3133 N   0  0  0  0  0  0
  -30.0898  -15.3579   21.3811 N   0  0  0  0  0  0
  -28.2015  -22.6403   22.5425 O   0  0  0  0  0  0
  -29.9034  -16.3742   18.6571 F   0  0  0  0  0  0
  -28.4474  -19.6290   22.8741 F   0  0  0  0  0  0
  -31.4736  -12.3998   19.1279 H   0  0  0  0  0  0
  -30.3235  -11.2834   19.8073 H   0  0  0  0  0  0
  -29.7435  -11.8092   17.4205 H   0  0  0  0  0  0
  -29.6685  -13.5135   17.7969 H   0  0  0  0  0  0
  -27.8346  -11.3138   18.8113 H   0  0  0  0  0  0
  -27.3717  -12.6501   17.7902 H   0  0  0  0  0  0
  -27.7210  -14.2552   19.5971 H   0  0  0  0  0  0
  -28.6698  -11.9221   21.3302 H   0  0  0  0  0  0
  -28.4509  -13.5462   21.8882 H   0  0  0  0  0  0
  -25.2757   -9.5699   22.4741 H   0  0  0  0  0  0
  -24.0012   -7.4640   22.7459 H   0  0  0  0  0  0
  -21.0836   -8.8766   19.8949 H   0  0  0  0  0  0
  -22.3688  -10.9664   19.6161 H   0  0  0  0  0  0
  -21.1986   -7.6147   23.9714 H   0  0  0  0  0  0
  -21.1497   -6.0530   25.9085 H   0  0  0  0  0  0
  -22.0584   -2.7603   23.2863 H   0  0  0  0  0  0
  -22.4123  -11.9879   22.4802 H   0  0  0  0  0  0
  -21.1118  -13.1226   22.2604 H   0  0  0  0  0  0
  -24.6676  -15.8442   20.5121 H   0  0  0  0  0  0
  -26.2928  -15.6242   20.0992 H   0  0  0  0  0  0
  -26.7120  -32.5538   23.1184 H   0  0  0  0  0  0
  -25.0058  -33.9795   25.0497 H   0  0  0  0  0  0
  -22.6935  -31.3119   21.4165 H   0  0  0  0  0  0
  -23.3738  -35.9675   23.3313 H   0  0  0  0  0  0
  -24.3580  -36.8933   22.2050 H   0  0  0  0  0  0
  -23.7252  -37.6551   23.6633 H   0  0  0  0  0  0
  -26.0475  -31.5917   20.6034 H   0  0  0  0  0  0
  -26.8232  -30.8793   21.9910 H   0  0  0  0  0  0
  -28.0967  -29.0711   21.1922 H   0  0  0  0  0  0
  -26.0634  -26.0507   18.8908 H   0  0  0  0  0  0
  -23.9815  -27.3345   18.9837 H   0  0  0  0  0  0
  -23.7256  -30.6089   19.4094 H   0  0  0  0  0  0
  -22.7346  -29.2543   19.8720 H   0  0  0  0  0  0
  -25.1285  -36.1995   25.0835 H   0  0  0  0  0  0
  -21.0001  -28.3146   24.1407 H   0  0  0  0  0  0
  -20.5723  -26.2208   23.3453 H   0  0  0  0  0  0
  -21.6642  -26.7490   22.1059 H   0  0  0  0  0  0
  -19.6908  -25.6401   21.1062 H   0  0  0  0  0  0
  -19.6648  -27.3327   20.6713 H   0  0  0  0  0  0
  -17.4177  -26.6686   21.4061 H   0  0  0  0  0  0
  -18.0407  -26.0035   22.9010 H   0  0  0  0  0  0
  -19.7961  -30.7236   24.2303 H   0  0  0  0  0  0
  -17.5048  -31.6263   24.5174 H   0  0  0  0  0  0
  -15.5383  -30.3000   23.7653 H   0  0  0  0  0  0
  -15.8693  -28.0839   22.7064 H   0  0  0  0  0  0
  -24.5890  -30.7096   25.7864 H   0  0  0  0  0  0
  -24.8964  -32.2875   26.5007 H   0  0  0  0  0  0
  -25.8108  -30.8860   27.0247 H   0  0  0  0  0  0
  -26.2838  -29.6818   24.1192 H   0  0  0  0  0  0
  -27.4066  -29.7298   25.4596 H   0  0  0  0  0  0
  -27.8674  -30.4378   23.9282 H   0  0  0  0  0  0
  -27.2641  -33.3612   26.2149 H   0  0  0  0  0  0
  -28.3819  -32.6962   25.0339 H   0  0  0  0  0  0
  -28.0732  -31.8443   26.5399 H   0  0  0  0  0  0
  -28.2619  -38.0105   24.7495 H   0  0  0  0  0  0
  -28.1069  -36.2636   24.6307 H   0  0  0  0  0  0
  -27.2297  -37.1501   25.8868 H   0  0  0  0  0  0
  -20.9286  -29.8792   21.7003 H   0  0  0  0  0  0
  -26.0195  -38.2890   24.1387 H   0  0  0  0  0  0
  -28.9431  -18.7584   18.4283 H   0  0  0  0  0  0
  -29.4996  -17.2625   23.1284 H   0  0  0  0  0  0
  -29.4591  -23.2214   19.0743 H   0  0  0  0  0  0
  -27.8493  -22.7748   18.4057 H   0  0  0  0  0  0
  -25.7690  -22.9207   20.6965 H   0  0  0  0  0  0
  -25.7960  -23.9724   19.3192 H   0  0  0  0  0  0
  -25.7540  -24.6386   20.9519 H   0  0  0  0  0  0
  -26.9015  -20.4361   20.8248 H   0  0  0  0  0  0
  -27.4117  -20.3979   19.1796 H   0  0  0  0  0  0
  -27.6710  -25.5750   21.4606 H   0  0  0  0  0  0
  -28.0811  -25.3429   19.5742 H   0  0  0  0  0  0
  -29.4791  -14.9507   22.0722 H   0  0  0  0  0  0
  1 25  1  0  0  0
  1 30  2  0  0  0
  1 84  1  0  0  0
  2  3  1  0  0  0
  2 25  1  0  0  0
  2 88  1  0  0  0
  2 89  1  0  0  0
  3  4  1  0  0  0
  3 90  1  0  0  0
  3 91  1  0  0  0
  4  5  1  0  0  0
  4 92  1  0  0  0
  4 93  1  0  0  0
  5  6  1  0  0  0
  5 26  1  0  0  0
  5 94  1  0  0  0
  6 25  1  0  0  0
  6 95  1  0  0  0
  6 96  1  0  0  0
  7  8  2  0  0  0
  7 26  1  0  0  0
  7 29  1  0  0  0
  8  9  1  0  0  0
  8 22  1  0  0  0
  9 10  1  0  0  0
  9 27  2  0  0  0
 10 11  2  0  0  0
 10 15  1  0  0  0
 11 12  1  0  0  0
 11 97  1  0  0  0
 12 13  2  0  0  0
 12 98  1  0  0  0
 13 14  1  0  0  0
 13 31  1  0  0  0
 14 15  2  0  0  0
 14 99  1  0  0  0
 15100  1  0  0  0
 16 17  2  0  0  0
 16 21  1  0  0  0
 16 31  1  0  0  0
 17 18  1  0  0  0
 17101  1  0  0  0
 18 19  2  0  0  0
 18102  1  0  0  0
 19 20  1  0  0  0
 19 24  1  0  0  0
 20 21  2  0  0  0
 20103  1  0  0  0
 21 23  1  0  0  0
 22 28  1  0  0  0
 22 32  2  0  0  0
 26 27  1  0  0  0
 28104  1  0  0  0
 28105  1  0  0  0
 29106  1  0  0  0
 29107  1  0  0  0
 33 34  1  0  0  0
 33 66  1  0  0  0
 33 70  2  0  0  0
 34 36  1  0  0  0
 34 59  1  0  0  0
 34108  1  0  0  0
 35 44  2  0  0  0
 35 45  1  0  0  0
 35 68  1  0  0  0
 36 56  1  0  0  0
 36109  1  0  0  0
 37 39  1  0  0  0
 37 47  1  0  0  0
 37 66  1  0  0  0
 37110  1  0  0  0
 38 43  2  0  0  0
 38 46  1  0  0  0
 38 47  1  0  0  0
 39 64  1  0  0  0
 39 67  2  0  0  0
 40 52  1  0  0  0
 40 53  2  0  0  0
 40 58  1  0  0  0
 41111  1  0  0  0
 41112  1  0  0  0
 41113  1  0  0  0
 41 48  1  0  0  0
 42 43  1  0  0  0
 42 66  1  0  0  0
 42114  1  0  0  0
 42115  1  0  0  0
 43 44  1  0  0  0
 44116  1  0  0  0
 45 46  2  0  0  0
 45117  1  0  0  0
 46118  1  0  0  0
 47119  1  0  0  0
 47120  1  0  0  0
 48 56  1  0  0  0
 48 65  1  0  0  0
 48121  1  0  0  0
 49 50  1  0  0  0
 49 53  1  0  0  0
 49 64  1  0  0  0
 49122  1  0  0  0
 50 51  1  0  0  0
 50123  1  0  0  0
 50124  1  0  0  0
 51 52  1  0  0  0
 51125  1  0  0  0
 51126  1  0  0  0
 52127  1  0  0  0
 52128  1  0  0  0
 53 54  1  0  0  0
 54 55  2  0  0  0
 54129  1  0  0  0
 55 57  1  0  0  0
 55130  1  0  0  0
 56 69  2  0  0  0
 57 58  2  0  0  0
 57131  1  0  0  0
 58132  1  0  0  0
 59 60  1  0  0  0
 59 61  1  0  0  0
 59 62  1  0  0  0
 60133  1  0  0  0
 60134  1  0  0  0
 60135  1  0  0  0
 61136  1  0  0  0
 61137  1  0  0  0
 61138  1  0  0  0
 62139  1  0  0  0
 62140  1  0  0  0
 62141  1  0  0  0
 63 65  1  0  0  0
 63142  1  0  0  0
 63143  1  0  0  0
 63144  1  0  0  0
 64145  1  0  0  0
 65146  1  0  0  0
 68 82  1  0  0  0
 71 73  2  0  0  0
 71 75  1  0  0  0
 71147  1  0  0  0
 72 74  1  0  0  0
 72 76  2  0  0  0
 72148  1  0  0  0
 73 76  1  0  0  0
 73 81  1  0  0  0
 74 75  2  0  0  0
 74 84  1  0  0  0
 75 86  1  0  0  0
 76 87  1  0  0  0
 77 79  1  0  0  0
 77 83  1  0  0  0
 77 85  2  0  0  0
 78 79  1  0  0  0
 78 83  1  0  0  0
 78149  1  0  0  0
 78150  1  0  0  0
 79 80  1  0  0  0
 79 82  1  0  0  0
 80151  1  0  0  0
 80152  1  0  0  0
 80153  1  0  0  0
 81 83  1  0  0  0
 81154  1  0  0  0
 81155  1  0  0  0
 82156  1  0  0  0
 82157  1  0  0  0
 84158  1  0  0  0
M  ISO  4   1 100  68 101  82 101  84 100
M  END
> <chiral flag>
0

> <version>
0

> <s_m_source_file>
/data/baiqing/PycharmProjects/Reinvent-master-3.2/result/LINK_invent/BTK/process_docking_weight1_custom_product_contain_oxygen_bond_distance_aromatic_linkinvent_7_9_3/rearranged_h_0023.sdf

> <i_m_source_file_index>
24

> <r_mmod_Potential_Energy-OPLS-2005>
259.573791503906

> <r_mmod_Stretch_Energy-OPLS-2005>
43.6801147460938

> <r_mmod_Bend_Energy-OPLS-2005>
357.638061523438

> <r_mmod_Torsional_Energy-OPLS-2005>
318.546325683594

> <r_mmod_Improper_Torsional_Energy-OPLS-2005>
11.3337335586548

> <r_mmod_Van_der_Waal_Energy-OPLS-2005>
164.798980712891

> <r_mmod_Electrostatic_Energy-OPLS-2005>
-412.111755371094

> <r_mmod_Solvation_Energy-OPLS-2005>
-236.303802490234

> <b_mmod_Minimization_Converged-OPLS-2005>
0

> <r_mmod_RMS_Derivative-OPLS-2005>
1.82443749904633

$$$$
24
                    3D
 Structure written by MMmdl.
155164  0  0  1  0            999 V2000
  -30.6217  -14.6357   20.5067 C   0  0  0  0  0  0
  -30.4415  -12.3908   19.4512 C   0  0  0  0  0  0
  -29.5084  -12.5091   18.2249 C   0  0  0  0  0  0
  -28.0307  -12.3492   18.6365 C   0  0  0  0  0  0
  -27.6559  -13.2158   19.8686 C   0  0  2  0  0  0
  -28.7018  -13.0600   20.9960 C   0  0  0  0  0  0
  -25.2561  -13.8160   20.5686 C   0  0  0  0  0  0
  -24.1822  -13.0424   20.9161 C   0  0  0  0  0  0
  -24.6399  -11.6899   20.8727 C   0  0  0  0  0  0
  -23.9067  -10.4284   21.0398 C   0  0  0  0  0  0
  -24.3617   -9.4204   21.9180 C   0  0  0  0  0  0
  -23.6290   -8.2241   22.0754 C   0  0  0  0  0  0
  -22.4271   -8.0279   21.3544 C   0  0  0  0  0  0
  -21.9907   -9.0251   20.4644 C   0  0  0  0  0  0
  -22.7237  -10.2129   20.3050 C   0  0  0  0  0  0
  -21.6853   -6.0735   22.5279 C   0  0  0  0  0  0
  -21.4013   -6.5639   23.8212 C   0  0  0  0  0  0
  -21.3660   -5.6791   24.9174 C   0  0  0  0  0  0
  -21.6045   -4.3056   24.7223 C   0  0  0  0  0  0
  -21.8819   -3.8147   23.4345 C   0  0  0  0  0  0
  -21.9192   -4.6963   22.3401 C   0  0  0  0  0  0
  -22.7847  -13.5221   21.1838 C   0  0  0  0  0  0
  -22.1661   -4.2150   21.0979 F   0  0  0  0  0  0
  -21.5629   -3.4539   25.7738 F   0  0  0  0  0  0
  -30.0185  -13.4066   20.4354 N   0  0  0  0  0  0
  -26.3008  -12.9348   20.3358 N   0  0  0  0  0  0
  -25.9334  -11.6502   20.5770 N   0  0  0  0  0  0
  -22.0500  -12.8212   22.0404 N   0  0  0  0  0  0
  -25.4251  -15.1882   20.4153 N   0  0  0  0  0  0
  -31.7772  -14.8078   20.1072 O   0  0  0  0  0  0
  -21.6637   -6.8876   21.4241 O   0  0  0  0  0  0
  -22.3524  -14.5532   20.6700 O   0  0  0  0  0  0
  -24.6263  -31.8607   23.2038 C   0  0  0  0  0  0
  -25.9116  -32.4784   23.8361 C   0  0  1  0  0  0
  -27.2217  -27.3211   20.1123 C   0  0  0  0  0  0
  -25.5934  -33.8584   24.2287 N   0  0  0  0  0  0
  -23.4193  -30.4857   21.5467 C   0  0  2  0  0  0
  -24.8653  -28.9452   20.1101 C   0  0  0  0  0  0
  -22.7476  -29.4628   22.4938 C   0  0  0  0  0  0
  -18.0286  -28.1382   22.8485 C   0  0  0  0  0  0
  -24.1489  -36.7289   23.2636 C   0  0  0  0  0  0
  -25.9616  -30.7919   21.3760 C   0  0  0  0  0  0
  -26.0355  -29.4211   20.7147 C   0  0  0  0  0  0
  -27.2171  -28.6211   20.7063 C   0  0  0  0  0  0
  -26.0264  -26.9025   19.4804 C   0  0  0  0  0  0
  -24.8627  -27.6910   19.4845 C   0  0  0  0  0  0
  -23.6336  -29.8244   20.1608 C   0  0  0  0  0  0
  -25.4112  -36.3083   24.0331 C   0  0  1  0  0  0
  -20.5887  -28.3682   23.1285 C   0  0  2  0  0  0
  -20.6776  -26.9406   22.5407 C   0  0  0  0  0  0
  -19.5750  -26.6377   21.5212 C   0  0  0  0  0  0
  -18.1928  -26.7924   22.1623 C   0  0  0  0  0  0
  -19.1540  -28.8848   23.2881 C   0  0  0  0  0  0
  -18.9465  -30.1454   23.8894 C   0  0  0  0  0  0
  -17.6465  -30.6585   24.0561 C   0  0  0  0  0  0
  -25.9051  -34.9454   23.5106 C   0  0  0  0  0  0
  -16.5355  -29.9083   23.6334 C   0  0  0  0  0  0
  -16.7273  -28.6501   23.0352 C   0  0  0  0  0  0
  -26.4501  -31.6593   25.0731 C   0  0  0  0  0  0
  -25.3736  -31.3737   26.1460 C   0  0  0  0  0  0
  -27.0343  -30.3017   24.6182 C   0  0  0  0  0  0
  -27.6057  -32.4331   25.7503 C   0  0  0  0  0  0
  -27.5584  -37.1790   24.8459 C   0  0  0  0  0  0
  -21.4188  -29.3045   22.3689 N   0  0  0  0  0  0
  -26.4286  -37.3781   23.9419 N   0  0  0  0  0  0
  -24.6878  -31.0622   22.0989 N   0  0  0  0  0  0
  -23.4205  -28.8158   23.3006 O   0  0  0  0  0  0
  -28.3337  -26.4621   20.1688 O   0  0  0  0  0  0
  -26.5613  -34.8920   22.4668 O   0  0  0  0  0  0
  -23.5428  -32.1405   23.7367 O   0  0  0  0  0  0
  -30.8689  -19.3004   20.1105 C   0  0  0  0  0  0
  -30.9509  -17.8793   20.2404 C   0  0  0  0  0  0
  -28.6241  -19.2723   20.9562 C   0  0  0  0  0  0
  -29.7055  -20.0541   20.4602 C   0  0  0  0  0  0
  -29.8606  -17.1165   20.7329 C   0  0  0  0  0  0
  -28.7021  -17.8547   21.0867 C   0  0  0  0  0  0
  -28.7349  -22.4505   20.7052 C   0  0  0  0  0  0
  -30.3180  -23.7205   19.4802 C   0  0  0  0  0  0
  -30.7749  -22.2567   19.6782 C   0  0  0  0  0  0
  -29.1790  -23.9370   20.4782 C   0  0  1  0  0  0
  -28.0756  -25.0049   20.0534 C   0  0  0  0  0  0
  -29.6669  -21.5279   20.3030 N   0  0  0  0  0  0
  -29.8136  -15.6649   20.9029 N   0  0  0  0  0  0
  -27.6432  -22.1860   21.2170 O   0  0  0  0  0  0
  -27.6274  -17.1778   21.5588 F   0  0  0  0  0  0
  -31.4821  -12.5193   19.1480 H   0  0  0  0  0  0
  -30.3796  -11.3930   19.8881 H   0  0  0  0  0  0
  -29.7704  -11.7577   17.4789 H   0  0  0  0  0  0
  -29.6514  -13.4787   17.7453 H   0  0  0  0  0  0
  -27.8646  -11.2952   18.8626 H   0  0  0  0  0  0
  -27.3764  -12.5852   17.7965 H   0  0  0  0  0  0
  -27.6759  -14.2532   19.5343 H   0  0  0  0  0  0
  -28.7128  -12.0345   21.3679 H   0  0  0  0  0  0
  -28.4469  -13.6814   21.8558 H   0  0  0  0  0  0
  -25.2765   -9.5682   22.4749 H   0  0  0  0  0  0
  -24.0001   -7.4635   22.7476 H   0  0  0  0  0  0
  -21.0838   -8.8769   19.8950 H   0  0  0  0  0  0
  -22.3697  -10.9666   19.6158 H   0  0  0  0  0  0
  -21.2004   -7.6146   23.9716 H   0  0  0  0  0  0
  -21.1481   -6.0521   25.9077 H   0  0  0  0  0  0
  -22.0598   -2.7608   23.2845 H   0  0  0  0  0  0
  -22.4120  -11.9869   22.4781 H   0  0  0  0  0  0
  -21.1124  -13.1240   22.2628 H   0  0  0  0  0  0
  -24.6667  -15.8429   20.5697 H   0  0  0  0  0  0
  -26.3018  -15.6484   20.2060 H   0  0  0  0  0  0
  -26.7183  -32.5456   23.1106 H   0  0  0  0  0  0
  -25.0107  -33.9735   25.0450 H   0  0  0  0  0  0
  -22.7125  -31.3061   21.4052 H   0  0  0  0  0  0
  -23.3761  -35.9611   23.3285 H   0  0  0  0  0  0
  -24.3584  -36.8920   22.2053 H   0  0  0  0  0  0
  -23.7226  -37.6480   23.6665 H   0  0  0  0  0  0
  -26.0953  -31.5582   20.6109 H   0  0  0  0  0  0
  -26.8414  -30.8368   22.0063 H   0  0  0  0  0  0
  -28.1133  -28.9802   21.1924 H   0  0  0  0  0  0
  -25.9554  -25.9470   18.9836 H   0  0  0  0  0  0
  -23.9664  -27.3210   19.0059 H   0  0  0  0  0  0
  -23.7523  -30.6032   19.4063 H   0  0  0  0  0  0
  -22.7540  -29.2543   19.8569 H   0  0  0  0  0  0
  -25.1288  -36.1930   25.0822 H   0  0  0  0  0  0
  -20.9977  -28.3251   24.1407 H   0  0  0  0  0  0
  -20.5678  -26.2291   23.3604 H   0  0  0  0  0  0
  -21.6644  -26.7434   22.1197 H   0  0  0  0  0  0
  -19.6912  -25.6288   21.1241 H   0  0  0  0  0  0
  -19.6691  -27.3190   20.6745 H   0  0  0  0  0  0
  -17.4198  -26.6677   21.4024 H   0  0  0  0  0  0
  -18.0325  -26.0064   22.9016 H   0  0  0  0  0  0
  -19.7945  -30.7271   24.2256 H   0  0  0  0  0  0
  -17.5022  -31.6267   24.5157 H   0  0  0  0  0  0
  -15.5356  -30.2985   23.7661 H   0  0  0  0  0  0
  -15.8672  -28.0819   22.7071 H   0  0  0  0  0  0
  -24.5905  -30.7092   25.7794 H   0  0  0  0  0  0
  -24.8939  -32.2911   26.4886 H   0  0  0  0  0  0
  -25.8061  -30.8913   27.0234 H   0  0  0  0  0  0
  -26.2917  -29.6770   24.1204 H   0  0  0  0  0  0
  -27.4046  -29.7269   25.4680 H   0  0  0  0  0  0
  -27.8785  -30.4308   23.9403 H   0  0  0  0  0  0
  -27.2661  -33.3633   26.2072 H   0  0  0  0  0  0
  -28.3875  -32.6888   25.0338 H   0  0  0  0  0  0
  -28.0717  -31.8463   26.5428 H   0  0  0  0  0  0
  -28.2572  -38.0119   24.7551 H   0  0  0  0  0  0
  -28.1111  -36.2650   24.6225 H   0  0  0  0  0  0
  -27.2311  -37.1365   25.8863 H   0  0  0  0  0  0
  -20.9360  -29.8783   21.6917 H   0  0  0  0  0  0
  -26.0166  -38.2849   24.1451 H   0  0  0  0  0  0
  -31.7437  -19.8081   19.7308 H   0  0  0  0  0  0
  -31.8686  -17.3862   19.9543 H   0  0  0  0  0  0
  -27.6969  -19.7412   21.2452 H   0  0  0  0  0  0
  -29.9529  -23.8565   18.4611 H   0  0  0  0  0  0
  -31.1358  -24.4260   19.6295 H   0  0  0  0  0  0
  -31.6416  -22.2151   20.3399 H   0  0  0  0  0  0
  -31.0581  -21.8091   18.7246 H   0  0  0  0  0  0
  -29.5995  -24.2533   21.4329 H   0  0  0  0  0  0
  -27.1913  -24.7877   20.6552 H   0  0  0  0  0  0
  -27.7990  -24.7894   19.0209 H   0  0  0  0  0  0
  -28.9243  -15.3455   21.2569 H   0  0  0  0  0  0
  1 25  1  0  0  0
  1 30  2  0  0  0
  1 83  1  0  0  0
  2  3  1  0  0  0
  2 25  1  0  0  0
  2 86  1  0  0  0
  2 87  1  0  0  0
  3  4  1  0  0  0
  3 88  1  0  0  0
  3 89  1  0  0  0
  4  5  1  0  0  0
  4 90  1  0  0  0
  4 91  1  0  0  0
  5  6  1  0  0  0
  5 26  1  0  0  0
  5 92  1  0  0  0
  6 25  1  0  0  0
  6 93  1  0  0  0
  6 94  1  0  0  0
  7  8  2  0  0  0
  7 26  1  0  0  0
  7 29  1  0  0  0
  8  9  1  0  0  0
  8 22  1  0  0  0
  9 10  1  0  0  0
  9 27  2  0  0  0
 10 11  2  0  0  0
 10 15  1  0  0  0
 11 12  1  0  0  0
 11 95  1  0  0  0
 12 13  2  0  0  0
 12 96  1  0  0  0
 13 14  1  0  0  0
 13 31  1  0  0  0
 14 15  2  0  0  0
 14 97  1  0  0  0
 15 98  1  0  0  0
 16 17  2  0  0  0
 16 21  1  0  0  0
 16 31  1  0  0  0
 17 18  1  0  0  0
 17 99  1  0  0  0
 18 19  2  0  0  0
 18100  1  0  0  0
 19 20  1  0  0  0
 19 24  1  0  0  0
 20 21  2  0  0  0
 20101  1  0  0  0
 21 23  1  0  0  0
 22 28  1  0  0  0
 22 32  2  0  0  0
 26 27  1  0  0  0
 28102  1  0  0  0
 28103  1  0  0  0
 29104  1  0  0  0
 29105  1  0  0  0
 33 34  1  0  0  0
 33 66  1  0  0  0
 33 70  2  0  0  0
 34 36  1  0  0  0
 34 59  1  0  0  0
 34106  1  0  0  0
 35 44  2  0  0  0
 35 45  1  0  0  0
 35 68  1  0  0  0
 36 56  1  0  0  0
 36107  1  0  0  0
 37 39  1  0  0  0
 37 47  1  0  0  0
 37 66  1  0  0  0
 37108  1  0  0  0
 38 43  2  0  0  0
 38 46  1  0  0  0
 38 47  1  0  0  0
 39 64  1  0  0  0
 39 67  2  0  0  0
 40 52  1  0  0  0
 40 53  2  0  0  0
 40 58  1  0  0  0
 41109  1  0  0  0
 41110  1  0  0  0
 41111  1  0  0  0
 41 48  1  0  0  0
 42 43  1  0  0  0
 42 66  1  0  0  0
 42112  1  0  0  0
 42113  1  0  0  0
 43 44  1  0  0  0
 44114  1  0  0  0
 45 46  2  0  0  0
 45115  1  0  0  0
 46116  1  0  0  0
 47117  1  0  0  0
 47118  1  0  0  0
 48 56  1  0  0  0
 48 65  1  0  0  0
 48119  1  0  0  0
 49 50  1  0  0  0
 49 53  1  0  0  0
 49 64  1  0  0  0
 49120  1  0  0  0
 50 51  1  0  0  0
 50121  1  0  0  0
 50122  1  0  0  0
 51 52  1  0  0  0
 51123  1  0  0  0
 51124  1  0  0  0
 52125  1  0  0  0
 52126  1  0  0  0
 53 54  1  0  0  0
 54 55  2  0  0  0
 54127  1  0  0  0
 55 57  1  0  0  0
 55128  1  0  0  0
 56 69  2  0  0  0
 57 58  2  0  0  0
 57129  1  0  0  0
 58130  1  0  0  0
 59 60  1  0  0  0
 59 61  1  0  0  0
 59 62  1  0  0  0
 60131  1  0  0  0
 60132  1  0  0  0
 60133  1  0  0  0
 61134  1  0  0  0
 61135  1  0  0  0
 61136  1  0  0  0
 62137  1  0  0  0
 62138  1  0  0  0
 62139  1  0  0  0
 63 65  1  0  0  0
 63140  1  0  0  0
 63141  1  0  0  0
 63142  1  0  0  0
 64143  1  0  0  0
 65144  1  0  0  0
 68 81  1  0  0  0
 71 72  2  0  0  0
 71 74  1  0  0  0
 71145  1  0  0  0
 72 75  1  0  0  0
 72146  1  0  0  0
 73 74  2  0  0  0
 73 76  1  0  0  0
 73147  1  0  0  0
 74 82  1  0  0  0
 75 76  2  0  0  0
 75 83  1  0  0  0
 76 85  1  0  0  0
 77 80  1  0  0  0
 77 82  1  0  0  0
 77 84  2  0  0  0
 78 79  1  0  0  0
 78 80  1  0  0  0
 78148  1  0  0  0
 78149  1  0  0  0
 79 82  1  0  0  0
 79150  1  0  0  0
 79151  1  0  0  0
 80 81  1  0  0  0
 80152  1  0  0  0
 81153  1  0  0  0
 81154  1  0  0  0
 83155  1  0  0  0
M  ISO  4   1 100  68 101  81 101  83 100
M  END
> <chiral flag>
0

> <version>
0

> <s_m_source_file>
/data/baiqing/PycharmProjects/Reinvent-master-3.2/result/LINK_invent/BTK/process_docking_weight1_custom_product_contain_oxygen_bond_distance_aromatic_linkinvent_7_9_3/rearranged_h_0023.sdf

> <i_m_source_file_index>
25

> <r_mmod_Potential_Energy-OPLS-2005>
104.43994140625

> <r_mmod_Stretch_Energy-OPLS-2005>
79.9662475585938

> <r_mmod_Bend_Energy-OPLS-2005>
168.272598266602

> <r_mmod_Torsional_Energy-OPLS-2005>
253.14094543457

> <r_mmod_Improper_Torsional_Energy-OPLS-2005>
3.68619656562805

> <r_mmod_Van_der_Waal_Energy-OPLS-2005>
148.356887817383

> <r_mmod_Electrostatic_Energy-OPLS-2005>
-388.333709716797

> <r_mmod_Solvation_Energy-OPLS-2005>
-208.69873046875

> <b_mmod_Minimization_Converged-OPLS-2005>
0

> <r_mmod_RMS_Derivative-OPLS-2005>
0.457433491945267

$$$$
25
                    3D
 Structure written by MMmdl.
156165  0  0  1  0            999 V2000
  -30.5245  -14.9062   20.4387 C   0  0  0  0  0  0
  -30.4552  -12.5559   19.4941 C   0  0  0  0  0  0
  -29.5289  -12.5316   18.2540 C   0  0  0  0  0  0
  -28.0574  -12.3263   18.6661 C   0  0  0  0  0  0
  -27.6401  -13.2414   19.8473 C   0  0  2  0  0  0
  -28.6853  -13.2162   20.9840 C   0  0  0  0  0  0
  -25.2482  -13.8176   20.5701 C   0  0  0  0  0  0
  -24.1785  -13.0402   20.9180 C   0  0  0  0  0  0
  -24.6402  -11.6893   20.8713 C   0  0  0  0  0  0
  -23.9084  -10.4270   21.0387 C   0  0  0  0  0  0
  -24.3628   -9.4188   21.9175 C   0  0  0  0  0  0
  -23.6294   -8.2230   22.0751 C   0  0  0  0  0  0
  -22.4276   -8.0274   21.3541 C   0  0  0  0  0  0
  -21.9913   -9.0248   20.4642 C   0  0  0  0  0  0
  -22.7252  -10.2118   20.3040 C   0  0  0  0  0  0
  -21.6853   -6.0723   22.5282 C   0  0  0  0  0  0
  -21.4014   -6.5627   23.8215 C   0  0  0  0  0  0
  -21.3662   -5.6782   24.9176 C   0  0  0  0  0  0
  -21.6054   -4.3046   24.7230 C   0  0  0  0  0  0
  -21.8819   -3.8135   23.4351 C   0  0  0  0  0  0
  -21.9187   -4.6948   22.3404 C   0  0  0  0  0  0
  -22.7807  -13.5185   21.1848 C   0  0  0  0  0  0
  -22.1663   -4.2130   21.0981 F   0  0  0  0  0  0
  -21.5625   -3.4533   25.7746 F   0  0  0  0  0  0
  -29.9723  -13.6292   20.4040 N   0  0  0  0  0  0
  -26.2940  -12.9416   20.3276 N   0  0  0  0  0  0
  -25.9349  -11.6541   20.5732 N   0  0  0  0  0  0
  -22.0457  -12.8192   22.0422 N   0  0  0  0  0  0
  -25.4083  -15.1911   20.4200 N   0  0  0  0  0  0
  -31.7121  -15.0399   20.1223 O   0  0  0  0  0  0
  -21.6637   -6.8871   21.4248 O   0  0  0  0  0  0
  -22.3485  -14.5484   20.6690 O   0  0  0  0  0  0
  -24.6420  -31.8467   23.1889 C   0  0  0  0  0  0
  -25.9201  -32.4711   23.8283 C   0  0  1  0  0  0
  -27.2252  -27.1589   20.1449 C   0  0  0  0  0  0
  -25.5952  -33.8514   24.2206 N   0  0  0  0  0  0
  -23.4443  -30.4657   21.5359 C   0  0  2  0  0  0
  -24.8942  -28.8964   20.1137 C   0  0  0  0  0  0
  -22.7566  -29.4557   22.4877 C   0  0  0  0  0  0
  -18.0302  -28.1402   22.8478 C   0  0  0  0  0  0
  -24.1494  -36.7260   23.2639 C   0  0  0  0  0  0
  -25.9996  -30.7284   21.3837 C   0  0  0  0  0  0
  -26.0727  -29.3411   20.7264 C   0  0  0  0  0  0
  -27.2395  -28.4897   20.7230 C   0  0  0  0  0  0
  -26.0168  -26.8115   19.4986 C   0  0  0  0  0  0
  -24.8787  -27.6437   19.4851 C   0  0  0  0  0  0
  -23.6690  -29.7949   20.1553 C   0  0  0  0  0  0
  -25.4126  -36.3041   24.0316 C   0  0  1  0  0  0
  -20.5919  -28.3723   23.1251 C   0  0  2  0  0  0
  -20.6796  -26.9429   22.5409 C   0  0  0  0  0  0
  -19.5765  -26.6388   21.5222 C   0  0  0  0  0  0
  -18.1944  -26.7938   22.1626 C   0  0  0  0  0  0
  -19.1561  -28.8884   23.2856 C   0  0  0  0  0  0
  -18.9472  -30.1478   23.8880 C   0  0  0  0  0  0
  -17.6469  -30.6599   24.0563 C   0  0  0  0  0  0
  -25.9075  -34.9415   23.5076 C   0  0  0  0  0  0
  -16.5358  -29.9092   23.6334 C   0  0  0  0  0  0
  -16.7286  -28.6512   23.0354 C   0  0  0  0  0  0
  -26.4518  -31.6560   25.0710 C   0  0  0  0  0  0
  -25.3700  -31.3757   26.1403 C   0  0  0  0  0  0
  -27.0366  -30.2953   24.6269 C   0  0  0  0  0  0
  -27.6061  -32.4305   25.7496 C   0  0  0  0  0  0
  -27.5583  -37.1786   24.8466 C   0  0  0  0  0  0
  -21.4258  -29.3048   22.3625 N   0  0  0  0  0  0
  -26.4295  -37.3751   23.9406 N   0  0  0  0  0  0
  -24.7156  -31.0342   22.0914 N   0  0  0  0  0  0
  -23.4212  -28.8108   23.3027 O   0  0  0  0  0  0
  -28.2954  -26.1957   20.1896 O   0  0  0  0  0  0
  -26.5664  -34.8907   22.4652 O   0  0  0  0  0  0
  -23.5548  -32.1335   23.7119 O   0  0  0  0  0  0
  -30.2742  -19.9686   20.2523 C   0  0  0  0  0  0
  -30.5500  -18.5255   20.2521 C   0  0  0  0  0  0
  -28.0535  -19.5295   20.8962 C   0  0  0  0  0  0
  -29.0008  -20.5592   20.5894 C   0  0  0  0  0  0
  -29.5769  -17.5156   20.5900 C   0  0  0  0  0  0
  -28.3167  -18.1119   20.8990 C   0  0  0  0  0  0
  -29.5485  -23.1692   22.6434 C   0  0  0  0  0  0
  -30.1504  -23.7066   21.3417 C   0  0  0  0  0  0
  -28.4173  -22.2227   22.2055 C   0  0  0  0  0  0
  -29.0895  -23.3817   20.2953 C   0  0  2  0  0  0
  -28.0053  -24.6723   20.2267 C   0  0  0  0  0  0
  -28.6015  -21.9869   20.7721 N   0  0  0  0  0  0
  -29.6524  -15.9903   20.6707 N   0  0  0  0  0  0
  -27.3022  -17.2780   21.2291 F   0  0  0  0  0  0
  -31.4890  -12.7201   19.1854 H   0  0  0  0  0  0
  -30.4478  -11.5908   20.0031 H   0  0  0  0  0  0
  -29.8403  -11.7435   17.5673 H   0  0  0  0  0  0
  -29.6291  -13.4693   17.7049 H   0  0  0  0  0  0
  -27.9401  -11.2819   18.9560 H   0  0  0  0  0  0
  -27.3999  -12.4810   17.8106 H   0  0  0  0  0  0
  -27.6166  -14.2549   19.4443 H   0  0  0  0  0  0
  -28.7579  -12.2203   21.4236 H   0  0  0  0  0  0
  -28.3904  -13.8847   21.7943 H   0  0  0  0  0  0
  -25.2768   -9.5666   22.4752 H   0  0  0  0  0  0
  -23.9993   -7.4625   22.7480 H   0  0  0  0  0  0
  -21.0830   -8.8775   19.8958 H   0  0  0  0  0  0
  -22.3714  -10.9654   19.6144 H   0  0  0  0  0  0
  -21.2014   -7.6133   23.9718 H   0  0  0  0  0  0
  -21.1487   -6.0506   25.9079 H   0  0  0  0  0  0
  -22.0594   -2.7593   23.2857 H   0  0  0  0  0  0
  -22.4064  -11.9871   22.4847 H   0  0  0  0  0  0
  -21.1076  -13.1224   22.2614 H   0  0  0  0  0  0
  -24.6438  -15.8343   20.5889 H   0  0  0  0  0  0
  -26.2803  -15.6708   20.2354 H   0  0  0  0  0  0
  -26.7264  -32.5327   23.1012 H   0  0  0  0  0  0
  -25.0049  -33.9632   25.0320 H   0  0  0  0  0  0
  -22.7464  -31.2912   21.3838 H   0  0  0  0  0  0
  -23.3762  -35.9587   23.3291 H   0  0  0  0  0  0
  -24.3576  -36.8898   22.2054 H   0  0  0  0  0  0
  -23.7241  -37.6450   23.6683 H   0  0  0  0  0  0
  -26.1536  -31.4845   20.6122 H   0  0  0  0  0  0
  -26.8705  -30.7785   22.0258 H   0  0  0  0  0  0
  -28.1398  -28.8306   21.2144 H   0  0  0  0  0  0
  -25.9143  -25.8622   18.9973 H   0  0  0  0  0  0
  -23.9805  -27.2990   18.9913 H   0  0  0  0  0  0
  -23.8018  -30.5700   19.3995 H   0  0  0  0  0  0
  -22.7843  -29.2352   19.8463 H   0  0  0  0  0  0
  -25.1315  -36.1873   25.0810 H   0  0  0  0  0  0
  -21.0010  -28.3313   24.1373 H   0  0  0  0  0  0
  -20.5719  -26.2330   23.3620 H   0  0  0  0  0  0
  -21.6657  -26.7457   22.1190 H   0  0  0  0  0  0
  -19.6926  -25.6299   21.1259 H   0  0  0  0  0  0
  -19.6701  -27.3196   20.6751 H   0  0  0  0  0  0
  -17.4215  -26.6682   21.4029 H   0  0  0  0  0  0
  -18.0337  -26.0093   22.9035 H   0  0  0  0  0  0
  -19.7945  -30.7301   24.2238 H   0  0  0  0  0  0
  -17.5019  -31.6275   24.5174 H   0  0  0  0  0  0
  -15.5358  -30.2990   23.7673 H   0  0  0  0  0  0
  -15.8684  -28.0830   22.7078 H   0  0  0  0  0  0
  -24.5878  -30.7111   25.7720 H   0  0  0  0  0  0
  -24.8886  -32.2942   26.4776 H   0  0  0  0  0  0
  -25.7972  -30.8957   27.0216 H   0  0  0  0  0  0
  -26.2974  -29.6688   24.1263 H   0  0  0  0  0  0
  -27.3968  -29.7244   25.4839 H   0  0  0  0  0  0
  -27.8895  -30.4192   23.9590 H   0  0  0  0  0  0
  -27.2670  -33.3622   26.2041 H   0  0  0  0  0  0
  -28.3895  -32.6830   25.0338 H   0  0  0  0  0  0
  -28.0702  -31.8439   26.5436 H   0  0  0  0  0  0
  -28.2593  -38.0092   24.7515 H   0  0  0  0  0  0
  -28.1083  -36.2617   24.6292 H   0  0  0  0  0  0
  -27.2295  -37.1438   25.8867 H   0  0  0  0  0  0
  -20.9476  -29.8738   21.6779 H   0  0  0  0  0  0
  -26.0161  -38.2821   24.1402 H   0  0  0  0  0  0
  -31.0926  -20.6354   20.0184 H   0  0  0  0  0  0
  -31.5490  -18.2015   19.9970 H   0  0  0  0  0  0
  -27.0557  -19.8328   21.1750 H   0  0  0  0  0  0
  -29.1556  -23.9749   23.2655 H   0  0  0  0  0  0
  -30.3084  -22.6459   23.2264 H   0  0  0  0  0  0
  -31.0695  -23.1659   21.1109 H   0  0  0  0  0  0
  -30.3995  -24.7672   21.3882 H   0  0  0  0  0  0
  -27.4426  -22.6858   22.3689 H   0  0  0  0  0  0
  -28.4303  -21.3161   22.8132 H   0  0  0  0  0  0
  -29.5695  -23.2849   19.3201 H   0  0  0  0  0  0
  -27.3272  -24.5614   21.0724 H   0  0  0  0  0  0
  -27.3984  -24.4423   19.3538 H   0  0  0  0  0  0
  -28.7488  -15.6240   20.9289 H   0  0  0  0  0  0
  1 25  1  0  0  0
  1 30  2  0  0  0
  1 83  1  0  0  0
  2  3  1  0  0  0
  2 25  1  0  0  0
  2 85  1  0  0  0
  2 86  1  0  0  0
  3  4  1  0  0  0
  3 87  1  0  0  0
  3 88  1  0  0  0
  4  5  1  0  0  0
  4 89  1  0  0  0
  4 90  1  0  0  0
  5  6  1  0  0  0
  5 26  1  0  0  0
  5 91  1  0  0  0
  6 25  1  0  0  0
  6 92  1  0  0  0
  6 93  1  0  0  0
  7  8  2  0  0  0
  7 26  1  0  0  0
  7 29  1  0  0  0
  8  9  1  0  0  0
  8 22  1  0  0  0
  9 10  1  0  0  0
  9 27  2  0  0  0
 10 11  2  0  0  0
 10 15  1  0  0  0
 11 12  1  0  0  0
 11 94  1  0  0  0
 12 13  2  0  0  0
 12 95  1  0  0  0
 13 14  1  0  0  0
 13 31  1  0  0  0
 14 15  2  0  0  0
 14 96  1  0  0  0
 15 97  1  0  0  0
 16 17  2  0  0  0
 16 21  1  0  0  0
 16 31  1  0  0  0
 17 18  1  0  0  0
 17 98  1  0  0  0
 18 19  2  0  0  0
 18 99  1  0  0  0
 19 20  1  0  0  0
 19 24  1  0  0  0
 20 21  2  0  0  0
 20100  1  0  0  0
 21 23  1  0  0  0
 22 28  1  0  0  0
 22 32  2  0  0  0
 26 27  1  0  0  0
 28101  1  0  0  0
 28102  1  0  0  0
 29103  1  0  0  0
 29104  1  0  0  0
 33 34  1  0  0  0
 33 66  1  0  0  0
 33 70  2  0  0  0
 34 36  1  0  0  0
 34 59  1  0  0  0
 34105  1  0  0  0
 35 44  2  0  0  0
 35 45  1  0  0  0
 35 68  1  0  0  0
 36 56  1  0  0  0
 36106  1  0  0  0
 37 39  1  0  0  0
 37 47  1  0  0  0
 37 66  1  0  0  0
 37107  1  0  0  0
 38 43  2  0  0  0
 38 46  1  0  0  0
 38 47  1  0  0  0
 39 64  1  0  0  0
 39 67  2  0  0  0
 40 52  1  0  0  0
 40 53  2  0  0  0
 40 58  1  0  0  0
 41108  1  0  0  0
 41109  1  0  0  0
 41110  1  0  0  0
 41 48  1  0  0  0
 42 43  1  0  0  0
 42 66  1  0  0  0
 42111  1  0  0  0
 42112  1  0  0  0
 43 44  1  0  0  0
 44113  1  0  0  0
 45 46  2  0  0  0
 45114  1  0  0  0
 46115  1  0  0  0
 47116  1  0  0  0
 47117  1  0  0  0
 48 56  1  0  0  0
 48 65  1  0  0  0
 48118  1  0  0  0
 49 50  1  0  0  0
 49 53  1  0  0  0
 49 64  1  0  0  0
 49119  1  0  0  0
 50 51  1  0  0  0
 50120  1  0  0  0
 50121  1  0  0  0
 51 52  1  0  0  0
 51122  1  0  0  0
 51123  1  0  0  0
 52124  1  0  0  0
 52125  1  0  0  0
 53 54  1  0  0  0
 54 55  2  0  0  0
 54126  1  0  0  0
 55 57  1  0  0  0
 55127  1  0  0  0
 56 69  2  0  0  0
 57 58  2  0  0  0
 57128  1  0  0  0
 58129  1  0  0  0
 59 60  1  0  0  0
 59 61  1  0  0  0
 59 62  1  0  0  0
 60130  1  0  0  0
 60131  1  0  0  0
 60132  1  0  0  0
 61133  1  0  0  0
 61134  1  0  0  0
 61135  1  0  0  0
 62136  1  0  0  0
 62137  1  0  0  0
 62138  1  0  0  0
 63 65  1  0  0  0
 63139  1  0  0  0
 63140  1  0  0  0
 63141  1  0  0  0
 64142  1  0  0  0
 65143  1  0  0  0
 68 81  1  0  0  0
 71 72  2  0  0  0
 71 74  1  0  0  0
 71144  1  0  0  0
 72 75  1  0  0  0
 72145  1  0  0  0
 73 74  2  0  0  0
 73 76  1  0  0  0
 73146  1  0  0  0
 74 82  1  0  0  0
 75 76  2  0  0  0
 75 83  1  0  0  0
 76 84  1  0  0  0
 77 78  1  0  0  0
 77 79  1  0  0  0
 77147  1  0  0  0
 77148  1  0  0  0
 78 80  1  0  0  0
 78149  1  0  0  0
 78150  1  0  0  0
 79 82  1  0  0  0
 79151  1  0  0  0
 79152  1  0  0  0
 80 81  1  0  0  0
 80 82  1  0  0  0
 80153  1  0  0  0
 81154  1  0  0  0
 81155  1  0  0  0
 83156  1  0  0  0
M  ISO  4   1 100  68 101  81 101  83 100
M  END
> <chiral flag>
0

> <version>
0

> <s_m_source_file>
/data/baiqing/PycharmProjects/Reinvent-master-3.2/result/LINK_invent/BTK/process_docking_weight1_custom_product_contain_oxygen_bond_distance_aromatic_linkinvent_7_9_3/rearranged_h_0023.sdf

> <i_m_source_file_index>
26

> <r_mmod_Potential_Energy-OPLS-2005>
509.684173583984

> <r_mmod_Stretch_Energy-OPLS-2005>
211.421813964844

> <r_mmod_Bend_Energy-OPLS-2005>
325.570037841797

> <r_mmod_Torsional_Energy-OPLS-2005>
289.885955810547

> <r_mmod_Improper_Torsional_Energy-OPLS-2005>
8.84271812438965

> <r_mmod_Van_der_Waal_Energy-OPLS-2005>
132.407669067383

> <r_mmod_Electrostatic_Energy-OPLS-2005>
-410.414001464844

> <r_mmod_Solvation_Energy-OPLS-2005>
-213.918563842773

> <b_mmod_Minimization_Converged-OPLS-2005>
0

> <r_mmod_RMS_Derivative-OPLS-2005>
1.52198851108551

$$$$
26
                    3D
 Structure written by MMmdl.
156165  0  0  1  0            999 V2000
  -30.5245  -14.9062   20.4387 C   0  0  0  0  0  0
  -30.4552  -12.5559   19.4941 C   0  0  0  0  0  0
  -29.5289  -12.5316   18.2540 C   0  0  0  0  0  0
  -28.0574  -12.3263   18.6661 C   0  0  0  0  0  0
  -27.6401  -13.2414   19.8473 C   0  0  2  0  0  0
  -28.6853  -13.2162   20.9840 C   0  0  0  0  0  0
  -25.2482  -13.8176   20.5701 C   0  0  0  0  0  0
  -24.1785  -13.0402   20.9180 C   0  0  0  0  0  0
  -24.6402  -11.6893   20.8713 C   0  0  0  0  0  0
  -23.9084  -10.4270   21.0387 C   0  0  0  0  0  0
  -24.3628   -9.4188   21.9175 C   0  0  0  0  0  0
  -23.6294   -8.2230   22.0751 C   0  0  0  0  0  0
  -22.4276   -8.0274   21.3541 C   0  0  0  0  0  0
  -21.9913   -9.0248   20.4642 C   0  0  0  0  0  0
  -22.7252  -10.2118   20.3040 C   0  0  0  0  0  0
  -21.6853   -6.0723   22.5282 C   0  0  0  0  0  0
  -21.4014   -6.5627   23.8215 C   0  0  0  0  0  0
  -21.3662   -5.6782   24.9176 C   0  0  0  0  0  0
  -21.6054   -4.3046   24.7230 C   0  0  0  0  0  0
  -21.8819   -3.8135   23.4351 C   0  0  0  0  0  0
  -21.9187   -4.6948   22.3404 C   0  0  0  0  0  0
  -22.7807  -13.5185   21.1848 C   0  0  0  0  0  0
  -22.1663   -4.2130   21.0981 F   0  0  0  0  0  0
  -21.5625   -3.4533   25.7746 F   0  0  0  0  0  0
  -29.9723  -13.6292   20.4040 N   0  0  0  0  0  0
  -26.2940  -12.9416   20.3276 N   0  0  0  0  0  0
  -25.9349  -11.6541   20.5732 N   0  0  0  0  0  0
  -22.0457  -12.8192   22.0422 N   0  0  0  0  0  0
  -25.4083  -15.1911   20.4200 N   0  0  0  0  0  0
  -31.7121  -15.0399   20.1223 O   0  0  0  0  0  0
  -21.6637   -6.8871   21.4248 O   0  0  0  0  0  0
  -22.3485  -14.5484   20.6690 O   0  0  0  0  0  0
  -24.6420  -31.8467   23.1889 C   0  0  0  0  0  0
  -25.9201  -32.4711   23.8283 C   0  0  1  0  0  0
  -27.2252  -27.1589   20.1449 C   0  0  0  0  0  0
  -25.5952  -33.8514   24.2206 N   0  0  0  0  0  0
  -23.4443  -30.4657   21.5359 C   0  0  2  0  0  0
  -24.8942  -28.8964   20.1137 C   0  0  0  0  0  0
  -22.7566  -29.4557   22.4877 C   0  0  0  0  0  0
  -18.0302  -28.1402   22.8478 C   0  0  0  0  0  0
  -24.1494  -36.7260   23.2639 C   0  0  0  0  0  0
  -25.9996  -30.7284   21.3837 C   0  0  0  0  0  0
  -26.0727  -29.3411   20.7264 C   0  0  0  0  0  0
  -27.2395  -28.4897   20.7230 C   0  0  0  0  0  0
  -26.0168  -26.8115   19.4986 C   0  0  0  0  0  0
  -24.8787  -27.6437   19.4851 C   0  0  0  0  0  0
  -23.6690  -29.7949   20.1553 C   0  0  0  0  0  0
  -25.4126  -36.3041   24.0316 C   0  0  1  0  0  0
  -20.5919  -28.3723   23.1251 C   0  0  2  0  0  0
  -20.6796  -26.9429   22.5409 C   0  0  0  0  0  0
  -19.5765  -26.6388   21.5222 C   0  0  0  0  0  0
  -18.1944  -26.7938   22.1626 C   0  0  0  0  0  0
  -19.1561  -28.8884   23.2856 C   0  0  0  0  0  0
  -18.9472  -30.1478   23.8880 C   0  0  0  0  0  0
  -17.6469  -30.6599   24.0563 C   0  0  0  0  0  0
  -25.9075  -34.9415   23.5076 C   0  0  0  0  0  0
  -16.5358  -29.9092   23.6334 C   0  0  0  0  0  0
  -16.7286  -28.6512   23.0354 C   0  0  0  0  0  0
  -26.4518  -31.6560   25.0710 C   0  0  0  0  0  0
  -25.3700  -31.3757   26.1403 C   0  0  0  0  0  0
  -27.0366  -30.2953   24.6269 C   0  0  0  0  0  0
  -27.6061  -32.4305   25.7496 C   0  0  0  0  0  0
  -27.5583  -37.1786   24.8466 C   0  0  0  0  0  0
  -21.4258  -29.3048   22.3625 N   0  0  0  0  0  0
  -26.4295  -37.3751   23.9406 N   0  0  0  0  0  0
  -24.7156  -31.0342   22.0914 N   0  0  0  0  0  0
  -23.4212  -28.8108   23.3027 O   0  0  0  0  0  0
  -28.2954  -26.1957   20.1896 O   0  0  0  0  0  0
  -26.5664  -34.8907   22.4652 O   0  0  0  0  0  0
  -23.5548  -32.1335   23.7119 O   0  0  0  0  0  0
  -30.2742  -19.9686   20.2523 C   0  0  0  0  0  0
  -30.5500  -18.5255   20.2521 C   0  0  0  0  0  0
  -28.0535  -19.5295   20.8962 C   0  0  0  0  0  0
  -29.0008  -20.5592   20.5894 C   0  0  0  0  0  0
  -29.5769  -17.5156   20.5900 C   0  0  0  0  0  0
  -28.3167  -18.1119   20.8990 C   0  0  0  0  0  0
  -29.5485  -23.1692   22.6434 C   0  0  0  0  0  0
  -30.1504  -23.7066   21.3417 C   0  0  0  0  0  0
  -28.4173  -22.2227   22.2055 C   0  0  0  0  0  0
  -29.0895  -23.3817   20.2953 C   0  0  2  0  0  0
  -28.0053  -24.6723   20.2267 C   0  0  0  0  0  0
  -28.6015  -21.9869   20.7721 N   0  0  0  0  0  0
  -29.6524  -15.9903   20.6707 N   0  0  0  0  0  0
  -27.3022  -17.2780   21.2291 F   0  0  0  0  0  0
  -31.4890  -12.7201   19.1854 H   0  0  0  0  0  0
  -30.4478  -11.5908   20.0031 H   0  0  0  0  0  0
  -29.8403  -11.7435   17.5673 H   0  0  0  0  0  0
  -29.6291  -13.4693   17.7049 H   0  0  0  0  0  0
  -27.9401  -11.2819   18.9560 H   0  0  0  0  0  0
  -27.3999  -12.4810   17.8106 H   0  0  0  0  0  0
  -27.6166  -14.2549   19.4443 H   0  0  0  0  0  0
  -28.7579  -12.2203   21.4236 H   0  0  0  0  0  0
  -28.3904  -13.8847   21.7943 H   0  0  0  0  0  0
  -25.2768   -9.5666   22.4752 H   0  0  0  0  0  0
  -23.9993   -7.4625   22.7480 H   0  0  0  0  0  0
  -21.0830   -8.8775   19.8958 H   0  0  0  0  0  0
  -22.3714  -10.9654   19.6144 H   0  0  0  0  0  0
  -21.2014   -7.6133   23.9718 H   0  0  0  0  0  0
  -21.1487   -6.0506   25.9079 H   0  0  0  0  0  0
  -22.0594   -2.7593   23.2857 H   0  0  0  0  0  0
  -22.4064  -11.9871   22.4847 H   0  0  0  0  0  0
  -21.1076  -13.1224   22.2614 H   0  0  0  0  0  0
  -24.6438  -15.8343   20.5889 H   0  0  0  0  0  0
  -26.2803  -15.6708   20.2354 H   0  0  0  0  0  0
  -26.7264  -32.5327   23.1012 H   0  0  0  0  0  0
  -25.0049  -33.9632   25.0320 H   0  0  0  0  0  0
  -22.7464  -31.2912   21.3838 H   0  0  0  0  0  0
  -23.3762  -35.9587   23.3291 H   0  0  0  0  0  0
  -24.3576  -36.8898   22.2054 H   0  0  0  0  0  0
  -23.7241  -37.6450   23.6683 H   0  0  0  0  0  0
  -26.1536  -31.4845   20.6122 H   0  0  0  0  0  0
  -26.8705  -30.7785   22.0258 H   0  0  0  0  0  0
  -28.1398  -28.8306   21.2144 H   0  0  0  0  0  0
  -25.9143  -25.8622   18.9973 H   0  0  0  0  0  0
  -23.9805  -27.2990   18.9913 H   0  0  0  0  0  0
  -23.8018  -30.5700   19.3995 H   0  0  0  0  0  0
  -22.7843  -29.2352   19.8463 H   0  0  0  0  0  0
  -25.1315  -36.1873   25.0810 H   0  0  0  0  0  0
  -21.0010  -28.3313   24.1373 H   0  0  0  0  0  0
  -20.5719  -26.2330   23.3620 H   0  0  0  0  0  0
  -21.6657  -26.7457   22.1190 H   0  0  0  0  0  0
  -19.6926  -25.6299   21.1259 H   0  0  0  0  0  0
  -19.6701  -27.3196   20.6751 H   0  0  0  0  0  0
  -17.4215  -26.6682   21.4029 H   0  0  0  0  0  0
  -18.0337  -26.0093   22.9035 H   0  0  0  0  0  0
  -19.7945  -30.7301   24.2238 H   0  0  0  0  0  0
  -17.5019  -31.6275   24.5174 H   0  0  0  0  0  0
  -15.5358  -30.2990   23.7673 H   0  0  0  0  0  0
  -15.8684  -28.0830   22.7078 H   0  0  0  0  0  0
  -24.5878  -30.7111   25.7720 H   0  0  0  0  0  0
  -24.8886  -32.2942   26.4776 H   0  0  0  0  0  0
  -25.7972  -30.8957   27.0216 H   0  0  0  0  0  0
  -26.2974  -29.6688   24.1263 H   0  0  0  0  0  0
  -27.3968  -29.7244   25.4839 H   0  0  0  0  0  0
  -27.8895  -30.4192   23.9590 H   0  0  0  0  0  0
  -27.2670  -33.3622   26.2041 H   0  0  0  0  0  0
  -28.3895  -32.6830   25.0338 H   0  0  0  0  0  0
  -28.0702  -31.8439   26.5436 H   0  0  0  0  0  0
  -28.2593  -38.0092   24.7515 H   0  0  0  0  0  0
  -28.1083  -36.2617   24.6292 H   0  0  0  0  0  0
  -27.2295  -37.1438   25.8867 H   0  0  0  0  0  0
  -20.9476  -29.8738   21.6779 H   0  0  0  0  0  0
  -26.0161  -38.2821   24.1402 H   0  0  0  0  0  0
  -31.0926  -20.6354   20.0184 H   0  0  0  0  0  0
  -31.5490  -18.2015   19.9970 H   0  0  0  0  0  0
  -27.0557  -19.8328   21.1750 H   0  0  0  0  0  0
  -29.1556  -23.9749   23.2655 H   0  0  0  0  0  0
  -30.3084  -22.6459   23.2264 H   0  0  0  0  0  0
  -31.0695  -23.1659   21.1109 H   0  0  0  0  0  0
  -30.3995  -24.7672   21.3882 H   0  0  0  0  0  0
  -27.4426  -22.6858   22.3689 H   0  0  0  0  0  0
  -28.4303  -21.3161   22.8132 H   0  0  0  0  0  0
  -29.5695  -23.2849   19.3201 H   0  0  0  0  0  0
  -27.3272  -24.5614   21.0724 H   0  0  0  0  0  0
  -27.3984  -24.4423   19.3538 H   0  0  0  0  0  0
  -28.7488  -15.6240   20.9289 H   0  0  0  0  0  0
  1 25  1  0  0  0
  1 30  2  0  0  0
  1 83  1  0  0  0
  2  3  1  0  0  0
  2 25  1  0  0  0
  2 85  1  0  0  0
  2 86  1  0  0  0
  3  4  1  0  0  0
  3 87  1  0  0  0
  3 88  1  0  0  0
  4  5  1  0  0  0
  4 89  1  0  0  0
  4 90  1  0  0  0
  5  6  1  0  0  0
  5 26  1  0  0  0
  5 91  1  0  0  0
  6 25  1  0  0  0
  6 92  1  0  0  0
  6 93  1  0  0  0
  7  8  2  0  0  0
  7 26  1  0  0  0
  7 29  1  0  0  0
  8  9  1  0  0  0
  8 22  1  0  0  0
  9 10  1  0  0  0
  9 27  2  0  0  0
 10 11  2  0  0  0
 10 15  1  0  0  0
 11 12  1  0  0  0
 11 94  1  0  0  0
 12 13  2  0  0  0
 12 95  1  0  0  0
 13 14  1  0  0  0
 13 31  1  0  0  0
 14 15  2  0  0  0
 14 96  1  0  0  0
 15 97  1  0  0  0
 16 17  2  0  0  0
 16 21  1  0  0  0
 16 31  1  0  0  0
 17 18  1  0  0  0
 17 98  1  0  0  0
 18 19  2  0  0  0
 18 99  1  0  0  0
 19 20  1  0  0  0
 19 24  1  0  0  0
 20 21  2  0  0  0
 20100  1  0  0  0
 21 23  1  0  0  0
 22 28  1  0  0  0
 22 32  2  0  0  0
 26 27  1  0  0  0
 28101  1  0  0  0
 28102  1  0  0  0
 29103  1  0  0  0
 29104  1  0  0  0
 33 34  1  0  0  0
 33 66  1  0  0  0
 33 70  2  0  0  0
 34 36  1  0  0  0
 34 59  1  0  0  0
 34105  1  0  0  0
 35 44  2  0  0  0
 35 45  1  0  0  0
 35 68  1  0  0  0
 36 56  1  0  0  0
 36106  1  0  0  0
 37 39  1  0  0  0
 37 47  1  0  0  0
 37 66  1  0  0  0
 37107  1  0  0  0
 38 43  2  0  0  0
 38 46  1  0  0  0
 38 47  1  0  0  0
 39 64  1  0  0  0
 39 67  2  0  0  0
 40 52  1  0  0  0
 40 53  2  0  0  0
 40 58  1  0  0  0
 41108  1  0  0  0
 41109  1  0  0  0
 41110  1  0  0  0
 41 48  1  0  0  0
 42 43  1  0  0  0
 42 66  1  0  0  0
 42111  1  0  0  0
 42112  1  0  0  0
 43 44  1  0  0  0
 44113  1  0  0  0
 45 46  2  0  0  0
 45114  1  0  0  0
 46115  1  0  0  0
 47116  1  0  0  0
 47117  1  0  0  0
 48 56  1  0  0  0
 48 65  1  0  0  0
 48118  1  0  0  0
 49 50  1  0  0  0
 49 53  1  0  0  0
 49 64  1  0  0  0
 49119  1  0  0  0
 50 51  1  0  0  0
 50120  1  0  0  0
 50121  1  0  0  0
 51 52  1  0  0  0
 51122  1  0  0  0
 51123  1  0  0  0
 52124  1  0  0  0
 52125  1  0  0  0
 53 54  1  0  0  0
 54 55  2  0  0  0
 54126  1  0  0  0
 55 57  1  0  0  0
 55127  1  0  0  0
 56 69  2  0  0  0
 57 58  2  0  0  0
 57128  1  0  0  0
 58129  1  0  0  0
 59 60  1  0  0  0
 59 61  1  0  0  0
 59 62  1  0  0  0
 60130  1  0  0  0
 60131  1  0  0  0
 60132  1  0  0  0
 61133  1  0  0  0
 61134  1  0  0  0
 61135  1  0  0  0
 62136  1  0  0  0
 62137  1  0  0  0
 62138  1  0  0  0
 63 65  1  0  0  0
 63139  1  0  0  0
 63140  1  0  0  0
 63141  1  0  0  0
 64142  1  0  0  0
 65143  1  0  0  0
 68 81  1  0  0  0
 71 72  2  0  0  0
 71 74  1  0  0  0
 71144  1  0  0  0
 72 75  1  0  0  0
 72145  1  0  0  0
 73 74  2  0  0  0
 73 76  1  0  0  0
 73146  1  0  0  0
 74 82  1  0  0  0
 75 76  2  0  0  0
 75 83  1  0  0  0
 76 84  1  0  0  0
 77 78  1  0  0  0
 77 79  1  0  0  0
 77147  1  0  0  0
 77148  1  0  0  0
 78 80  1  0  0  0
 78149  1  0  0  0
 78150  1  0  0  0
 79 82  1  0  0  0
 79151  1  0  0  0
 79152  1  0  0  0
 80 81  1  0  0  0
 80 82  1  0  0  0
 80153  1  0  0  0
 81154  1  0  0  0
 81155  1  0  0  0
 83156  1  0  0  0
M  ISO  4   1 100  68 101  81 101  83 100
M  END
> <chiral flag>
0

> <version>
0

> <s_m_source_file>
/data/baiqing/PycharmProjects/Reinvent-master-3.2/result/LINK_invent/BTK/process_docking_weight1_custom_product_contain_oxygen_bond_distance_aromatic_linkinvent_7_9_3/rearranged_h_0023.sdf

> <i_m_source_file_index>
27

> <r_mmod_Potential_Energy-OPLS-2005>
509.684173583984

> <r_mmod_Stretch_Energy-OPLS-2005>
211.421813964844

> <r_mmod_Bend_Energy-OPLS-2005>
325.570037841797

> <r_mmod_Torsional_Energy-OPLS-2005>
289.885955810547

> <r_mmod_Improper_Torsional_Energy-OPLS-2005>
8.84271812438965

> <r_mmod_Van_der_Waal_Energy-OPLS-2005>
132.407669067383

> <r_mmod_Electrostatic_Energy-OPLS-2005>
-410.414001464844

> <r_mmod_Solvation_Energy-OPLS-2005>
-213.918563842773

> <b_mmod_Minimization_Converged-OPLS-2005>
0

> <r_mmod_RMS_Derivative-OPLS-2005>
1.52198851108551

$$$$
27
                    3D
 Structure written by MMmdl.
155164  0  0  1  0            999 V2000
  -30.6062  -14.6444   20.5100 C   0  0  0  0  0  0
  -30.4435  -12.3971   19.4537 C   0  0  0  0  0  0
  -29.5098  -12.5141   18.2269 C   0  0  0  0  0  0
  -28.0319  -12.3483   18.6360 C   0  0  0  0  0  0
  -27.6551  -13.2125   19.8685 C   0  0  2  0  0  0
  -28.6991  -13.0527   20.9970 C   0  0  0  0  0  0
  -25.2575  -13.8162   20.5707 C   0  0  0  0  0  0
  -24.1829  -13.0433   20.9191 C   0  0  0  0  0  0
  -24.6390  -11.6902   20.8732 C   0  0  0  0  0  0
  -23.9057  -10.4289   21.0401 C   0  0  0  0  0  0
  -24.3611   -9.4208   21.9183 C   0  0  0  0  0  0
  -23.6290   -8.2243   22.0757 C   0  0  0  0  0  0
  -22.4272   -8.0280   21.3546 C   0  0  0  0  0  0
  -21.9905   -9.0250   20.4647 C   0  0  0  0  0  0
  -22.7229  -10.2131   20.3056 C   0  0  0  0  0  0
  -21.6852   -6.0735   22.5279 C   0  0  0  0  0  0
  -21.4011   -6.5639   23.8213 C   0  0  0  0  0  0
  -21.3661   -5.6793   24.9175 C   0  0  0  0  0  0
  -21.6048   -4.3057   24.7223 C   0  0  0  0  0  0
  -21.8817   -3.8150   23.4345 C   0  0  0  0  0  0
  -21.9191   -4.6964   22.3401 C   0  0  0  0  0  0
  -22.7854  -13.5237   21.1850 C   0  0  0  0  0  0
  -22.1660   -4.2151   21.0979 F   0  0  0  0  0  0
  -21.5632   -3.4543   25.7737 F   0  0  0  0  0  0
  -30.0155  -13.4085   20.4406 N   0  0  0  0  0  0
  -26.2994  -12.9331   20.3337 N   0  0  0  0  0  0
  -25.9317  -11.6488   20.5751 N   0  0  0  0  0  0
  -22.0490  -12.8229   22.0403 N   0  0  0  0  0  0
  -25.4310  -15.1885   20.4163 N   0  0  0  0  0  0
  -31.7597  -14.8281   20.1077 O   0  0  0  0  0  0
  -21.6639   -6.8877   21.4242 O   0  0  0  0  0  0
  -22.3545  -14.5545   20.6701 O   0  0  0  0  0  0
  -24.6257  -31.8602   23.2019 C   0  0  0  0  0  0
  -25.9110  -32.4776   23.8340 C   0  0  1  0  0  0
  -27.2255  -27.3208   20.1215 C   0  0  0  0  0  0
  -25.5930  -33.8575   24.2268 N   0  0  0  0  0  0
  -23.4189  -30.4826   21.5456 C   0  0  2  0  0  0
  -24.8668  -28.9375   20.1134 C   0  0  0  0  0  0
  -22.7477  -29.4616   22.4946 C   0  0  0  0  0  0
  -18.0287  -28.1377   22.8484 C   0  0  0  0  0  0
  -24.1492  -36.7292   23.2639 C   0  0  0  0  0  0
  -25.9596  -30.7902   21.3745 C   0  0  0  0  0  0
  -26.0349  -29.4169   20.7198 C   0  0  0  0  0  0
  -27.2184  -28.6205   20.7149 C   0  0  0  0  0  0
  -26.0410  -26.9013   19.4763 C   0  0  0  0  0  0
  -24.8718  -27.6845   19.4822 C   0  0  0  0  0  0
  -23.6340  -29.8168   20.1613 C   0  0  0  0  0  0
  -25.4117  -36.3079   24.0328 C   0  0  1  0  0  0
  -20.5885  -28.3678   23.1287 C   0  0  2  0  0  0
  -20.6770  -26.9399   22.5417 C   0  0  0  0  0  0
  -19.5748  -26.6378   21.5214 C   0  0  0  0  0  0
  -18.1927  -26.7919   22.1621 C   0  0  0  0  0  0
  -19.1539  -28.8845   23.2878 C   0  0  0  0  0  0
  -18.9465  -30.1452   23.8883 C   0  0  0  0  0  0
  -17.6464  -30.6574   24.0564 C   0  0  0  0  0  0
  -25.9058  -34.9452   23.5098 C   0  0  0  0  0  0
  -16.5355  -29.9071   23.6330 C   0  0  0  0  0  0
  -16.7276  -28.6498   23.0334 C   0  0  0  0  0  0
  -26.4490  -31.6577   25.0705 C   0  0  0  0  0  0
  -25.3717  -31.3731   26.1428 C   0  0  0  0  0  0
  -27.0322  -30.2992   24.6168 C   0  0  0  0  0  0
  -27.6056  -32.4310   25.7473 C   0  0  0  0  0  0
  -27.5580  -37.1804   24.8469 C   0  0  0  0  0  0
  -21.4191  -29.3035   22.3694 N   0  0  0  0  0  0
  -26.4293  -37.3775   23.9410 N   0  0  0  0  0  0
  -24.6865  -31.0615   22.0970 N   0  0  0  0  0  0
  -23.4205  -28.8155   23.3021 O   0  0  0  0  0  0
  -28.3390  -26.4670   20.1476 O   0  0  0  0  0  0
  -26.5626  -34.8923   22.4666 O   0  0  0  0  0  0
  -23.5423  -32.1401   23.7354 O   0  0  0  0  0  0
  -30.6617  -19.3036   19.9350 C   0  0  0  0  0  0
  -30.7954  -17.8901   20.1096 C   0  0  0  0  0  0
  -28.6428  -17.8533   21.1669 C   0  0  0  0  0  0
  -29.5215  -20.0437   20.3721 C   0  0  0  0  0  0
  -29.7788  -17.1180   20.7312 C   0  0  0  0  0  0
  -28.4973  -19.2621   20.9867 C   0  0  0  0  0  0
  -29.0635  -22.5304   20.9176 C   0  0  0  0  0  0
  -29.3594  -23.5169   18.7820 C   0  0  0  0  0  0
  -29.8733  -22.0592   18.8272 C   0  0  0  0  0  0
  -29.2081  -23.9412   20.2459 C   0  0  1  0  0  0
  -28.1025  -25.0526   20.5385 C   0  0  0  0  0  0
  -29.4164  -21.4918   20.0966 N   0  0  0  0  0  0
  -29.7850  -15.6627   20.9219 N   0  0  0  0  0  0
  -28.7143  -22.4165   22.0956 O   0  0  0  0  0  0
  -26.9833  -19.9584   21.4492 Cl  0  0  0  0  0  0
  -31.4834  -12.5329   19.1515 H   0  0  0  0  0  0
  -30.3879  -11.3975   19.8875 H   0  0  0  0  0  0
  -29.7756  -11.7677   17.4774 H   0  0  0  0  0  0
  -29.6492  -13.4869   17.7528 H   0  0  0  0  0  0
  -27.8674  -11.2936   18.8602 H   0  0  0  0  0  0
  -27.3781  -12.5848   17.7957 H   0  0  0  0  0  0
  -27.6767  -14.2505   19.5358 H   0  0  0  0  0  0
  -28.7117  -12.0237   21.3591 H   0  0  0  0  0  0
  -28.4398  -13.6640   21.8627 H   0  0  0  0  0  0
  -25.2754   -9.5689   22.4756 H   0  0  0  0  0  0
  -24.0003   -7.4636   22.7477 H   0  0  0  0  0  0
  -21.0840   -8.8761   19.8951 H   0  0  0  0  0  0
  -22.3683  -10.9669   19.6168 H   0  0  0  0  0  0
  -21.1999   -7.6145   23.9715 H   0  0  0  0  0  0
  -21.1489   -6.0524   25.9077 H   0  0  0  0  0  0
  -22.0594   -2.7613   23.2844 H   0  0  0  0  0  0
  -22.4099  -11.9887   22.4785 H   0  0  0  0  0  0
  -21.1114  -13.1268   22.2611 H   0  0  0  0  0  0
  -24.6659  -15.8431   20.5371 H   0  0  0  0  0  0
  -26.2768  -15.6280   20.0776 H   0  0  0  0  0  0
  -26.7172  -32.5452   23.1082 H   0  0  0  0  0  0
  -25.0081  -33.9720   25.0415 H   0  0  0  0  0  0
  -22.7118  -31.3021   21.4022 H   0  0  0  0  0  0
  -23.3758  -35.9618   23.3285 H   0  0  0  0  0  0
  -24.3590  -36.8933   22.2058 H   0  0  0  0  0  0
  -23.7241  -37.6487   23.6672 H   0  0  0  0  0  0
  -26.0920  -31.5513   20.6041 H   0  0  0  0  0  0
  -26.8394  -30.8389   22.0041 H   0  0  0  0  0  0
  -28.1144  -28.9840   21.1984 H   0  0  0  0  0  0
  -26.0014  -25.9570   18.9541 H   0  0  0  0  0  0
  -23.9814  -27.3156   18.9922 H   0  0  0  0  0  0
  -23.7527  -30.5923   19.4038 H   0  0  0  0  0  0
  -22.7540  -29.2453   19.8606 H   0  0  0  0  0  0
  -25.1300  -36.1925   25.0820 H   0  0  0  0  0  0
  -20.9973  -28.3247   24.1409 H   0  0  0  0  0  0
  -20.5662  -26.2289   23.3620 H   0  0  0  0  0  0
  -21.6641  -26.7417   22.1220 H   0  0  0  0  0  0
  -19.6908  -25.6292   21.1237 H   0  0  0  0  0  0
  -19.6682  -27.3196   20.6752 H   0  0  0  0  0  0
  -17.4201  -26.6676   21.4015 H   0  0  0  0  0  0
  -18.0314  -26.0055   22.9010 H   0  0  0  0  0  0
  -19.7942  -30.7280   24.2231 H   0  0  0  0  0  0
  -17.5014  -31.6249   24.5176 H   0  0  0  0  0  0
  -15.5354  -30.2964   23.7662 H   0  0  0  0  0  0
  -15.8681  -28.0827   22.7018 H   0  0  0  0  0  0
  -24.5927  -30.7027   25.7774 H   0  0  0  0  0  0
  -24.8855  -32.2895   26.4783 H   0  0  0  0  0  0
  -25.8037  -30.8979   27.0242 H   0  0  0  0  0  0
  -26.2888  -29.6743   24.1202 H   0  0  0  0  0  0
  -27.4018  -29.7251   25.4676 H   0  0  0  0  0  0
  -27.8758  -30.4256   23.9377 H   0  0  0  0  0  0
  -27.2691  -33.3665   26.1951 H   0  0  0  0  0  0
  -28.3911  -32.6773   25.0315 H   0  0  0  0  0  0
  -28.0647  -31.8476   26.5462 H   0  0  0  0  0  0
  -28.2603  -38.0095   24.7512 H   0  0  0  0  0  0
  -28.1073  -36.2632   24.6298 H   0  0  0  0  0  0
  -27.2304  -37.1463   25.8873 H   0  0  0  0  0  0
  -20.9369  -29.8779   21.6923 H   0  0  0  0  0  0
  -26.0172  -38.2852   24.1400 H   0  0  0  0  0  0
  -31.4689  -19.8251   19.4416 H   0  0  0  0  0  0
  -31.6905  -17.4074   19.7442 H   0  0  0  0  0  0
  -27.8248  -17.3227   21.6326 H   0  0  0  0  0  0
  -28.3904  -23.5509   18.2814 H   0  0  0  0  0  0
  -30.0347  -24.1713   18.2302 H   0  0  0  0  0  0
  -30.9640  -22.0468   18.8015 H   0  0  0  0  0  0
  -29.5132  -21.4802   17.9758 H   0  0  0  0  0  0
  -30.1648  -24.3261   20.5998 H   0  0  0  0  0  0
  -27.9440  -25.0761   21.6174 H   0  0  0  0  0  0
  -27.1675  -24.6703   20.1361 H   0  0  0  0  0  0
  -28.9252  -15.2998   21.3040 H   0  0  0  0  0  0
  1 25  1  0  0  0
  1 30  2  0  0  0
  1 83  1  0  0  0
  2  3  1  0  0  0
  2 25  1  0  0  0
  2 86  1  0  0  0
  2 87  1  0  0  0
  3  4  1  0  0  0
  3 88  1  0  0  0
  3 89  1  0  0  0
  4  5  1  0  0  0
  4 90  1  0  0  0
  4 91  1  0  0  0
  5  6  1  0  0  0
  5 26  1  0  0  0
  5 92  1  0  0  0
  6 25  1  0  0  0
  6 93  1  0  0  0
  6 94  1  0  0  0
  7  8  2  0  0  0
  7 26  1  0  0  0
  7 29  1  0  0  0
  8  9  1  0  0  0
  8 22  1  0  0  0
  9 10  1  0  0  0
  9 27  2  0  0  0
 10 11  2  0  0  0
 10 15  1  0  0  0
 11 12  1  0  0  0
 11 95  1  0  0  0
 12 13  2  0  0  0
 12 96  1  0  0  0
 13 14  1  0  0  0
 13 31  1  0  0  0
 14 15  2  0  0  0
 14 97  1  0  0  0
 15 98  1  0  0  0
 16 17  2  0  0  0
 16 21  1  0  0  0
 16 31  1  0  0  0
 17 18  1  0  0  0
 17 99  1  0  0  0
 18 19  2  0  0  0
 18100  1  0  0  0
 19 20  1  0  0  0
 19 24  1  0  0  0
 20 21  2  0  0  0
 20101  1  0  0  0
 21 23  1  0  0  0
 22 28  1  0  0  0
 22 32  2  0  0  0
 26 27  1  0  0  0
 28102  1  0  0  0
 28103  1  0  0  0
 29104  1  0  0  0
 29105  1  0  0  0
 33 34  1  0  0  0
 33 66  1  0  0  0
 33 70  2  0  0  0
 34 36  1  0  0  0
 34 59  1  0  0  0
 34106  1  0  0  0
 35 44  2  0  0  0
 35 45  1  0  0  0
 35 68  1  0  0  0
 36 56  1  0  0  0
 36107  1  0  0  0
 37 39  1  0  0  0
 37 47  1  0  0  0
 37 66  1  0  0  0
 37108  1  0  0  0
 38 43  2  0  0  0
 38 46  1  0  0  0
 38 47  1  0  0  0
 39 64  1  0  0  0
 39 67  2  0  0  0
 40 52  1  0  0  0
 40 53  2  0  0  0
 40 58  1  0  0  0
 41109  1  0  0  0
 41110  1  0  0  0
 41111  1  0  0  0
 41 48  1  0  0  0
 42 43  1  0  0  0
 42 66  1  0  0  0
 42112  1  0  0  0
 42113  1  0  0  0
 43 44  1  0  0  0
 44114  1  0  0  0
 45 46  2  0  0  0
 45115  1  0  0  0
 46116  1  0  0  0
 47117  1  0  0  0
 47118  1  0  0  0
 48 56  1  0  0  0
 48 65  1  0  0  0
 48119  1  0  0  0
 49 50  1  0  0  0
 49 53  1  0  0  0
 49 64  1  0  0  0
 49120  1  0  0  0
 50 51  1  0  0  0
 50121  1  0  0  0
 50122  1  0  0  0
 51 52  1  0  0  0
 51123  1  0  0  0
 51124  1  0  0  0
 52125  1  0  0  0
 52126  1  0  0  0
 53 54  1  0  0  0
 54 55  2  0  0  0
 54127  1  0  0  0
 55 57  1  0  0  0
 55128  1  0  0  0
 56 69  2  0  0  0
 57 58  2  0  0  0
 57129  1  0  0  0
 58130  1  0  0  0
 59 60  1  0  0  0
 59 61  1  0  0  0
 59 62  1  0  0  0
 60131  1  0  0  0
 60132  1  0  0  0
 60133  1  0  0  0
 61134  1  0  0  0
 61135  1  0  0  0
 61136  1  0  0  0
 62137  1  0  0  0
 62138  1  0  0  0
 62139  1  0  0  0
 63 65  1  0  0  0
 63140  1  0  0  0
 63141  1  0  0  0
 63142  1  0  0  0
 64143  1  0  0  0
 65144  1  0  0  0
 68 81  1  0  0  0
 71 72  2  0  0  0
 71 74  1  0  0  0
 71145  1  0  0  0
 72 75  1  0  0  0
 72146  1  0  0  0
 73 75  2  0  0  0
 73 76  1  0  0  0
 73147  1  0  0  0
 74 76  2  0  0  0
 74 82  1  0  0  0
 75 83  1  0  0  0
 76 85  1  0  0  0
 77 80  1  0  0  0
 77 82  1  0  0  0
 77 84  2  0  0  0
 78 79  1  0  0  0
 78 80  1  0  0  0
 78148  1  0  0  0
 78149  1  0  0  0
 79 82  1  0  0  0
 79150  1  0  0  0
 79151  1  0  0  0
 80 81  1  0  0  0
 80152  1  0  0  0
 81153  1  0  0  0
 81154  1  0  0  0
 83155  1  0  0  0
M  ISO  4   1 100  68 101  81 101  83 100
M  END
> <chiral flag>
0

> <version>
0

> <s_m_source_file>
/data/baiqing/PycharmProjects/Reinvent-master-3.2/result/LINK_invent/BTK/process_docking_weight1_custom_product_contain_oxygen_bond_distance_aromatic_linkinvent_7_9_3/rearranged_h_0023.sdf

> <i_m_source_file_index>
28

> <r_mmod_Potential_Energy-OPLS-2005>
152.407684326172

> <r_mmod_Stretch_Energy-OPLS-2005>
81.080207824707

> <r_mmod_Bend_Energy-OPLS-2005>
169.738861083984

> <r_mmod_Torsional_Energy-OPLS-2005>
283.950317382812

> <r_mmod_Improper_Torsional_Energy-OPLS-2005>
4.36857461929321

> <r_mmod_Van_der_Waal_Energy-OPLS-2005>
138.762161254883

> <r_mmod_Electrostatic_Energy-OPLS-2005>
-351.517974853516

> <r_mmod_Solvation_Energy-OPLS-2005>
-222.573699951172

> <b_mmod_Minimization_Converged-OPLS-2005>
0

> <r_mmod_RMS_Derivative-OPLS-2005>
0.840681552886963

$$$$
28
                    3D
 Structure written by MMmdl.
150159  0  0  1  0            999 V2000
  -30.4786  -15.0244   20.4028 C   0  0  0  0  0  0
  -30.4526  -12.6364   19.4975 C   0  0  0  0  0  0
  -29.5282  -12.5404   18.2587 C   0  0  0  0  0  0
  -28.0627  -12.3119   18.6787 C   0  0  0  0  0  0
  -27.6291  -13.2474   19.8363 C   0  0  2  0  0  0
  -28.6736  -13.2876   20.9715 C   0  0  0  0  0  0
  -25.2464  -13.8209   20.5705 C   0  0  0  0  0  0
  -24.1787  -13.0433   20.9235 C   0  0  0  0  0  0
  -24.6403  -11.6917   20.8760 C   0  0  0  0  0  0
  -23.9081  -10.4289   21.0413 C   0  0  0  0  0  0
  -24.3631   -9.4199   21.9190 C   0  0  0  0  0  0
  -23.6296   -8.2241   22.0758 C   0  0  0  0  0  0
  -22.4278   -8.0288   21.3547 C   0  0  0  0  0  0
  -21.9918   -9.0266   20.4649 C   0  0  0  0  0  0
  -22.7252  -10.2138   20.3059 C   0  0  0  0  0  0
  -21.6855   -6.0735   22.5276 C   0  0  0  0  0  0
  -21.4018   -6.5640   23.8209 C   0  0  0  0  0  0
  -21.3656   -5.6791   24.9173 C   0  0  0  0  0  0
  -21.6046   -4.3055   24.7219 C   0  0  0  0  0  0
  -21.8819   -3.8142   23.4343 C   0  0  0  0  0  0
  -21.9194   -4.6961   22.3397 C   0  0  0  0  0  0
  -22.7807  -13.5206   21.1886 C   0  0  0  0  0  0
  -22.1662   -4.2148   21.0974 F   0  0  0  0  0  0
  -21.5623   -3.4538   25.7730 F   0  0  0  0  0  0
  -29.9387  -13.7324   20.3704 N   0  0  0  0  0  0
  -26.2886  -12.9432   20.3231 N   0  0  0  0  0  0
  -25.9335  -11.6568   20.5742 N   0  0  0  0  0  0
  -22.0450  -12.8199   22.0441 N   0  0  0  0  0  0
  -25.4107  -15.1939   20.4098 N   0  0  0  0  0  0
  -31.6868  -15.1287   20.1594 O   0  0  0  0  0  0
  -21.6640   -6.8884   21.4241 O   0  0  0  0  0  0
  -22.3491  -14.5504   20.6719 O   0  0  0  0  0  0
  -24.6469  -31.8382   23.1811 C   0  0  0  0  0  0
  -25.9223  -32.4659   23.8230 C   0  0  1  0  0  0
  -27.2271  -27.0900   20.1683 C   0  0  0  0  0  0
  -25.5947  -33.8467   24.2144 N   0  0  0  0  0  0
  -23.4539  -30.4529   21.5268 C   0  0  2  0  0  0
  -24.9059  -28.8625   20.1155 C   0  0  0  0  0  0
  -22.7586  -29.4516   22.4828 C   0  0  0  0  0  0
  -18.0308  -28.1394   22.8474 C   0  0  0  0  0  0
  -24.1492  -36.7246   23.2643 C   0  0  0  0  0  0
  -26.0122  -30.6986   21.3845 C   0  0  0  0  0  0
  -26.0848  -29.3028   20.7314 C   0  0  0  0  0  0
  -27.2464  -28.4358   20.7314 C   0  0  0  0  0  0
  -26.0185  -26.7507   19.5255 C   0  0  0  0  0  0
  -24.8879  -27.6019   19.4957 C   0  0  0  0  0  0
  -23.6843  -29.7721   20.1505 C   0  0  0  0  0  0
  -25.4124  -36.3007   24.0310 C   0  0  1  0  0  0
  -20.5925  -28.3727   23.1222 C   0  0  2  0  0  0
  -20.6787  -26.9422   22.5406 C   0  0  0  0  0  0
  -19.5762  -26.6372   21.5212 C   0  0  0  0  0  0
  -18.1945  -26.7929   22.1624 C   0  0  0  0  0  0
  -19.1567  -28.8878   23.2841 C   0  0  0  0  0  0
  -18.9483  -30.1471   23.8869 C   0  0  0  0  0  0
  -17.6479  -30.6589   24.0559 C   0  0  0  0  0  0
  -25.9078  -34.9387   23.5043 C   0  0  0  0  0  0
  -16.5370  -29.9082   23.6335 C   0  0  0  0  0  0
  -16.7294  -28.6502   23.0355 C   0  0  0  0  0  0
  -26.4530  -31.6548   25.0694 C   0  0  0  0  0  0
  -25.3703  -31.3759   26.1383 C   0  0  0  0  0  0
  -27.0404  -30.2934   24.6313 C   0  0  0  0  0  0
  -27.6034  -32.4335   25.7496 C   0  0  0  0  0  0
  -27.5577  -37.1770   24.8457 C   0  0  0  0  0  0
  -21.4273  -29.3043   22.3583 N   0  0  0  0  0  0
  -26.4276  -37.3731   23.9415 N   0  0  0  0  0  0
  -24.7244  -31.0195   22.0861 N   0  0  0  0  0  0
  -23.4207  -28.8077   23.3006 O   0  0  0  0  0  0
  -28.2941  -26.1072   20.1924 O   0  0  0  0  0  0
  -26.5679  -34.8902   22.4632 O   0  0  0  0  0  0
  -23.5575  -32.1271   23.7011 O   0  0  0  0  0  0
  -28.1142  -19.8279   19.9635 C   0  0  0  0  0  0
  -28.3364  -18.3852   19.9874 C   0  0  0  0  0  0
  -30.4940  -18.7238   20.7666 C   0  0  0  0  0  0
  -29.0205  -20.8734   20.3737 C   0  0  0  0  0  0
  -29.5390  -17.7074   20.3960 C   0  0  0  0  0  0
  -30.2474  -20.1801   20.7659 C   0  0  0  0  0  0
  -27.9548  -23.3148   19.4691 C   0  0  0  0  0  0
  -29.2910  -23.6003   21.0135 C   0  0  0  0  0  0
  -28.1071  -24.5628   20.4832 C   0  0  0  0  0  0
  -28.6156  -22.3871   20.4521 N   0  0  0  0  0  0
  -29.5901  -16.1486   20.4917 N   0  0  0  0  0  0
  -31.5583  -21.1620   21.3169 Cl  0  0  0  0  0  0
  -31.4793  -12.8255   19.1806 H   0  0  0  0  0  0
  -30.4754  -11.6895   20.0399 H   0  0  0  0  0  0
  -29.8582  -11.7361   17.5994 H   0  0  0  0  0  0
  -29.6021  -13.4616   17.6783 H   0  0  0  0  0  0
  -27.9687  -11.2721   18.9935 H   0  0  0  0  0  0
  -27.3987  -12.4326   17.8219 H   0  0  0  0  0  0
  -27.5838  -14.2446   19.3988 H   0  0  0  0  0  0
  -28.7808  -12.3096   21.4428 H   0  0  0  0  0  0
  -28.3616  -13.9756   21.7593 H   0  0  0  0  0  0
  -25.2779   -9.5666   22.4767 H   0  0  0  0  0  0
  -23.9997   -7.4629   22.7482 H   0  0  0  0  0  0
  -21.0844   -8.8795   19.8958 H   0  0  0  0  0  0
  -22.3718  -10.9688   19.6169 H   0  0  0  0  0  0
  -21.2017   -7.6152   23.9714 H   0  0  0  0  0  0
  -21.1476   -6.0521   25.9075 H   0  0  0  0  0  0
  -22.0598   -2.7606   23.2843 H   0  0  0  0  0  0
  -22.4079  -11.9871   22.4838 H   0  0  0  0  0  0
  -21.1070  -13.1236   22.2649 H   0  0  0  0  0  0
  -24.6326  -15.8366   20.5105 H   0  0  0  0  0  0
  -26.2301  -15.6284   20.0088 H   0  0  0  0  0  0
  -26.7291  -32.5256   23.0956 H   0  0  0  0  0  0
  -25.0047  -33.9563   25.0259 H   0  0  0  0  0  0
  -22.7592  -31.2796   21.3648 H   0  0  0  0  0  0
  -23.3749  -35.9579   23.3275 H   0  0  0  0  0  0
  -24.3577  -36.8913   22.2063 H   0  0  0  0  0  0
  -23.7249  -37.6435   23.6704 H   0  0  0  0  0  0
  -26.1703  -31.4485   20.6080 H   0  0  0  0  0  0
  -26.8814  -30.7540   22.0287 H   0  0  0  0  0  0
  -28.1496  -28.7738   21.2198 H   0  0  0  0  0  0
  -25.9341  -25.7826   19.0532 H   0  0  0  0  0  0
  -23.9874  -27.2584   19.0048 H   0  0  0  0  0  0
  -23.8277  -30.5423   19.3918 H   0  0  0  0  0  0
  -22.7982  -29.2164   19.8379 H   0  0  0  0  0  0
  -25.1311  -36.1821   25.0799 H   0  0  0  0  0  0
  -21.0020  -28.3324   24.1342 H   0  0  0  0  0  0
  -20.5665  -26.2342   23.3632 H   0  0  0  0  0  0
  -21.6653  -26.7406   22.1215 H   0  0  0  0  0  0
  -19.6921  -25.6275   21.1258 H   0  0  0  0  0  0
  -19.6700  -27.3168   20.6731 H   0  0  0  0  0  0
  -17.4211  -26.6667   21.4033 H   0  0  0  0  0  0
  -18.0352  -26.0080   22.9032 H   0  0  0  0  0  0
  -19.7960  -30.7294   24.2224 H   0  0  0  0  0  0
  -17.5033  -31.6264   24.5170 H   0  0  0  0  0  0
  -15.5371  -30.2978   23.7666 H   0  0  0  0  0  0
  -15.8695  -28.0812   22.7081 H   0  0  0  0  0  0
  -24.5882  -30.7105   25.7709 H   0  0  0  0  0  0
  -24.8895  -32.2953   26.4734 H   0  0  0  0  0  0
  -25.7974  -30.8982   27.0207 H   0  0  0  0  0  0
  -26.3034  -29.6642   24.1308 H   0  0  0  0  0  0
  -27.3984  -29.7251   25.4907 H   0  0  0  0  0  0
  -27.8951  -30.4151   23.9655 H   0  0  0  0  0  0
  -27.2591  -33.3642   26.2017 H   0  0  0  0  0  0
  -28.3877  -32.6892   25.0359 H   0  0  0  0  0  0
  -28.0668  -31.8508   26.5465 H   0  0  0  0  0  0
  -28.2554  -38.0106   24.7533 H   0  0  0  0  0  0
  -28.1112  -36.2633   24.6234 H   0  0  0  0  0  0
  -27.2302  -37.1355   25.8861 H   0  0  0  0  0  0
  -20.9484  -29.8756   21.6760 H   0  0  0  0  0  0
  -26.0132  -38.2788   24.1445 H   0  0  0  0  0  0
  -27.1328  -20.1477   19.6440 H   0  0  0  0  0  0
  -27.5013  -17.7710   19.6825 H   0  0  0  0  0  0
  -31.4610  -18.3906   21.1148 H   0  0  0  0  0  0
  -28.5385  -23.4279   18.5535 H   0  0  0  0  0  0
  -26.9188  -23.0566   19.2478 H   0  0  0  0  0  0
  -29.3893  -23.5874   22.0995 H   0  0  0  0  0  0
  -30.2523  -23.7945   20.5343 H   0  0  0  0  0  0
  -27.2861  -24.5045   21.2004 H   0  0  0  0  0  0
  -28.6592  -15.7725   20.5747 H   0  0  0  0  0  0
  1 25  1  0  0  0
  1 30  2  0  0  0
  1 81  1  0  0  0
  2  3  1  0  0  0
  2 25  1  0  0  0
  2 83  1  0  0  0
  2 84  1  0  0  0
  3  4  1  0  0  0
  3 85  1  0  0  0
  3 86  1  0  0  0
  4  5  1  0  0  0
  4 87  1  0  0  0
  4 88  1  0  0  0
  5  6  1  0  0  0
  5 26  1  0  0  0
  5 89  1  0  0  0
  6 25  1  0  0  0
  6 90  1  0  0  0
  6 91  1  0  0  0
  7  8  2  0  0  0
  7 26  1  0  0  0
  7 29  1  0  0  0
  8  9  1  0  0  0
  8 22  1  0  0  0
  9 10  1  0  0  0
  9 27  2  0  0  0
 10 11  2  0  0  0
 10 15  1  0  0  0
 11 12  1  0  0  0
 11 92  1  0  0  0
 12 13  2  0  0  0
 12 93  1  0  0  0
 13 14  1  0  0  0
 13 31  1  0  0  0
 14 15  2  0  0  0
 14 94  1  0  0  0
 15 95  1  0  0  0
 16 17  2  0  0  0
 16 21  1  0  0  0
 16 31  1  0  0  0
 17 18  1  0  0  0
 17 96  1  0  0  0
 18 19  2  0  0  0
 18 97  1  0  0  0
 19 20  1  0  0  0
 19 24  1  0  0  0
 20 21  2  0  0  0
 20 98  1  0  0  0
 21 23  1  0  0  0
 22 28  1  0  0  0
 22 32  2  0  0  0
 26 27  1  0  0  0
 28 99  1  0  0  0
 28100  1  0  0  0
 29101  1  0  0  0
 29102  1  0  0  0
 33 34  1  0  0  0
 33 66  1  0  0  0
 33 70  2  0  0  0
 34 36  1  0  0  0
 34 59  1  0  0  0
 34103  1  0  0  0
 35 44  2  0  0  0
 35 45  1  0  0  0
 35 68  1  0  0  0
 36 56  1  0  0  0
 36104  1  0  0  0
 37 39  1  0  0  0
 37 47  1  0  0  0
 37 66  1  0  0  0
 37105  1  0  0  0
 38 43  2  0  0  0
 38 46  1  0  0  0
 38 47  1  0  0  0
 39 64  1  0  0  0
 39 67  2  0  0  0
 40 52  1  0  0  0
 40 53  2  0  0  0
 40 58  1  0  0  0
 41106  1  0  0  0
 41107  1  0  0  0
 41108  1  0  0  0
 41 48  1  0  0  0
 42 43  1  0  0  0
 42 66  1  0  0  0
 42109  1  0  0  0
 42110  1  0  0  0
 43 44  1  0  0  0
 44111  1  0  0  0
 45 46  2  0  0  0
 45112  1  0  0  0
 46113  1  0  0  0
 47114  1  0  0  0
 47115  1  0  0  0
 48 56  1  0  0  0
 48 65  1  0  0  0
 48116  1  0  0  0
 49 50  1  0  0  0
 49 53  1  0  0  0
 49 64  1  0  0  0
 49117  1  0  0  0
 50 51  1  0  0  0
 50118  1  0  0  0
 50119  1  0  0  0
 51 52  1  0  0  0
 51120  1  0  0  0
 51121  1  0  0  0
 52122  1  0  0  0
 52123  1  0  0  0
 53 54  1  0  0  0
 54 55  2  0  0  0
 54124  1  0  0  0
 55 57  1  0  0  0
 55125  1  0  0  0
 56 69  2  0  0  0
 57 58  2  0  0  0
 57126  1  0  0  0
 58127  1  0  0  0
 59 60  1  0  0  0
 59 61  1  0  0  0
 59 62  1  0  0  0
 60128  1  0  0  0
 60129  1  0  0  0
 60130  1  0  0  0
 61131  1  0  0  0
 61132  1  0  0  0
 61133  1  0  0  0
 62134  1  0  0  0
 62135  1  0  0  0
 62136  1  0  0  0
 63 65  1  0  0  0
 63137  1  0  0  0
 63138  1  0  0  0
 63139  1  0  0  0
 64140  1  0  0  0
 65141  1  0  0  0
 68 79  1  0  0  0
 71 72  2  0  0  0
 71 74  1  0  0  0
 71142  1  0  0  0
 72 75  1  0  0  0
 72143  1  0  0  0
 73 75  2  0  0  0
 73 76  1  0  0  0
 73144  1  0  0  0
 74 76  2  0  0  0
 74 80  1  0  0  0
 75 81  1  0  0  0
 76 82  1  0  0  0
 77 79  1  0  0  0
 77 80  1  0  0  0
 77145  1  0  0  0
 77146  1  0  0  0
 78 79  1  0  0  0
 78 80  1  0  0  0
 78147  1  0  0  0
 78148  1  0  0  0
 79149  1  0  0  0
 81150  1  0  0  0
M  ISO  4   1 100  68 101  79 101  81 100
M  END
> <chiral flag>
0

> <version>
0

> <s_m_source_file>
/data/baiqing/PycharmProjects/Reinvent-master-3.2/result/LINK_invent/BTK/process_docking_weight1_custom_product_contain_oxygen_bond_distance_aromatic_linkinvent_7_9_3/rearranged_h_0023.sdf

> <i_m_source_file_index>
29

> <r_mmod_Potential_Energy-OPLS-2005>
723.892822265625

> <r_mmod_Stretch_Energy-OPLS-2005>
270.491027832031

> <r_mmod_Bend_Energy-OPLS-2005>
389.943389892578

> <r_mmod_Torsional_Energy-OPLS-2005>
249.811935424805

> <r_mmod_Improper_Torsional_Energy-OPLS-2005>
9.53128242492676

> <r_mmod_Van_der_Waal_Energy-OPLS-2005>
124.098609924316

> <r_mmod_Electrostatic_Energy-OPLS-2005>
-329.298736572266

> <r_mmod_Solvation_Energy-OPLS-2005>
-231.971786499023

> <b_mmod_Minimization_Converged-OPLS-2005>
0

> <r_mmod_RMS_Derivative-OPLS-2005>
1.18919157981873

$$$$
29
                    3D
 Structure written by MMmdl.
154163  0  0  1  0            999 V2000
  -30.6260  -14.5648   20.5028 C   0  0  0  0  0  0
  -30.4301  -12.3385   19.4613 C   0  0  0  0  0  0
  -29.5116  -12.4942   18.2301 C   0  0  0  0  0  0
  -28.0266  -12.3588   18.6247 C   0  0  0  0  0  0
  -27.6536  -13.2115   19.8639 C   0  0  2  0  0  0
  -28.6892  -13.0377   20.9965 C   0  0  0  0  0  0
  -25.2565  -13.8155   20.5705 C   0  0  0  0  0  0
  -24.1803  -13.0444   20.9170 C   0  0  0  0  0  0
  -24.6350  -11.6912   20.8695 C   0  0  0  0  0  0
  -23.9023  -10.4298   21.0381 C   0  0  0  0  0  0
  -24.3579   -9.4224   21.9164 C   0  0  0  0  0  0
  -23.6272   -8.2256   22.0753 C   0  0  0  0  0  0
  -22.4261   -8.0278   21.3548 C   0  0  0  0  0  0
  -21.9873   -9.0251   20.4651 C   0  0  0  0  0  0
  -22.7189  -10.2136   20.3048 C   0  0  0  0  0  0
  -21.6859   -6.0723   22.5265 C   0  0  0  0  0  0
  -21.4020   -6.5624   23.8200 C   0  0  0  0  0  0
  -21.3661   -5.6776   24.9165 C   0  0  0  0  0  0
  -21.6052   -4.3043   24.7215 C   0  0  0  0  0  0
  -21.8821   -3.8134   23.4333 C   0  0  0  0  0  0
  -21.9194   -4.6948   22.3385 C   0  0  0  0  0  0
  -22.7843  -13.5269   21.1856 C   0  0  0  0  0  0
  -22.1669   -4.2130   21.0969 F   0  0  0  0  0  0
  -21.5630   -3.4529   25.7728 F   0  0  0  0  0  0
  -30.0181  -13.3461   20.4524 N   0  0  0  0  0  0
  -26.2969  -12.9322   20.3285 N   0  0  0  0  0  0
  -25.9268  -11.6484   20.5675 N   0  0  0  0  0  0
  -22.0470  -12.8270   22.0403 N   0  0  0  0  0  0
  -25.4349  -15.1871   20.4275 N   0  0  0  0  0  0
  -31.8125  -14.6818   20.1824 O   0  0  0  0  0  0
  -21.6647   -6.8867   21.4237 O   0  0  0  0  0  0
  -22.3543  -14.5603   20.6745 O   0  0  0  0  0  0
  -24.6171  -31.8657   23.2125 C   0  0  0  0  0  0
  -25.9051  -32.4820   23.8415 C   0  0  1  0  0  0
  -27.2310  -27.4151   20.1117 C   0  0  0  0  0  0
  -25.5919  -33.8617   24.2345 N   0  0  0  0  0  0
  -23.4070  -30.4892   21.5518 C   0  0  2  0  0  0
  -24.8552  -28.9550   20.1168 C   0  0  0  0  0  0
  -22.7444  -29.4622   22.4994 C   0  0  0  0  0  0
  -18.0274  -28.1349   22.8521 C   0  0  0  0  0  0
  -24.1485  -36.7305   23.2634 C   0  0  0  0  0  0
  -25.9375  -30.8281   21.3676 C   0  0  0  0  0  0
  -26.0163  -29.4602   20.7164 C   0  0  0  0  0  0
  -27.2088  -28.6975   20.7121 C   0  0  0  0  0  0
  -26.0595  -26.9335   19.4947 C   0  0  0  0  0  0
  -24.8733  -27.6920   19.5005 C   0  0  0  0  0  0
  -23.6189  -29.8259   20.1644 C   0  0  0  0  0  0
  -25.4108  -36.3109   24.0331 C   0  0  1  0  0  0
  -20.5881  -28.3657   23.1303 C   0  0  2  0  0  0
  -20.6785  -26.9411   22.5356 C   0  0  0  0  0  0
  -19.5720  -26.6377   21.5212 C   0  0  0  0  0  0
  -18.1929  -26.7879   22.1692 C   0  0  0  0  0  0
  -19.1530  -28.8816   23.2899 C   0  0  0  0  0  0
  -18.9444  -30.1442   23.8884 C   0  0  0  0  0  0
  -17.6439  -30.6580   24.0522 C   0  0  0  0  0  0
  -25.9035  -34.9465   23.5130 C   0  0  0  0  0  0
  -16.5338  -29.9075   23.6307 C   0  0  0  0  0  0
  -16.7260  -28.6476   23.0355 C   0  0  0  0  0  0
  -26.4493  -31.6601   25.0731 C   0  0  0  0  0  0
  -25.3776  -31.3666   26.1495 C   0  0  0  0  0  0
  -27.0318  -30.3050   24.6077 C   0  0  0  0  0  0
  -27.6079  -32.4320   25.7475 C   0  0  0  0  0  0
  -27.5582  -37.1819   24.8464 C   0  0  0  0  0  0
  -21.4163  -29.3035   22.3752 N   0  0  0  0  0  0
  -26.4294  -37.3796   23.9407 N   0  0  0  0  0  0
  -24.6713  -31.0768   22.1016 N   0  0  0  0  0  0
  -23.4213  -28.8140   23.3002 O   0  0  0  0  0  0
  -28.3736  -26.6431   20.0896 O   0  0  0  0  0  0
  -26.5596  -34.8917   22.4697 O   0  0  0  0  0  0
  -23.5364  -32.1399   23.7517 O   0  0  0  0  0  0
  -29.9868  -19.1683   21.9108 C   0  0  0  0  0  0
  -29.4643  -20.4807   21.7995 C   0  0  0  0  0  0
  -28.6278  -18.4677   20.0579 C   0  0  0  0  0  0
  -29.5953  -18.1318   21.0321 C   0  0  0  0  0  0
  -28.5239  -20.8519   20.8009 C   0  0  0  0  0  0
  -28.1255  -19.7885   19.9406 C   0  0  0  0  0  0
  -30.2568  -16.7775   21.0890 C   0  0  0  0  0  0
  -27.8600  -23.0890   21.7754 C   0  0  0  0  0  0
  -28.7014  -23.1844   19.9042 C   0  0  0  0  0  0
  -27.9002  -24.2214   20.7251 C   0  0  0  0  0  0
  -28.4568  -25.6192   21.1064 C   0  0  0  0  0  0
  -29.7541  -15.6452   20.7367 N   0  0  0  0  0  0
  -27.9428  -22.1660   20.6387 N   0  0  0  0  0  0
  -27.2214  -20.0429   18.9616 F   0  0  0  0  0  0
  -31.4747  -12.4458   19.1658 H   0  0  0  0  0  0
  -30.3398  -11.3390   19.8885 H   0  0  0  0  0  0
  -29.7661  -11.7470   17.4774 H   0  0  0  0  0  0
  -29.6831  -13.4668   17.7644 H   0  0  0  0  0  0
  -27.8388  -11.3063   18.8353 H   0  0  0  0  0  0
  -27.3872  -12.6212   17.7805 H   0  0  0  0  0  0
  -27.6839  -14.2536   19.5442 H   0  0  0  0  0  0
  -28.6720  -12.0193   21.3876 H   0  0  0  0  0  0
  -28.4422  -13.6862   21.8404 H   0  0  0  0  0  0
  -25.2718   -9.5717   22.4743 H   0  0  0  0  0  0
  -23.9974   -7.4661   22.7479 H   0  0  0  0  0  0
  -21.0798   -8.8788   19.8962 H   0  0  0  0  0  0
  -22.3632  -10.9693   19.6176 H   0  0  0  0  0  0
  -21.2023   -7.6135   23.9705 H   0  0  0  0  0  0
  -21.1485   -6.0504   25.9070 H   0  0  0  0  0  0
  -22.0592   -2.7593   23.2843 H   0  0  0  0  0  0
  -22.4080  -11.9933   22.4794 H   0  0  0  0  0  0
  -21.1118  -13.1357   22.2651 H   0  0  0  0  0  0
  -24.6937  -15.8545   20.6092 H   0  0  0  0  0  0
  -26.3223  -15.6211   20.2076 H   0  0  0  0  0  0
  -26.7106  -32.5527   23.1167 H   0  0  0  0  0  0
  -25.0090  -33.9762   25.0503 H   0  0  0  0  0  0
  -22.6951  -31.3050   21.4153 H   0  0  0  0  0  0
  -23.3741  -35.9646   23.3323 H   0  0  0  0  0  0
  -24.3579  -36.8910   22.2049 H   0  0  0  0  0  0
  -23.7255  -37.6515   23.6646 H   0  0  0  0  0  0
  -26.0517  -31.5948   20.6006 H   0  0  0  0  0  0
  -26.8234  -30.8845   21.9880 H   0  0  0  0  0  0
  -28.1056  -29.0849   21.1771 H   0  0  0  0  0  0
  -26.0649  -25.9722   19.0037 H   0  0  0  0  0  0
  -23.9865  -27.3024   19.0216 H   0  0  0  0  0  0
  -23.7339  -30.6044   19.4092 H   0  0  0  0  0  0
  -22.7435  -29.2481   19.8625 H   0  0  0  0  0  0
  -25.1298  -36.1975   25.0828 H   0  0  0  0  0  0
  -20.9931  -28.3208   24.1443 H   0  0  0  0  0  0
  -20.5803  -26.2246   23.3519 H   0  0  0  0  0  0
  -21.6632  -26.7557   22.1046 H   0  0  0  0  0  0
  -19.6897  -25.6287   21.1254 H   0  0  0  0  0  0
  -19.6587  -27.3187   20.6730 H   0  0  0  0  0  0
  -17.4168  -26.6529   21.4157 H   0  0  0  0  0  0
  -18.0429  -26.0052   22.9136 H   0  0  0  0  0  0
  -19.7909  -30.7270   24.2244 H   0  0  0  0  0  0
  -17.4990  -31.6292   24.5074 H   0  0  0  0  0  0
  -15.5338  -30.2965   23.7606 H   0  0  0  0  0  0
  -15.8665  -28.0779   22.7094 H   0  0  0  0  0  0
  -24.5908  -30.7079   25.7807 H   0  0  0  0  0  0
  -24.9014  -32.2805   26.5052 H   0  0  0  0  0  0
  -25.8145  -30.8733   27.0189 H   0  0  0  0  0  0
  -26.2839  -29.6804   24.1182 H   0  0  0  0  0  0
  -27.4160  -29.7296   25.4509 H   0  0  0  0  0  0
  -27.8649  -30.4370   23.9171 H   0  0  0  0  0  0
  -27.2694  -33.3594   26.2108 H   0  0  0  0  0  0
  -28.3843  -32.6941   25.0271 H   0  0  0  0  0  0
  -28.0795  -31.8415   26.5344 H   0  0  0  0  0  0
  -28.2617  -38.0097   24.7511 H   0  0  0  0  0  0
  -28.1068  -36.2646   24.6299 H   0  0  0  0  0  0
  -27.2298  -37.1475   25.8862 H   0  0  0  0  0  0
  -20.9317  -29.8865   21.7074 H   0  0  0  0  0  0
  -26.0186  -38.2870   24.1428 H   0  0  0  0  0  0
  -30.7079  -18.9608   22.6891 H   0  0  0  0  0  0
  -29.8137  -21.2160   22.5083 H   0  0  0  0  0  0
  -28.2900  -17.7149   19.3596 H   0  0  0  0  0  0
  -31.2852  -16.8210   21.4623 H   0  0  0  0  0  0
  -26.9315  -23.0337   22.3428 H   0  0  0  0  0  0
  -28.7343  -23.0916   22.4276 H   0  0  0  0  0  0
  -29.7699  -23.1843   20.1286 H   0  0  0  0  0  0
  -28.5065  -23.2182   18.8309 H   0  0  0  0  0  0
  -26.8987  -24.3301   20.3035 H   0  0  0  0  0  0
  -29.5062  -25.5288   21.3859 H   0  0  0  0  0  0
  -27.9547  -25.9779   22.0085 H   0  0  0  0  0  0
  1 25  1  0  0  0
  1 30  2  0  0  0
  1 82  1  0  0  0
  2  3  1  0  0  0
  2 25  1  0  0  0
  2 85  1  0  0  0
  2 86  1  0  0  0
  3  4  1  0  0  0
  3 87  1  0  0  0
  3 88  1  0  0  0
  4  5  1  0  0  0
  4 89  1  0  0  0
  4 90  1  0  0  0
  5  6  1  0  0  0
  5 26  1  0  0  0
  5 91  1  0  0  0
  6 25  1  0  0  0
  6 92  1  0  0  0
  6 93  1  0  0  0
  7  8  2  0  0  0
  7 26  1  0  0  0
  7 29  1  0  0  0
  8  9  1  0  0  0
  8 22  1  0  0  0
  9 10  1  0  0  0
  9 27  2  0  0  0
 10 11  2  0  0  0
 10 15  1  0  0  0
 11 12  1  0  0  0
 11 94  1  0  0  0
 12 13  2  0  0  0
 12 95  1  0  0  0
 13 14  1  0  0  0
 13 31  1  0  0  0
 14 15  2  0  0  0
 14 96  1  0  0  0
 15 97  1  0  0  0
 16 17  2  0  0  0
 16 21  1  0  0  0
 16 31  1  0  0  0
 17 18  1  0  0  0
 17 98  1  0  0  0
 18 19  2  0  0  0
 18 99  1  0  0  0
 19 20  1  0  0  0
 19 24  1  0  0  0
 20 21  2  0  0  0
 20100  1  0  0  0
 21 23  1  0  0  0
 22 28  1  0  0  0
 22 32  2  0  0  0
 26 27  1  0  0  0
 28101  1  0  0  0
 28102  1  0  0  0
 29103  1  0  0  0
 29104  1  0  0  0
 33 34  1  0  0  0
 33 66  1  0  0  0
 33 70  2  0  0  0
 34 36  1  0  0  0
 34 59  1  0  0  0
 34105  1  0  0  0
 35 44  2  0  0  0
 35 45  1  0  0  0
 35 68  1  0  0  0
 36 56  1  0  0  0
 36106  1  0  0  0
 37 39  1  0  0  0
 37 47  1  0  0  0
 37 66  1  0  0  0
 37107  1  0  0  0
 38 43  2  0  0  0
 38 46  1  0  0  0
 38 47  1  0  0  0
 39 64  1  0  0  0
 39 67  2  0  0  0
 40 52  1  0  0  0
 40 53  2  0  0  0
 40 58  1  0  0  0
 41108  1  0  0  0
 41109  1  0  0  0
 41110  1  0  0  0
 41 48  1  0  0  0
 42 43  1  0  0  0
 42 66  1  0  0  0
 42111  1  0  0  0
 42112  1  0  0  0
 43 44  1  0  0  0
 44113  1  0  0  0
 45 46  2  0  0  0
 45114  1  0  0  0
 46115  1  0  0  0
 47116  1  0  0  0
 47117  1  0  0  0
 48 56  1  0  0  0
 48 65  1  0  0  0
 48118  1  0  0  0
 49 50  1  0  0  0
 49 53  1  0  0  0
 49 64  1  0  0  0
 49119  1  0  0  0
 50 51  1  0  0  0
 50120  1  0  0  0
 50121  1  0  0  0
 51 52  1  0  0  0
 51122  1  0  0  0
 51123  1  0  0  0
 52124  1  0  0  0
 52125  1  0  0  0
 53 54  1  0  0  0
 54 55  2  0  0  0
 54126  1  0  0  0
 55 57  1  0  0  0
 55127  1  0  0  0
 56 69  2  0  0  0
 57 58  2  0  0  0
 57128  1  0  0  0
 58129  1  0  0  0
 59 60  1  0  0  0
 59 61  1  0  0  0
 59 62  1  0  0  0
 60130  1  0  0  0
 60131  1  0  0  0
 60132  1  0  0  0
 61133  1  0  0  0
 61134  1  0  0  0
 61135  1  0  0  0
 62136  1  0  0  0
 62137  1  0  0  0
 62138  1  0  0  0
 63 65  1  0  0  0
 63139  1  0  0  0
 63140  1  0  0  0
 63141  1  0  0  0
 64142  1  0  0  0
 65143  1  0  0  0
 68 81  1  0  0  0
 71 72  2  0  0  0
 71 74  1  0  0  0
 71144  1  0  0  0
 72 75  1  0  0  0
 72145  1  0  0  0
 73 74  2  0  0  0
 73 76  1  0  0  0
 73146  1  0  0  0
 74 77  1  0  0  0
 75 76  2  0  0  0
 75 83  1  0  0  0
 76 84  1  0  0  0
 77 82  2  0  0  0
 77147  1  0  0  0
 78 80  1  0  0  0
 78 83  1  0  0  0
 78148  1  0  0  0
 78149  1  0  0  0
 79 80  1  0  0  0
 79 83  1  0  0  0
 79150  1  0  0  0
 79151  1  0  0  0
 80 81  1  0  0  0
 80152  1  0  0  0
 81153  1  0  0  0
 81154  1  0  0  0
M  ISO  4   1 100  68 101  81 101  82 100
M  END
> <chiral flag>
0

> <version>
0

> <s_m_source_file>
/data/baiqing/PycharmProjects/Reinvent-master-3.2/result/LINK_invent/BTK/process_docking_weight1_custom_product_contain_oxygen_bond_distance_aromatic_linkinvent_7_9_3/rearranged_h_0023.sdf

> <i_m_source_file_index>
30

> <r_mmod_Potential_Energy-OPLS-2005>
93.0058135986328

> <r_mmod_Stretch_Energy-OPLS-2005>
47.2248878479004

> <r_mmod_Bend_Energy-OPLS-2005>
137.460052490234

> <r_mmod_Torsional_Energy-OPLS-2005>
248.096115112305

> <r_mmod_Improper_Torsional_Energy-OPLS-2005>
12.620943069458

> <r_mmod_Van_der_Waal_Energy-OPLS-2005>
154.840194702148

> <r_mmod_Electrostatic_Energy-OPLS-2005>
-331.313629150391

> <r_mmod_Solvation_Energy-OPLS-2005>
-200.307723999023

> <b_mmod_Minimization_Converged-OPLS-2005>
0

> <r_mmod_RMS_Derivative-OPLS-2005>
3.34479379653931

$$$$
30
                    3D
 Structure written by MMmdl.
155164  0  0  1  0            999 V2000
  -30.6069  -14.7762   20.3597 C   0  0  0  0  0  0
  -30.4413  -12.4460   19.4693 C   0  0  0  0  0  0
  -29.5064  -12.3934   18.2388 C   0  0  0  0  0  0
  -28.0268  -12.2873   18.6591 C   0  0  0  0  0  0
  -27.6356  -13.2218   19.8372 C   0  0  2  0  0  0
  -28.6929  -13.2105   20.9601 C   0  0  0  0  0  0
  -25.2521  -13.8175   20.5735 C   0  0  0  0  0  0
  -24.1792  -13.0436   20.9222 C   0  0  0  0  0  0
  -24.6370  -11.6910   20.8777 C   0  0  0  0  0  0
  -23.9050  -10.4288   21.0421 C   0  0  0  0  0  0
  -24.3609   -9.4200   21.9193 C   0  0  0  0  0  0
  -23.6289   -8.2231   22.0753 C   0  0  0  0  0  0
  -22.4272   -8.0271   21.3540 C   0  0  0  0  0  0
  -21.9906   -9.0245   20.4641 C   0  0  0  0  0  0
  -22.7230  -10.2128   20.3060 C   0  0  0  0  0  0
  -21.6853   -6.0730   22.5274 C   0  0  0  0  0  0
  -21.4014   -6.5635   23.8207 C   0  0  0  0  0  0
  -21.3660   -5.6788   24.9170 C   0  0  0  0  0  0
  -21.6045   -4.3052   24.7224 C   0  0  0  0  0  0
  -21.8820   -3.8142   23.4346 C   0  0  0  0  0  0
  -21.9191   -4.6958   22.3400 C   0  0  0  0  0  0
  -22.7814  -13.5225   21.1869 C   0  0  0  0  0  0
  -22.1662   -4.2143   21.0979 F   0  0  0  0  0  0
  -21.5630   -3.4538   25.7738 F   0  0  0  0  0  0
  -29.9803  -13.5474   20.3413 N   0  0  0  0  0  0
  -26.2931  -12.9357   20.3317 N   0  0  0  0  0  0
  -25.9301  -11.6517   20.5821 N   0  0  0  0  0  0
  -22.0457  -12.8210   22.0421 N   0  0  0  0  0  0
  -25.4262  -15.1894   20.4175 N   0  0  0  0  0  0
  -31.8370  -14.8221   20.2721 O   0  0  0  0  0  0
  -21.6639   -6.8868   21.4235 O   0  0  0  0  0  0
  -22.3500  -14.5532   20.6712 O   0  0  0  0  0  0
  -24.6294  -31.8561   23.1995 C   0  0  0  0  0  0
  -25.9126  -32.4760   23.8335 C   0  0  1  0  0  0
  -27.2236  -27.2842   20.1359 C   0  0  0  0  0  0
  -25.5932  -33.8564   24.2266 N   0  0  0  0  0  0
  -23.4269  -30.4772   21.5412 C   0  0  2  0  0  0
  -24.8791  -28.9275   20.1087 C   0  0  0  0  0  0
  -22.7499  -29.4601   22.4911 C   0  0  0  0  0  0
  -18.0292  -28.1393   22.8485 C   0  0  0  0  0  0
  -24.1486  -36.7278   23.2638 C   0  0  0  0  0  0
  -25.9703  -30.7760   21.3772 C   0  0  0  0  0  0
  -26.0480  -29.3998   20.7216 C   0  0  0  0  0  0
  -27.2270  -28.5891   20.7279 C   0  0  0  0  0  0
  -26.0400  -26.8748   19.4899 C   0  0  0  0  0  0
  -24.8790  -27.6720   19.4803 C   0  0  0  0  0  0
  -23.6466  -29.8099   20.1574 C   0  0  0  0  0  0
  -25.4113  -36.3072   24.0328 C   0  0  1  0  0  0
  -20.5896  -28.3702   23.1269 C   0  0  2  0  0  0
  -20.6777  -26.9418   22.5409 C   0  0  0  0  0  0
  -19.5751  -26.6391   21.5212 C   0  0  0  0  0  0
  -18.1934  -26.7937   22.1627 C   0  0  0  0  0  0
  -19.1546  -28.8866   23.2874 C   0  0  0  0  0  0
  -18.9467  -30.1467   23.8892 C   0  0  0  0  0  0
  -17.6467  -30.6592   24.0567 C   0  0  0  0  0  0
  -25.9050  -34.9441   23.5094 C   0  0  0  0  0  0
  -16.5357  -29.9090   23.6336 C   0  0  0  0  0  0
  -16.7280  -28.6510   23.0353 C   0  0  0  0  0  0
  -26.4507  -31.6580   25.0713 C   0  0  0  0  0  0
  -25.3736  -31.3726   26.1436 C   0  0  0  0  0  0
  -27.0354  -30.3000   24.6186 C   0  0  0  0  0  0
  -27.6056  -32.4322   25.7490 C   0  0  0  0  0  0
  -27.5579  -37.1797   24.8469 C   0  0  0  0  0  0
  -21.4206  -29.3042   22.3655 N   0  0  0  0  0  0
  -26.4291  -37.3771   23.9409 N   0  0  0  0  0  0
  -24.6942  -31.0538   22.0960 N   0  0  0  0  0  0
  -23.4202  -28.8142   23.3008 O   0  0  0  0  0  0
  -28.2777  -26.3508   20.1883 O   0  0  0  0  0  0
  -26.5621  -34.8916   22.4662 O   0  0  0  0  0  0
  -23.5446  -32.1374   23.7298 O   0  0  0  0  0  0
  -28.2078  -19.2843   19.9776 C   0  0  0  0  0  0
  -28.4294  -17.8789   19.8634 C   0  0  0  0  0  0
  -29.1517  -20.2210   20.4882 C   0  0  0  0  0  0
  -29.6371  -17.2392   20.2567 C   0  0  0  0  0  0
  -30.3516  -19.5581   20.9250 C   0  0  0  0  0  0
  -30.5919  -18.1354   20.8220 C   0  0  0  0  0  0
  -27.7537  -22.5424   20.2576 C   0  0  0  0  0  0
  -29.7433  -22.8130   20.7818 C   0  0  0  0  0  0
  -28.4519  -23.6411   21.1353 C   0  0  1  0  0  0
  -29.8136  -15.7760   18.3387 C   0  0  0  0  0  0
  -28.0465  -25.2165   21.1301 C   0  0  0  0  0  0
  -28.8213  -21.6731   20.5616 N   0  0  0  0  0  0
  -29.8729  -15.8360   19.8135 N   0  0  0  0  0  0
  -26.7424  -22.4025   19.6013 O   0  0  0  0  0  0
  -31.3365  -20.3182   21.4607 F   0  0  0  0  0  0
  -31.7923  -17.6528   21.2220 F   0  0  0  0  0  0
  -31.4749  -12.5855   19.1468 H   0  0  0  0  0  0
  -30.4187  -11.5009   20.0141 H   0  0  0  0  0  0
  -29.7678  -11.5334   17.6208 H   0  0  0  0  0  0
  -29.6515  -13.2527   17.5915 H   0  0  0  0  0  0
  -27.8607  -11.2497   18.9494 H   0  0  0  0  0  0
  -27.3753  -12.4651   17.8027 H   0  0  0  0  0  0
  -27.6039  -14.2292   19.4289 H   0  0  0  0  0  0
  -28.7380  -12.2365   21.4494 H   0  0  0  0  0  0
  -28.4387  -13.9405   21.7311 H   0  0  0  0  0  0
  -25.2752   -9.5678   22.4770 H   0  0  0  0  0  0
  -24.0000   -7.4621   22.7468 H   0  0  0  0  0  0
  -21.0842   -8.8760   19.8944 H   0  0  0  0  0  0
  -22.3689  -10.9666   19.6170 H   0  0  0  0  0  0
  -21.2010   -7.6146   23.9710 H   0  0  0  0  0  0
  -21.1484   -6.0522   25.9074 H   0  0  0  0  0  0
  -22.0601   -2.7604   23.2850 H   0  0  0  0  0  0
  -22.4080  -11.9876   22.4812 H   0  0  0  0  0  0
  -21.1071  -13.1218   22.2618 H   0  0  0  0  0  0
  -24.6712  -15.8537   20.5475 H   0  0  0  0  0  0
  -26.2952  -15.6234   20.1360 H   0  0  0  0  0  0
  -26.7194  -32.5429   23.1082 H   0  0  0  0  0  0
  -25.0095  -33.9702   25.0423 H   0  0  0  0  0  0
  -22.7225  -31.2987   21.3944 H   0  0  0  0  0  0
  -23.3751  -35.9611   23.3309 H   0  0  0  0  0  0
  -24.3572  -36.8889   22.2052 H   0  0  0  0  0  0
  -23.7238  -37.6480   23.6655 H   0  0  0  0  0  0
  -26.1054  -31.5363   20.6069 H   0  0  0  0  0  0
  -26.8487  -30.8278   22.0091 H   0  0  0  0  0  0
  -28.1186  -28.9378   21.2300 H   0  0  0  0  0  0
  -26.0041  -25.9016   19.0201 H   0  0  0  0  0  0
  -23.9850  -27.3044   18.9951 H   0  0  0  0  0  0
  -23.7673  -30.5847   19.3995 H   0  0  0  0  0  0
  -22.7674  -29.2385   19.8544 H   0  0  0  0  0  0
  -25.1298  -36.1919   25.0823 H   0  0  0  0  0  0
  -20.9994  -28.3280   24.1389 H   0  0  0  0  0  0
  -20.5675  -26.2307   23.3612 H   0  0  0  0  0  0
  -21.6644  -26.7442   22.1205 H   0  0  0  0  0  0
  -19.6905  -25.6302   21.1242 H   0  0  0  0  0  0
  -19.6688  -27.3202   20.6742 H   0  0  0  0  0  0
  -17.4203  -26.6687   21.4032 H   0  0  0  0  0  0
  -18.0335  -26.0082   22.9026 H   0  0  0  0  0  0
  -19.7940  -30.7289   24.2252 H   0  0  0  0  0  0
  -17.5019  -31.6271   24.5173 H   0  0  0  0  0  0
  -15.5356  -30.2991   23.7662 H   0  0  0  0  0  0
  -15.8679  -28.0831   22.7065 H   0  0  0  0  0  0
  -24.5920  -30.7062   25.7771 H   0  0  0  0  0  0
  -24.8918  -32.2894   26.4847 H   0  0  0  0  0  0
  -25.8063  -30.8923   27.0221 H   0  0  0  0  0  0
  -26.2938  -29.6743   24.1206 H   0  0  0  0  0  0
  -27.4038  -29.7264   25.4702 H   0  0  0  0  0  0
  -27.8813  -30.4277   23.9426 H   0  0  0  0  0  0
  -27.2664  -33.3630   26.2052 H   0  0  0  0  0  0
  -28.3880  -32.6872   25.0328 H   0  0  0  0  0  0
  -28.0710  -31.8456   26.5423 H   0  0  0  0  0  0
  -28.2602  -38.0088   24.7510 H   0  0  0  0  0  0
  -28.1067  -36.2617   24.6306 H   0  0  0  0  0  0
  -27.2293  -37.1463   25.8872 H   0  0  0  0  0  0
  -20.9392  -29.8759   21.6855 H   0  0  0  0  0  0
  -26.0166  -38.2842   24.1415 H   0  0  0  0  0  0
  -27.2581  -19.6586   19.6224 H   0  0  0  0  0  0
  -27.6539  -17.2877   19.3981 H   0  0  0  0  0  0
  -30.4305  -22.6911   21.6201 H   0  0  0  0  0  0
  -30.2584  -23.1381   19.8733 H   0  0  0  0  0  0
  -28.2569  -23.3661   22.1754 H   0  0  0  0  0  0
  -28.8678  -15.3587   17.9981 H   0  0  0  0  0  0
  -30.6280  -15.1952   17.9005 H   0  0  0  0  0  0
  -29.9042  -16.7618   17.8805 H   0  0  0  0  0  0
  -28.4626  -25.6181   22.0544 H   0  0  0  0  0  0
  -26.9770  -25.2119   21.3464 H   0  0  0  0  0  0
  1 25  1  0  0  0
  1 30  2  0  0  0
  1 83  1  0  0  0
  2  3  1  0  0  0
  2 25  1  0  0  0
  2 87  1  0  0  0
  2 88  1  0  0  0
  3  4  1  0  0  0
  3 89  1  0  0  0
  3 90  1  0  0  0
  4  5  1  0  0  0
  4 91  1  0  0  0
  4 92  1  0  0  0
  5  6  1  0  0  0
  5 26  1  0  0  0
  5 93  1  0  0  0
  6 25  1  0  0  0
  6 94  1  0  0  0
  6 95  1  0  0  0
  7  8  2  0  0  0
  7 26  1  0  0  0
  7 29  1  0  0  0
  8  9  1  0  0  0
  8 22  1  0  0  0
  9 10  1  0  0  0
  9 27  2  0  0  0
 10 11  2  0  0  0
 10 15  1  0  0  0
 11 12  1  0  0  0
 11 96  1  0  0  0
 12 13  2  0  0  0
 12 97  1  0  0  0
 13 14  1  0  0  0
 13 31  1  0  0  0
 14 15  2  0  0  0
 14 98  1  0  0  0
 15 99  1  0  0  0
 16 17  2  0  0  0
 16 21  1  0  0  0
 16 31  1  0  0  0
 17 18  1  0  0  0
 17100  1  0  0  0
 18 19  2  0  0  0
 18101  1  0  0  0
 19 20  1  0  0  0
 19 24  1  0  0  0
 20 21  2  0  0  0
 20102  1  0  0  0
 21 23  1  0  0  0
 22 28  1  0  0  0
 22 32  2  0  0  0
 26 27  1  0  0  0
 28103  1  0  0  0
 28104  1  0  0  0
 29105  1  0  0  0
 29106  1  0  0  0
 33 34  1  0  0  0
 33 66  1  0  0  0
 33 70  2  0  0  0
 34 36  1  0  0  0
 34 59  1  0  0  0
 34107  1  0  0  0
 35 44  2  0  0  0
 35 45  1  0  0  0
 35 68  1  0  0  0
 36 56  1  0  0  0
 36108  1  0  0  0
 37 39  1  0  0  0
 37 47  1  0  0  0
 37 66  1  0  0  0
 37109  1  0  0  0
 38 43  2  0  0  0
 38 46  1  0  0  0
 38 47  1  0  0  0
 39 64  1  0  0  0
 39 67  2  0  0  0
 40 52  1  0  0  0
 40 53  2  0  0  0
 40 58  1  0  0  0
 41110  1  0  0  0
 41111  1  0  0  0
 41112  1  0  0  0
 41 48  1  0  0  0
 42 43  1  0  0  0
 42 66  1  0  0  0
 42113  1  0  0  0
 42114  1  0  0  0
 43 44  1  0  0  0
 44115  1  0  0  0
 45 46  2  0  0  0
 45116  1  0  0  0
 46117  1  0  0  0
 47118  1  0  0  0
 47119  1  0  0  0
 48 56  1  0  0  0
 48 65  1  0  0  0
 48120  1  0  0  0
 49 50  1  0  0  0
 49 53  1  0  0  0
 49 64  1  0  0  0
 49121  1  0  0  0
 50 51  1  0  0  0
 50122  1  0  0  0
 50123  1  0  0  0
 51 52  1  0  0  0
 51124  1  0  0  0
 51125  1  0  0  0
 52126  1  0  0  0
 52127  1  0  0  0
 53 54  1  0  0  0
 54 55  2  0  0  0
 54128  1  0  0  0
 55 57  1  0  0  0
 55129  1  0  0  0
 56 69  2  0  0  0
 57 58  2  0  0  0
 57130  1  0  0  0
 58131  1  0  0  0
 59 60  1  0  0  0
 59 61  1  0  0  0
 59 62  1  0  0  0
 60132  1  0  0  0
 60133  1  0  0  0
 60134  1  0  0  0
 61135  1  0  0  0
 61136  1  0  0  0
 61137  1  0  0  0
 62138  1  0  0  0
 62139  1  0  0  0
 62140  1  0  0  0
 63 65  1  0  0  0
 63141  1  0  0  0
 63142  1  0  0  0
 63143  1  0  0  0
 64144  1  0  0  0
 65145  1  0  0  0
 68 81  1  0  0  0
 71 72  2  0  0  0
 71 73  1  0  0  0
 71146  1  0  0  0
 72 74  1  0  0  0
 72147  1  0  0  0
 73 75  2  0  0  0
 73 82  1  0  0  0
 74 76  2  0  0  0
 74 83  1  0  0  0
 75 76  1  0  0  0
 75 85  1  0  0  0
 76 86  1  0  0  0
 77 79  1  0  0  0
 77 82  1  0  0  0
 77 84  2  0  0  0
 78 79  1  0  0  0
 78 82  1  0  0  0
 78148  1  0  0  0
 78149  1  0  0  0
 79 81  1  0  0  0
 79150  1  0  0  0
 80 83  1  0  0  0
 80151  1  0  0  0
 80152  1  0  0  0
 80153  1  0  0  0
 81154  1  0  0  0
 81155  1  0  0  0
M  ISO  4   1 100  68 101  81 101  83 100
M  END
> <chiral flag>
0

> <version>
0

> <s_m_source_file>
/data/baiqing/PycharmProjects/Reinvent-master-3.2/result/LINK_invent/BTK/process_docking_weight1_custom_product_contain_oxygen_bond_distance_aromatic_linkinvent_7_9_3/rearranged_h_0023.sdf

> <i_m_source_file_index>
31

> <r_mmod_Potential_Energy-OPLS-2005>
504.241180419922

> <r_mmod_Stretch_Energy-OPLS-2005>
112.900505065918

> <r_mmod_Bend_Energy-OPLS-2005>
293.545593261719

> <r_mmod_Torsional_Energy-OPLS-2005>
345.751892089844

> <r_mmod_Improper_Torsional_Energy-OPLS-2005>
28.8901329040527

> <r_mmod_Van_der_Waal_Energy-OPLS-2005>
142.006713867188

> <r_mmod_Electrostatic_Energy-OPLS-2005>
-319.712799072266

> <r_mmod_Solvation_Energy-OPLS-2005>
-203.046585083008

> <b_mmod_Minimization_Converged-OPLS-2005>
0

> <r_mmod_RMS_Derivative-OPLS-2005>
0.921423256397247

$$$$
31
                    3D
 Structure written by MMmdl.
152161  0  0  1  0            999 V2000
  -30.3712  -15.4262   20.3464 C   0  0  0  0  0  0
  -30.4317  -12.9153   19.5679 C   0  0  0  0  0  0
  -29.5512  -12.6234   18.3229 C   0  0  0  0  0  0
  -28.1084  -12.3071   18.7459 C   0  0  0  0  0  0
  -27.6077  -13.2941   19.8274 C   0  0  2  0  0  0
  -28.6240  -13.5338   20.9685 C   0  0  0  0  0  0
  -25.2380  -13.8276   20.5811 C   0  0  0  0  0  0
  -24.1729  -13.0435   20.9253 C   0  0  0  0  0  0
  -24.6404  -11.6939   20.8728 C   0  0  0  0  0  0
  -23.9104  -10.4292   21.0379 C   0  0  0  0  0  0
  -24.3644   -9.4206   21.9157 C   0  0  0  0  0  0
  -23.6303   -8.2248   22.0736 C   0  0  0  0  0  0
  -22.4275   -8.0290   21.3543 C   0  0  0  0  0  0
  -21.9928   -9.0261   20.4632 C   0  0  0  0  0  0
  -22.7269  -10.2133   20.3034 C   0  0  0  0  0  0
  -21.6854   -6.0737   22.5283 C   0  0  0  0  0  0
  -21.4007   -6.5638   23.8219 C   0  0  0  0  0  0
  -21.3654   -5.6789   24.9178 C   0  0  0  0  0  0
  -21.6049   -4.3056   24.7228 C   0  0  0  0  0  0
  -21.8817   -3.8149   23.4350 C   0  0  0  0  0  0
  -21.9190   -4.6964   22.3404 C   0  0  0  0  0  0
  -22.7751  -13.5170   21.1931 C   0  0  0  0  0  0
  -22.1662   -4.2156   21.0978 F   0  0  0  0  0  0
  -21.5627   -3.4531   25.7736 F   0  0  0  0  0  0
  -29.8482  -14.0815   20.3542 N   0  0  0  0  0  0
  -26.2809  -12.9574   20.3241 N   0  0  0  0  0  0
  -25.9351  -11.6661   20.5683 N   0  0  0  0  0  0
  -22.0426  -12.8117   22.0476 N   0  0  0  0  0  0
  -25.4042  -15.2020   20.4372 N   0  0  0  0  0  0
  -31.5782  -15.4117   20.0512 O   0  0  0  0  0  0
  -21.6633   -6.8890   21.4251 O   0  0  0  0  0  0
  -22.3420  -14.5481   20.6802 O   0  0  0  0  0  0
  -24.6736  -31.8127   23.1629 C   0  0  0  0  0  0
  -25.9386  -32.4527   23.8123 C   0  0  1  0  0  0
  -27.2239  -26.8200   20.1994 C   0  0  0  0  0  0
  -25.6028  -33.8344   24.2032 N   0  0  0  0  0  0
  -23.4924  -30.4208   21.5113 C   0  0  2  0  0  0
  -24.9485  -28.7849   20.1111 C   0  0  0  0  0  0
  -22.7716  -29.4392   22.4732 C   0  0  0  0  0  0
  -18.0337  -28.1429   22.8465 C   0  0  0  0  0  0
  -24.1485  -36.7142   23.2644 C   0  0  0  0  0  0
  -26.0665  -30.5822   21.4100 C   0  0  0  0  0  0
  -26.1322  -29.1602   20.7569 C   0  0  0  0  0  0
  -27.2554  -28.2000   20.7784 C   0  0  0  0  0  0
  -26.0148  -26.6282   19.4879 C   0  0  0  0  0  0
  -24.9220  -27.5422   19.4550 C   0  0  0  0  0  0
  -23.7396  -29.7276   20.1411 C   0  0  0  0  0  0
  -25.4136  -36.2920   24.0296 C   0  0  1  0  0  0
  -20.5966  -28.3776   23.1163 C   0  0  2  0  0  0
  -20.6812  -26.9451   22.5401 C   0  0  0  0  0  0
  -19.5783  -26.6384   21.5218 C   0  0  0  0  0  0
  -18.1965  -26.7959   22.1621 C   0  0  0  0  0  0
  -19.1601  -28.8925   23.2800 C   0  0  0  0  0  0
  -18.9510  -30.1514   23.8845 C   0  0  0  0  0  0
  -17.6500  -30.6616   24.0560 C   0  0  0  0  0  0
  -25.9114  -34.9312   23.4986 C   0  0  0  0  0  0
  -16.5390  -29.9104   23.6351 C   0  0  0  0  0  0
  -16.7316  -28.6524   23.0371 C   0  0  0  0  0  0
  -26.4608  -31.6511   25.0692 C   0  0  0  0  0  0
  -25.3716  -31.3797   26.1335 C   0  0  0  0  0  0
  -27.0519  -30.2869   24.6503 C   0  0  0  0  0  0
  -27.6083  -32.4331   25.7505 C   0  0  0  0  0  0
  -27.5558  -37.1731   24.8477 C   0  0  0  0  0  0
  -21.4376  -29.3044   22.3488 N   0  0  0  0  0  0
  -26.4264  -37.3680   23.9422 N   0  0  0  0  0  0
  -24.7660  -30.9693   22.0808 N   0  0  0  0  0  0
  -23.4214  -28.7986   23.3033 O   0  0  0  0  0  0
  -28.2045  -25.6636   20.3328 O   0  0  0  0  0  0
  -26.5709  -34.8869   22.4570 O   0  0  0  0  0  0
  -23.5792  -32.1142   23.6670 O   0  0  0  0  0  0
  -26.7989  -18.6584   19.8868 C   0  0  0  0  0  0
  -27.4837  -18.1056   18.7764 C   0  0  0  0  0  0
  -27.5165  -19.3937   20.8580 C   0  0  0  0  0  0
  -28.8988  -18.0431   18.7749 C   0  0  0  0  0  0
  -28.8650  -19.6587   20.5495 C   0  0  0  0  0  0
  -29.5078  -18.2879   20.0200 C   0  0  0  0  0  0
  -28.3494  -22.5409   20.7996 C   0  0  0  0  0  0
  -29.2186  -23.4866   18.8928 C   0  0  0  0  0  0
  -29.3498  -21.8804   18.9216 C   0  0  0  0  0  0
  -28.1541  -24.0118   19.9017 C   0  0  2  0  0  0
  -28.8999  -21.2987   20.2072 N   0  0  0  0  0  0
  -29.6226  -16.7267   20.5867 N   0  0  0  0  0  0
  -27.9917  -22.5504   21.9817 O   0  0  0  0  0  0
  -31.4522  -13.1217   19.2434 H   0  0  0  0  0  0
  -30.5088  -12.0274   20.1977 H   0  0  0  0  0  0
  -29.9685  -11.7988   17.7436 H   0  0  0  0  0  0
  -29.5561  -13.4943   17.6657 H   0  0  0  0  0  0
  -28.0972  -11.2921   19.1458 H   0  0  0  0  0  0
  -27.4447  -12.3059   17.8811 H   0  0  0  0  0  0
  -27.5040  -14.2441   19.3009 H   0  0  0  0  0  0
  -28.8178  -12.6219   21.5352 H   0  0  0  0  0  0
  -28.2250  -14.2588   21.6786 H   0  0  0  0  0  0
  -25.2795   -9.5657   22.4722 H   0  0  0  0  0  0
  -24.0006   -7.4629   22.7455 H   0  0  0  0  0  0
  -21.0859   -8.8785   19.8936 H   0  0  0  0  0  0
  -22.3738  -10.9666   19.6131 H   0  0  0  0  0  0
  -21.1996   -7.6144   23.9725 H   0  0  0  0  0  0
  -21.1481   -6.0512   25.9081 H   0  0  0  0  0  0
  -22.0603   -2.7613   23.2849 H   0  0  0  0  0  0
  -22.4066  -11.9763   22.4819 H   0  0  0  0  0  0
  -21.1051  -13.1126   22.2728 H   0  0  0  0  0  0
  -24.6430  -15.8545   20.5853 H   0  0  0  0  0  0
  -26.2674  -15.6549   20.1666 H   0  0  0  0  0  0
  -26.7466  -32.5030   23.0840 H   0  0  0  0  0  0
  -25.0211  -33.9404   25.0212 H   0  0  0  0  0  0
  -22.8107  -31.2556   21.3326 H   0  0  0  0  0  0
  -23.3782  -35.9438   23.3276 H   0  0  0  0  0  0
  -24.3554  -36.8813   22.2063 H   0  0  0  0  0  0
  -23.7201  -37.6303   23.6716 H   0  0  0  0  0  0
  -26.2578  -31.3133   20.6236 H   0  0  0  0  0  0
  -26.9225  -30.6449   22.0693 H   0  0  0  0  0  0
  -28.1424  -28.4852   21.3270 H   0  0  0  0  0  0
  -25.8691  -25.6826   18.9865 H   0  0  0  0  0  0
  -24.0253  -27.2476   18.9257 H   0  0  0  0  0  0
  -23.9096  -30.4931   19.3837 H   0  0  0  0  0  0
  -22.8459  -29.1931   19.8163 H   0  0  0  0  0  0
  -25.1339  -36.1690   25.0788 H   0  0  0  0  0  0
  -21.0057  -28.3408   24.1288 H   0  0  0  0  0  0
  -20.5688  -26.2412   23.3657 H   0  0  0  0  0  0
  -21.6676  -26.7421   22.1212 H   0  0  0  0  0  0
  -19.6933  -25.6278   21.1293 H   0  0  0  0  0  0
  -19.6721  -27.3159   20.6719 H   0  0  0  0  0  0
  -17.4235  -26.6721   21.4014 H   0  0  0  0  0  0
  -18.0350  -26.0110   22.9023 H   0  0  0  0  0  0
  -19.7985  -30.7350   24.2180 H   0  0  0  0  0  0
  -17.5057  -31.6287   24.5184 H   0  0  0  0  0  0
  -15.5390  -30.2998   23.7702 H   0  0  0  0  0  0
  -15.8717  -28.0830   22.7115 H   0  0  0  0  0  0
  -24.5924  -30.7104   25.7670 H   0  0  0  0  0  0
  -24.8873  -32.3011   26.4578 H   0  0  0  0  0  0
  -25.7943  -30.9098   27.0228 H   0  0  0  0  0  0
  -26.3213  -29.6510   24.1497 H   0  0  0  0  0  0
  -27.4005  -29.7278   25.5194 H   0  0  0  0  0  0
  -27.9179  -30.4019   23.9977 H   0  0  0  0  0  0
  -27.2661  -33.3707   26.1904 H   0  0  0  0  0  0
  -28.4019  -32.6767   25.0428 H   0  0  0  0  0  0
  -28.0632  -31.8569   26.5575 H   0  0  0  0  0  0
  -28.2569  -38.0033   24.7537 H   0  0  0  0  0  0
  -28.1060  -36.2562   24.6304 H   0  0  0  0  0  0
  -27.2274  -37.1379   25.8879 H   0  0  0  0  0  0
  -20.9657  -29.8693   21.6565 H   0  0  0  0  0  0
  -26.0095  -38.2722   24.1460 H   0  0  0  0  0  0
  -25.7192  -18.6255   19.9285 H   0  0  0  0  0  0
  -26.9227  -17.6463   17.9744 H   0  0  0  0  0  0
  -26.9316  -20.0605   21.4767 H   0  0  0  0  0  0
  -29.3336  -17.3555   18.0626 H   0  0  0  0  0  0
  -29.0006  -23.8350   17.8827 H   0  0  0  0  0  0
  -30.1839  -23.9208   19.1596 H   0  0  0  0  0  0
  -30.3733  -21.5711   18.7089 H   0  0  0  0  0  0
  -28.7240  -21.4528   18.1374 H   0  0  0  0  0  0
  -27.1786  -23.8834   19.4343 H   0  0  0  0  0  0
  -28.7851  -16.4974   21.1000 H   0  0  0  0  0  0
  1 25  1  0  0  0
  1 30  2  0  0  0
  1 82  1  0  0  0
  2  3  1  0  0  0
  2 25  1  0  0  0
  2 84  1  0  0  0
  2 85  1  0  0  0
  3  4  1  0  0  0
  3 86  1  0  0  0
  3 87  1  0  0  0
  4  5  1  0  0  0
  4 88  1  0  0  0
  4 89  1  0  0  0
  5  6  1  0  0  0
  5 26  1  0  0  0
  5 90  1  0  0  0
  6 25  1  0  0  0
  6 91  1  0  0  0
  6 92  1  0  0  0
  7  8  2  0  0  0
  7 26  1  0  0  0
  7 29  1  0  0  0
  8  9  1  0  0  0
  8 22  1  0  0  0
  9 10  1  0  0  0
  9 27  2  0  0  0
 10 11  2  0  0  0
 10 15  1  0  0  0
 11 12  1  0  0  0
 11 93  1  0  0  0
 12 13  2  0  0  0
 12 94  1  0  0  0
 13 14  1  0  0  0
 13 31  1  0  0  0
 14 15  2  0  0  0
 14 95  1  0  0  0
 15 96  1  0  0  0
 16 17  2  0  0  0
 16 21  1  0  0  0
 16 31  1  0  0  0
 17 18  1  0  0  0
 17 97  1  0  0  0
 18 19  2  0  0  0
 18 98  1  0  0  0
 19 20  1  0  0  0
 19 24  1  0  0  0
 20 21  2  0  0  0
 20 99  1  0  0  0
 21 23  1  0  0  0
 22 28  1  0  0  0
 22 32  2  0  0  0
 26 27  1  0  0  0
 28100  1  0  0  0
 28101  1  0  0  0
 29102  1  0  0  0
 29103  1  0  0  0
 33 34  1  0  0  0
 33 66  1  0  0  0
 33 70  2  0  0  0
 34 36  1  0  0  0
 34 59  1  0  0  0
 34104  1  0  0  0
 35 44  2  0  0  0
 35 45  1  0  0  0
 35 68  1  0  0  0
 36 56  1  0  0  0
 36105  1  0  0  0
 37 39  1  0  0  0
 37 47  1  0  0  0
 37 66  1  0  0  0
 37106  1  0  0  0
 38 43  2  0  0  0
 38 46  1  0  0  0
 38 47  1  0  0  0
 39 64  1  0  0  0
 39 67  2  0  0  0
 40 52  1  0  0  0
 40 53  2  0  0  0
 40 58  1  0  0  0
 41107  1  0  0  0
 41108  1  0  0  0
 41109  1  0  0  0
 41 48  1  0  0  0
 42 43  1  0  0  0
 42 66  1  0  0  0
 42110  1  0  0  0
 42111  1  0  0  0
 43 44  1  0  0  0
 44112  1  0  0  0
 45 46  2  0  0  0
 45113  1  0  0  0
 46114  1  0  0  0
 47115  1  0  0  0
 47116  1  0  0  0
 48 56  1  0  0  0
 48 65  1  0  0  0
 48117  1  0  0  0
 49 50  1  0  0  0
 49 53  1  0  0  0
 49 64  1  0  0  0
 49118  1  0  0  0
 50 51  1  0  0  0
 50119  1  0  0  0
 50120  1  0  0  0
 51 52  1  0  0  0
 51121  1  0  0  0
 51122  1  0  0  0
 52123  1  0  0  0
 52124  1  0  0  0
 53 54  1  0  0  0
 54 55  2  0  0  0
 54125  1  0  0  0
 55 57  1  0  0  0
 55126  1  0  0  0
 56 69  2  0  0  0
 57 58  2  0  0  0
 57127  1  0  0  0
 58128  1  0  0  0
 59 60  1  0  0  0
 59 61  1  0  0  0
 59 62  1  0  0  0
 60129  1  0  0  0
 60130  1  0  0  0
 60131  1  0  0  0
 61132  1  0  0  0
 61133  1  0  0  0
 61134  1  0  0  0
 62135  1  0  0  0
 62136  1  0  0  0
 62137  1  0  0  0
 63 65  1  0  0  0
 63138  1  0  0  0
 63139  1  0  0  0
 63140  1  0  0  0
 64141  1  0  0  0
 65142  1  0  0  0
 68 80  1  0  0  0
 71 72  2  0  0  0
 71 73  1  0  0  0
 71143  1  0  0  0
 72 74  1  0  0  0
 72144  1  0  0  0
 73 75  2  0  0  0
 73145  1  0  0  0
 74 76  2  0  0  0
 74146  1  0  0  0
 75 76  1  0  0  0
 75 81  1  0  0  0
 76 82  1  0  0  0
 77 80  1  0  0  0
 77 81  1  0  0  0
 77 83  2  0  0  0
 78 79  1  0  0  0
 78 80  1  0  0  0
 78147  1  0  0  0
 78148  1  0  0  0
 79 81  1  0  0  0
 79149  1  0  0  0
 79150  1  0  0  0
 80151  1  0  0  0
 82152  1  0  0  0
M  ISO  4   1 100  68 101  80 101  82 100
M  END
> <chiral flag>
0

> <version>
0

> <s_m_source_file>
/data/baiqing/PycharmProjects/Reinvent-master-3.2/result/LINK_invent/BTK/process_docking_weight1_custom_product_contain_oxygen_bond_distance_aromatic_linkinvent_7_9_3/rearranged_h_0023.sdf

> <i_m_source_file_index>
32

> <r_mmod_Potential_Energy-OPLS-2005>
2104.16552734375

> <r_mmod_Stretch_Energy-OPLS-2005>
749.904907226562

> <r_mmod_Bend_Energy-OPLS-2005>
601.162170410156

> <r_mmod_Torsional_Energy-OPLS-2005>
517.105590820312

> <r_mmod_Improper_Torsional_Energy-OPLS-2005>
44.6051254272461

> <r_mmod_Van_der_Waal_Energy-OPLS-2005>
123.111946105957

> <r_mmod_Electrostatic_Energy-OPLS-2005>
-342.916259765625

> <r_mmod_Solvation_Energy-OPLS-2005>
-230.596801757812

> <b_mmod_Minimization_Converged-OPLS-2005>
0

> <r_mmod_RMS_Derivative-OPLS-2005>
1.77811980247498

$$$$
32
                    3D
 Structure written by MMmdl.
160169  0  0  1  0            999 V2000
  -30.6133  -14.7203   20.4588 C   0  0  0  0  0  0
  -30.4326  -12.4342   19.4830 C   0  0  0  0  0  0
  -29.5138  -12.5067   18.2427 C   0  0  0  0  0  0
  -28.0381  -12.3370   18.6507 C   0  0  0  0  0  0
  -27.6472  -13.2308   19.8577 C   0  0  2  0  0  0
  -28.6880  -13.1462   20.9969 C   0  0  0  0  0  0
  -25.2528  -13.8200   20.5695 C   0  0  0  0  0  0
  -24.1812  -13.0446   20.9198 C   0  0  0  0  0  0
  -24.6399  -11.6922   20.8740 C   0  0  0  0  0  0
  -23.9074  -10.4297   21.0403 C   0  0  0  0  0  0
  -24.3623   -9.4211   21.9184 C   0  0  0  0  0  0
  -23.6295   -8.2248   22.0757 C   0  0  0  0  0  0
  -22.4277   -8.0284   21.3548 C   0  0  0  0  0  0
  -21.9913   -9.0259   20.4651 C   0  0  0  0  0  0
  -22.7244  -10.2136   20.3056 C   0  0  0  0  0  0
  -21.6853   -6.0735   22.5280 C   0  0  0  0  0  0
  -21.4015   -6.5640   23.8213 C   0  0  0  0  0  0
  -21.3659   -5.6794   24.9176 C   0  0  0  0  0  0
  -21.6043   -4.3056   24.7227 C   0  0  0  0  0  0
  -21.8820   -3.8147   23.4349 C   0  0  0  0  0  0
  -21.9194   -4.6963   22.3404 C   0  0  0  0  0  0
  -22.7833  -13.5230   21.1858 C   0  0  0  0  0  0
  -22.1662   -4.2148   21.0981 F   0  0  0  0  0  0
  -21.5628   -3.4540   25.7740 F   0  0  0  0  0  0
  -29.9985  -13.4887   20.4294 N   0  0  0  0  0  0
  -26.2960  -12.9407   20.3299 N   0  0  0  0  0  0
  -25.9332  -11.6549   20.5754 N   0  0  0  0  0  0
  -22.0479  -12.8220   22.0414 N   0  0  0  0  0  0
  -25.4232  -15.1923   20.4123 N   0  0  0  0  0  0
  -31.7867  -14.8325   20.0915 O   0  0  0  0  0  0
  -21.6644   -6.8878   21.4240 O   0  0  0  0  0  0
  -22.3518  -14.5537   20.6708 O   0  0  0  0  0  0
  -24.6304  -31.8562   23.2004 C   0  0  0  0  0  0
  -25.9135  -32.4757   23.8341 C   0  0  1  0  0  0
  -27.2153  -27.2601   20.1229 C   0  0  0  0  0  0
  -25.5936  -33.8560   24.2263 N   0  0  0  0  0  0
  -23.4264  -30.4807   21.5437 C   0  0  2  0  0  0
  -24.8726  -28.9328   20.1083 C   0  0  0  0  0  0
  -22.7497  -29.4607   22.4912 C   0  0  0  0  0  0
  -18.0290  -28.1388   22.8488 C   0  0  0  0  0  0
  -24.1491  -36.7279   23.2640 C   0  0  0  0  0  0
  -25.9733  -30.7665   21.3839 C   0  0  0  0  0  0
  -26.0428  -29.3896   20.7258 C   0  0  0  0  0  0
  -27.2124  -28.5633   20.7292 C   0  0  0  0  0  0
  -26.0266  -26.8907   19.4480 C   0  0  0  0  0  0
  -24.8704  -27.6917   19.4593 C   0  0  0  0  0  0
  -23.6439  -29.8190   20.1584 C   0  0  0  0  0  0
  -25.4118  -36.3071   24.0328 C   0  0  1  0  0  0
  -20.5895  -28.3694   23.1270 C   0  0  2  0  0  0
  -20.6776  -26.9411   22.5408 C   0  0  0  0  0  0
  -19.5750  -26.6384   21.5212 C   0  0  0  0  0  0
  -18.1932  -26.7930   22.1628 C   0  0  0  0  0  0
  -19.1545  -28.8858   23.2875 C   0  0  0  0  0  0
  -18.9467  -30.1461   23.8891 C   0  0  0  0  0  0
  -17.6466  -30.6588   24.0565 C   0  0  0  0  0  0
  -25.9060  -34.9442   23.5098 C   0  0  0  0  0  0
  -16.5356  -29.9087   23.6333 C   0  0  0  0  0  0
  -16.7277  -28.6504   23.0355 C   0  0  0  0  0  0
  -26.4505  -31.6579   25.0727 C   0  0  0  0  0  0
  -25.3724  -31.3731   26.1443 C   0  0  0  0  0  0
  -27.0353  -30.2993   24.6220 C   0  0  0  0  0  0
  -27.6058  -32.4316   25.7503 C   0  0  0  0  0  0
  -27.5578  -37.1798   24.8468 C   0  0  0  0  0  0
  -21.4204  -29.3043   22.3657 N   0  0  0  0  0  0
  -26.4293  -37.3769   23.9407 N   0  0  0  0  0  0
  -24.6956  -31.0528   22.0984 N   0  0  0  0  0  0
  -23.4202  -28.8139   23.3001 O   0  0  0  0  0  0
  -28.3156  -26.3705   20.2138 O   0  0  0  0  0  0
  -26.5630  -34.8914   22.4666 O   0  0  0  0  0  0
  -23.5454  -32.1389   23.7297 O   0  0  0  0  0  0
  -29.7405  -19.6758   18.7065 C   0  0  0  0  0  0
  -29.8831  -18.4505   18.0265 C   0  0  0  0  0  0
  -29.6259  -19.7247   20.1111 C   0  0  0  0  0  0
  -29.8627  -17.1689   20.1270 C   0  0  0  0  0  0
  -29.9388  -17.2224   18.7136 C   0  0  0  0  0  0
  -29.6805  -18.4442   20.8089 C   0  0  0  0  0  0
  -26.9613  -22.7361   21.9589 C   0  0  0  0  0  0
  -28.1309  -23.7215   22.1211 C   0  0  0  0  0  0
  -27.2443  -21.9416   20.6697 C   0  0  0  0  0  0
  -28.8362  -23.7222   20.7583 C   0  0  2  0  0  0
  -29.5885  -21.1665   20.7938 C   0  0  0  0  0  0
  -28.1991  -24.9096   19.8492 C   0  0  0  0  0  0
  -29.8623  -15.8368   20.7798 N   0  0  0  0  0  0
  -28.6344  -22.2650   20.2782 N   0  3  1  0  0  0
  -30.0236  -16.0843   17.9826 F   0  0  0  0  0  0
  -29.5791  -18.4394   22.1598 F   0  0  0  0  0  0
  -31.4760  -12.5492   19.1843 H   0  0  0  0  0  0
  -30.3659  -11.4525   19.9547 H   0  0  0  0  0  0
  -29.7926  -11.7383   17.5204 H   0  0  0  0  0  0
  -29.6483  -13.4644   17.7377 H   0  0  0  0  0  0
  -27.8880  -11.2873   18.9063 H   0  0  0  0  0  0
  -27.3841  -12.5390   17.8017 H   0  0  0  0  0  0
  -27.6499  -14.2563   19.4872 H   0  0  0  0  0  0
  -28.7108  -12.1441   21.4274 H   0  0  0  0  0  0
  -28.4228  -13.8201   21.8126 H   0  0  0  0  0  0
  -25.2765   -9.5689   22.4761 H   0  0  0  0  0  0
  -24.0003   -7.4641   22.7479 H   0  0  0  0  0  0
  -21.0843   -8.8780   19.8959 H   0  0  0  0  0  0
  -22.3701  -10.9676   19.6168 H   0  0  0  0  0  0
  -21.2007   -7.6148   23.9715 H   0  0  0  0  0  0
  -21.1481   -6.0525   25.9079 H   0  0  0  0  0  0
  -22.0597   -2.7609   23.2852 H   0  0  0  0  0  0
  -22.4092  -11.9875   22.4792 H   0  0  0  0  0  0
  -21.1102  -13.1250   22.2628 H   0  0  0  0  0  0
  -24.6553  -15.8457   20.5212 H   0  0  0  0  0  0
  -26.2717  -15.6305   20.0781 H   0  0  0  0  0  0
  -26.7196  -32.5407   23.1077 H   0  0  0  0  0  0
  -25.0076  -33.9701   25.0403 H   0  0  0  0  0  0
  -22.7225  -31.3032   21.4004 H   0  0  0  0  0  0
  -23.3758  -35.9606   23.3300 H   0  0  0  0  0  0
  -24.3580  -36.8902   22.2054 H   0  0  0  0  0  0
  -23.7238  -37.6478   23.6665 H   0  0  0  0  0  0
  -26.1145  -31.5267   20.6143 H   0  0  0  0  0  0
  -26.8507  -30.8135   22.0173 H   0  0  0  0  0  0
  -28.1030  -28.9050   21.2375 H   0  0  0  0  0  0
  -25.9385  -25.9705   18.8942 H   0  0  0  0  0  0
  -23.9795  -27.3456   18.9530 H   0  0  0  0  0  0
  -23.7677  -30.5970   19.4044 H   0  0  0  0  0  0
  -22.7622  -29.2526   19.8529 H   0  0  0  0  0  0
  -25.1301  -36.1920   25.0821 H   0  0  0  0  0  0
  -20.9991  -28.3272   24.1390 H   0  0  0  0  0  0
  -20.5674  -26.2304   23.3613 H   0  0  0  0  0  0
  -21.6645  -26.7434   22.1203 H   0  0  0  0  0  0
  -19.6910  -25.6295   21.1242 H   0  0  0  0  0  0
  -19.6687  -27.3196   20.6743 H   0  0  0  0  0  0
  -17.4200  -26.6677   21.4032 H   0  0  0  0  0  0
  -18.0334  -26.0074   22.9027 H   0  0  0  0  0  0
  -19.7942  -30.7281   24.2255 H   0  0  0  0  0  0
  -17.5019  -31.6270   24.5165 H   0  0  0  0  0  0
  -15.5356  -30.2988   23.7660 H   0  0  0  0  0  0
  -15.8678  -28.0823   22.7072 H   0  0  0  0  0  0
  -24.5906  -30.7074   25.7770 H   0  0  0  0  0  0
  -24.8910  -32.2901   26.4848 H   0  0  0  0  0  0
  -25.8038  -30.8922   27.0231 H   0  0  0  0  0  0
  -26.2942  -29.6738   24.1229 H   0  0  0  0  0  0
  -27.4011  -29.7257   25.4747 H   0  0  0  0  0  0
  -27.8832  -30.4261   23.9485 H   0  0  0  0  0  0
  -27.2666  -33.3618   26.2073 H   0  0  0  0  0  0
  -28.3878  -32.6868   25.0340 H   0  0  0  0  0  0
  -28.0716  -31.8444   26.5427 H   0  0  0  0  0  0
  -28.2602  -38.0090   24.7509 H   0  0  0  0  0  0
  -28.1069  -36.2621   24.6306 H   0  0  0  0  0  0
  -27.2293  -37.1460   25.8871 H   0  0  0  0  0  0
  -20.9382  -29.8767   21.6869 H   0  0  0  0  0  0
  -26.0172  -38.2844   24.1403 H   0  0  0  0  0  0
  -29.7375  -20.5874   18.1263 H   0  0  0  0  0  0
  -29.9519  -18.4489   16.9482 H   0  0  0  0  0  0
  -26.0070  -23.2586   21.8803 H   0  0  0  0  0  0
  -26.8967  -22.0745   22.8238 H   0  0  0  0  0  0
  -28.8141  -23.3555   22.8891 H   0  0  0  0  0  0
  -27.8035  -24.7148   22.4336 H   0  0  0  0  0  0
  -26.5708  -22.2713   19.8776 H   0  0  0  0  0  0
  -27.0717  -20.8715   20.7957 H   0  0  0  0  0  0
  -29.9012  -23.9269   20.8747 H   0  0  0  0  0  0
  -30.6021  -21.5598   20.7120 H   0  0  0  0  0  0
  -29.4240  -21.0330   21.8639 H   0  0  0  0  0  0
  -27.1564  -24.6267   19.7583 H   0  0  0  0  0  0
  -28.6076  -24.8199   18.8426 H   0  0  0  0  0  0
  -29.0379  -15.6478   21.3279 H   0  0  0  0  0  0
  -28.7079  -22.2475   19.2714 H   0  0  0  0  0  0
  1 25  1  0  0  0
  1 30  2  0  0  0
  1 83  1  0  0  0
  2  3  1  0  0  0
  2 25  1  0  0  0
  2 87  1  0  0  0
  2 88  1  0  0  0
  3  4  1  0  0  0
  3 89  1  0  0  0
  3 90  1  0  0  0
  4  5  1  0  0  0
  4 91  1  0  0  0
  4 92  1  0  0  0
  5  6  1  0  0  0
  5 26  1  0  0  0
  5 93  1  0  0  0
  6 25  1  0  0  0
  6 94  1  0  0  0
  6 95  1  0  0  0
  7  8  2  0  0  0
  7 26  1  0  0  0
  7 29  1  0  0  0
  8  9  1  0  0  0
  8 22  1  0  0  0
  9 10  1  0  0  0
  9 27  2  0  0  0
 10 11  2  0  0  0
 10 15  1  0  0  0
 11 12  1  0  0  0
 11 96  1  0  0  0
 12 13  2  0  0  0
 12 97  1  0  0  0
 13 14  1  0  0  0
 13 31  1  0  0  0
 14 15  2  0  0  0
 14 98  1  0  0  0
 15 99  1  0  0  0
 16 17  2  0  0  0
 16 21  1  0  0  0
 16 31  1  0  0  0
 17 18  1  0  0  0
 17100  1  0  0  0
 18 19  2  0  0  0
 18101  1  0  0  0
 19 20  1  0  0  0
 19 24  1  0  0  0
 20 21  2  0  0  0
 20102  1  0  0  0
 21 23  1  0  0  0
 22 28  1  0  0  0
 22 32  2  0  0  0
 26 27  1  0  0  0
 28103  1  0  0  0
 28104  1  0  0  0
 29105  1  0  0  0
 29106  1  0  0  0
 33 34  1  0  0  0
 33 66  1  0  0  0
 33 70  2  0  0  0
 34 36  1  0  0  0
 34 59  1  0  0  0
 34107  1  0  0  0
 35 44  2  0  0  0
 35 45  1  0  0  0
 35 68  1  0  0  0
 36 56  1  0  0  0
 36108  1  0  0  0
 37 39  1  0  0  0
 37 47  1  0  0  0
 37 66  1  0  0  0
 37109  1  0  0  0
 38 43  2  0  0  0
 38 46  1  0  0  0
 38 47  1  0  0  0
 39 64  1  0  0  0
 39 67  2  0  0  0
 40 52  1  0  0  0
 40 53  2  0  0  0
 40 58  1  0  0  0
 41110  1  0  0  0
 41111  1  0  0  0
 41112  1  0  0  0
 41 48  1  0  0  0
 42 43  1  0  0  0
 42 66  1  0  0  0
 42113  1  0  0  0
 42114  1  0  0  0
 43 44  1  0  0  0
 44115  1  0  0  0
 45 46  2  0  0  0
 45116  1  0  0  0
 46117  1  0  0  0
 47118  1  0  0  0
 47119  1  0  0  0
 48 56  1  0  0  0
 48 65  1  0  0  0
 48120  1  0  0  0
 49 50  1  0  0  0
 49 53  1  0  0  0
 49 64  1  0  0  0
 49121  1  0  0  0
 50 51  1  0  0  0
 50122  1  0  0  0
 50123  1  0  0  0
 51 52  1  0  0  0
 51124  1  0  0  0
 51125  1  0  0  0
 52126  1  0  0  0
 52127  1  0  0  0
 53 54  1  0  0  0
 54 55  2  0  0  0
 54128  1  0  0  0
 55 57  1  0  0  0
 55129  1  0  0  0
 56 69  2  0  0  0
 57 58  2  0  0  0
 57130  1  0  0  0
 58131  1  0  0  0
 59 60  1  0  0  0
 59 61  1  0  0  0
 59 62  1  0  0  0
 60132  1  0  0  0
 60133  1  0  0  0
 60134  1  0  0  0
 61135  1  0  0  0
 61136  1  0  0  0
 61137  1  0  0  0
 62138  1  0  0  0
 62139  1  0  0  0
 62140  1  0  0  0
 63 65  1  0  0  0
 63141  1  0  0  0
 63142  1  0  0  0
 63143  1  0  0  0
 64144  1  0  0  0
 65145  1  0  0  0
 68 82  1  0  0  0
 71 72  2  0  0  0
 71 73  1  0  0  0
 71146  1  0  0  0
 72 75  1  0  0  0
 72147  1  0  0  0
 73 76  2  0  0  0
 73 81  1  0  0  0
 74 75  2  0  0  0
 74 76  1  0  0  0
 74 83  1  0  0  0
 75 85  1  0  0  0
 76 86  1  0  0  0
 77 78  1  0  0  0
 77 79  1  0  0  0
 77148  1  0  0  0
 77149  1  0  0  0
 78 80  1  0  0  0
 78150  1  0  0  0
 78151  1  0  0  0
 79 84  1  0  0  0
 79152  1  0  0  0
 79153  1  0  0  0
 80 82  1  0  0  0
 80 84  1  0  0  0
 80154  1  0  0  0
 81155  1  0  0  0
 81156  1  0  0  0
 81 84  1  0  0  0
 82157  1  0  0  0
 82158  1  0  0  0
 83159  1  0  0  0
 84160  1  0  0  0
M  CHG  1  84   1
M  ISO  4   1 100  68 101  82 101  83 100
M  END
> <chiral flag>
0

> <version>
0

> <s_m_source_file>
/data/baiqing/PycharmProjects/Reinvent-master-3.2/result/LINK_invent/BTK/process_docking_weight1_custom_product_contain_oxygen_bond_distance_aromatic_linkinvent_7_9_3/rearranged_h_0023.sdf

> <i_m_source_file_index>
33

> <r_mmod_Potential_Energy-OPLS-2005>
97.2754364013672

> <r_mmod_Stretch_Energy-OPLS-2005>
123.295166015625

> <r_mmod_Bend_Energy-OPLS-2005>
181.439300537109

> <r_mmod_Torsional_Energy-OPLS-2005>
309.433868408203

> <r_mmod_Improper_Torsional_Energy-OPLS-2005>
4.736403465271

> <r_mmod_Van_der_Waal_Energy-OPLS-2005>
137.913024902344

> <r_mmod_Electrostatic_Energy-OPLS-2005>
-287.74169921875

> <r_mmod_Solvation_Energy-OPLS-2005>
-451.948913574219

> <b_mmod_Minimization_Converged-OPLS-2005>
0

> <r_mmod_RMS_Derivative-OPLS-2005>
0.409140944480896

$$$$
33
                    3D
 Structure written by MMmdl.
155163  0  0  1  0            999 V2000
  -30.5283  -14.8968   20.4366 C   0  0  0  0  0  0
  -30.4498  -12.5517   19.4919 C   0  0  0  0  0  0
  -29.5239  -12.5308   18.2522 C   0  0  0  0  0  0
  -28.0535  -12.3249   18.6660 C   0  0  0  0  0  0
  -27.6389  -13.2389   19.8484 C   0  0  2  0  0  0
  -28.6829  -13.2153   20.9863 C   0  0  0  0  0  0
  -25.2502  -13.8200   20.5704 C   0  0  0  0  0  0
  -24.1802  -13.0436   20.9215 C   0  0  0  0  0  0
  -24.6403  -11.6916   20.8745 C   0  0  0  0  0  0
  -23.9078  -10.4292   21.0402 C   0  0  0  0  0  0
  -24.3625   -9.4207   21.9181 C   0  0  0  0  0  0
  -23.6297   -8.2243   22.0752 C   0  0  0  0  0  0
  -22.4278   -8.0282   21.3544 C   0  0  0  0  0  0
  -21.9916   -9.0256   20.4645 C   0  0  0  0  0  0
  -22.7248  -10.2133   20.3053 C   0  0  0  0  0  0
  -21.6855   -6.0735   22.5279 C   0  0  0  0  0  0
  -21.4016   -6.5639   23.8213 C   0  0  0  0  0  0
  -21.3660   -5.6791   24.9174 C   0  0  0  0  0  0
  -21.6045   -4.3055   24.7224 C   0  0  0  0  0  0
  -21.8819   -3.8147   23.4346 C   0  0  0  0  0  0
  -21.9194   -4.6963   22.3403 C   0  0  0  0  0  0
  -22.7822  -13.5213   21.1873 C   0  0  0  0  0  0
  -22.1662   -4.2149   21.0980 F   0  0  0  0  0  0
  -21.5628   -3.4539   25.7737 F   0  0  0  0  0  0
  -29.9693  -13.6243   20.4042 N   0  0  0  0  0  0
  -26.2929  -12.9415   20.3268 N   0  0  0  0  0  0
  -25.9337  -11.6552   20.5741 N   0  0  0  0  0  0
  -22.0472  -12.8201   22.0429 N   0  0  0  0  0  0
  -25.4177  -15.1929   20.4127 N   0  0  0  0  0  0
  -31.7143  -15.0229   20.1110 O   0  0  0  0  0  0
  -21.6642   -6.8878   21.4240 O   0  0  0  0  0  0
  -22.3505  -14.5518   20.6718 O   0  0  0  0  0  0
  -24.6415  -31.8457   23.1900 C   0  0  0  0  0  0
  -25.9196  -32.4703   23.8284 C   0  0  1  0  0  0
  -27.2199  -27.1587   20.1455 C   0  0  0  0  0  0
  -25.5952  -33.8508   24.2201 N   0  0  0  0  0  0
  -23.4441  -30.4663   21.5347 C   0  0  2  0  0  0
  -24.8941  -28.8979   20.1090 C   0  0  0  0  0  0
  -22.7558  -29.4557   22.4862 C   0  0  0  0  0  0
  -18.0303  -28.1395   22.8479 C   0  0  0  0  0  0
  -24.1492  -36.7261   23.2643 C   0  0  0  0  0  0
  -25.9989  -30.7268   21.3860 C   0  0  0  0  0  0
  -26.0706  -29.3404   20.7267 C   0  0  0  0  0  0
  -27.2344  -28.4863   20.7292 C   0  0  0  0  0  0
  -26.0176  -26.8153   19.4864 C   0  0  0  0  0  0
  -24.8794  -27.6481   19.4736 C   0  0  0  0  0  0
  -23.6693  -29.7968   20.1534 C   0  0  0  0  0  0
  -25.4123  -36.3037   24.0318 C   0  0  1  0  0  0
  -20.5915  -28.3720   23.1238 C   0  0  2  0  0  0
  -20.6787  -26.9425   22.5402 C   0  0  0  0  0  0
  -19.5761  -26.6382   21.5210 C   0  0  0  0  0  0
  -18.1943  -26.7933   22.1624 C   0  0  0  0  0  0
  -19.1560  -28.8875   23.2852 C   0  0  0  0  0  0
  -18.9477  -30.1471   23.8878 C   0  0  0  0  0  0
  -17.6473  -30.6591   24.0560 C   0  0  0  0  0  0
  -25.9071  -34.9410   23.5067 C   0  0  0  0  0  0
  -16.5364  -29.9084   23.6336 C   0  0  0  0  0  0
  -16.7287  -28.6501   23.0359 C   0  0  0  0  0  0
  -26.4524  -31.6566   25.0719 C   0  0  0  0  0  0
  -25.3715  -31.3747   26.1417 C   0  0  0  0  0  0
  -27.0390  -30.2964   24.6292 C   0  0  0  0  0  0
  -27.6055  -32.4333   25.7503 C   0  0  0  0  0  0
  -27.5575  -37.1787   24.8466 C   0  0  0  0  0  0
  -21.4252  -29.3050   22.3612 N   0  0  0  0  0  0
  -26.4287  -37.3748   23.9408 N   0  0  0  0  0  0
  -24.7145  -31.0336   22.0922 N   0  0  0  0  0  0
  -23.4212  -28.8103   23.3003 O   0  0  0  0  0  0
  -28.2759  -26.1831   20.2235 O   0  0  0  0  0  0
  -26.5654  -34.8904   22.4644 O   0  0  0  0  0  0
  -23.5539  -32.1321   23.7133 O   0  0  0  0  0  0
  -29.0170  -18.1104   19.3522 C   0  0  0  0  0  0
  -30.0247  -18.5086   21.4435 C   0  0  0  0  0  0
  -28.7021  -19.5226   19.2282 C   0  0  0  0  0  0
  -29.6770  -17.5086   20.4684 C   0  0  0  0  0  0
  -28.9968  -20.5195   20.2323 C   0  0  0  0  0  0
  -29.7135  -19.9308   21.3364 C   0  0  0  0  0  0
  -27.9655  -19.9434   17.9656 C   0  0  0  0  0  0
  -26.9651  -21.7765   20.4457 C   0  0  0  0  0  0
  -28.9298  -23.3303   20.4244 C   0  0  0  0  0  0
  -27.9862  -24.6725   20.0341 C   0  0  0  0  0  0
  -29.6828  -15.9982   20.6956 N   0  0  0  0  0  0
  -28.3986  -21.8884   20.1742 N   0  0  0  0  0  0
  -30.0501  -20.7306   22.3783 F   0  0  0  0  0  0
  -31.4833  -12.7156   19.1826 H   0  0  0  0  0  0
  -30.4408  -11.5856   19.9992 H   0  0  0  0  0  0
  -29.8325  -11.7447   17.5619 H   0  0  0  0  0  0
  -29.6217  -13.4716   17.7079 H   0  0  0  0  0  0
  -27.9358  -11.2790   18.9515 H   0  0  0  0  0  0
  -27.3927  -12.4834   17.8129 H   0  0  0  0  0  0
  -27.6168  -14.2514   19.4449 H   0  0  0  0  0  0
  -28.7558  -12.2211   21.4296 H   0  0  0  0  0  0
  -28.3896  -13.8875   21.7942 H   0  0  0  0  0  0
  -25.2768   -9.5682   22.4759 H   0  0  0  0  0  0
  -24.0005   -7.4634   22.7472 H   0  0  0  0  0  0
  -21.0846   -8.8775   19.8952 H   0  0  0  0  0  0
  -22.3704  -10.9671   19.6164 H   0  0  0  0  0  0
  -21.2009   -7.6147   23.9716 H   0  0  0  0  0  0
  -21.1482   -6.0521   25.9076 H   0  0  0  0  0  0
  -22.0599   -2.7609   23.2846 H   0  0  0  0  0  0
  -22.4093  -11.9863   22.4814 H   0  0  0  0  0  0
  -21.1089  -13.1220   22.2638 H   0  0  0  0  0  0
  -24.6449  -15.8406   20.5213 H   0  0  0  0  0  0
  -26.2549  -15.6358   20.0577 H   0  0  0  0  0  0
  -26.7262  -32.5317   23.1015 H   0  0  0  0  0  0
  -25.0084  -33.9628   25.0338 H   0  0  0  0  0  0
  -22.7455  -31.2916   21.3816 H   0  0  0  0  0  0
  -23.3755  -35.9591   23.3291 H   0  0  0  0  0  0
  -24.3578  -36.8904   22.2060 H   0  0  0  0  0  0
  -23.7244  -37.6453   23.6686 H   0  0  0  0  0  0
  -26.1529  -31.4828   20.6148 H   0  0  0  0  0  0
  -26.8701  -30.7757   22.0277 H   0  0  0  0  0  0
  -28.1299  -28.8192   21.2348 H   0  0  0  0  0  0
  -25.9203  -25.8617   18.9900 H   0  0  0  0  0  0
  -23.9819  -27.3053   18.9770 H   0  0  0  0  0  0
  -23.8028  -30.5715   19.3974 H   0  0  0  0  0  0
  -22.7851  -29.2366   19.8439 H   0  0  0  0  0  0
  -25.1309  -36.1867   25.0809 H   0  0  0  0  0  0
  -21.0010  -28.3308   24.1358 H   0  0  0  0  0  0
  -20.5683  -26.2334   23.3620 H   0  0  0  0  0  0
  -21.6653  -26.7431   22.1200 H   0  0  0  0  0  0
  -19.6921  -25.6288   21.1254 H   0  0  0  0  0  0
  -19.6694  -27.3180   20.6731 H   0  0  0  0  0  0
  -17.4210  -26.6677   21.4029 H   0  0  0  0  0  0
  -18.0344  -26.0079   22.9026 H   0  0  0  0  0  0
  -19.7952  -30.7292   24.2240 H   0  0  0  0  0  0
  -17.5026  -31.6269   24.5165 H   0  0  0  0  0  0
  -15.5364  -30.2981   23.7669 H   0  0  0  0  0  0
  -15.8688  -28.0811   22.7090 H   0  0  0  0  0  0
  -24.5900  -30.7090   25.7736 H   0  0  0  0  0  0
  -24.8902  -32.2928   26.4797 H   0  0  0  0  0  0
  -25.8006  -30.8949   27.0224 H   0  0  0  0  0  0
  -26.3006  -29.6685   24.1294 H   0  0  0  0  0  0
  -27.3999  -29.7263   25.4863 H   0  0  0  0  0  0
  -27.8915  -30.4199   23.9608 H   0  0  0  0  0  0
  -27.2644  -33.3649   26.2031 H   0  0  0  0  0  0
  -28.3891  -32.6869   25.0352 H   0  0  0  0  0  0
  -28.0695  -31.8494   26.5462 H   0  0  0  0  0  0
  -28.2584  -38.0092   24.7509 H   0  0  0  0  0  0
  -28.1078  -36.2619   24.6294 H   0  0  0  0  0  0
  -27.2294  -37.1435   25.8869 H   0  0  0  0  0  0
  -20.9458  -29.8764   21.6796 H   0  0  0  0  0  0
  -26.0153  -38.2816   24.1408 H   0  0  0  0  0  0
  -28.6772  -17.4504   18.5660 H   0  0  0  0  0  0
  -30.4922  -18.1790   22.3590 H   0  0  0  0  0  0
  -28.1735  -19.2619   17.1406 H   0  0  0  0  0  0
  -28.2682  -20.9410   17.6461 H   0  0  0  0  0  0
  -26.8891  -19.9492   18.1366 H   0  0  0  0  0  0
  -26.6191  -20.7452   20.5372 H   0  0  0  0  0  0
  -26.3901  -22.2413   19.6437 H   0  0  0  0  0  0
  -26.7081  -22.2808   21.3785 H   0  0  0  0  0  0
  -29.1870  -23.3967   21.4824 H   0  0  0  0  0  0
  -29.8778  -23.4205   19.8930 H   0  0  0  0  0  0
  -27.0429  -24.5151   20.5571 H   0  0  0  0  0  0
  -27.7514  -24.5593   18.9755 H   0  0  0  0  0  0
  -28.7726  -15.6557   20.9645 H   0  0  0  0  0  0
  1 25  1  0  0  0
  1 30  2  0  0  0
  1 81  1  0  0  0
  2  3  1  0  0  0
  2 25  1  0  0  0
  2 84  1  0  0  0
  2 85  1  0  0  0
  3  4  1  0  0  0
  3 86  1  0  0  0
  3 87  1  0  0  0
  4  5  1  0  0  0
  4 88  1  0  0  0
  4 89  1  0  0  0
  5  6  1  0  0  0
  5 26  1  0  0  0
  5 90  1  0  0  0
  6 25  1  0  0  0
  6 91  1  0  0  0
  6 92  1  0  0  0
  7  8  2  0  0  0
  7 26  1  0  0  0
  7 29  1  0  0  0
  8  9  1  0  0  0
  8 22  1  0  0  0
  9 10  1  0  0  0
  9 27  2  0  0  0
 10 11  2  0  0  0
 10 15  1  0  0  0
 11 12  1  0  0  0
 11 93  1  0  0  0
 12 13  2  0  0  0
 12 94  1  0  0  0
 13 14  1  0  0  0
 13 31  1  0  0  0
 14 15  2  0  0  0
 14 95  1  0  0  0
 15 96  1  0  0  0
 16 17  2  0  0  0
 16 21  1  0  0  0
 16 31  1  0  0  0
 17 18  1  0  0  0
 17 97  1  0  0  0
 18 19  2  0  0  0
 18 98  1  0  0  0
 19 20  1  0  0  0
 19 24  1  0  0  0
 20 21  2  0  0  0
 20 99  1  0  0  0
 21 23  1  0  0  0
 22 28  1  0  0  0
 22 32  2  0  0  0
 26 27  1  0  0  0
 28100  1  0  0  0
 28101  1  0  0  0
 29102  1  0  0  0
 29103  1  0  0  0
 33 34  1  0  0  0
 33 66  1  0  0  0
 33 70  2  0  0  0
 34 36  1  0  0  0
 34 59  1  0  0  0
 34104  1  0  0  0
 35 44  2  0  0  0
 35 45  1  0  0  0
 35 68  1  0  0  0
 36 56  1  0  0  0
 36105  1  0  0  0
 37 39  1  0  0  0
 37 47  1  0  0  0
 37 66  1  0  0  0
 37106  1  0  0  0
 38 43  2  0  0  0
 38 46  1  0  0  0
 38 47  1  0  0  0
 39 64  1  0  0  0
 39 67  2  0  0  0
 40 52  1  0  0  0
 40 53  2  0  0  0
 40 58  1  0  0  0
 41107  1  0  0  0
 41108  1  0  0  0
 41109  1  0  0  0
 41 48  1  0  0  0
 42 43  1  0  0  0
 42 66  1  0  0  0
 42110  1  0  0  0
 42111  1  0  0  0
 43 44  1  0  0  0
 44112  1  0  0  0
 45 46  2  0  0  0
 45113  1  0  0  0
 46114  1  0  0  0
 47115  1  0  0  0
 47116  1  0  0  0
 48 56  1  0  0  0
 48 65  1  0  0  0
 48117  1  0  0  0
 49 50  1  0  0  0
 49 53  1  0  0  0
 49 64  1  0  0  0
 49118  1  0  0  0
 50 51  1  0  0  0
 50119  1  0  0  0
 50120  1  0  0  0
 51 52  1  0  0  0
 51121  1  0  0  0
 51122  1  0  0  0
 52123  1  0  0  0
 52124  1  0  0  0
 53 54  1  0  0  0
 54 55  2  0  0  0
 54125  1  0  0  0
 55 57  1  0  0  0
 55126  1  0  0  0
 56 69  2  0  0  0
 57 58  2  0  0  0
 57127  1  0  0  0
 58128  1  0  0  0
 59 60  1  0  0  0
 59 61  1  0  0  0
 59 62  1  0  0  0
 60129  1  0  0  0
 60130  1  0  0  0
 60131  1  0  0  0
 61132  1  0  0  0
 61133  1  0  0  0
 61134  1  0  0  0
 62135  1  0  0  0
 62136  1  0  0  0
 62137  1  0  0  0
 63 65  1  0  0  0
 63138  1  0  0  0
 63139  1  0  0  0
 63140  1  0  0  0
 64141  1  0  0  0
 65142  1  0  0  0
 68 80  1  0  0  0
 71 73  2  0  0  0
 71 74  1  0  0  0
 71143  1  0  0  0
 72 74  2  0  0  0
 72 76  1  0  0  0
 72144  1  0  0  0
 73 75  1  0  0  0
 73 77  1  0  0  0
 74 81  1  0  0  0
 75 76  2  0  0  0
 75 82  1  0  0  0
 76 83  1  0  0  0
 77145  1  0  0  0
 77146  1  0  0  0
 77147  1  0  0  0
 78 82  1  0  0  0
 78148  1  0  0  0
 78149  1  0  0  0
 78150  1  0  0  0
 79 80  1  0  0  0
 79 82  1  0  0  0
 79151  1  0  0  0
 79152  1  0  0  0
 80153  1  0  0  0
 80154  1  0  0  0
 81155  1  0  0  0
M  ISO  4   1 100  68 101  80 101  81 100
M  END
> <chiral flag>
0

> <version>
0

> <s_m_source_file>
/data/baiqing/PycharmProjects/Reinvent-master-3.2/result/LINK_invent/BTK/process_docking_weight1_custom_product_contain_oxygen_bond_distance_aromatic_linkinvent_7_9_3/rearranged_h_0023.sdf

> <i_m_source_file_index>
34

> <r_mmod_Potential_Energy-OPLS-2005>
514.273559570312

> <r_mmod_Stretch_Energy-OPLS-2005>
212.363311767578

> <r_mmod_Bend_Energy-OPLS-2005>
251.184204101562

> <r_mmod_Torsional_Energy-OPLS-2005>
269.163970947266

> <r_mmod_Improper_Torsional_Energy-OPLS-2005>
9.49982643127441

> <r_mmod_Van_der_Waal_Energy-OPLS-2005>
137.14225769043

> <r_mmod_Electrostatic_Energy-OPLS-2005>
-311.494964599609

> <r_mmod_Solvation_Energy-OPLS-2005>
-219.340759277344

> <b_mmod_Minimization_Converged-OPLS-2005>
0

> <r_mmod_RMS_Derivative-OPLS-2005>
0.294449508190155

$$$$
34
                    3D
 Structure written by MMmdl.
159167  0  0  1  0            999 V2000
  -30.5421  -15.0124   20.4279 C   0  0  0  0  0  0
  -30.4333  -12.6387   19.5008 C   0  0  0  0  0  0
  -29.5218  -12.5301   18.2577 C   0  0  0  0  0  0
  -28.0560  -12.3145   18.6765 C   0  0  0  0  0  0
  -27.6195  -13.2598   19.8261 C   0  0  2  0  0  0
  -28.6593  -13.3312   20.9637 C   0  0  0  0  0  0
  -25.2404  -13.8229   20.5702 C   0  0  0  0  0  0
  -24.1748  -13.0434   20.9243 C   0  0  0  0  0  0
  -24.6392  -11.6928   20.8750 C   0  0  0  0  0  0
  -23.9089  -10.4286   21.0405 C   0  0  0  0  0  0
  -24.3635   -9.4195   21.9176 C   0  0  0  0  0  0
  -23.6300   -8.2232   22.0742 C   0  0  0  0  0  0
  -22.4274   -8.0276   21.3543 C   0  0  0  0  0  0
  -21.9922   -9.0252   20.4640 C   0  0  0  0  0  0
  -22.7263  -10.2126   20.3048 C   0  0  0  0  0  0
  -21.6861   -6.0729   22.5279 C   0  0  0  0  0  0
  -21.4026   -6.5637   23.8211 C   0  0  0  0  0  0
  -21.3662   -5.6789   24.9174 C   0  0  0  0  0  0
  -21.6039   -4.3052   24.7231 C   0  0  0  0  0  0
  -21.8815   -3.8144   23.4355 C   0  0  0  0  0  0
  -21.9192   -4.6956   22.3408 C   0  0  0  0  0  0
  -22.7764  -13.5183   21.1902 C   0  0  0  0  0  0
  -22.1655   -4.2143   21.0986 F   0  0  0  0  0  0
  -21.5629   -3.4529   25.7743 F   0  0  0  0  0  0
  -29.9223  -13.7600   20.3512 N   0  0  0  0  0  0
  -26.2830  -12.9490   20.3181 N   0  0  0  0  0  0
  -25.9321  -11.6609   20.5701 N   0  0  0  0  0  0
  -22.0418  -12.8168   22.0461 N   0  0  0  0  0  0
  -25.4040  -15.1964   20.4137 N   0  0  0  0  0  0
  -31.7564  -15.0033   20.1933 O   0  0  0  0  0  0
  -21.6644   -6.8869   21.4240 O   0  0  0  0  0  0
  -22.3434  -14.5473   20.6725 O   0  0  0  0  0  0
  -24.6448  -31.8423   23.1818 C   0  0  0  0  0  0
  -25.9213  -32.4683   23.8194 C   0  0  1  0  0  0
  -27.2039  -27.0840   20.1663 C   0  0  0  0  0  0
  -25.5937  -33.8476   24.2127 N   0  0  0  0  0  0
  -23.4504  -30.4585   21.5296 C   0  0  2  0  0  0
  -24.9006  -28.8807   20.1037 C   0  0  0  0  0  0
  -22.7576  -29.4527   22.4844 C   0  0  0  0  0  0
  -18.0304  -28.1412   22.8470 C   0  0  0  0  0  0
  -24.1477  -36.7265   23.2642 C   0  0  0  0  0  0
  -26.0101  -30.6956   21.3940 C   0  0  0  0  0  0
  -26.0759  -29.3037   20.7358 C   0  0  0  0  0  0
  -27.2247  -28.4201   20.7535 C   0  0  0  0  0  0
  -26.0133  -26.7878   19.4667 C   0  0  0  0  0  0
  -24.8862  -27.6393   19.4501 C   0  0  0  0  0  0
  -23.6790  -29.7874   20.1483 C   0  0  0  0  0  0
  -25.4119  -36.3025   24.0295 C   0  0  1  0  0  0
  -20.5916  -28.3728   23.1237 C   0  0  2  0  0  0
  -20.6799  -26.9432   22.5405 C   0  0  0  0  0  0
  -19.5776  -26.6389   21.5212 C   0  0  0  0  0  0
  -18.1952  -26.7940   22.1619 C   0  0  0  0  0  0
  -19.1565  -28.8890   23.2845 C   0  0  0  0  0  0
  -18.9472  -30.1485   23.8868 C   0  0  0  0  0  0
  -17.6473  -30.6603   24.0556 C   0  0  0  0  0  0
  -25.9076  -34.9405   23.5040 C   0  0  0  0  0  0
  -16.5364  -29.9091   23.6337 C   0  0  0  0  0  0
  -16.7288  -28.6518   23.0341 C   0  0  0  0  0  0
  -26.4530  -31.6552   25.0645 C   0  0  0  0  0  0
  -25.3710  -31.3740   26.1329 C   0  0  0  0  0  0
  -27.0418  -30.2949   24.6271 C   0  0  0  0  0  0
  -27.6073  -32.4310   25.7418 C   0  0  0  0  0  0
  -27.5565  -37.1783   24.8453 C   0  0  0  0  0  0
  -21.4265  -29.3042   22.3590 N   0  0  0  0  0  0
  -26.4277  -37.3739   23.9399 N   0  0  0  0  0  0
  -24.7218  -31.0216   22.0884 N   0  0  0  0  0  0
  -23.4203  -28.8095   23.3023 O   0  0  0  0  0  0
  -28.2320  -26.0625   20.2889 O   0  0  0  0  0  0
  -26.5682  -34.8916   22.4627 O   0  0  0  0  0  0
  -23.5565  -32.1332   23.7013 O   0  0  0  0  0  0
  -32.2052  -19.3838   19.4719 C   0  0  0  0  0  0
  -30.8459  -19.5417   19.1453 C   0  0  0  0  0  0
  -31.6067  -17.7731   21.1757 C   0  0  0  0  0  0
  -32.5743  -18.5955   20.5736 C   0  0  0  0  0  0
  -29.8441  -19.0492   20.0217 C   0  0  0  0  0  0
  -30.2829  -17.7376   20.6708 C   0  0  0  0  0  0
  -28.8373  -21.5956   19.9783 C   0  0  0  0  0  0
  -29.7683  -20.4406   23.0164 C   0  0  0  0  0  0
  -28.6655  -23.1114   20.6832 C   0  0  0  0  0  0
  -28.6547  -20.1720   21.9924 C   0  0  0  0  0  0
  -28.0544  -24.5287   19.9338 C   0  0  0  0  0  0
  -33.9059  -18.5361   20.9792 N   0  0  0  0  0  0
  -29.8136  -16.2604   20.5187 N   0  0  0  0  0  0
  -29.1151  -20.3091   20.6061 N   0  0  0  0  0  0
  -28.6768  -21.6188   18.7540 O   0  0  0  0  0  0
  -31.4647  -12.7985   19.1823 H   0  0  0  0  0  0
  -30.4409  -11.7015   20.0605 H   0  0  0  0  0  0
  -29.8509  -11.7101   17.6173 H   0  0  0  0  0  0
  -29.6057  -13.4382   17.6584 H   0  0  0  0  0  0
  -27.9579  -11.2783   19.0017 H   0  0  0  0  0  0
  -27.3954  -12.4277   17.8157 H   0  0  0  0  0  0
  -27.5694  -14.2524   19.3780 H   0  0  0  0  0  0
  -28.7650  -12.3677   21.4619 H   0  0  0  0  0  0
  -28.3446  -14.0454   21.7280 H   0  0  0  0  0  0
  -25.2778   -9.5670   22.4751 H   0  0  0  0  0  0
  -24.0015   -7.4620   22.7453 H   0  0  0  0  0  0
  -21.0852   -8.8778   19.8942 H   0  0  0  0  0  0
  -22.3724  -10.9664   19.6148 H   0  0  0  0  0  0
  -21.2027   -7.6143   23.9721 H   0  0  0  0  0  0
  -21.1481   -6.0514   25.9078 H   0  0  0  0  0  0
  -22.0591   -2.7605   23.2851 H   0  0  0  0  0  0
  -22.4060  -11.9883   22.4934 H   0  0  0  0  0  0
  -21.0995  -13.1125   22.2593 H   0  0  0  0  0  0
  -24.6256  -15.8381   20.5219 H   0  0  0  0  0  0
  -26.2382  -15.6429   20.0593 H   0  0  0  0  0  0
  -26.7259  -32.5271   23.0892 H   0  0  0  0  0  0
  -24.9960  -33.9566   25.0189 H   0  0  0  0  0  0
  -22.7557  -31.2868   21.3739 H   0  0  0  0  0  0
  -23.3723  -35.9611   23.3293 H   0  0  0  0  0  0
  -24.3557  -36.8920   22.2057 H   0  0  0  0  0  0
  -23.7240  -37.6463   23.6695 H   0  0  0  0  0  0
  -26.1794  -31.4521   20.6258 H   0  0  0  0  0  0
  -26.8742  -30.7392   22.0440 H   0  0  0  0  0  0
  -28.1136  -28.7345   21.2815 H   0  0  0  0  0  0
  -25.9103  -25.8524   18.9404 H   0  0  0  0  0  0
  -23.9949  -27.3191   18.9287 H   0  0  0  0  0  0
  -23.8181  -30.5637   19.3946 H   0  0  0  0  0  0
  -22.7921  -29.2332   19.8367 H   0  0  0  0  0  0
  -25.1312  -36.1838   25.0784 H   0  0  0  0  0  0
  -21.0004  -28.3329   24.1361 H   0  0  0  0  0  0
  -20.5710  -26.2333   23.3623 H   0  0  0  0  0  0
  -21.6665  -26.7457   22.1200 H   0  0  0  0  0  0
  -19.6939  -25.6290   21.1269 H   0  0  0  0  0  0
  -19.6723  -27.3183   20.6731 H   0  0  0  0  0  0
  -17.4221  -26.6660   21.4023 H   0  0  0  0  0  0
  -18.0360  -26.0102   22.9040 H   0  0  0  0  0  0
  -19.7952  -30.7306   24.2222 H   0  0  0  0  0  0
  -17.5026  -31.6278   24.5162 H   0  0  0  0  0  0
  -15.5362  -30.2982   23.7690 H   0  0  0  0  0  0
  -15.8687  -28.0842   22.7050 H   0  0  0  0  0  0
  -24.5908  -30.7064   25.7644 H   0  0  0  0  0  0
  -24.8862  -32.2904   26.4687 H   0  0  0  0  0  0
  -25.8002  -30.8959   27.0139 H   0  0  0  0  0  0
  -27.3923  -29.7246   25.4886 H   0  0  0  0  0  0
  -27.9033  -30.4177   23.9692 H   0  0  0  0  0  0
  -26.3101  -29.6672   24.1179 H   0  0  0  0  0  0
  -27.2721  -33.3678   26.1886 H   0  0  0  0  0  0
  -28.3937  -32.6751   25.0262 H   0  0  0  0  0  0
  -28.0657  -31.8466   26.5409 H   0  0  0  0  0  0
  -28.2587  -38.0075   24.7488 H   0  0  0  0  0  0
  -28.1052  -36.2603   24.6288 H   0  0  0  0  0  0
  -27.2287  -37.1448   25.8859 H   0  0  0  0  0  0
  -20.9474  -29.8729   21.6755 H   0  0  0  0  0  0
  -26.0138  -38.2805   24.1401 H   0  0  0  0  0  0
  -32.9460  -19.9463   18.9207 H   0  0  0  0  0  0
  -30.6498  -20.3280   18.4357 H   0  0  0  0  0  0
  -31.9562  -16.9980   21.8425 H   0  0  0  0  0  0
  -29.3495  -20.5373   24.0191 H   0  0  0  0  0  0
  -30.3124  -21.3596   22.7976 H   0  0  0  0  0  0
  -30.4872  -19.6215   23.0438 H   0  0  0  0  0  0
  -29.6687  -23.3556   21.0305 H   0  0  0  0  0  0
  -28.0905  -22.9722   21.5968 H   0  0  0  0  0  0
  -27.8034  -20.8260   22.1874 H   0  0  0  0  0  0
  -28.2630  -19.1660   22.1436 H   0  0  0  0  0  0
  -26.9844  -24.3367   19.9101 H   0  0  0  0  0  0
  -28.3649  -24.4686   18.8897 H   0  0  0  0  0  0
  -34.5435  -19.2892   20.7354 H   0  0  0  0  0  0
  -34.1491  -18.0644   21.8454 H   0  0  0  0  0  0
  -28.8130  -16.1420   20.4642 H   0  0  0  0  0  0
  1 25  1  0  0  0
  1 30  2  0  0  0
  1 83  1  0  0  0
  2  3  1  0  0  0
  2 25  1  0  0  0
  2 86  1  0  0  0
  2 87  1  0  0  0
  3  4  1  0  0  0
  3 88  1  0  0  0
  3 89  1  0  0  0
  4  5  1  0  0  0
  4 90  1  0  0  0
  4 91  1  0  0  0
  5  6  1  0  0  0
  5 26  1  0  0  0
  5 92  1  0  0  0
  6 25  1  0  0  0
  6 93  1  0  0  0
  6 94  1  0  0  0
  7  8  2  0  0  0
  7 26  1  0  0  0
  7 29  1  0  0  0
  8  9  1  0  0  0
  8 22  1  0  0  0
  9 10  1  0  0  0
  9 27  2  0  0  0
 10 11  2  0  0  0
 10 15  1  0  0  0
 11 12  1  0  0  0
 11 95  1  0  0  0
 12 13  2  0  0  0
 12 96  1  0  0  0
 13 14  1  0  0  0
 13 31  1  0  0  0
 14 15  2  0  0  0
 14 97  1  0  0  0
 15 98  1  0  0  0
 16 17  2  0  0  0
 16 21  1  0  0  0
 16 31  1  0  0  0
 17 18  1  0  0  0
 17 99  1  0  0  0
 18 19  2  0  0  0
 18100  1  0  0  0
 19 20  1  0  0  0
 19 24  1  0  0  0
 20 21  2  0  0  0
 20101  1  0  0  0
 21 23  1  0  0  0
 22 28  1  0  0  0
 22 32  2  0  0  0
 26 27  1  0  0  0
 28102  1  0  0  0
 28103  1  0  0  0
 29104  1  0  0  0
 29105  1  0  0  0
 33 34  1  0  0  0
 33 66  1  0  0  0
 33 70  2  0  0  0
 34 36  1  0  0  0
 34 59  1  0  0  0
 34106  1  0  0  0
 35 44  2  0  0  0
 35 45  1  0  0  0
 35 68  1  0  0  0
 36 56  1  0  0  0
 36107  1  0  0  0
 37 39  1  0  0  0
 37 47  1  0  0  0
 37 66  1  0  0  0
 37108  1  0  0  0
 38 43  2  0  0  0
 38 46  1  0  0  0
 38 47  1  0  0  0
 39 64  1  0  0  0
 39 67  2  0  0  0
 40 52  1  0  0  0
 40 53  2  0  0  0
 40 58  1  0  0  0
 41109  1  0  0  0
 41110  1  0  0  0
 41111  1  0  0  0
 41 48  1  0  0  0
 42 43  1  0  0  0
 42 66  1  0  0  0
 42112  1  0  0  0
 42113  1  0  0  0
 43 44  1  0  0  0
 44114  1  0  0  0
 45 46  2  0  0  0
 45115  1  0  0  0
 46116  1  0  0  0
 47117  1  0  0  0
 47118  1  0  0  0
 48 56  1  0  0  0
 48 65  1  0  0  0
 48119  1  0  0  0
 49 50  1  0  0  0
 49 53  1  0  0  0
 49 64  1  0  0  0
 49120  1  0  0  0
 50 51  1  0  0  0
 50121  1  0  0  0
 50122  1  0  0  0
 51 52  1  0  0  0
 51123  1  0  0  0
 51124  1  0  0  0
 52125  1  0  0  0
 52126  1  0  0  0
 53 54  1  0  0  0
 54 55  2  0  0  0
 54127  1  0  0  0
 55 57  1  0  0  0
 55128  1  0  0  0
 56 69  2  0  0  0
 57 58  2  0  0  0
 57129  1  0  0  0
 58130  1  0  0  0
 59 60  1  0  0  0
 59 61  1  0  0  0
 59 62  1  0  0  0
 60131  1  0  0  0
 60132  1  0  0  0
 60133  1  0  0  0
 61134  1  0  0  0
 61135  1  0  0  0
 61136  1  0  0  0
 62137  1  0  0  0
 62138  1  0  0  0
 62139  1  0  0  0
 63 65  1  0  0  0
 63140  1  0  0  0
 63141  1  0  0  0
 63142  1  0  0  0
 64143  1  0  0  0
 65144  1  0  0  0
 68 81  1  0  0  0
 71 72  2  0  0  0
 71 74  1  0  0  0
 71145  1  0  0  0
 72 75  1  0  0  0
 72146  1  0  0  0
 73 74  2  0  0  0
 73 76  1  0  0  0
 73147  1  0  0  0
 74 82  1  0  0  0
 75 76  2  0  0  0
 75 84  1  0  0  0
 76 83  1  0  0  0
 77 79  1  0  0  0
 77 84  1  0  0  0
 77 85  2  0  0  0
 78 80  1  0  0  0
 78148  1  0  0  0
 78149  1  0  0  0
 78150  1  0  0  0
 79 81  1  0  0  0
 79151  1  0  0  0
 79152  1  0  0  0
 80 84  1  0  0  0
 80153  1  0  0  0
 80154  1  0  0  0
 81155  1  0  0  0
 81156  1  0  0  0
 82157  1  0  0  0
 82158  1  0  0  0
 83159  1  0  0  0
M  ISO  4   1 100  68 101  81 101  83 100
M  END
> <chiral flag>
0

> <version>
0

> <s_m_source_file>
/data/baiqing/PycharmProjects/Reinvent-master-3.2/result/LINK_invent/BTK/process_docking_weight1_custom_product_contain_oxygen_bond_distance_aromatic_linkinvent_7_9_3/rearranged_h_0023.sdf

> <i_m_source_file_index>
35

> <r_mmod_Potential_Energy-OPLS-2005>
962.157836914062

> <r_mmod_Stretch_Energy-OPLS-2005>
350.908233642578

> <r_mmod_Bend_Energy-OPLS-2005>
314.42822265625

> <r_mmod_Torsional_Energy-OPLS-2005>
471.464477539062

> <r_mmod_Improper_Torsional_Energy-OPLS-2005>
29.2206897735596

> <r_mmod_Van_der_Waal_Energy-OPLS-2005>
147.182388305664

> <r_mmod_Electrostatic_Energy-OPLS-2005>
-358.952606201172

> <r_mmod_Solvation_Energy-OPLS-2005>
-236.152770996094

> <b_mmod_Minimization_Converged-OPLS-2005>
0

> <r_mmod_RMS_Derivative-OPLS-2005>
2.45021653175354

$$$$
35
                    3D
 Structure written by MMmdl.
156165  0  0  1  0            999 V2000
  -30.5419  -15.0350   20.4267 C   0  0  0  0  0  0
  -30.4473  -12.6513   19.5272 C   0  0  0  0  0  0
  -29.5407  -12.5451   18.2793 C   0  0  0  0  0  0
  -28.0737  -12.3144   18.6893 C   0  0  0  0  0  0
  -27.6319  -13.2596   19.8352 C   0  0  2  0  0  0
  -28.6668  -13.3422   20.9796 C   0  0  0  0  0  0
  -25.2492  -13.8250   20.5646 C   0  0  0  0  0  0
  -24.1812  -13.0475   20.9204 C   0  0  0  0  0  0
  -24.6441  -11.6961   20.8730 C   0  0  0  0  0  0
  -23.9103  -10.4346   21.0388 C   0  0  0  0  0  0
  -24.3625   -9.4257   21.9153 C   0  0  0  0  0  0
  -23.6337   -8.2282   22.0742 C   0  0  0  0  0  0
  -22.4313   -8.0309   21.3536 C   0  0  0  0  0  0
  -21.9944   -9.0267   20.4653 C   0  0  0  0  0  0
  -22.7264  -10.2157   20.3051 C   0  0  0  0  0  0
  -21.6895   -6.0751   22.5285 C   0  0  0  0  0  0
  -21.4026   -6.5641   23.8211 C   0  0  0  0  0  0
  -21.3650   -5.6788   24.9173 C   0  0  0  0  0  0
  -21.6059   -4.3060   24.7216 C   0  0  0  0  0  0
  -21.8819   -3.8148   23.4343 C   0  0  0  0  0  0
  -21.9202   -4.6970   22.3406 C   0  0  0  0  0  0
  -22.7822  -13.5215   21.1867 C   0  0  0  0  0  0
  -22.1651   -4.2158   21.0989 F   0  0  0  0  0  0
  -21.5641   -3.4531   25.7723 F   0  0  0  0  0  0
  -29.9405  -13.7682   20.3871 N   0  0  0  0  0  0
  -26.2938  -12.9482   20.3200 N   0  0  0  0  0  0
  -25.9392  -11.6613   20.5739 N   0  0  0  0  0  0
  -22.0436  -12.8243   22.0436 N   0  0  0  0  0  0
  -25.4180  -15.1981   20.4044 N   0  0  0  0  0  0
  -31.7403  -15.0517   20.1249 O   0  0  0  0  0  0
  -21.6678   -6.8889   21.4238 O   0  0  0  0  0  0
  -22.3490  -14.5492   20.6681 O   0  0  0  0  0  0
  -24.6473  -31.8384   23.1824 C   0  0  0  0  0  0
  -25.9219  -32.4668   23.8252 C   0  0  1  0  0  0
  -27.2320  -27.0875   20.1816 C   0  0  0  0  0  0
  -25.5947  -33.8468   24.2188 N   0  0  0  0  0  0
  -23.4520  -30.4513   21.5315 C   0  0  2  0  0  0
  -24.9053  -28.8643   20.1158 C   0  0  0  0  0  0
  -22.7579  -29.4505   22.4892 C   0  0  0  0  0  0
  -18.0322  -28.1379   22.8475 C   0  0  0  0  0  0
  -24.1484  -36.7252   23.2643 C   0  0  0  0  0  0
  -26.0080  -30.6993   21.3832 C   0  0  0  0  0  0
  -26.0835  -29.3026   20.7342 C   0  0  0  0  0  0
  -27.2450  -28.4343   20.7428 C   0  0  0  0  0  0
  -26.0253  -26.7559   19.5240 C   0  0  0  0  0  0
  -24.8923  -27.6037   19.4949 C   0  0  0  0  0  0
  -23.6795  -29.7696   20.1547 C   0  0  0  0  0  0
  -25.4116  -36.3009   24.0315 C   0  0  1  0  0  0
  -20.5919  -28.3691   23.1273 C   0  0  2  0  0  0
  -20.6785  -26.9413   22.5411 C   0  0  0  0  0  0
  -19.5763  -26.6372   21.5205 C   0  0  0  0  0  0
  -18.1947  -26.7927   22.1622 C   0  0  0  0  0  0
  -19.1566  -28.8871   23.2861 C   0  0  0  0  0  0
  -18.9481  -30.1462   23.8870 C   0  0  0  0  0  0
  -17.6465  -30.6586   24.0535 C   0  0  0  0  0  0
  -25.9075  -34.9376   23.5075 C   0  0  0  0  0  0
  -16.5367  -29.9049   23.6327 C   0  0  0  0  0  0
  -16.7297  -28.6477   23.0362 C   0  0  0  0  0  0
  -26.4536  -31.6540   25.0703 C   0  0  0  0  0  0
  -25.3716  -31.3715   26.1392 C   0  0  0  0  0  0
  -27.0405  -30.2942   24.6280 C   0  0  0  0  0  0
  -27.6096  -32.4279   25.7492 C   0  0  0  0  0  0
  -27.5587  -37.1767   24.8467 C   0  0  0  0  0  0
  -21.4284  -29.2998   22.3637 N   0  0  0  0  0  0
  -26.4283  -37.3724   23.9423 N   0  0  0  0  0  0
  -24.7233  -31.0192   22.0887 N   0  0  0  0  0  0
  -23.4218  -28.8074   23.3068 O   0  0  0  0  0  0
  -28.2921  -26.0932   20.2576 O   0  0  0  0  0  0
  -26.5675  -34.8886   22.4657 O   0  0  0  0  0  0
  -23.5594  -32.1301   23.7030 O   0  0  0  0  0  0
  -31.5337  -19.4460   19.2665 C   0  0  0  0  0  0
  -30.7337  -20.5547   19.6273 C   0  0  0  0  0  0
  -31.2180  -18.1123   19.6155 C   0  0  0  0  0  0
  -29.5425  -20.4261   20.3735 C   0  0  0  0  0  0
  -30.0698  -17.7709   20.3645 C   0  0  0  0  0  0
  -29.2492  -18.9790   20.7317 C   0  0  0  0  0  0
  -29.0411  -22.7256   22.8340 C   0  0  0  0  0  0
  -29.8902  -23.4969   21.8111 C   0  0  0  0  0  0
  -28.2232  -21.7058   22.0174 C   0  0  0  0  0  0
  -29.1729  -23.2413   20.4812 C   0  0  2  0  0  0
  -28.0468  -24.5294   20.2692 C   0  0  0  0  0  0
  -28.7866  -21.7096   20.6710 N   0  0  0  0  0  0
  -29.8085  -16.2549   20.6452 N   0  0  0  0  0  0
  -28.1224  -18.7254   21.4464 F   0  0  0  0  0  0
  -31.4753  -12.8186   19.2061 H   0  0  0  0  0  0
  -30.4646  -11.7146   20.0849 H   0  0  0  0  0  0
  -29.8868  -11.7330   17.6370 H   0  0  0  0  0  0
  -29.6144  -13.4655   17.6947 H   0  0  0  0  0  0
  -27.9873  -11.2765   19.0141 H   0  0  0  0  0  0
  -27.4105  -12.4162   17.8291 H   0  0  0  0  0  0
  -27.5808  -14.2524   19.3870 H   0  0  0  0  0  0
  -28.7723  -12.3900   21.4987 H   0  0  0  0  0  0
  -28.3477  -14.0687   21.7288 H   0  0  0  0  0  0
  -25.2749   -9.5758   22.4750 H   0  0  0  0  0  0
  -24.0056   -7.4679   22.7469 H   0  0  0  0  0  0
  -21.0854   -8.8780   19.8982 H   0  0  0  0  0  0
  -22.3672  -10.9685   19.6168 H   0  0  0  0  0  0
  -21.1993   -7.6143   23.9710 H   0  0  0  0  0  0
  -21.1468   -6.0527   25.9093 H   0  0  0  0  0  0
  -22.0603   -2.7606   23.2841 H   0  0  0  0  0  0
  -22.3998  -11.9936   22.4929 H   0  0  0  0  0  0
  -21.1027  -13.1280   22.2516 H   0  0  0  0  0  0
  -24.6557  -15.8583   20.5255 H   0  0  0  0  0  0
  -26.2698  -15.6359   20.0746 H   0  0  0  0  0  0
  -26.7292  -32.5251   23.0981 H   0  0  0  0  0  0
  -24.9944  -33.9575   25.0225 H   0  0  0  0  0  0
  -22.7541  -31.2749   21.3735 H   0  0  0  0  0  0
  -23.3749  -35.9583   23.3263 H   0  0  0  0  0  0
  -24.3574  -36.8924   22.2073 H   0  0  0  0  0  0
  -23.7245  -37.6430   23.6712 H   0  0  0  0  0  0
  -26.1545  -31.4458   20.6020 H   0  0  0  0  0  0
  -26.8816  -30.7638   22.0185 H   0  0  0  0  0  0
  -28.1404  -28.7684   21.2481 H   0  0  0  0  0  0
  -25.9267  -25.7926   19.0446 H   0  0  0  0  0  0
  -23.9945  -27.2513   19.0058 H   0  0  0  0  0  0
  -23.8106  -30.5395   19.3949 H   0  0  0  0  0  0
  -22.7924  -29.2112   19.8512 H   0  0  0  0  0  0
  -25.1300  -36.1812   25.0808 H   0  0  0  0  0  0
  -21.0011  -28.3235   24.1390 H   0  0  0  0  0  0
  -20.5648  -26.2296   23.3602 H   0  0  0  0  0  0
  -21.6651  -26.7371   22.1231 H   0  0  0  0  0  0
  -19.6913  -25.6266   21.1261 H   0  0  0  0  0  0
  -19.6726  -27.3142   20.6709 H   0  0  0  0  0  0
  -17.4225  -26.6683   21.4022 H   0  0  0  0  0  0
  -18.0348  -26.0069   22.9026 H   0  0  0  0  0  0
  -19.7942  -30.7293   24.2231 H   0  0  0  0  0  0
  -17.5006  -31.6255   24.5117 H   0  0  0  0  0  0
  -15.5352  -30.2927   23.7668 H   0  0  0  0  0  0
  -15.8710  -28.0748   22.7116 H   0  0  0  0  0  0
  -24.5873  -30.7105   25.7686 H   0  0  0  0  0  0
  -24.8912  -32.2878   26.4834 H   0  0  0  0  0  0
  -25.7967  -30.8845   27.0171 H   0  0  0  0  0  0
  -26.3017  -29.6660   24.1292 H   0  0  0  0  0  0
  -27.4035  -29.7249   25.4847 H   0  0  0  0  0  0
  -27.8913  -30.4205   23.9585 H   0  0  0  0  0  0
  -27.2733  -33.3587   26.2073 H   0  0  0  0  0  0
  -28.3915  -32.6823   25.0325 H   0  0  0  0  0  0
  -28.0755  -31.8383   26.5398 H   0  0  0  0  0  0
  -28.2572  -38.0093   24.7514 H   0  0  0  0  0  0
  -28.1121  -36.2623   24.6268 H   0  0  0  0  0  0
  -27.2318  -37.1359   25.8872 H   0  0  0  0  0  0
  -20.9511  -29.8693   21.6788 H   0  0  0  0  0  0
  -26.0147  -38.2791   24.1405 H   0  0  0  0  0  0
  -32.4312  -19.6238   18.6924 H   0  0  0  0  0  0
  -31.0775  -21.5251   19.3054 H   0  0  0  0  0  0
  -31.8958  -17.3469   19.2707 H   0  0  0  0  0  0
  -28.3758  -23.4008   23.3720 H   0  0  0  0  0  0
  -29.6689  -22.2315   23.5784 H   0  0  0  0  0  0
  -30.9014  -23.0807   21.7870 H   0  0  0  0  0  0
  -29.9958  -24.5573   22.0520 H   0  0  0  0  0  0
  -27.1749  -22.0084   21.9563 H   0  0  0  0  0  0
  -28.2459  -20.7352   22.5154 H   0  0  0  0  0  0
  -29.9019  -23.3337   19.6728 H   0  0  0  0  0  0
  -27.2865  -24.3898   21.0346 H   0  0  0  0  0  0
  -27.5379  -24.3056   19.3317 H   0  0  0  0  0  0
  -28.8836  -16.0789   21.0077 H   0  0  0  0  0  0
  1 25  1  0  0  0
  1 30  2  0  0  0
  1 83  1  0  0  0
  2  3  1  0  0  0
  2 25  1  0  0  0
  2 85  1  0  0  0
  2 86  1  0  0  0
  3  4  1  0  0  0
  3 87  1  0  0  0
  3 88  1  0  0  0
  4  5  1  0  0  0
  4 89  1  0  0  0
  4 90  1  0  0  0
  5  6  1  0  0  0
  5 26  1  0  0  0
  5 91  1  0  0  0
  6 25  1  0  0  0
  6 92  1  0  0  0
  6 93  1  0  0  0
  7  8  2  0  0  0
  7 26  1  0  0  0
  7 29  1  0  0  0
  8  9  1  0  0  0
  8 22  1  0  0  0
  9 10  1  0  0  0
  9 27  2  0  0  0
 10 11  2  0  0  0
 10 15  1  0  0  0
 11 12  1  0  0  0
 11 94  1  0  0  0
 12 13  2  0  0  0
 12 95  1  0  0  0
 13 14  1  0  0  0
 13 31  1  0  0  0
 14 15  2  0  0  0
 14 96  1  0  0  0
 15 97  1  0  0  0
 16 17  2  0  0  0
 16 21  1  0  0  0
 16 31  1  0  0  0
 17 18  1  0  0  0
 17 98  1  0  0  0
 18 19  2  0  0  0
 18 99  1  0  0  0
 19 20  1  0  0  0
 19 24  1  0  0  0
 20 21  2  0  0  0
 20100  1  0  0  0
 21 23  1  0  0  0
 22 28  1  0  0  0
 22 32  2  0  0  0
 26 27  1  0  0  0
 28101  1  0  0  0
 28102  1  0  0  0
 29103  1  0  0  0
 29104  1  0  0  0
 33 34  1  0  0  0
 33 66  1  0  0  0
 33 70  2  0  0  0
 34 36  1  0  0  0
 34 59  1  0  0  0
 34105  1  0  0  0
 35 44  2  0  0  0
 35 45  1  0  0  0
 35 68  1  0  0  0
 36 56  1  0  0  0
 36106  1  0  0  0
 37 39  1  0  0  0
 37 47  1  0  0  0
 37 66  1  0  0  0
 37107  1  0  0  0
 38 43  2  0  0  0
 38 46  1  0  0  0
 38 47  1  0  0  0
 39 64  1  0  0  0
 39 67  2  0  0  0
 40 52  1  0  0  0
 40 53  2  0  0  0
 40 58  1  0  0  0
 41108  1  0  0  0
 41109  1  0  0  0
 41110  1  0  0  0
 41 48  1  0  0  0
 42 43  1  0  0  0
 42 66  1  0  0  0
 42111  1  0  0  0
 42112  1  0  0  0
 43 44  1  0  0  0
 44113  1  0  0  0
 45 46  2  0  0  0
 45114  1  0  0  0
 46115  1  0  0  0
 47116  1  0  0  0
 47117  1  0  0  0
 48 56  1  0  0  0
 48 65  1  0  0  0
 48118  1  0  0  0
 49 50  1  0  0  0
 49 53  1  0  0  0
 49 64  1  0  0  0
 49119  1  0  0  0
 50 51  1  0  0  0
 50120  1  0  0  0
 50121  1  0  0  0
 51 52  1  0  0  0
 51122  1  0  0  0
 51123  1  0  0  0
 52124  1  0  0  0
 52125  1  0  0  0
 53 54  1  0  0  0
 54 55  2  0  0  0
 54126  1  0  0  0
 55 57  1  0  0  0
 55127  1  0  0  0
 56 69  2  0  0  0
 57 58  2  0  0  0
 57128  1  0  0  0
 58129  1  0  0  0
 59 60  1  0  0  0
 59 61  1  0  0  0
 59 62  1  0  0  0
 60130  1  0  0  0
 60131  1  0  0  0
 60132  1  0  0  0
 61133  1  0  0  0
 61134  1  0  0  0
 61135  1  0  0  0
 62136  1  0  0  0
 62137  1  0  0  0
 62138  1  0  0  0
 63 65  1  0  0  0
 63139  1  0  0  0
 63140  1  0  0  0
 63141  1  0  0  0
 64142  1  0  0  0
 65143  1  0  0  0
 68 81  1  0  0  0
 71 72  2  0  0  0
 71 73  1  0  0  0
 71144  1  0  0  0
 72 74  1  0  0  0
 72145  1  0  0  0
 73 75  2  0  0  0
 73146  1  0  0  0
 74 76  2  0  0  0
 74 82  1  0  0  0
 75 76  1  0  0  0
 75 83  1  0  0  0
 76 84  1  0  0  0
 77 78  1  0  0  0
 77 79  1  0  0  0
 77147  1  0  0  0
 77148  1  0  0  0
 78 80  1  0  0  0
 78149  1  0  0  0
 78150  1  0  0  0
 79 82  1  0  0  0
 79151  1  0  0  0
 79152  1  0  0  0
 80 81  1  0  0  0
 80 82  1  0  0  0
 80153  1  0  0  0
 81154  1  0  0  0
 81155  1  0  0  0
 83156  1  0  0  0
M  ISO  4   1 100  68 101  81 101  83 100
M  END
> <chiral flag>
0

> <version>
0

> <s_m_source_file>
/data/baiqing/PycharmProjects/Reinvent-master-3.2/result/LINK_invent/BTK/process_docking_weight1_custom_product_contain_oxygen_bond_distance_aromatic_linkinvent_7_9_3/rearranged_h_0023.sdf

> <i_m_source_file_index>
36

> <r_mmod_Potential_Energy-OPLS-2005>
763.981384277344

> <r_mmod_Stretch_Energy-OPLS-2005>
332.412261962891

> <r_mmod_Bend_Energy-OPLS-2005>
320.005493164062

> <r_mmod_Torsional_Energy-OPLS-2005>
275.974212646484

> <r_mmod_Improper_Torsional_Energy-OPLS-2005>
7.91158008575439

> <r_mmod_Van_der_Waal_Energy-OPLS-2005>
130.077880859375

> <r_mmod_Electrostatic_Energy-OPLS-2005>
-330.972137451172

> <r_mmod_Solvation_Energy-OPLS-2005>
-216.456970214844

> <b_mmod_Minimization_Converged-OPLS-2005>
0

> <r_mmod_RMS_Derivative-OPLS-2005>
5.36951303482056

$$$$
36
                    3D
 Structure written by MMmdl.
159168  0  0  1  0            999 V2000
  -30.5277  -14.9342   20.3672 C   0  0  0  0  0  0
  -30.4513  -12.5637   19.4814 C   0  0  0  0  0  0
  -29.5187  -12.5165   18.2481 C   0  0  0  0  0  0
  -28.0480  -12.3312   18.6669 C   0  0  0  0  0  0
  -27.6386  -13.2459   19.8542 C   0  0  2  0  0  0
  -28.6939  -13.2425   20.9842 C   0  0  0  0  0  0
  -25.2470  -13.8235   20.5790 C   0  0  0  0  0  0
  -24.1774  -13.0440   20.9240 C   0  0  0  0  0  0
  -24.6383  -11.6921   20.8759 C   0  0  0  0  0  0
  -23.9078  -10.4280   21.0386 C   0  0  0  0  0  0
  -24.3609   -9.4183   21.9158 C   0  0  0  0  0  0
  -23.6260   -8.2231   22.0755 C   0  0  0  0  0  0
  -22.4243   -8.0269   21.3544 C   0  0  0  0  0  0
  -21.9892   -9.0269   20.4656 C   0  0  0  0  0  0
  -22.7234  -10.2151   20.3038 C   0  0  0  0  0  0
  -21.6852   -6.0707   22.5298 C   0  0  0  0  0  0
  -21.4049   -6.5623   23.8224 C   0  0  0  0  0  0
  -21.3648   -5.6784   24.9195 C   0  0  0  0  0  0
  -21.6028   -4.3032   24.7241 C   0  0  0  0  0  0
  -21.8801   -3.8113   23.4360 C   0  0  0  0  0  0
  -21.9188   -4.6935   22.3428 C   0  0  0  0  0  0
  -22.7771  -13.5231   21.1863 C   0  0  0  0  0  0
  -22.1622   -4.2100   21.0988 F   0  0  0  0  0  0
  -21.5616   -3.4522   25.7748 F   0  0  0  0  0  0
  -29.9715  -13.6538   20.3768 N   0  0  0  0  0  0
  -26.2926  -12.9469   20.3339 N   0  0  0  0  0  0
  -25.9326  -11.6603   20.5766 N   0  0  0  0  0  0
  -22.0353  -12.8317   22.0432 N   0  0  0  0  0  0
  -25.3943  -15.1999   20.4278 N   0  0  0  0  0  0
  -31.7194  -15.0387   20.0549 O   0  0  0  0  0  0
  -21.6620   -6.8863   21.4244 O   0  0  0  0  0  0
  -22.3462  -14.5493   20.6627 O   0  0  0  0  0  0
  -24.6394  -31.8460   23.1882 C   0  0  0  0  0  0
  -25.9176  -32.4706   23.8250 C   0  0  1  0  0  0
  -27.2176  -27.1445   20.1254 C   0  0  0  0  0  0
  -25.5934  -33.8512   24.2167 N   0  0  0  0  0  0
  -23.4435  -30.4620   21.5343 C   0  0  2  0  0  0
  -24.8880  -28.8845   20.1043 C   0  0  0  0  0  0
  -22.7541  -29.4515   22.4857 C   0  0  0  0  0  0
  -18.0327  -28.1394   22.8518 C   0  0  0  0  0  0
  -24.1491  -36.7230   23.2643 C   0  0  0  0  0  0
  -25.9954  -30.7133   21.3909 C   0  0  0  0  0  0
  -26.0627  -29.3243   20.7300 C   0  0  0  0  0  0
  -27.2131  -28.4557   20.7460 C   0  0  0  0  0  0
  -26.0200  -26.7953   19.4675 C   0  0  0  0  0  0
  -24.8745  -27.6258   19.4778 C   0  0  0  0  0  0
  -23.6686  -29.7936   20.1513 C   0  0  0  0  0  0
  -25.4138  -36.3024   24.0313 C   0  0  1  0  0  0
  -20.5938  -28.3701   23.1273 C   0  0  2  0  0  0
  -20.6832  -26.9413   22.5445 C   0  0  0  0  0  0
  -19.5801  -26.6384   21.5262 C   0  0  0  0  0  0
  -18.1971  -26.7954   22.1641 C   0  0  0  0  0  0
  -19.1595  -28.8876   23.2898 C   0  0  0  0  0  0
  -18.9486  -30.1466   23.8931 C   0  0  0  0  0  0
  -17.6482  -30.6603   24.0557 C   0  0  0  0  0  0
  -25.9075  -34.9422   23.5044 C   0  0  0  0  0  0
  -16.5372  -29.9088   23.6337 C   0  0  0  0  0  0
  -16.7312  -28.6495   23.0399 C   0  0  0  0  0  0
  -26.4513  -31.6603   25.0708 C   0  0  0  0  0  0
  -25.3638  -31.3830   26.1364 C   0  0  0  0  0  0
  -27.0400  -30.3005   24.6295 C   0  0  0  0  0  0
  -27.6046  -32.4370   25.7491 C   0  0  0  0  0  0
  -27.5587  -37.1776   24.8464 C   0  0  0  0  0  0
  -21.4254  -29.3015   22.3608 N   0  0  0  0  0  0
  -26.4289  -37.3747   23.9404 N   0  0  0  0  0  0
  -24.7117  -31.0276   22.0920 N   0  0  0  0  0  0
  -23.4204  -28.8083   23.3014 O   0  0  0  0  0  0
  -28.2720  -26.1787   20.2709 O   0  0  0  0  0  0
  -26.5679  -34.8903   22.4622 O   0  0  0  0  0  0
  -23.5521  -32.1365   23.7088 O   0  0  0  0  0  0
  -29.2843  -20.0030   20.9731 C   0  0  0  0  0  0
  -29.4370  -18.5804   21.2609 C   0  0  0  0  0  0
  -29.5382  -19.5514   18.6645 C   0  0  0  0  0  0
  -29.3451  -20.6122   19.6709 C   0  0  0  0  0  0
  -29.7129  -17.5621   20.2849 C   0  0  0  0  0  0
  -29.7486  -18.1319   18.9751 C   0  0  0  0  0  0
  -29.3149  -23.0333   17.2823 C   0  0  0  0  0  0
  -27.9153  -22.9896   17.9459 C   0  0  0  0  0  0
  -30.2588  -22.5311   18.3994 C   0  0  0  0  0  0
  -28.2744  -23.2309   19.4217 C   0  0  2  0  0  0
  -29.5051  -19.8195   17.1543 C   0  0  0  0  0  0
  -28.5905  -24.9303   19.4212 C   0  0  0  0  0  0
  -29.3854  -22.1214   19.5010 N   0  0  0  0  0  0
  -29.7012  -16.0584   20.5999 N   0  0  0  0  0  0
  -29.9505  -17.2668   17.9490 F   0  0  0  0  0  0
  -31.4743  -12.7309   19.1405 H   0  0  0  0  0  0
  -30.4625  -11.6082   20.0086 H   0  0  0  0  0  0
  -29.8279  -11.7240   17.5657 H   0  0  0  0  0  0
  -29.6113  -13.4492   17.6906 H   0  0  0  0  0  0
  -27.9089  -11.2828   18.9406 H   0  0  0  0  0  0
  -27.3938  -12.5133   17.8124 H   0  0  0  0  0  0
  -27.6139  -14.2593   19.4548 H   0  0  0  0  0  0
  -28.7803  -12.2566   21.4437 H   0  0  0  0  0  0
  -28.4124  -13.9236   21.7883 H   0  0  0  0  0  0
  -25.2730   -9.5694   22.4762 H   0  0  0  0  0  0
  -23.9920   -7.4670   22.7546 H   0  0  0  0  0  0
  -21.0756   -8.8861   19.9029 H   0  0  0  0  0  0
  -22.3640  -10.9716   19.6199 H   0  0  0  0  0  0
  -21.2065   -7.6142   23.9739 H   0  0  0  0  0  0
  -21.1473   -6.0495   25.9108 H   0  0  0  0  0  0
  -22.0567   -2.7557   23.2895 H   0  0  0  0  0  0
  -22.3899  -12.0084   22.5039 H   0  0  0  0  0  0
  -21.0962  -13.1458   22.2476 H   0  0  0  0  0  0
  -24.6117  -15.8227   20.5950 H   0  0  0  0  0  0
  -26.1985  -15.6788   20.0455 H   0  0  0  0  0  0
  -26.7227  -32.5312   23.0975 H   0  0  0  0  0  0
  -25.0060  -33.9629   25.0302 H   0  0  0  0  0  0
  -22.7467  -31.2891   21.3862 H   0  0  0  0  0  0
  -23.3776  -35.9525   23.3274 H   0  0  0  0  0  0
  -24.3578  -36.8902   22.2063 H   0  0  0  0  0  0
  -23.7228  -37.6402   23.6708 H   0  0  0  0  0  0
  -26.1572  -31.4698   20.6220 H   0  0  0  0  0  0
  -26.8623  -30.7546   22.0397 H   0  0  0  0  0  0
  -28.0918  -28.7634   21.2972 H   0  0  0  0  0  0
  -25.9363  -25.8257   19.0016 H   0  0  0  0  0  0
  -23.9653  -27.2695   19.0127 H   0  0  0  0  0  0
  -23.8141  -30.5763   19.4052 H   0  0  0  0  0  0
  -22.7782  -29.2510   19.8287 H   0  0  0  0  0  0
  -25.1325  -36.1849   25.0811 H   0  0  0  0  0  0
  -21.0066  -28.3311   24.1378 H   0  0  0  0  0  0
  -20.5825  -26.2275   23.3641 H   0  0  0  0  0  0
  -21.6675  -26.7505   22.1174 H   0  0  0  0  0  0
  -19.6942  -25.6300   21.1294 H   0  0  0  0  0  0
  -19.6736  -27.3191   20.6793 H   0  0  0  0  0  0
  -17.4254  -26.6777   21.4013 H   0  0  0  0  0  0
  -18.0289  -26.0103   22.9028 H   0  0  0  0  0  0
  -19.7950  -30.7310   24.2313 H   0  0  0  0  0  0
  -17.5017  -31.6299   24.5112 H   0  0  0  0  0  0
  -15.5369  -30.2985   23.7655 H   0  0  0  0  0  0
  -15.8714  -28.0789   22.7138 H   0  0  0  0  0  0
  -24.5777  -30.7261   25.7621 H   0  0  0  0  0  0
  -24.8885  -32.3049   26.4718 H   0  0  0  0  0  0
  -25.7828  -30.8994   27.0191 H   0  0  0  0  0  0
  -26.3023  -29.6728   24.1287 H   0  0  0  0  0  0
  -27.4016  -29.7312   25.4868 H   0  0  0  0  0  0
  -27.8919  -30.4278   23.9612 H   0  0  0  0  0  0
  -27.2637  -33.3673   26.2041 H   0  0  0  0  0  0
  -28.3862  -32.6944   25.0325 H   0  0  0  0  0  0
  -28.0702  -31.8529   26.5445 H   0  0  0  0  0  0
  -28.2586  -38.0095   24.7533 H   0  0  0  0  0  0
  -28.1108  -36.2630   24.6256 H   0  0  0  0  0  0
  -27.2293  -37.1369   25.8862 H   0  0  0  0  0  0
  -20.9425  -29.8627   21.6732 H   0  0  0  0  0  0
  -26.0157  -38.2792   24.1443 H   0  0  0  0  0  0
  -29.1399  -20.6489   21.8303 H   0  0  0  0  0  0
  -29.3332  -18.2776   22.2948 H   0  0  0  0  0  0
  -29.5961  -24.0521   17.0036 H   0  0  0  0  0  0
  -29.3653  -22.4617   16.3571 H   0  0  0  0  0  0
  -27.4611  -22.0060   17.8255 H   0  0  0  0  0  0
  -27.1981  -23.6977   17.5280 H   0  0  0  0  0  0
  -30.8859  -23.3540   18.7442 H   0  0  0  0  0  0
  -30.9696  -21.7713   18.0775 H   0  0  0  0  0  0
  -27.4201  -22.9937   20.0608 H   0  0  0  0  0  0
  -28.6990  -20.4863   16.8725 H   0  0  0  0  0  0
  -29.2896  -18.9302   16.5582 H   0  0  0  0  0  0
  -30.4639  -20.1845   16.7881 H   0  0  0  0  0  0
  -28.2917  -25.3094   18.4437 H   0  0  0  0  0  0
  -29.6739  -25.0085   19.3803 H   0  0  0  0  0  0
  -28.8217  -15.7602   20.9951 H   0  0  0  0  0  0
  1 25  1  0  0  0
  1 30  2  0  0  0
  1 84  1  0  0  0
  2  3  1  0  0  0
  2 25  1  0  0  0
  2 86  1  0  0  0
  2 87  1  0  0  0
  3  4  1  0  0  0
  3 88  1  0  0  0
  3 89  1  0  0  0
  4  5  1  0  0  0
  4 90  1  0  0  0
  4 91  1  0  0  0
  5  6  1  0  0  0
  5 26  1  0  0  0
  5 92  1  0  0  0
  6 25  1  0  0  0
  6 93  1  0  0  0
  6 94  1  0  0  0
  7  8  2  0  0  0
  7 26  1  0  0  0
  7 29  1  0  0  0
  8  9  1  0  0  0
  8 22  1  0  0  0
  9 10  1  0  0  0
  9 27  2  0  0  0
 10 11  2  0  0  0
 10 15  1  0  0  0
 11 12  1  0  0  0
 11 95  1  0  0  0
 12 13  2  0  0  0
 12 96  1  0  0  0
 13 14  1  0  0  0
 13 31  1  0  0  0
 14 15  2  0  0  0
 14 97  1  0  0  0
 15 98  1  0  0  0
 16 17  2  0  0  0
 16 21  1  0  0  0
 16 31  1  0  0  0
 17 18  1  0  0  0
 17 99  1  0  0  0
 18 19  2  0  0  0
 18100  1  0  0  0
 19 20  1  0  0  0
 19 24  1  0  0  0
 20 21  2  0  0  0
 20101  1  0  0  0
 21 23  1  0  0  0
 22 28  1  0  0  0
 22 32  2  0  0  0
 26 27  1  0  0  0
 28102  1  0  0  0
 28103  1  0  0  0
 29104  1  0  0  0
 29105  1  0  0  0
 33 34  1  0  0  0
 33 66  1  0  0  0
 33 70  2  0  0  0
 34 36  1  0  0  0
 34 59  1  0  0  0
 34106  1  0  0  0
 35 44  2  0  0  0
 35 45  1  0  0  0
 35 68  1  0  0  0
 36 56  1  0  0  0
 36107  1  0  0  0
 37 39  1  0  0  0
 37 47  1  0  0  0
 37 66  1  0  0  0
 37108  1  0  0  0
 38 43  2  0  0  0
 38 46  1  0  0  0
 38 47  1  0  0  0
 39 64  1  0  0  0
 39 67  2  0  0  0
 40 52  1  0  0  0
 40 53  2  0  0  0
 40 58  1  0  0  0
 41109  1  0  0  0
 41110  1  0  0  0
 41111  1  0  0  0
 41 48  1  0  0  0
 42 43  1  0  0  0
 42 66  1  0  0  0
 42112  1  0  0  0
 42113  1  0  0  0
 43 44  1  0  0  0
 44114  1  0  0  0
 45 46  2  0  0  0
 45115  1  0  0  0
 46116  1  0  0  0
 47117  1  0  0  0
 47118  1  0  0  0
 48 56  1  0  0  0
 48 65  1  0  0  0
 48119  1  0  0  0
 49 50  1  0  0  0
 49 53  1  0  0  0
 49 64  1  0  0  0
 49120  1  0  0  0
 50 51  1  0  0  0
 50121  1  0  0  0
 50122  1  0  0  0
 51 52  1  0  0  0
 51123  1  0  0  0
 51124  1  0  0  0
 52125  1  0  0  0
 52126  1  0  0  0
 53 54  1  0  0  0
 54 55  2  0  0  0
 54127  1  0  0  0
 55 57  1  0  0  0
 55128  1  0  0  0
 56 69  2  0  0  0
 57 58  2  0  0  0
 57129  1  0  0  0
 58130  1  0  0  0
 59 60  1  0  0  0
 59 61  1  0  0  0
 59 62  1  0  0  0
 60131  1  0  0  0
 60132  1  0  0  0
 60133  1  0  0  0
 61134  1  0  0  0
 61135  1  0  0  0
 61136  1  0  0  0
 62137  1  0  0  0
 62138  1  0  0  0
 62139  1  0  0  0
 63 65  1  0  0  0
 63140  1  0  0  0
 63141  1  0  0  0
 63142  1  0  0  0
 64143  1  0  0  0
 65144  1  0  0  0
 68 82  1  0  0  0
 71 72  2  0  0  0
 71 74  1  0  0  0
 71145  1  0  0  0
 72 75  1  0  0  0
 72146  1  0  0  0
 73 74  2  0  0  0
 73 76  1  0  0  0
 73 81  1  0  0  0
 74 83  1  0  0  0
 75 76  2  0  0  0
 75 84  1  0  0  0
 76 85  1  0  0  0
 77 78  1  0  0  0
 77 79  1  0  0  0
 77147  1  0  0  0
 77148  1  0  0  0
 78 80  1  0  0  0
 78149  1  0  0  0
 78150  1  0  0  0
 79 83  1  0  0  0
 79151  1  0  0  0
 79152  1  0  0  0
 80 82  1  0  0  0
 80 83  1  0  0  0
 80153  1  0  0  0
 81154  1  0  0  0
 81155  1  0  0  0
 81156  1  0  0  0
 82157  1  0  0  0
 82158  1  0  0  0
 84159  1  0  0  0
M  ISO  4   1 100  68 101  82 101  84 100
M  END
> <chiral flag>
0

> <version>
0

> <s_m_source_file>
/data/baiqing/PycharmProjects/Reinvent-master-3.2/result/LINK_invent/BTK/process_docking_weight1_custom_product_contain_oxygen_bond_distance_aromatic_linkinvent_7_9_3/rearranged_h_0023.sdf

> <i_m_source_file_index>
37

> <r_mmod_Potential_Energy-OPLS-2005>
703.859191894531

> <r_mmod_Stretch_Energy-OPLS-2005>
260.933990478516

> <r_mmod_Bend_Energy-OPLS-2005>
404.393005371094

> <r_mmod_Torsional_Energy-OPLS-2005>
323.244384765625

> <r_mmod_Improper_Torsional_Energy-OPLS-2005>
10.5280456542969

> <r_mmod_Van_der_Waal_Energy-OPLS-2005>
151.123733520508

> <r_mmod_Electrostatic_Energy-OPLS-2005>
-403.888092041016

> <r_mmod_Solvation_Energy-OPLS-2005>
-229.711822509766

> <b_mmod_Minimization_Converged-OPLS-2005>
0

> <r_mmod_RMS_Derivative-OPLS-2005>
6.56621122360229

$$$$
37
                    3D
 Structure written by MMmdl.
161170  0  0  1  0            999 V2000
  -30.6675  -14.5289   20.5541 C   0  0  0  0  0  0
  -30.4341  -12.3379   19.4245 C   0  0  0  0  0  0
  -29.5011  -12.5101   18.2056 C   0  0  0  0  0  0
  -28.0228  -12.3601   18.6199 C   0  0  0  0  0  0
  -27.6588  -13.2077   19.8674 C   0  0  2  0  0  0
  -28.7036  -13.0084   20.9900 C   0  0  0  0  0  0
  -25.2572  -13.8138   20.5653 C   0  0  0  0  0  0
  -24.1832  -13.0417   20.9190 C   0  0  0  0  0  0
  -24.6394  -11.6892   20.8757 C   0  0  0  0  0  0
  -23.9059  -10.4278   21.0409 C   0  0  0  0  0  0
  -24.3604   -9.4192   21.9180 C   0  0  0  0  0  0
  -23.6282   -8.2228   22.0739 C   0  0  0  0  0  0
  -22.4271   -8.0269   21.3529 C   0  0  0  0  0  0
  -21.9907   -9.0243   20.4631 C   0  0  0  0  0  0
  -22.7240  -10.2116   20.3042 C   0  0  0  0  0  0
  -21.6840   -6.0728   22.5291 C   0  0  0  0  0  0
  -21.4012   -6.5641   23.8222 C   0  0  0  0  0  0
  -21.3659   -5.6785   24.9185 C   0  0  0  0  0  0
  -21.6043   -4.3042   24.7225 C   0  0  0  0  0  0
  -21.8816   -3.8136   23.4345 C   0  0  0  0  0  0
  -21.9186   -4.6956   22.3408 C   0  0  0  0  0  0
  -22.7855  -13.5220   21.1864 C   0  0  0  0  0  0
  -22.1653   -4.2143   21.0983 F   0  0  0  0  0  0
  -21.5626   -3.4516   25.7728 F   0  0  0  0  0  0
  -30.0301  -13.3289   20.4346 N   0  0  0  0  0  0
  -26.3008  -12.9317   20.3328 N   0  0  0  0  0  0
  -25.9318  -11.6482   20.5763 N   0  0  0  0  0  0
  -22.0481  -12.8205   22.0408 N   0  0  0  0  0  0
  -25.4300  -15.1854   20.4016 N   0  0  0  0  0  0
  -31.8186  -14.7144   20.1504 O   0  0  0  0  0  0
  -21.6631   -6.8867   21.4251 O   0  0  0  0  0  0
  -22.3565  -14.5544   20.6730 O   0  0  0  0  0  0
  -24.6178  -31.8668   23.2116 C   0  0  0  0  0  0
  -25.9077  -32.4800   23.8401 C   0  0  1  0  0  0
  -27.2185  -27.3907   20.0905 C   0  0  0  0  0  0
  -25.5943  -33.8603   24.2319 N   0  0  0  0  0  0
  -23.4041  -30.4959   21.5531 C   0  0  2  0  0  0
  -24.8468  -28.9675   20.1116 C   0  0  0  0  0  0
  -22.7413  -29.4687   22.4996 C   0  0  0  0  0  0
  -18.0262  -28.1384   22.8511 C   0  0  0  0  0  0
  -24.1509  -36.7282   23.2645 C   0  0  0  0  0  0
  -25.9430  -30.8171   21.3775 C   0  0  0  0  0  0
  -26.0143  -29.4543   20.7131 C   0  0  0  0  0  0
  -27.2009  -28.6734   20.7023 C   0  0  0  0  0  0
  -26.0219  -26.9470   19.4704 C   0  0  0  0  0  0
  -24.8492  -27.7148   19.4865 C   0  0  0  0  0  0
  -23.6087  -29.8329   20.1675 C   0  0  0  0  0  0
  -25.4139  -36.3083   24.0333 C   0  0  1  0  0  0
  -20.5851  -28.3696   23.1308 C   0  0  2  0  0  0
  -20.6763  -26.9436   22.5406 C   0  0  0  0  0  0
  -19.5735  -26.6391   21.5222 C   0  0  0  0  0  0
  -18.1915  -26.7938   22.1622 C   0  0  0  0  0  0
  -19.1508  -28.8853   23.2904 C   0  0  0  0  0  0
  -18.9433  -30.1464   23.8907 C   0  0  0  0  0  0
  -17.6435  -30.6601   24.0561 C   0  0  0  0  0  0
  -25.9069  -34.9457   23.5114 C   0  0  0  0  0  0
  -16.5326  -29.9088   23.6349 C   0  0  0  0  0  0
  -16.7252  -28.6490   23.0400 C   0  0  0  0  0  0
  -26.4476  -31.6613   25.0755 C   0  0  0  0  0  0
  -25.3734  -31.3708   26.1489 C   0  0  0  0  0  0
  -27.0313  -30.3049   24.6190 C   0  0  0  0  0  0
  -27.6022  -32.4385   25.7505 C   0  0  0  0  0  0
  -27.5588  -37.1816   24.8463 C   0  0  0  0  0  0
  -21.4131  -29.3059   22.3725 N   0  0  0  0  0  0
  -26.4305  -37.3780   23.9401 N   0  0  0  0  0  0
  -24.6727  -31.0751   22.1029 N   0  0  0  0  0  0
  -23.4179  -28.8245   23.3059 O   0  0  0  0  0  0
  -28.3653  -26.5963   20.1261 O   0  0  0  0  0  0
  -26.5608  -34.8906   22.4658 O   0  0  0  0  0  0
  -23.5371  -32.1438   23.7508 O   0  0  0  0  0  0
  -31.4060  -18.9050   21.8176 C   0  0  0  0  0  0
  -31.3071  -17.5154   21.5483 C   0  0  0  0  0  0
  -29.0116  -17.8372   20.8394 C   0  0  0  0  0  0
  -30.3018  -19.7737   21.6281 C   0  0  0  0  0  0
  -30.0934  -16.9556   21.0841 C   0  0  0  0  0  0
  -29.1115  -19.2251   21.1006 C   0  0  0  0  0  0
  -29.3138  -23.1890   20.9688 C   0  0  0  0  0  0
  -31.7788  -23.5897   19.4375 C   0  0  0  0  0  0
  -30.7779  -24.7483   19.5406 C   0  0  0  0  0  0
  -31.7194  -22.6581   20.6649 C   0  0  0  0  0  0
  -29.3716  -24.1904   19.7778 C   0  0  2  0  0  0
  -30.3473  -21.2283   22.1425 C   0  0  0  0  0  0
  -28.2174  -25.2372   19.6337 C   0  0  0  0  0  0
  -30.3642  -22.3356   21.1503 N   0  0  0  0  0  0
  -29.8632  -15.5406   20.9597 N   0  0  0  0  0  0
  -28.2958  -23.1349   21.6658 O   0  0  0  0  0  0
  -28.0349  -20.0200   20.8948 F   0  0  0  0  0  0
  -31.4765  -12.4552   19.1241 H   0  0  0  0  0  0
  -30.3506  -11.3292   19.8327 H   0  0  0  0  0  0
  -29.7489  -11.7793   17.4338 H   0  0  0  0  0  0
  -29.6574  -13.4929   17.7577 H   0  0  0  0  0  0
  -27.8452  -11.3057   18.8307 H   0  0  0  0  0  0
  -27.3687  -12.6152   17.7850 H   0  0  0  0  0  0
  -27.6933  -14.2514   19.5550 H   0  0  0  0  0  0
  -28.6921  -11.9763   21.3421 H   0  0  0  0  0  0
  -28.4593  -13.6133   21.8654 H   0  0  0  0  0  0
  -25.2738   -9.5660   22.4764 H   0  0  0  0  0  0
  -23.9980   -7.4614   22.7462 H   0  0  0  0  0  0
  -21.0827   -8.8761   19.8947 H   0  0  0  0  0  0
  -22.3706  -10.9642   19.6138 H   0  0  0  0  0  0
  -21.2016   -7.6149   23.9732 H   0  0  0  0  0  0
  -21.1484   -6.0508   25.9089 H   0  0  0  0  0  0
  -22.0593   -2.7597   23.2840 H   0  0  0  0  0  0
  -22.4046  -11.9810   22.4734 H   0  0  0  0  0  0
  -21.1109  -13.1246   22.2631 H   0  0  0  0  0  0
  -24.6554  -15.8335   20.4884 H   0  0  0  0  0  0
  -26.2647  -15.6121   20.0210 H   0  0  0  0  0  0
  -26.7166  -32.5470   23.1178 H   0  0  0  0  0  0
  -25.0194  -33.9762   25.0533 H   0  0  0  0  0  0
  -22.6944  -31.3155   21.4172 H   0  0  0  0  0  0
  -23.3773  -35.9615   23.3289 H   0  0  0  0  0  0
  -24.3615  -36.8895   22.2064 H   0  0  0  0  0  0
  -23.7253  -37.6475   23.6670 H   0  0  0  0  0  0
  -26.0827  -31.5933   20.6236 H   0  0  0  0  0  0
  -26.8205  -30.8465   22.0119 H   0  0  0  0  0  0
  -28.0946  -29.0425   21.1846 H   0  0  0  0  0  0
  -25.9413  -25.9981   18.9632 H   0  0  0  0  0  0
  -23.9542  -27.3343   19.0139 H   0  0  0  0  0  0
  -23.7001  -30.6031   19.4014 H   0  0  0  0  0  0
  -22.7346  -29.2429   19.8845 H   0  0  0  0  0  0
  -25.1341  -36.1925   25.0831 H   0  0  0  0  0  0
  -20.9960  -28.3255   24.1421 H   0  0  0  0  0  0
  -20.5683  -26.2320   23.3600 H   0  0  0  0  0  0
  -21.6626  -26.7493   22.1175 H   0  0  0  0  0  0
  -19.6891  -25.6290   21.1271 H   0  0  0  0  0  0
  -19.6679  -27.3186   20.6747 H   0  0  0  0  0  0
  -17.4206  -26.6729   21.4000 H   0  0  0  0  0  0
  -18.0293  -26.0056   22.8984 H   0  0  0  0  0  0
  -19.7912  -30.7280   24.2278 H   0  0  0  0  0  0
  -17.4991  -31.6281   24.5156 H   0  0  0  0  0  0
  -15.5327  -30.2989   23.7677 H   0  0  0  0  0  0
  -15.8651  -28.0791   22.7168 H   0  0  0  0  0  0
  -24.5923  -30.7049   25.7791 H   0  0  0  0  0  0
  -24.8915  -32.2856   26.4956 H   0  0  0  0  0  0
  -25.8087  -30.8843   27.0231 H   0  0  0  0  0  0
  -26.2867  -29.6832   24.1209 H   0  0  0  0  0  0
  -27.3988  -29.7292   25.4687 H   0  0  0  0  0  0
  -27.8759  -30.4320   23.9422 H   0  0  0  0  0  0
  -27.2602  -33.3706   26.2022 H   0  0  0  0  0  0
  -28.3833  -32.6928   25.0331 H   0  0  0  0  0  0
  -28.0695  -31.8571   26.5455 H   0  0  0  0  0  0
  -28.2595  -38.0124   24.7531 H   0  0  0  0  0  0
  -28.1077  -36.2648   24.6270 H   0  0  0  0  0  0
  -27.2294  -37.1436   25.8858 H   0  0  0  0  0  0
  -20.9326  -29.8766   21.6908 H   0  0  0  0  0  0
  -26.0162  -38.2849   24.1369 H   0  0  0  0  0  0
  -32.3274  -19.2906   22.2307 H   0  0  0  0  0  0
  -32.1544  -16.8774   21.7592 H   0  0  0  0  0  0
  -28.0693  -17.4548   20.4762 H   0  0  0  0  0  0
  -32.7905  -23.9799   19.3159 H   0  0  0  0  0  0
  -31.5685  -23.0121   18.5357 H   0  0  0  0  0  0
  -30.7962  -25.3246   18.6141 H   0  0  0  0  0  0
  -31.0513  -25.4355   20.3416 H   0  0  0  0  0  0
  -32.2513  -23.1391   21.4874 H   0  0  0  0  0  0
  -32.2619  -21.7368   20.4465 H   0  0  0  0  0  0
  -29.1894  -23.5101   18.9442 H   0  0  0  0  0  0
  -31.2197  -21.3381   22.7890 H   0  0  0  0  0  0
  -29.5060  -21.3378   22.8293 H   0  0  0  0  0  0
  -27.3245  -24.7943   20.0781 H   0  0  0  0  0  0
  -28.0168  -25.3153   18.5638 H   0  0  0  0  0  0
  -28.9125  -15.2460   21.1134 H   0  0  0  0  0  0
  1 25  1  0  0  0
  1 30  2  0  0  0
  1 85  1  0  0  0
  2  3  1  0  0  0
  2 25  1  0  0  0
  2 88  1  0  0  0
  2 89  1  0  0  0
  3  4  1  0  0  0
  3 90  1  0  0  0
  3 91  1  0  0  0
  4  5  1  0  0  0
  4 92  1  0  0  0
  4 93  1  0  0  0
  5  6  1  0  0  0
  5 26  1  0  0  0
  5 94  1  0  0  0
  6 25  1  0  0  0
  6 95  1  0  0  0
  6 96  1  0  0  0
  7  8  2  0  0  0
  7 26  1  0  0  0
  7 29  1  0  0  0
  8  9  1  0  0  0
  8 22  1  0  0  0
  9 10  1  0  0  0
  9 27  2  0  0  0
 10 11  2  0  0  0
 10 15  1  0  0  0
 11 12  1  0  0  0
 11 97  1  0  0  0
 12 13  2  0  0  0
 12 98  1  0  0  0
 13 14  1  0  0  0
 13 31  1  0  0  0
 14 15  2  0  0  0
 14 99  1  0  0  0
 15100  1  0  0  0
 16 17  2  0  0  0
 16 21  1  0  0  0
 16 31  1  0  0  0
 17 18  1  0  0  0
 17101  1  0  0  0
 18 19  2  0  0  0
 18102  1  0  0  0
 19 20  1  0  0  0
 19 24  1  0  0  0
 20 21  2  0  0  0
 20103  1  0  0  0
 21 23  1  0  0  0
 22 28  1  0  0  0
 22 32  2  0  0  0
 26 27  1  0  0  0
 28104  1  0  0  0
 28105  1  0  0  0
 29106  1  0  0  0
 29107  1  0  0  0
 33 34  1  0  0  0
 33 66  1  0  0  0
 33 70  2  0  0  0
 34 36  1  0  0  0
 34 59  1  0  0  0
 34108  1  0  0  0
 35 44  2  0  0  0
 35 45  1  0  0  0
 35 68  1  0  0  0
 36 56  1  0  0  0
 36109  1  0  0  0
 37 39  1  0  0  0
 37 47  1  0  0  0
 37 66  1  0  0  0
 37110  1  0  0  0
 38 43  2  0  0  0
 38 46  1  0  0  0
 38 47  1  0  0  0
 39 64  1  0  0  0
 39 67  2  0  0  0
 40 52  1  0  0  0
 40 53  2  0  0  0
 40 58  1  0  0  0
 41111  1  0  0  0
 41112  1  0  0  0
 41113  1  0  0  0
 41 48  1  0  0  0
 42 43  1  0  0  0
 42 66  1  0  0  0
 42114  1  0  0  0
 42115  1  0  0  0
 43 44  1  0  0  0
 44116  1  0  0  0
 45 46  2  0  0  0
 45117  1  0  0  0
 46118  1  0  0  0
 47119  1  0  0  0
 47120  1  0  0  0
 48 56  1  0  0  0
 48 65  1  0  0  0
 48121  1  0  0  0
 49 50  1  0  0  0
 49 53  1  0  0  0
 49 64  1  0  0  0
 49122  1  0  0  0
 50 51  1  0  0  0
 50123  1  0  0  0
 50124  1  0  0  0
 51 52  1  0  0  0
 51125  1  0  0  0
 51126  1  0  0  0
 52127  1  0  0  0
 52128  1  0  0  0
 53 54  1  0  0  0
 54 55  2  0  0  0
 54129  1  0  0  0
 55 57  1  0  0  0
 55130  1  0  0  0
 56 69  2  0  0  0
 57 58  2  0  0  0
 57131  1  0  0  0
 58132  1  0  0  0
 59 60  1  0  0  0
 59 61  1  0  0  0
 59 62  1  0  0  0
 60133  1  0  0  0
 60134  1  0  0  0
 60135  1  0  0  0
 61136  1  0  0  0
 61137  1  0  0  0
 61138  1  0  0  0
 62139  1  0  0  0
 62140  1  0  0  0
 62141  1  0  0  0
 63 65  1  0  0  0
 63142  1  0  0  0
 63143  1  0  0  0
 63144  1  0  0  0
 64145  1  0  0  0
 65146  1  0  0  0
 68 83  1  0  0  0
 71 72  2  0  0  0
 71 74  1  0  0  0
 71147  1  0  0  0
 72 75  1  0  0  0
 72148  1  0  0  0
 73 75  2  0  0  0
 73 76  1  0  0  0
 73149  1  0  0  0
 74 76  2  0  0  0
 74 82  1  0  0  0
 75 85  1  0  0  0
 76 87  1  0  0  0
 77 81  1  0  0  0
 77 84  1  0  0  0
 77 86  2  0  0  0
 78 79  1  0  0  0
 78 80  1  0  0  0
 78150  1  0  0  0
 78151  1  0  0  0
 79 81  1  0  0  0
 79152  1  0  0  0
 79153  1  0  0  0
 80 84  1  0  0  0
 80154  1  0  0  0
 80155  1  0  0  0
 81 83  1  0  0  0
 81156  1  0  0  0
 82 84  1  0  0  0
 82157  1  0  0  0
 82158  1  0  0  0
 83159  1  0  0  0
 83160  1  0  0  0
 85161  1  0  0  0
M  ISO  4   1 100  68 101  83 101  85 100
M  END
> <chiral flag>
0

> <version>
0

> <s_m_source_file>
/data/baiqing/PycharmProjects/Reinvent-master-3.2/result/LINK_invent/BTK/process_docking_weight1_custom_product_contain_oxygen_bond_distance_aromatic_linkinvent_7_9_3/rearranged_h_0023.sdf

> <i_m_source_file_index>
38

> <r_mmod_Potential_Energy-OPLS-2005>
54.3350791931152

> <r_mmod_Stretch_Energy-OPLS-2005>
50.6816749572754

> <r_mmod_Bend_Energy-OPLS-2005>
128.652084350586

> <r_mmod_Torsional_Energy-OPLS-2005>
242.790237426758

> <r_mmod_Improper_Torsional_Energy-OPLS-2005>
7.09937334060669

> <r_mmod_Van_der_Waal_Energy-OPLS-2005>
167.611602783203

> <r_mmod_Electrostatic_Energy-OPLS-2005>
-336.935607910156

> <r_mmod_Solvation_Energy-OPLS-2005>
-228.154861450195

> <b_mmod_Minimization_Converged-OPLS-2005>
0

> <r_mmod_RMS_Derivative-OPLS-2005>
2.68882346153259

$$$$
38
                    3D
 Structure written by MMmdl.
155164  0  0  1  0            999 V2000
  -30.6111  -14.6099   20.3911 C   0  0  0  0  0  0
  -30.4309  -12.3295   19.4656 C   0  0  0  0  0  0
  -29.5194  -12.4434   18.2292 C   0  0  0  0  0  0
  -28.0357  -12.3090   18.6358 C   0  0  0  0  0  0
  -27.6475  -13.2025   19.8480 C   0  0  2  0  0  0
  -28.6948  -13.0929   20.9802 C   0  0  0  0  0  0
  -25.2540  -13.8138   20.5655 C   0  0  0  0  0  0
  -24.1779  -13.0437   20.9178 C   0  0  0  0  0  0
  -24.6345  -11.6916   20.8729 C   0  0  0  0  0  0
  -23.9004  -10.4306   21.0425 C   0  0  0  0  0  0
  -24.3596   -9.4198   21.9170 C   0  0  0  0  0  0
  -23.6281   -8.2216   22.0731 C   0  0  0  0  0  0
  -22.4230   -8.0280   21.3563 C   0  0  0  0  0  0
  -21.9893   -9.0225   20.4626 C   0  0  0  0  0  0
  -22.7201  -10.2115   20.3042 C   0  0  0  0  0  0
  -21.6839   -6.0707   22.5269 C   0  0  0  0  0  0
  -21.4023   -6.5623   23.8204 C   0  0  0  0  0  0
  -21.3669   -5.6783   24.9173 C   0  0  0  0  0  0
  -21.6050   -4.3044   24.7239 C   0  0  0  0  0  0
  -21.8799   -3.8124   23.4361 C   0  0  0  0  0  0
  -21.9199   -4.6936   22.3411 C   0  0  0  0  0  0
  -22.7810  -13.5222   21.1894 C   0  0  0  0  0  0
  -22.1642   -4.2134   21.0985 F   0  0  0  0  0  0
  -21.5647   -3.4520   25.7747 F   0  0  0  0  0  0
  -30.0049  -13.3936   20.3854 N   0  0  0  0  0  0
  -26.2931  -12.9251   20.3218 N   0  0  0  0  0  0
  -25.9265  -11.6424   20.5735 N   0  0  0  0  0  0
  -22.0478  -12.8195   22.0487 N   0  0  0  0  0  0
  -25.4261  -15.1845   20.4048 N   0  0  0  0  0  0
  -31.8312  -14.7265   20.2690 O   0  0  0  0  0  0
  -21.6624   -6.8856   21.4232 O   0  0  0  0  0  0
  -22.3492  -14.5525   20.6767 O   0  0  0  0  0  0
  -24.6186  -31.8651   23.2094 C   0  0  0  0  0  0
  -25.9015  -32.4803   23.8435 C   0  0  1  0  0  0
  -27.2160  -27.3828   20.0941 C   0  0  0  0  0  0
  -25.5873  -33.8617   24.2374 N   0  0  0  0  0  0
  -23.4004  -30.4951   21.5483 C   0  0  2  0  0  0
  -24.8412  -28.9458   20.1170 C   0  0  0  0  0  0
  -22.7398  -29.4642   22.4952 C   0  0  0  0  0  0
  -18.0295  -28.1481   22.8559 C   0  0  0  0  0  0
  -24.1479  -36.7323   23.2659 C   0  0  0  0  0  0
  -25.9360  -30.8148   21.3595 C   0  0  0  0  0  0
  -26.0051  -29.4429   20.7126 C   0  0  0  0  0  0
  -27.1897  -28.6641   20.7061 C   0  0  0  0  0  0
  -26.0323  -26.9235   19.4653 C   0  0  0  0  0  0
  -24.8514  -27.6861   19.4943 C   0  0  0  0  0  0
  -23.6113  -29.8201   20.1653 C   0  0  0  0  0  0
  -25.4090  -36.3100   24.0375 C   0  0  1  0  0  0
  -20.5900  -28.3688   23.1330 C   0  0  2  0  0  0
  -20.6730  -26.9412   22.5479 C   0  0  0  0  0  0
  -19.5770  -26.6758   21.5177 C   0  0  0  0  0  0
  -18.1893  -26.8144   22.1527 C   0  0  0  0  0  0
  -19.1573  -28.8842   23.3060 C   0  0  0  0  0  0
  -18.9527  -30.1437   23.9051 C   0  0  0  0  0  0
  -17.6568  -30.6613   24.0706 C   0  0  0  0  0  0
  -25.9044  -34.9478   23.5198 C   0  0  0  0  0  0
  -16.5430  -29.9210   23.6492 C   0  0  0  0  0  0
  -16.7294  -28.6688   23.0396 C   0  0  0  0  0  0
  -26.4460  -31.6574   25.0750 C   0  0  0  0  0  0
  -25.3767  -31.3624   26.1526 C   0  0  0  0  0  0
  -27.0234  -30.3031   24.6043 C   0  0  0  0  0  0
  -27.6074  -32.4227   25.7534 C   0  0  0  0  0  0
  -27.5574  -37.1804   24.8461 C   0  0  0  0  0  0
  -21.4117  -29.3086   22.3749 N   0  0  0  0  0  0
  -26.4266  -37.3756   23.9441 N   0  0  0  0  0  0
  -24.6731  -31.0742   22.0986 N   0  0  0  0  0  0
  -23.4222  -28.8109   23.2905 O   0  0  0  0  0  0
  -28.3845  -26.6343   20.1185 O   0  0  0  0  0  0
  -26.5550  -34.8915   22.4738 O   0  0  0  0  0  0
  -23.5362  -32.1375   23.7451 O   0  0  0  0  0  0
  -29.3190  -18.8179   21.7340 C   0  0  0  0  0  0
  -29.8358  -17.5409   21.3765 C   0  0  0  0  0  0
  -28.3983  -17.5294   19.4266 C   0  0  0  0  0  0
  -28.3371  -19.4772   20.9471 C   0  0  0  0  0  0
  -29.3817  -16.8690   20.2169 C   0  0  0  0  0  0
  -27.8794  -18.8068   19.7898 C   0  0  0  0  0  0
  -27.4588  -22.8597   19.8429 C   0  0  0  0  0  0
  -28.6386  -23.3071   21.4667 C   0  0  0  0  0  0
  -27.7864  -24.1977   20.5370 C   0  0  2  0  0  0
  -27.6323  -20.7795   21.4168 C   0  0  0  0  0  0
  -28.4052  -25.2767   19.6129 C   0  0  0  0  0  0
  -27.9941  -22.1166   20.8707 N   0  0  0  0  0  0
  -29.8493  -15.5676   19.7920 N   0  0  0  0  0  0
  -26.8295  -22.5249   18.8538 O   0  0  0  0  0  0
  -26.8961  -19.3560   19.0429 F   0  0  0  0  0  0
  -31.4813  -12.4165   19.1814 H   0  0  0  0  0  0
  -30.3168  -11.3498   19.9323 H   0  0  0  0  0  0
  -29.7870  -11.6775   17.4991 H   0  0  0  0  0  0
  -29.6817  -13.3999   17.7364 H   0  0  0  0  0  0
  -27.8728  -11.2604   18.8866 H   0  0  0  0  0  0
  -27.3896  -12.5147   17.7823 H   0  0  0  0  0  0
  -27.6448  -14.2279   19.4837 H   0  0  0  0  0  0
  -28.6800  -12.0940   21.4257 H   0  0  0  0  0  0
  -28.4536  -13.8009   21.7760 H   0  0  0  0  0  0
  -25.2758   -9.5662   22.4719 H   0  0  0  0  0  0
  -23.9993   -7.4617   22.7452 H   0  0  0  0  0  0
  -21.0824   -8.8735   19.8950 H   0  0  0  0  0  0
  -22.3663  -10.9643   19.6134 H   0  0  0  0  0  0
  -21.1993   -7.6127   23.9716 H   0  0  0  0  0  0
  -21.1523   -6.0508   25.9090 H   0  0  0  0  0  0
  -22.0582   -2.7588   23.2855 H   0  0  0  0  0  0
  -22.4162  -11.9875   22.4852 H   0  0  0  0  0  0
  -21.1101  -13.1209   22.2756 H   0  0  0  0  0  0
  -24.6684  -15.8449   20.5248 H   0  0  0  0  0  0
  -26.2826  -15.6209   20.0897 H   0  0  0  0  0  0
  -26.7063  -32.5519   23.1181 H   0  0  0  0  0  0
  -25.0018  -33.9783   25.0530 H   0  0  0  0  0  0
  -22.6880  -31.3074   21.4143 H   0  0  0  0  0  0
  -23.3710  -35.9664   23.3286 H   0  0  0  0  0  0
  -24.3586  -36.8958   22.2061 H   0  0  0  0  0  0
  -23.7245  -37.6548   23.6685 H   0  0  0  0  0  0
  -26.0368  -31.5628   20.5722 H   0  0  0  0  0  0
  -26.8296  -30.8877   21.9666 H   0  0  0  0  0  0
  -28.0858  -29.0509   21.1702 H   0  0  0  0  0  0
  -25.9933  -25.9796   18.9506 H   0  0  0  0  0  0
  -23.9515  -27.3060   19.0250 H   0  0  0  0  0  0
  -23.7097  -30.5962   19.4043 H   0  0  0  0  0  0
  -22.7290  -29.2482   19.8724 H   0  0  0  0  0  0
  -25.1253  -36.1961   25.0846 H   0  0  0  0  0  0
  -21.0035  -28.3214   24.1505 H   0  0  0  0  0  0
  -20.5217  -26.2397   23.3733 H   0  0  0  0  0  0
  -21.6559  -26.7124   22.1393 H   0  0  0  0  0  0
  -19.6837  -25.6773   21.0999 H   0  0  0  0  0  0
  -19.6878  -27.3889   20.7064 H   0  0  0  0  0  0
  -17.4295  -26.7258   21.3778 H   0  0  0  0  0  0
  -18.0131  -26.0127   22.8640 H   0  0  0  0  0  0
  -19.8094  -30.7173   24.2384 H   0  0  0  0  0  0
  -17.5217  -31.6277   24.5418 H   0  0  0  0  0  0
  -15.5466  -30.3185   23.7769 H   0  0  0  0  0  0
  -15.8685  -28.1144   22.6905 H   0  0  0  0  0  0
  -24.5992  -30.6877   25.7925 H   0  0  0  0  0  0
  -24.8898  -32.2709   26.5043 H   0  0  0  0  0  0
  -25.8214  -30.8819   27.0253 H   0  0  0  0  0  0
  -26.2737  -29.6857   24.1066 H   0  0  0  0  0  0
  -27.3973  -29.7184   25.4455 H   0  0  0  0  0  0
  -27.8597  -30.4349   23.9178 H   0  0  0  0  0  0
  -27.2736  -33.3497   26.2195 H   0  0  0  0  0  0
  -28.3887  -32.6786   25.0381 H   0  0  0  0  0  0
  -28.0707  -31.8267   26.5388 H   0  0  0  0  0  0
  -28.2586  -38.0100   24.7492 H   0  0  0  0  0  0
  -28.1077  -36.2647   24.6286 H   0  0  0  0  0  0
  -27.2326  -37.1453   25.8866 H   0  0  0  0  0  0
  -20.9167  -29.9027   21.7219 H   0  0  0  0  0  0
  -26.0179  -38.2860   24.1360 H   0  0  0  0  0  0
  -29.6425  -19.2755   22.6588 H   0  0  0  0  0  0
  -30.5672  -17.0718   22.0219 H   0  0  0  0  0  0
  -27.9823  -17.0342   18.5532 H   0  0  0  0  0  0
  -28.4218  -23.4529   22.5328 H   0  0  0  0  0  0
  -29.7136  -23.3664   21.2849 H   0  0  0  0  0  0
  -26.8872  -24.5674   21.0376 H   0  0  0  0  0  0
  -27.7140  -20.8430   22.5082 H   0  0  0  0  0  0
  -26.5687  -20.6459   21.2060 H   0  0  0  0  0  0
  -27.9870  -25.2204   18.6134 H   0  0  0  0  0  0
  -29.4575  -25.0411   19.4477 H   0  0  0  0  0  0
  -29.8962  -15.4754   18.7789 H   0  0  0  0  0  0
  1 25  1  0  0  0
  1 30  2  0  0  0
  1 83  1  0  0  0
  2  3  1  0  0  0
  2 25  1  0  0  0
  2 86  1  0  0  0
  2 87  1  0  0  0
  3  4  1  0  0  0
  3 88  1  0  0  0
  3 89  1  0  0  0
  4  5  1  0  0  0
  4 90  1  0  0  0
  4 91  1  0  0  0
  5  6  1  0  0  0
  5 26  1  0  0  0
  5 92  1  0  0  0
  6 25  1  0  0  0
  6 93  1  0  0  0
  6 94  1  0  0  0
  7  8  2  0  0  0
  7 26  1  0  0  0
  7 29  1  0  0  0
  8  9  1  0  0  0
  8 22  1  0  0  0
  9 10  1  0  0  0
  9 27  2  0  0  0
 10 11  2  0  0  0
 10 15  1  0  0  0
 11 12  1  0  0  0
 11 95  1  0  0  0
 12 13  2  0  0  0
 12 96  1  0  0  0
 13 14  1  0  0  0
 13 31  1  0  0  0
 14 15  2  0  0  0
 14 97  1  0  0  0
 15 98  1  0  0  0
 16 17  2  0  0  0
 16 21  1  0  0  0
 16 31  1  0  0  0
 17 18  1  0  0  0
 17 99  1  0  0  0
 18 19  2  0  0  0
 18100  1  0  0  0
 19 20  1  0  0  0
 19 24  1  0  0  0
 20 21  2  0  0  0
 20101  1  0  0  0
 21 23  1  0  0  0
 22 28  1  0  0  0
 22 32  2  0  0  0
 26 27  1  0  0  0
 28102  1  0  0  0
 28103  1  0  0  0
 29104  1  0  0  0
 29105  1  0  0  0
 33 34  1  0  0  0
 33 66  1  0  0  0
 33 70  2  0  0  0
 34 36  1  0  0  0
 34 59  1  0  0  0
 34106  1  0  0  0
 35 44  2  0  0  0
 35 45  1  0  0  0
 35 68  1  0  0  0
 36 56  1  0  0  0
 36107  1  0  0  0
 37 39  1  0  0  0
 37 47  1  0  0  0
 37 66  1  0  0  0
 37108  1  0  0  0
 38 43  2  0  0  0
 38 46  1  0  0  0
 38 47  1  0  0  0
 39 64  1  0  0  0
 39 67  2  0  0  0
 40 52  1  0  0  0
 40 53  2  0  0  0
 40 58  1  0  0  0
 41109  1  0  0  0
 41110  1  0  0  0
 41111  1  0  0  0
 41 48  1  0  0  0
 42 43  1  0  0  0
 42 66  1  0  0  0
 42112  1  0  0  0
 42113  1  0  0  0
 43 44  1  0  0  0
 44114  1  0  0  0
 45 46  2  0  0  0
 45115  1  0  0  0
 46116  1  0  0  0
 47117  1  0  0  0
 47118  1  0  0  0
 48 56  1  0  0  0
 48 65  1  0  0  0
 48119  1  0  0  0
 49 50  1  0  0  0
 49 53  1  0  0  0
 49 64  1  0  0  0
 49120  1  0  0  0
 50 51  1  0  0  0
 50121  1  0  0  0
 50122  1  0  0  0
 51 52  1  0  0  0
 51123  1  0  0  0
 51124  1  0  0  0
 52125  1  0  0  0
 52126  1  0  0  0
 53 54  1  0  0  0
 54 55  2  0  0  0
 54127  1  0  0  0
 55 57  1  0  0  0
 55128  1  0  0  0
 56 69  2  0  0  0
 57 58  2  0  0  0
 57129  1  0  0  0
 58130  1  0  0  0
 59 60  1  0  0  0
 59 61  1  0  0  0
 59 62  1  0  0  0
 60131  1  0  0  0
 60132  1  0  0  0
 60133  1  0  0  0
 61134  1  0  0  0
 61135  1  0  0  0
 61136  1  0  0  0
 62137  1  0  0  0
 62138  1  0  0  0
 62139  1  0  0  0
 63 65  1  0  0  0
 63140  1  0  0  0
 63141  1  0  0  0
 63142  1  0  0  0
 64143  1  0  0  0
 65144  1  0  0  0
 68 81  1  0  0  0
 71 72  2  0  0  0
 71 74  1  0  0  0
 71145  1  0  0  0
 72 75  1  0  0  0
 72146  1  0  0  0
 73 75  2  0  0  0
 73 76  1  0  0  0
 73147  1  0  0  0
 74 76  2  0  0  0
 74 80  1  0  0  0
 75 83  1  0  0  0
 76 85  1  0  0  0
 77 79  1  0  0  0
 77 82  1  0  0  0
 77 84  2  0  0  0
 78 79  1  0  0  0
 78 82  1  0  0  0
 78148  1  0  0  0
 78149  1  0  0  0
 79 81  1  0  0  0
 79150  1  0  0  0
 80 82  1  0  0  0
 80151  1  0  0  0
 80152  1  0  0  0
 81153  1  0  0  0
 81154  1  0  0  0
 83155  1  0  0  0
M  ISO  4   1 100  68 101  81 101  83 100
M  END
> <chiral flag>
0

> <version>
0

> <s_m_source_file>
/data/baiqing/PycharmProjects/Reinvent-master-3.2/result/LINK_invent/BTK/process_docking_weight1_custom_product_contain_oxygen_bond_distance_aromatic_linkinvent_7_9_3/rearranged_h_0023.sdf

> <i_m_source_file_index>
39

> <r_mmod_Potential_Energy-OPLS-2005>
98.798957824707

> <r_mmod_Stretch_Energy-OPLS-2005>
50.4388389587402

> <r_mmod_Bend_Energy-OPLS-2005>
135.473205566406

> <r_mmod_Torsional_Energy-OPLS-2005>
304.800445556641

> <r_mmod_Improper_Torsional_Energy-OPLS-2005>
33.065258026123

> <r_mmod_Van_der_Waal_Energy-OPLS-2005>
131.389877319336

> <r_mmod_Electrostatic_Energy-OPLS-2005>
-371.431854248047

> <r_mmod_Solvation_Energy-OPLS-2005>
-228.945892333984

> <b_mmod_Minimization_Converged-OPLS-2005>
0

> <r_mmod_RMS_Derivative-OPLS-2005>
13.8195428848267

$$$$
39
                    3D
 Structure written by MMmdl.
171180  0  0  1  0            999 V2000
  -30.6120  -14.7305   20.5119 C   0  0  0  0  0  0
  -30.4266  -12.4585   19.4718 C   0  0  0  0  0  0
  -29.5062  -12.5189   18.2334 C   0  0  0  0  0  0
  -28.0311  -12.3434   18.6417 C   0  0  0  0  0  0
  -27.6393  -13.2307   19.8528 C   0  0  2  0  0  0
  -28.6770  -13.1389   20.9881 C   0  0  0  0  0  0
  -25.2504  -13.8210   20.5694 C   0  0  0  0  0  0
  -24.1791  -13.0445   20.9194 C   0  0  0  0  0  0
  -24.6387  -11.6925   20.8750 C   0  0  0  0  0  0
  -23.9068  -10.4302   21.0418 C   0  0  0  0  0  0
  -24.3621   -9.4218   21.9192 C   0  0  0  0  0  0
  -23.6301   -8.2248   22.0758 C   0  0  0  0  0  0
  -22.4281   -8.0288   21.3544 C   0  0  0  0  0  0
  -21.9919   -9.0265   20.4648 C   0  0  0  0  0  0
  -22.7244  -10.2146   20.3062 C   0  0  0  0  0  0
  -21.6852   -6.0739   22.5279 C   0  0  0  0  0  0
  -21.4019   -6.5640   23.8215 C   0  0  0  0  0  0
  -21.3662   -5.6790   24.9178 C   0  0  0  0  0  0
  -21.6040   -4.3053   24.7223 C   0  0  0  0  0  0
  -21.8822   -3.8150   23.4343 C   0  0  0  0  0  0
  -21.9194   -4.6967   22.3399 C   0  0  0  0  0  0
  -22.7821  -13.5232   21.1868 C   0  0  0  0  0  0
  -22.1662   -4.2151   21.0977 F   0  0  0  0  0  0
  -21.5630   -3.4536   25.7737 F   0  0  0  0  0  0
  -29.9782  -13.5091   20.4177 N   0  0  0  0  0  0
  -26.2917  -12.9406   20.3279 N   0  0  0  0  0  0
  -25.9310  -11.6546   20.5737 N   0  0  0  0  0  0
  -22.0477  -12.8213   22.0427 N   0  0  0  0  0  0
  -25.4223  -15.1934   20.4151 N   0  0  0  0  0  0
  -31.7691  -14.8451   20.0947 O   0  0  0  0  0  0
  -21.6643   -6.8885   21.4242 O   0  0  0  0  0  0
  -22.3507  -14.5543   20.6728 O   0  0  0  0  0  0
  -24.6319  -31.8536   23.1982 C   0  0  0  0  0  0
  -25.9146  -32.4743   23.8324 C   0  0  1  0  0  0
  -27.2197  -27.2572   20.1099 C   0  0  0  0  0  0
  -25.5949  -33.8548   24.2249 N   0  0  0  0  0  0
  -23.4273  -30.4758   21.5432 C   0  0  2  0  0  0
  -24.8720  -28.9199   20.1080 C   0  0  0  0  0  0
  -22.7492  -29.4589   22.4932 C   0  0  0  0  0  0
  -18.0274  -28.1386   22.8461 C   0  0  0  0  0  0
  -24.1488  -36.7280   23.2639 C   0  0  0  0  0  0
  -25.9736  -30.7631   21.3783 C   0  0  0  0  0  0
  -26.0437  -29.3863   20.7155 C   0  0  0  0  0  0
  -27.2167  -28.5656   20.7064 C   0  0  0  0  0  0
  -26.0172  -26.8502   19.4906 C   0  0  0  0  0  0
  -24.8630  -27.6597   19.4890 C   0  0  0  0  0  0
  -23.6435  -29.8083   20.1595 C   0  0  0  0  0  0
  -25.4118  -36.3062   24.0317 C   0  0  1  0  0  0
  -20.5877  -28.3690   23.1265 C   0  0  2  0  0  0
  -20.6767  -26.9413   22.5398 C   0  0  0  0  0  0
  -19.5759  -26.6385   21.5185 C   0  0  0  0  0  0
  -18.1929  -26.7923   22.1599 C   0  0  0  0  0  0
  -19.1526  -28.8858   23.2849 C   0  0  0  0  0  0
  -18.9456  -30.1454   23.8884 C   0  0  0  0  0  0
  -17.6460  -30.6595   24.0551 C   0  0  0  0  0  0
  -25.9066  -34.9435   23.5083 C   0  0  0  0  0  0
  -16.5345  -29.9088   23.6334 C   0  0  0  0  0  0
  -16.7257  -28.6499   23.0355 C   0  0  0  0  0  0
  -26.4515  -31.6585   25.0727 C   0  0  0  0  0  0
  -25.3731  -31.3723   26.1441 C   0  0  0  0  0  0
  -27.0371  -30.2996   24.6242 C   0  0  0  0  0  0
  -27.6067  -32.4340   25.7506 C   0  0  0  0  0  0
  -27.5587  -37.1786   24.8459 C   0  0  0  0  0  0
  -21.4198  -29.3035   22.3665 N   0  0  0  0  0  0
  -26.4292  -37.3770   23.9411 N   0  0  0  0  0  0
  -24.6971  -31.0487   22.0964 N   0  0  0  0  0  0
  -23.4184  -28.8122   23.3030 O   0  0  0  0  0  0
  -28.3407  -26.3976   20.1810 O   0  0  0  0  0  0
  -26.5638  -34.8909   22.4658 O   0  0  0  0  0  0
  -23.5473  -32.1374   23.7282 O   0  0  0  0  0  0
  -28.7640  -17.8712   17.9540 C   0  0  0  0  0  0
  -29.2405  -16.8356   18.7741 C   0  0  0  0  0  0
  -28.5693  -19.1947   18.4161 C   0  0  0  0  0  0
  -29.5392  -17.0536   20.1329 C   0  0  0  0  0  0
  -28.9123  -19.5507   19.7583 C   0  0  0  0  0  0
  -29.3739  -18.4386   20.5948 C   0  0  0  0  0  0
  -24.2694  -20.4714   18.1546 C   0  0  0  0  0  0
  -24.4942  -21.3794   16.9480 C   0  0  0  0  0  0
  -25.5913  -19.7109   18.2564 C   0  0  0  0  0  0
  -26.0017  -21.6779   16.9645 C   0  0  0  0  0  0
  -29.8437  -15.9961   22.4127 C   0  0  0  0  0  0
  -27.9201  -20.1472   17.4135 C   0  0  0  0  0  0
  -28.4111  -23.6268   20.3845 C   0  0  0  0  0  0
  -28.8956  -22.2655   19.6369 C   0  0  0  0  0  0
  -28.4299  -25.0294   19.5585 C   0  0  0  0  0  0
  -28.7191  -20.8996   20.3011 N   0  0  0  0  0  0
  -29.9080  -15.8555   20.9538 N   0  0  0  0  0  0
  -26.6274  -20.7005   17.8904 N   0  3  0  0  0  0
  -29.6506  -18.7382   21.8872 F   0  0  0  0  0  0
  -31.4683  -12.5856   19.1712 H   0  0  0  0  0  0
  -30.3732  -11.4765   19.9447 H   0  0  0  0  0  0
  -29.7887  -11.7515   17.5124 H   0  0  0  0  0  0
  -29.6343  -13.4763   17.7260 H   0  0  0  0  0  0
  -27.8809  -11.2922   18.8906 H   0  0  0  0  0  0
  -27.3759  -12.5504   17.7951 H   0  0  0  0  0  0
  -27.6411  -14.2586   19.4914 H   0  0  0  0  0  0
  -28.7124  -12.1322   21.4062 H   0  0  0  0  0  0
  -28.3876  -13.7944   21.8083 H   0  0  0  0  0  0
  -25.2765   -9.5691   22.4767 H   0  0  0  0  0  0
  -24.0007   -7.4641   22.7479 H   0  0  0  0  0  0
  -21.0846   -8.8793   19.8955 H   0  0  0  0  0  0
  -22.3709  -10.9691   19.6175 H   0  0  0  0  0  0
  -21.2016   -7.6147   23.9719 H   0  0  0  0  0  0
  -21.1478   -6.0520   25.9079 H   0  0  0  0  0  0
  -22.0598   -2.7612   23.2844 H   0  0  0  0  0  0
  -22.4091  -11.9854   22.4776 H   0  0  0  0  0  0
  -21.1113  -13.1254   22.2677 H   0  0  0  0  0  0
  -24.6608  -15.8507   20.5410 H   0  0  0  0  0  0
  -26.2880  -15.6343   20.1338 H   0  0  0  0  0  0
  -26.7208  -32.5368   23.1052 H   0  0  0  0  0  0
  -25.0058  -33.9682   25.0368 H   0  0  0  0  0  0
  -22.7241  -31.2985   21.3968 H   0  0  0  0  0  0
  -23.3756  -35.9608   23.3279 H   0  0  0  0  0  0
  -24.3568  -36.8941   22.2060 H   0  0  0  0  0  0
  -23.7226  -37.6462   23.6684 H   0  0  0  0  0  0
  -26.1165  -31.5275   20.6132 H   0  0  0  0  0  0
  -26.8500  -30.8075   22.0139 H   0  0  0  0  0  0
  -28.1162  -28.9169   21.1934 H   0  0  0  0  0  0
  -25.9253  -25.8797   19.0307 H   0  0  0  0  0  0
  -23.9596  -27.2922   19.0208 H   0  0  0  0  0  0
  -23.7662  -30.5842   19.4034 H   0  0  0  0  0  0
  -22.7608  -29.2417   19.8570 H   0  0  0  0  0  0
  -25.1293  -36.1905   25.0806 H   0  0  0  0  0  0
  -20.9947  -28.3279   24.1397 H   0  0  0  0  0  0
  -20.5656  -26.2304   23.3598 H   0  0  0  0  0  0
  -21.6641  -26.7449   22.1210 H   0  0  0  0  0  0
  -19.6934  -25.6284   21.1247 H   0  0  0  0  0  0
  -19.6715  -27.3169   20.6688 H   0  0  0  0  0  0
  -17.4195  -26.6631   21.4003 H   0  0  0  0  0  0
  -18.0343  -26.0075   22.9013 H   0  0  0  0  0  0
  -19.7941  -30.7240   24.2286 H   0  0  0  0  0  0
  -17.5026  -31.6286   24.5137 H   0  0  0  0  0  0
  -15.5344  -30.2989   23.7696 H   0  0  0  0  0  0
  -15.8644  -28.0821   22.7109 H   0  0  0  0  0  0
  -24.5915  -30.7077   25.7740 H   0  0  0  0  0  0
  -24.8909  -32.2881   26.4865 H   0  0  0  0  0  0
  -25.8044  -30.8890   27.0217 H   0  0  0  0  0  0
  -26.2966  -29.6719   24.1280 H   0  0  0  0  0  0
  -27.4036  -29.7293   25.4785 H   0  0  0  0  0  0
  -27.8843  -30.4242   23.9500 H   0  0  0  0  0  0
  -27.2676  -33.3655   26.2046 H   0  0  0  0  0  0
  -28.3888  -32.6886   25.0341 H   0  0  0  0  0  0
  -28.0713  -31.8488   26.5447 H   0  0  0  0  0  0
  -28.2575  -38.0117   24.7556 H   0  0  0  0  0  0
  -28.1120  -36.2649   24.6231 H   0  0  0  0  0  0
  -27.2311  -37.1371   25.8864 H   0  0  0  0  0  0
  -20.9393  -29.8760   21.6864 H   0  0  0  0  0  0
  -26.0169  -38.2837   24.1439 H   0  0  0  0  0  0
  -28.5113  -17.6150   16.9341 H   0  0  0  0  0  0
  -29.3256  -15.8493   18.3403 H   0  0  0  0  0  0
  -23.4088  -19.8114   18.0388 H   0  0  0  0  0  0
  -24.1124  -21.0739   19.0517 H   0  0  0  0  0  0
  -23.8834  -22.2831   16.9757 H   0  0  0  0  0  0
  -24.2415  -20.8396   16.0340 H   0  0  0  0  0  0
  -25.5975  -18.8874   17.5399 H   0  0  0  0  0  0
  -25.7557  -19.2922   19.2505 H   0  0  0  0  0  0
  -26.2013  -22.6912   17.3150 H   0  0  0  0  0  0
  -26.4074  -21.6000   15.9539 H   0  0  0  0  0  0
  -30.6492  -16.6364   22.7722 H   0  0  0  0  0  0
  -29.9321  -15.0444   22.9410 H   0  0  0  0  0  0
  -28.8927  -16.4375   22.7141 H   0  0  0  0  0  0
  -27.7310  -19.6238   16.4753 H   0  0  0  0  0  0
  -28.6275  -20.9316   17.1499 H   0  0  0  0  0  0
  -29.0301  -23.7533   21.2729 H   0  0  0  0  0  0
  -27.3973  -23.4757   20.7567 H   0  0  0  0  0  0
  -29.9578  -22.3695   19.4065 H   0  0  0  0  0  0
  -28.4055  -22.3008   18.6743 H   0  0  0  0  0  0
  -29.4084  -25.0534   19.0784 H   0  0  0  0  0  0
  -27.7557  -24.9410   18.7095 H   0  0  0  0  0  0
  -28.9163  -20.9133   21.3002 H   0  0  0  0  0  0
  -26.8493  -21.1955   18.7447 H   0  0  0  0  0  0
  1 25  1  0  0  0
  1 30  2  0  0  0
  1 87  1  0  0  0
  2  3  1  0  0  0
  2 25  1  0  0  0
  2 90  1  0  0  0
  2 91  1  0  0  0
  3  4  1  0  0  0
  3 92  1  0  0  0
  3 93  1  0  0  0
  4  5  1  0  0  0
  4 94  1  0  0  0
  4 95  1  0  0  0
  5  6  1  0  0  0
  5 26  1  0  0  0
  5 96  1  0  0  0
  6 25  1  0  0  0
  6 97  1  0  0  0
  6 98  1  0  0  0
  7  8  2  0  0  0
  7 26  1  0  0  0
  7 29  1  0  0  0
  8  9  1  0  0  0
  8 22  1  0  0  0
  9 10  1  0  0  0
  9 27  2  0  0  0
 10 11  2  0  0  0
 10 15  1  0  0  0
 11 12  1  0  0  0
 11 99  1  0  0  0
 12 13  2  0  0  0
 12100  1  0  0  0
 13 14  1  0  0  0
 13 31  1  0  0  0
 14 15  2  0  0  0
 14101  1  0  0  0
 15102  1  0  0  0
 16 17  2  0  0  0
 16 21  1  0  0  0
 16 31  1  0  0  0
 17 18  1  0  0  0
 17103  1  0  0  0
 18 19  2  0  0  0
 18104  1  0  0  0
 19 20  1  0  0  0
 19 24  1  0  0  0
 20 21  2  0  0  0
 20105  1  0  0  0
 21 23  1  0  0  0
 22 28  1  0  0  0
 22 32  2  0  0  0
 26 27  1  0  0  0
 28106  1  0  0  0
 28107  1  0  0  0
 29108  1  0  0  0
 29109  1  0  0  0
 33 34  1  0  0  0
 33 66  1  0  0  0
 33 70  2  0  0  0
 34 36  1  0  0  0
 34 59  1  0  0  0
 34110  1  0  0  0
 35 44  2  0  0  0
 35 45  1  0  0  0
 35 68  1  0  0  0
 36 56  1  0  0  0
 36111  1  0  0  0
 37 39  1  0  0  0
 37 47  1  0  0  0
 37 66  1  0  0  0
 37112  1  0  0  0
 38 43  2  0  0  0
 38 46  1  0  0  0
 38 47  1  0  0  0
 39 64  1  0  0  0
 39 67  2  0  0  0
 40 52  1  0  0  0
 40 53  2  0  0  0
 40 58  1  0  0  0
 41113  1  0  0  0
 41114  1  0  0  0
 41115  1  0  0  0
 41 48  1  0  0  0
 42 43  1  0  0  0
 42 66  1  0  0  0
 42116  1  0  0  0
 42117  1  0  0  0
 43 44  1  0  0  0
 44118  1  0  0  0
 45 46  2  0  0  0
 45119  1  0  0  0
 46120  1  0  0  0
 47121  1  0  0  0
 47122  1  0  0  0
 48 56  1  0  0  0
 48 65  1  0  0  0
 48123  1  0  0  0
 49 50  1  0  0  0
 49 53  1  0  0  0
 49 64  1  0  0  0
 49124  1  0  0  0
 50 51  1  0  0  0
 50125  1  0  0  0
 50126  1  0  0  0
 51 52  1  0  0  0
 51127  1  0  0  0
 51128  1  0  0  0
 52129  1  0  0  0
 52130  1  0  0  0
 53 54  1  0  0  0
 54 55  2  0  0  0
 54131  1  0  0  0
 55 57  1  0  0  0
 55132  1  0  0  0
 56 69  2  0  0  0
 57 58  2  0  0  0
 57133  1  0  0  0
 58134  1  0  0  0
 59 60  1  0  0  0
 59 61  1  0  0  0
 59 62  1  0  0  0
 60135  1  0  0  0
 60136  1  0  0  0
 60137  1  0  0  0
 61138  1  0  0  0
 61139  1  0  0  0
 61140  1  0  0  0
 62141  1  0  0  0
 62142  1  0  0  0
 62143  1  0  0  0
 63 65  1  0  0  0
 63144  1  0  0  0
 63145  1  0  0  0
 63146  1  0  0  0
 64147  1  0  0  0
 65148  1  0  0  0
 68 85  1  0  0  0
 71 72  2  0  0  0
 71 73  1  0  0  0
 71149  1  0  0  0
 72 74  1  0  0  0
 72150  1  0  0  0
 73 75  2  0  0  0
 73 82  1  0  0  0
 74 76  2  0  0  0
 74 87  1  0  0  0
 75 76  1  0  0  0
 75 86  1  0  0  0
 76 89  1  0  0  0
 77 78  1  0  0  0
 77 79  1  0  0  0
 77151  1  0  0  0
 77152  1  0  0  0
 78 80  1  0  0  0
 78153  1  0  0  0
 78154  1  0  0  0
 79 88  1  0  0  0
 79155  1  0  0  0
 79156  1  0  0  0
 80 88  1  0  0  0
 80157  1  0  0  0
 80158  1  0  0  0
 81 87  1  0  0  0
 81159  1  0  0  0
 81160  1  0  0  0
 81161  1  0  0  0
 82162  1  0  0  0
 82163  1  0  0  0
 82 88  1  0  0  0
 83 84  1  0  0  0
 83 85  1  0  0  0
 83164  1  0  0  0
 83165  1  0  0  0
 84 86  1  0  0  0
 84166  1  0  0  0
 84167  1  0  0  0
 85168  1  0  0  0
 85169  1  0  0  0
 86170  1  0  0  0
 88171  1  0  0  0
M  CHG  1  88   1
M  ISO  4   1 100  68 101  85 101  87 100
M  END
> <chiral flag>
0

> <version>
0

> <s_m_source_file>
/data/baiqing/PycharmProjects/Reinvent-master-3.2/result/LINK_invent/BTK/process_docking_weight1_custom_product_contain_oxygen_bond_distance_aromatic_linkinvent_7_9_3/rearranged_h_0023.sdf

> <i_m_source_file_index>
40

> <r_mmod_Potential_Energy-OPLS-2005>
332.234985351562

> <r_mmod_Stretch_Energy-OPLS-2005>
143.036956787109

> <r_mmod_Bend_Energy-OPLS-2005>
228.679962158203

> <r_mmod_Torsional_Energy-OPLS-2005>
331.038299560547

> <r_mmod_Improper_Torsional_Energy-OPLS-2005>
5.98338174819946

> <r_mmod_Van_der_Waal_Energy-OPLS-2005>
136.763854980469

> <r_mmod_Electrostatic_Energy-OPLS-2005>
-159.39094543457

> <r_mmod_Solvation_Energy-OPLS-2005>
-432.554931640625

> <b_mmod_Minimization_Converged-OPLS-2005>
0

> <r_mmod_RMS_Derivative-OPLS-2005>
1.66850960254669

$$$$
40
                    3D
 Structure written by MMmdl.
158167  0  0  1  0            999 V2000
  -30.7375  -14.4258   20.6328 C   0  0  0  0  0  0
  -30.4172  -12.3056   19.4034 C   0  0  0  0  0  0
  -29.4862  -12.5180   18.1943 C   0  0  0  0  0  0
  -28.0083  -12.3806   18.6092 C   0  0  0  0  0  0
  -27.6620  -13.2080   19.8765 C   0  0  2  0  0  0
  -28.7038  -12.9673   20.9905 C   0  0  0  0  0  0
  -25.2580  -13.8173   20.5674 C   0  0  0  0  0  0
  -24.1834  -13.0446   20.9175 C   0  0  0  0  0  0
  -24.6396  -11.6915   20.8735 C   0  0  0  0  0  0
  -23.9072  -10.4293   21.0404 C   0  0  0  0  0  0
  -24.3622   -9.4209   21.9187 C   0  0  0  0  0  0
  -23.6292   -8.2244   22.0759 C   0  0  0  0  0  0
  -22.4272   -8.0281   21.3545 C   0  0  0  0  0  0
  -21.9910   -9.0261   20.4650 C   0  0  0  0  0  0
  -22.7246  -10.2136   20.3051 C   0  0  0  0  0  0
  -21.6851   -6.0739   22.5280 C   0  0  0  0  0  0
  -21.4015   -6.5644   23.8218 C   0  0  0  0  0  0
  -21.3659   -5.6794   24.9180 C   0  0  0  0  0  0
  -21.6039   -4.3055   24.7226 C   0  0  0  0  0  0
  -21.8821   -3.8150   23.4346 C   0  0  0  0  0  0
  -21.9195   -4.6968   22.3401 C   0  0  0  0  0  0
  -22.7856  -13.5238   21.1846 C   0  0  0  0  0  0
  -22.1658   -4.2153   21.0977 F   0  0  0  0  0  0
  -21.5632   -3.4537   25.7739 F   0  0  0  0  0  0
  -30.0359  -13.2760   20.4404 N   0  0  0  0  0  0
  -26.3029  -12.9346   20.3378 N   0  0  0  0  0  0
  -25.9321  -11.6503   20.5768 N   0  0  0  0  0  0
  -22.0495  -12.8217   22.0391 N   0  0  0  0  0  0
  -25.4312  -15.1891   20.4089 N   0  0  0  0  0  0
  -31.8214  -14.6511   20.0865 O   0  0  0  0  0  0
  -21.6635   -6.8880   21.4240 O   0  0  0  0  0  0
  -22.3543  -14.5557   20.6716 O   0  0  0  0  0  0
  -24.6176  -31.8681   23.2116 C   0  0  0  0  0  0
  -25.9064  -32.4832   23.8412 C   0  0  1  0  0  0
  -27.2225  -27.4229   20.0845 C   0  0  0  0  0  0
  -25.5922  -33.8626   24.2337 N   0  0  0  0  0  0
  -23.4040  -30.4987   21.5518 C   0  0  2  0  0  0
  -24.8461  -28.9704   20.1122 C   0  0  0  0  0  0
  -22.7418  -29.4691   22.4966 C   0  0  0  0  0  0
  -18.0281  -28.1378   22.8499 C   0  0  0  0  0  0
  -24.1484  -36.7308   23.2639 C   0  0  0  0  0  0
  -25.9369  -30.8330   21.3646 C   0  0  0  0  0  0
  -26.0127  -29.4694   20.7061 C   0  0  0  0  0  0
  -27.2065  -28.7067   20.6837 C   0  0  0  0  0  0
  -26.0308  -26.9491   19.4844 C   0  0  0  0  0  0
  -24.8519  -27.7101   19.4992 C   0  0  0  0  0  0
  -23.6112  -29.8401   20.1642 C   0  0  0  0  0  0
  -25.4102  -36.3110   24.0339 C   0  0  1  0  0  0
  -20.5877  -28.3677   23.1299 C   0  0  2  0  0  0
  -20.6770  -26.9415   22.5404 C   0  0  0  0  0  0
  -19.5751  -26.6395   21.5207 C   0  0  0  0  0  0
  -18.1930  -26.7926   22.1621 C   0  0  0  0  0  0
  -19.1532  -28.8842   23.2904 C   0  0  0  0  0  0
  -18.9462  -30.1448   23.8926 C   0  0  0  0  0  0
  -17.6465  -30.6589   24.0580 C   0  0  0  0  0  0
  -25.9038  -34.9481   23.5125 C   0  0  0  0  0  0
  -16.5355  -29.9094   23.6332 C   0  0  0  0  0  0
  -16.7270  -28.6506   23.0361 C   0  0  0  0  0  0
  -26.4484  -31.6603   25.0735 C   0  0  0  0  0  0
  -25.3754  -31.3691   26.1490 C   0  0  0  0  0  0
  -27.0301  -30.3049   24.6087 C   0  0  0  0  0  0
  -27.6067  -32.4315   25.7497 C   0  0  0  0  0  0
  -27.5575  -37.1814   24.8473 C   0  0  0  0  0  0
  -21.4145  -29.3053   22.3702 N   0  0  0  0  0  0
  -26.4284  -37.3799   23.9417 N   0  0  0  0  0  0
  -24.6721  -31.0797   22.1016 N   0  0  0  0  0  0
  -23.4187  -28.8218   23.2999 O   0  0  0  0  0  0
  -28.3742  -26.6523   20.1044 O   0  0  0  0  0  0
  -26.5599  -34.8934   22.4687 O   0  0  0  0  0  0
  -23.5368  -32.1422   23.7515 O   0  0  0  0  0  0
  -31.0835  -18.4215   20.4015 C   0  0  0  0  0  0
  -30.8557  -19.7644   20.0269 C   0  0  0  0  0  0
  -29.2410  -19.9913   21.8152 C   0  0  0  0  0  0
  -30.4232  -17.8626   21.5142 C   0  0  0  0  0  0
  -29.9567  -20.5974   20.7461 C   0  0  0  0  0  0
  -29.4736  -18.6517   22.1973 C   0  0  0  0  0  0
  -29.0973  -22.9675   20.9968 C   0  0  0  0  0  0
  -30.3060  -24.0902   19.2593 C   0  0  0  0  0  0
  -30.6841  -22.6043   19.3626 C   0  0  0  0  0  0
  -29.4168  -24.3767   20.4715 C   0  0  1  0  0  0
  -30.8342  -16.4871   22.0454 C   0  0  0  0  0  0
  -28.1562  -25.2255   20.1604 C   0  0  0  0  0  0
  -29.8427  -22.0051   20.4003 N   0  0  0  0  0  0
  -30.1692  -15.3210   21.4546 N   0  0  0  0  0  0
  -28.2397  -22.7972   21.8682 O   0  0  0  0  0  0
  -28.8071  -18.1409   23.2611 F   0  0  0  0  0  0
  -31.4608  -12.4035   19.1004 H   0  0  0  0  0  0
  -30.3169  -11.2895   19.7882 H   0  0  0  0  0  0
  -29.7216  -11.8006   17.4070 H   0  0  0  0  0  0
  -29.6582  -13.5079   17.7675 H   0  0  0  0  0  0
  -27.8108  -11.3235   18.7911 H   0  0  0  0  0  0
  -27.3589  -12.6722   17.7829 H   0  0  0  0  0  0
  -27.7143  -14.2605   19.5966 H   0  0  0  0  0  0
  -28.6770  -11.9247   21.3114 H   0  0  0  0  0  0
  -28.4584  -13.5449   21.8816 H   0  0  0  0  0  0
  -25.2769   -9.5685   22.4763 H   0  0  0  0  0  0
  -24.0006   -7.4632   22.7471 H   0  0  0  0  0  0
  -21.0848   -8.8779   19.8947 H   0  0  0  0  0  0
  -22.3716  -10.9674   19.6152 H   0  0  0  0  0  0
  -21.2000   -7.6151   23.9725 H   0  0  0  0  0  0
  -21.1481   -6.0522   25.9086 H   0  0  0  0  0  0
  -22.0598   -2.7609   23.2844 H   0  0  0  0  0  0
  -22.4096  -11.9855   22.4749 H   0  0  0  0  0  0
  -21.1119  -13.1243   22.2613 H   0  0  0  0  0  0
  -24.6693  -15.8489   20.5221 H   0  0  0  0  0  0
  -26.2927  -15.6267   20.1069 H   0  0  0  0  0  0
  -26.7131  -32.5537   23.1174 H   0  0  0  0  0  0
  -25.0119  -33.9797   25.0513 H   0  0  0  0  0  0
  -22.6938  -31.3171   21.4148 H   0  0  0  0  0  0
  -23.3746  -35.9645   23.3323 H   0  0  0  0  0  0
  -24.3583  -36.8889   22.2053 H   0  0  0  0  0  0
  -23.7233  -37.6517   23.6638 H   0  0  0  0  0  0
  -26.0492  -31.6001   20.5965 H   0  0  0  0  0  0
  -26.8251  -30.8845   21.9823 H   0  0  0  0  0  0
  -28.1076  -29.0894   21.1425 H   0  0  0  0  0  0
  -25.9782  -25.9905   18.9926 H   0  0  0  0  0  0
  -23.9558  -27.3227   19.0342 H   0  0  0  0  0  0
  -23.7249  -30.6195   19.4100 H   0  0  0  0  0  0
  -22.7331  -29.2667   19.8620 H   0  0  0  0  0  0
  -25.1264  -36.1979   25.0828 H   0  0  0  0  0  0
  -20.9993  -28.3245   24.1411 H   0  0  0  0  0  0
  -20.5678  -26.2288   23.3589 H   0  0  0  0  0  0
  -21.6640  -26.7453   22.1198 H   0  0  0  0  0  0
  -19.6926  -25.6309   21.1229 H   0  0  0  0  0  0
  -19.6695  -27.3219   20.6749 H   0  0  0  0  0  0
  -17.4202  -26.6705   21.4021 H   0  0  0  0  0  0
  -18.0339  -26.0031   22.8982 H   0  0  0  0  0  0
  -19.7937  -30.7261   24.2312 H   0  0  0  0  0  0
  -17.5021  -31.6279   24.5168 H   0  0  0  0  0  0
  -15.5362  -30.3021   23.7626 H   0  0  0  0  0  0
  -15.8667  -28.0835   22.7070 H   0  0  0  0  0  0
  -24.5961  -30.6992   25.7846 H   0  0  0  0  0  0
  -24.8912  -32.2827   26.4951 H   0  0  0  0  0  0
  -25.8123  -30.8883   27.0250 H   0  0  0  0  0  0
  -26.2827  -29.6833   24.1147 H   0  0  0  0  0  0
  -27.4077  -29.7272   25.4532 H   0  0  0  0  0  0
  -27.8664  -30.4366   23.9215 H   0  0  0  0  0  0
  -27.2709  -33.3643   26.2045 H   0  0  0  0  0  0
  -28.3907  -32.6819   25.0336 H   0  0  0  0  0  0
  -28.0698  -31.8445   26.5439 H   0  0  0  0  0  0
  -28.2604  -38.0104   24.7511 H   0  0  0  0  0  0
  -28.1045  -36.2629   24.6289 H   0  0  0  0  0  0
  -27.2300  -37.1468   25.8881 H   0  0  0  0  0  0
  -20.9306  -29.8772   21.6921 H   0  0  0  0  0  0
  -26.0167  -38.2873   24.1418 H   0  0  0  0  0  0
  -31.8142  -17.8359   19.8612 H   0  0  0  0  0  0
  -31.4260  -20.1466   19.1926 H   0  0  0  0  0  0
  -28.5254  -20.5379   22.4061 H   0  0  0  0  0  0
  -29.7698  -24.2731   18.3275 H   0  0  0  0  0  0
  -31.1897  -24.7290   19.2490 H   0  0  0  0  0  0
  -31.7342  -22.4954   19.6389 H   0  0  0  0  0  0
  -30.5320  -22.1067   18.4036 H   0  0  0  0  0  0
  -29.9991  -24.8636   21.2537 H   0  0  0  0  0  0
  -30.6500  -16.4577   23.1198 H   0  0  0  0  0  0
  -31.9180  -16.3983   21.9498 H   0  0  0  0  0  0
  -27.4025  -25.0378   20.9283 H   0  0  0  0  0  0
  -27.7397  -24.8692   19.2180 H   0  0  0  0  0  0
  -29.2651  -15.0758   21.8284 H   0  0  0  0  0  0
  1 25  1  0  0  0
  1 30  2  0  0  0
  1 84  1  0  0  0
  2  3  1  0  0  0
  2 25  1  0  0  0
  2 87  1  0  0  0
  2 88  1  0  0  0
  3  4  1  0  0  0
  3 89  1  0  0  0
  3 90  1  0  0  0
  4  5  1  0  0  0
  4 91  1  0  0  0
  4 92  1  0  0  0
  5  6  1  0  0  0
  5 26  1  0  0  0
  5 93  1  0  0  0
  6 25  1  0  0  0
  6 94  1  0  0  0
  6 95  1  0  0  0
  7  8  2  0  0  0
  7 26  1  0  0  0
  7 29  1  0  0  0
  8  9  1  0  0  0
  8 22  1  0  0  0
  9 10  1  0  0  0
  9 27  2  0  0  0
 10 11  2  0  0  0
 10 15  1  0  0  0
 11 12  1  0  0  0
 11 96  1  0  0  0
 12 13  2  0  0  0
 12 97  1  0  0  0
 13 14  1  0  0  0
 13 31  1  0  0  0
 14 15  2  0  0  0
 14 98  1  0  0  0
 15 99  1  0  0  0
 16 17  2  0  0  0
 16 21  1  0  0  0
 16 31  1  0  0  0
 17 18  1  0  0  0
 17100  1  0  0  0
 18 19  2  0  0  0
 18101  1  0  0  0
 19 20  1  0  0  0
 19 24  1  0  0  0
 20 21  2  0  0  0
 20102  1  0  0  0
 21 23  1  0  0  0
 22 28  1  0  0  0
 22 32  2  0  0  0
 26 27  1  0  0  0
 28103  1  0  0  0
 28104  1  0  0  0
 29105  1  0  0  0
 29106  1  0  0  0
 33 34  1  0  0  0
 33 66  1  0  0  0
 33 70  2  0  0  0
 34 36  1  0  0  0
 34 59  1  0  0  0
 34107  1  0  0  0
 35 44  2  0  0  0
 35 45  1  0  0  0
 35 68  1  0  0  0
 36 56  1  0  0  0
 36108  1  0  0  0
 37 39  1  0  0  0
 37 47  1  0  0  0
 37 66  1  0  0  0
 37109  1  0  0  0
 38 43  2  0  0  0
 38 46  1  0  0  0
 38 47  1  0  0  0
 39 64  1  0  0  0
 39 67  2  0  0  0
 40 52  1  0  0  0
 40 53  2  0  0  0
 40 58  1  0  0  0
 41110  1  0  0  0
 41111  1  0  0  0
 41112  1  0  0  0
 41 48  1  0  0  0
 42 43  1  0  0  0
 42 66  1  0  0  0
 42113  1  0  0  0
 42114  1  0  0  0
 43 44  1  0  0  0
 44115  1  0  0  0
 45 46  2  0  0  0
 45116  1  0  0  0
 46117  1  0  0  0
 47118  1  0  0  0
 47119  1  0  0  0
 48 56  1  0  0  0
 48 65  1  0  0  0
 48120  1  0  0  0
 49 50  1  0  0  0
 49 53  1  0  0  0
 49 64  1  0  0  0
 49121  1  0  0  0
 50 51  1  0  0  0
 50122  1  0  0  0
 50123  1  0  0  0
 51 52  1  0  0  0
 51124  1  0  0  0
 51125  1  0  0  0
 52126  1  0  0  0
 52127  1  0  0  0
 53 54  1  0  0  0
 54 55  2  0  0  0
 54128  1  0  0  0
 55 57  1  0  0  0
 55129  1  0  0  0
 56 69  2  0  0  0
 57 58  2  0  0  0
 57130  1  0  0  0
 58131  1  0  0  0
 59 60  1  0  0  0
 59 61  1  0  0  0
 59 62  1  0  0  0
 60132  1  0  0  0
 60133  1  0  0  0
 60134  1  0  0  0
 61135  1  0  0  0
 61136  1  0  0  0
 61137  1  0  0  0
 62138  1  0  0  0
 62139  1  0  0  0
 62140  1  0  0  0
 63 65  1  0  0  0
 63141  1  0  0  0
 63142  1  0  0  0
 63143  1  0  0  0
 64144  1  0  0  0
 65145  1  0  0  0
 68 82  1  0  0  0
 71 72  2  0  0  0
 71 74  1  0  0  0
 71146  1  0  0  0
 72 75  1  0  0  0
 72147  1  0  0  0
 73 75  2  0  0  0
 73 76  1  0  0  0
 73148  1  0  0  0
 74 76  2  0  0  0
 74 81  1  0  0  0
 75 83  1  0  0  0
 76 86  1  0  0  0
 77 80  1  0  0  0
 77 83  1  0  0  0
 77 85  2  0  0  0
 78 79  1  0  0  0
 78 80  1  0  0  0
 78149  1  0  0  0
 78150  1  0  0  0
 79 83  1  0  0  0
 79151  1  0  0  0
 79152  1  0  0  0
 80 82  1  0  0  0
 80153  1  0  0  0
 81 84  1  0  0  0
 81154  1  0  0  0
 81155  1  0  0  0
 82156  1  0  0  0
 82157  1  0  0  0
 84158  1  0  0  0
M  ISO  4   1 100  68 101  82 101  84 100
M  END
> <chiral flag>
0

> <version>
0

> <s_m_source_file>
/data/baiqing/PycharmProjects/Reinvent-master-3.2/result/LINK_invent/BTK/process_docking_weight1_custom_product_contain_oxygen_bond_distance_aromatic_linkinvent_7_9_3/rearranged_h_0023.sdf

> <i_m_source_file_index>
41

> <r_mmod_Potential_Energy-OPLS-2005>
12.4357938766479

> <r_mmod_Stretch_Energy-OPLS-2005>
42.0761680603027

> <r_mmod_Bend_Energy-OPLS-2005>
119.329933166504

> <r_mmod_Torsional_Energy-OPLS-2005>
253.417221069336

> <r_mmod_Improper_Torsional_Energy-OPLS-2005>
2.59720635414124

> <r_mmod_Van_der_Waal_Energy-OPLS-2005>
167.390823364258

> <r_mmod_Electrostatic_Energy-OPLS-2005>
-372.006561279297

> <r_mmod_Solvation_Energy-OPLS-2005>
-211.8837890625

> <b_mmod_Minimization_Converged-OPLS-2005>
0

> <r_mmod_RMS_Derivative-OPLS-2005>
1.57551944255829

$$$$
41
                    3D
 Structure written by MMmdl.
169178  0  0  1  0            999 V2000
  -30.6444  -14.7500   20.3908 C   0  0  0  0  0  0
  -30.4415  -12.4427   19.4620 C   0  0  0  0  0  0
  -29.4992  -12.3982   18.2384 C   0  0  0  0  0  0
  -28.0228  -12.2871   18.6595 C   0  0  0  0  0  0
  -27.6415  -13.2201   19.8415 C   0  0  2  0  0  0
  -28.6997  -13.1900   20.9598 C   0  0  0  0  0  0
  -25.2516  -13.8215   20.5719 C   0  0  0  0  0  0
  -24.1777  -13.0552   20.9251 C   0  0  0  0  0  0
  -24.6331  -11.7005   20.8855 C   0  0  0  0  0  0
  -23.9035  -10.4392   21.0483 C   0  0  0  0  0  0
  -24.3610   -9.4308   21.9236 C   0  0  0  0  0  0
  -23.6311   -8.2327   22.0775 C   0  0  0  0  0  0
  -22.4305   -8.0347   21.3557 C   0  0  0  0  0  0
  -21.9933   -9.0334   20.4676 C   0  0  0  0  0  0
  -22.7223  -10.2229   20.3108 C   0  0  0  0  0  0
  -21.6875   -6.0784   22.5305 C   0  0  0  0  0  0
  -21.3994   -6.5663   23.8243 C   0  0  0  0  0  0
  -21.3655   -5.6798   24.9192 C   0  0  0  0  0  0
  -21.6052   -4.3069   24.7223 C   0  0  0  0  0  0
  -21.8813   -3.8178   23.4332 C   0  0  0  0  0  0
  -21.9190   -4.7004   22.3410 C   0  0  0  0  0  0
  -22.7777  -13.5371   21.1852 C   0  0  0  0  0  0
  -22.1669   -4.2201   21.0974 F   0  0  0  0  0  0
  -21.5659   -3.4538   25.7725 F   0  0  0  0  0  0
  -29.9827  -13.5398   20.3426 N   0  0  0  0  0  0
  -26.2948  -12.9419   20.3345 N   0  0  0  0  0  0
  -25.9267  -11.6601   20.5913 N   0  0  0  0  0  0
  -22.0275  -12.8457   22.0334 N   0  0  0  0  0  0
  -25.4170  -15.1936   20.4055 N   0  0  0  0  0  0
  -31.8661  -14.7486   20.2378 O   0  0  0  0  0  0
  -21.6669   -6.8926   21.4270 O   0  0  0  0  0  0
  -22.3522  -14.5698   20.6643 O   0  0  0  0  0  0
  -24.6235  -31.8677   23.2059 C   0  0  0  0  0  0
  -25.9068  -32.4813   23.8420 C   0  0  1  0  0  0
  -27.2366  -27.3576   20.1168 C   0  0  0  0  0  0
  -25.5936  -33.8609   24.2378 N   0  0  0  0  0  0
  -23.4169  -30.5030   21.5421 C   0  0  2  0  0  0
  -24.8693  -28.9557   20.1171 C   0  0  0  0  0  0
  -22.7383  -29.4779   22.4850 C   0  0  0  0  0  0
  -18.0260  -28.1365   22.8493 C   0  0  0  0  0  0
  -24.1519  -36.7288   23.2648 C   0  0  0  0  0  0
  -25.9588  -30.8163   21.3800 C   0  0  0  0  0  0
  -26.0342  -29.4470   20.7157 C   0  0  0  0  0  0
  -27.2124  -28.6511   20.7173 C   0  0  0  0  0  0
  -26.0475  -26.9105   19.4921 C   0  0  0  0  0  0
  -24.8694  -27.6860   19.5168 C   0  0  0  0  0  0
  -23.6399  -29.8370   20.1606 C   0  0  0  0  0  0
  -25.4102  -36.3099   24.0370 C   0  0  1  0  0  0
  -20.5877  -28.3708   23.1227 C   0  0  2  0  0  0
  -20.6753  -26.9406   22.5406 C   0  0  0  0  0  0
  -19.5709  -26.6363   21.5232 C   0  0  0  0  0  0
  -18.1883  -26.7891   22.1640 C   0  0  0  0  0  0
  -19.1516  -28.8814   23.2886 C   0  0  0  0  0  0
  -18.9486  -30.1427   23.8899 C   0  0  0  0  0  0
  -17.6498  -30.6561   24.0584 C   0  0  0  0  0  0
  -25.9021  -34.9471   23.5134 C   0  0  0  0  0  0
  -16.5369  -29.9089   23.6338 C   0  0  0  0  0  0
  -16.7255  -28.6520   23.0306 C   0  0  0  0  0  0
  -26.4509  -31.6499   25.0657 C   0  0  0  0  0  0
  -25.3800  -31.3647   26.1410 C   0  0  0  0  0  0
  -27.0400  -30.2919   24.6114 C   0  0  0  0  0  0
  -27.6055  -32.4253   25.7375 C   0  0  0  0  0  0
  -27.5567  -37.1770   24.8440 C   0  0  0  0  0  0
  -21.4089  -29.3119   22.3577 N   0  0  0  0  0  0
  -26.4265  -37.3796   23.9418 N   0  0  0  0  0  0
  -24.6837  -31.0754   22.1019 N   0  0  0  0  0  0
  -23.4076  -28.8278   23.2922 O   0  0  0  0  0  0
  -28.4031  -26.5849   20.1810 O   0  0  0  0  0  0
  -26.5531  -34.8918   22.4670 O   0  0  0  0  0  0
  -23.5383  -32.1490   23.7376 O   0  0  0  0  0  0
  -28.4640  -19.2114   21.2454 C   0  0  0  0  0  0
  -28.6601  -17.8050   21.0551 C   0  0  0  0  0  0
  -29.5133  -20.1494   21.0624 C   0  0  0  0  0  0
  -30.9893  -18.1964   20.5784 C   0  0  0  0  0  0
  -29.9114  -17.2409   20.6619 C   0  0  0  0  0  0
  -30.7785  -19.6005   20.7582 C   0  0  0  0  0  0
  -26.5980  -22.5875   19.9096 C   0  0  0  0  0  0
  -26.9375  -23.6472   20.9794 C   0  0  0  0  0  0
  -27.9443  -22.1631   19.3011 C   0  0  0  0  0  0
  -28.4115  -23.9970   20.7179 C   0  0  2  0  0  0
  -32.4156  -17.7841   20.2537 C   0  0  0  0  0  0
  -28.5721  -16.5389   17.9362 C   0  0  0  0  0  0
  -29.3469  -21.6936   21.3343 C   0  0  0  0  0  0
  -28.5073  -25.2038   19.6812 C   0  0  0  0  0  0
  -29.9295  -16.1123   18.5353 C   0  0  0  0  0  0
  -29.9368  -15.9008   20.0107 N   0  0  0  0  0  0
  -28.9758  -22.6734   20.2266 N   0  3  1  0  0  0
  -31.8174  -20.4605   20.6161 F   0  0  0  0  0  0
  -31.4710  -12.5752   19.1236 H   0  0  0  0  0  0
  -30.4295  -11.4915   19.9977 H   0  0  0  0  0  0
  -29.7676  -11.5447   17.6106 H   0  0  0  0  0  0
  -29.6202  -13.2765   17.6099 H   0  0  0  0  0  0
  -27.8437  -11.2459   18.9343 H   0  0  0  0  0  0
  -27.3784  -12.4831   17.8006 H   0  0  0  0  0  0
  -27.6366  -14.2327   19.4451 H   0  0  0  0  0  0
  -28.7492  -12.2036   21.4230 H   0  0  0  0  0  0
  -28.4491  -13.9018   21.7471 H   0  0  0  0  0  0
  -25.2736   -9.5878   22.4823 H   0  0  0  0  0  0
  -24.0067   -7.4750   22.7496 H   0  0  0  0  0  0
  -21.0863   -8.8864   19.8980 H   0  0  0  0  0  0
  -22.3665  -10.9799   19.6253 H   0  0  0  0  0  0
  -21.1953   -7.6159   23.9766 H   0  0  0  0  0  0
  -21.1473   -6.0511   25.9102 H   0  0  0  0  0  0
  -22.0567   -2.7638   23.2809 H   0  0  0  0  0  0
  -22.3738  -12.0191   22.4955 H   0  0  0  0  0  0
  -21.0880  -13.1584   22.2346 H   0  0  0  0  0  0
  -24.6407  -15.8377   20.4974 H   0  0  0  0  0  0
  -26.2633  -15.6331   20.0708 H   0  0  0  0  0  0
  -26.7105  -32.5619   23.1178 H   0  0  0  0  0  0
  -25.0197  -33.9785   25.0604 H   0  0  0  0  0  0
  -22.7216  -31.3347   21.3904 H   0  0  0  0  0  0
  -23.3812  -35.9593   23.3275 H   0  0  0  0  0  0
  -24.3696  -36.8895   22.2077 H   0  0  0  0  0  0
  -23.7217  -37.6466   23.6653 H   0  0  0  0  0  0
  -26.0890  -31.6026   20.6346 H   0  0  0  0  0  0
  -26.8346  -30.8647   22.0154 H   0  0  0  0  0  0
  -28.1016  -29.0220   21.2075 H   0  0  0  0  0  0
  -25.9934  -25.9603   18.9846 H   0  0  0  0  0  0
  -23.9591  -27.3064   19.0722 H   0  0  0  0  0  0
  -23.7828  -30.6231   19.4179 H   0  0  0  0  0  0
  -22.7624  -29.2771   19.8363 H   0  0  0  0  0  0
  -25.1307  -36.1989   25.0870 H   0  0  0  0  0  0
  -21.0062  -28.3378   24.1320 H   0  0  0  0  0  0
  -20.5634  -26.2387   23.3661 H   0  0  0  0  0  0
  -21.6638  -26.7397   22.1256 H   0  0  0  0  0  0
  -19.6875  -25.6298   21.1211 H   0  0  0  0  0  0
  -19.6603  -27.3240   20.6807 H   0  0  0  0  0  0
  -17.4175  -26.6694   21.3993 H   0  0  0  0  0  0
  -18.0225  -25.9994   22.9001 H   0  0  0  0  0  0
  -19.7991  -30.7216   24.2228 H   0  0  0  0  0  0
  -17.5081  -31.6236   24.5202 H   0  0  0  0  0  0
  -15.5372  -30.3006   23.7609 H   0  0  0  0  0  0
  -15.8677  -28.0869   22.6909 H   0  0  0  0  0  0
  -24.5941  -30.7013   25.7788 H   0  0  0  0  0  0
  -24.9062  -32.2838   26.4852 H   0  0  0  0  0  0
  -25.8176  -30.8817   27.0148 H   0  0  0  0  0  0
  -26.3010  -29.6518   24.1263 H   0  0  0  0  0  0
  -27.4254  -29.7267   25.4618 H   0  0  0  0  0  0
  -27.8809  -30.4189   23.9282 H   0  0  0  0  0  0
  -27.2610  -33.3533   26.1958 H   0  0  0  0  0  0
  -28.3792  -32.6825   25.0120 H   0  0  0  0  0  0
  -28.0784  -31.8373   26.5251 H   0  0  0  0  0  0
  -28.2558  -38.0093   24.7555 H   0  0  0  0  0  0
  -28.1073  -36.2617   24.6206 H   0  0  0  0  0  0
  -27.2284  -37.1347   25.8837 H   0  0  0  0  0  0
  -20.9137  -29.8938   21.6966 H   0  0  0  0  0  0
  -26.0164  -38.2866   24.1468 H   0  0  0  0  0  0
  -27.4852  -19.5852   21.5168 H   0  0  0  0  0  0
  -27.7969  -17.1581   21.1360 H   0  0  0  0  0  0
  -25.9495  -22.9836   19.1283 H   0  0  0  0  0  0
  -26.0957  -21.7319   20.3590 H   0  0  0  0  0  0
  -26.8148  -23.2049   21.9710 H   0  0  0  0  0  0
  -26.2856  -24.5181   20.9454 H   0  0  0  0  0  0
  -28.0556  -22.6688   18.3392 H   0  0  0  0  0  0
  -28.0254  -21.1020   19.0693 H   0  0  0  0  0  0
  -28.9340  -24.2929   21.6335 H   0  0  0  0  0  0
  -32.7430  -16.9668   20.8897 H   0  0  0  0  0  0
  -33.1157  -18.5967   20.4429 H   0  0  0  0  0  0
  -32.5333  -17.5047   19.2114 H   0  0  0  0  0  0
  -28.7111  -16.9933   16.9537 H   0  0  0  0  0  0
  -28.0683  -17.2896   18.5422 H   0  0  0  0  0  0
  -27.8958  -15.6974   17.7988 H   0  0  0  0  0  0
  -30.2848  -22.0492   21.7626 H   0  0  0  0  0  0
  -28.6267  -21.8076   22.1446 H   0  0  0  0  0  0
  -27.8505  -25.0238   18.8310 H   0  0  0  0  0  0
  -29.5072  -25.1546   19.2530 H   0  0  0  0  0  0
  -30.6332  -16.9022   18.2864 H   0  0  0  0  0  0
  -30.3227  -15.2654   17.9797 H   0  0  0  0  0  0
  -29.8258  -22.8418   19.7044 H   0  0  0  0  0  0
  1 25  1  0  0  0
  1 30  2  0  0  0
  1 86  1  0  0  0
  2  3  1  0  0  0
  2 25  1  0  0  0
  2 89  1  0  0  0
  2 90  1  0  0  0
  3  4  1  0  0  0
  3 91  1  0  0  0
  3 92  1  0  0  0
  4  5  1  0  0  0
  4 93  1  0  0  0
  4 94  1  0  0  0
  5  6  1  0  0  0
  5 26  1  0  0  0
  5 95  1  0  0  0
  6 25  1  0  0  0
  6 96  1  0  0  0
  6 97  1  0  0  0
  7  8  2  0  0  0
  7 26  1  0  0  0
  7 29  1  0  0  0
  8  9  1  0  0  0
  8 22  1  0  0  0
  9 10  1  0  0  0
  9 27  2  0  0  0
 10 11  2  0  0  0
 10 15  1  0  0  0
 11 12  1  0  0  0
 11 98  1  0  0  0
 12 13  2  0  0  0
 12 99  1  0  0  0
 13 14  1  0  0  0
 13 31  1  0  0  0
 14 15  2  0  0  0
 14100  1  0  0  0
 15101  1  0  0  0
 16 17  2  0  0  0
 16 21  1  0  0  0
 16 31  1  0  0  0
 17 18  1  0  0  0
 17102  1  0  0  0
 18 19  2  0  0  0
 18103  1  0  0  0
 19 20  1  0  0  0
 19 24  1  0  0  0
 20 21  2  0  0  0
 20104  1  0  0  0
 21 23  1  0  0  0
 22 28  1  0  0  0
 22 32  2  0  0  0
 26 27  1  0  0  0
 28105  1  0  0  0
 28106  1  0  0  0
 29107  1  0  0  0
 29108  1  0  0  0
 33 34  1  0  0  0
 33 66  1  0  0  0
 33 70  2  0  0  0
 34 36  1  0  0  0
 34 59  1  0  0  0
 34109  1  0  0  0
 35 44  2  0  0  0
 35 45  1  0  0  0
 35 68  1  0  0  0
 36 56  1  0  0  0
 36110  1  0  0  0
 37 39  1  0  0  0
 37 47  1  0  0  0
 37 66  1  0  0  0
 37111  1  0  0  0
 38 43  2  0  0  0
 38 46  1  0  0  0
 38 47  1  0  0  0
 39 64  1  0  0  0
 39 67  2  0  0  0
 40 52  1  0  0  0
 40 53  2  0  0  0
 40 58  1  0  0  0
 41112  1  0  0  0
 41113  1  0  0  0
 41114  1  0  0  0
 41 48  1  0  0  0
 42 43  1  0  0  0
 42 66  1  0  0  0
 42115  1  0  0  0
 42116  1  0  0  0
 43 44  1  0  0  0
 44117  1  0  0  0
 45 46  2  0  0  0
 45118  1  0  0  0
 46119  1  0  0  0
 47120  1  0  0  0
 47121  1  0  0  0
 48 56  1  0  0  0
 48 65  1  0  0  0
 48122  1  0  0  0
 49 50  1  0  0  0
 49 53  1  0  0  0
 49 64  1  0  0  0
 49123  1  0  0  0
 50 51  1  0  0  0
 50124  1  0  0  0
 50125  1  0  0  0
 51 52  1  0  0  0
 51126  1  0  0  0
 51127  1  0  0  0
 52128  1  0  0  0
 52129  1  0  0  0
 53 54  1  0  0  0
 54 55  2  0  0  0
 54130  1  0  0  0
 55 57  1  0  0  0
 55131  1  0  0  0
 56 69  2  0  0  0
 57 58  2  0  0  0
 57132  1  0  0  0
 58133  1  0  0  0
 59 60  1  0  0  0
 59 61  1  0  0  0
 59 62  1  0  0  0
 60134  1  0  0  0
 60135  1  0  0  0
 60136  1  0  0  0
 61137  1  0  0  0
 61138  1  0  0  0
 61139  1  0  0  0
 62140  1  0  0  0
 62141  1  0  0  0
 62142  1  0  0  0
 63 65  1  0  0  0
 63143  1  0  0  0
 63144  1  0  0  0
 63145  1  0  0  0
 64146  1  0  0  0
 65147  1  0  0  0
 68 84  1  0  0  0
 71 72  2  0  0  0
 71 73  1  0  0  0
 71148  1  0  0  0
 72 75  1  0  0  0
 72149  1  0  0  0
 73 76  2  0  0  0
 73 83  1  0  0  0
 74 75  2  0  0  0
 74 76  1  0  0  0
 74 81  1  0  0  0
 75 86  1  0  0  0
 76 88  1  0  0  0
 77 78  1  0  0  0
 77 79  1  0  0  0
 77150  1  0  0  0
 77151  1  0  0  0
 78 80  1  0  0  0
 78152  1  0  0  0
 78153  1  0  0  0
 79 87  1  0  0  0
 79154  1  0  0  0
 79155  1  0  0  0
 80 84  1  0  0  0
 80 87  1  0  0  0
 80156  1  0  0  0
 81157  1  0  0  0
 81158  1  0  0  0
 81159  1  0  0  0
 82 85  1  0  0  0
 82160  1  0  0  0
 82161  1  0  0  0
 82162  1  0  0  0
 83163  1  0  0  0
 83164  1  0  0  0
 83 87  1  0  0  0
 84165  1  0  0  0
 84166  1  0  0  0
 85 86  1  0  0  0
 85167  1  0  0  0
 85168  1  0  0  0
 87169  1  0  0  0
M  CHG  1  87   1
M  ISO  4   1 100  68 101  84 101  86 100
M  END
> <chiral flag>
0

> <version>
0

> <s_m_source_file>
/data/baiqing/PycharmProjects/Reinvent-master-3.2/result/LINK_invent/BTK/process_docking_weight1_custom_product_contain_oxygen_bond_distance_aromatic_linkinvent_7_9_3/rearranged_h_0023.sdf

> <i_m_source_file_index>
42

> <r_mmod_Potential_Energy-OPLS-2005>
377.718322753906

> <r_mmod_Stretch_Energy-OPLS-2005>
95.0592041015625

> <r_mmod_Bend_Energy-OPLS-2005>
207.47673034668

> <r_mmod_Torsional_Energy-OPLS-2005>
396.973114013672

> <r_mmod_Improper_Torsional_Energy-OPLS-2005>
28.8539428710938

> <r_mmod_Van_der_Waal_Energy-OPLS-2005>
142.164703369141

> <r_mmod_Electrostatic_Energy-OPLS-2005>
-164.073959350586

> <r_mmod_Solvation_Energy-OPLS-2005>
-401.541137695312

> <b_mmod_Minimization_Converged-OPLS-2005>
0

> <r_mmod_RMS_Derivative-OPLS-2005>
7.64142417907715

$$$$
42
                    3D
 Structure written by MMmdl.
159168  0  0  1  0            999 V2000
  -30.5899  -14.7503   20.3548 C   0  0  0  0  0  0
  -30.4388  -12.4238   19.4704 C   0  0  0  0  0  0
  -29.5037  -12.3826   18.2407 C   0  0  0  0  0  0
  -28.0237  -12.2775   18.6639 C   0  0  0  0  0  0
  -27.6305  -13.2030   19.8492 C   0  0  2  0  0  0
  -28.6926  -13.1821   20.9681 C   0  0  0  0  0  0
  -25.2486  -13.8065   20.5772 C   0  0  0  0  0  0
  -24.1743  -13.0349   20.9279 C   0  0  0  0  0  0
  -24.6313  -11.6836   20.8827 C   0  0  0  0  0  0
  -23.8990  -10.4230   21.0455 C   0  0  0  0  0  0
  -24.3554   -9.4158   21.9233 C   0  0  0  0  0  0
  -23.6229   -8.2197   22.0781 C   0  0  0  0  0  0
  -22.4235   -8.0231   21.3543 C   0  0  0  0  0  0
  -21.9860   -9.0214   20.4665 C   0  0  0  0  0  0
  -22.7179  -10.2089   20.3081 C   0  0  0  0  0  0
  -21.6822   -6.0696   22.5278 C   0  0  0  0  0  0
  -21.4008   -6.5624   23.8204 C   0  0  0  0  0  0
  -21.3635   -5.6794   24.9179 C   0  0  0  0  0  0
  -21.6026   -4.3058   24.7249 C   0  0  0  0  0  0
  -21.8807   -3.8126   23.4386 C   0  0  0  0  0  0
  -21.9185   -4.6929   22.3425 C   0  0  0  0  0  0
  -22.7790  -13.5193   21.1897 C   0  0  0  0  0  0
  -22.1660   -4.2106   21.1009 F   0  0  0  0  0  0
  -21.5622   -3.4550   25.7776 F   0  0  0  0  0  0
  -29.9793  -13.5174   20.3503 N   0  0  0  0  0  0
  -26.2890  -12.9215   20.3398 N   0  0  0  0  0  0
  -25.9247  -11.6396   20.5878 N   0  0  0  0  0  0
  -22.0413  -12.8176   22.0434 N   0  0  0  0  0  0
  -25.4183  -15.1754   20.4134 N   0  0  0  0  0  0
  -31.8171  -14.8218   20.2506 O   0  0  0  0  0  0
  -21.6602   -6.8835   21.4228 O   0  0  0  0  0  0
  -22.3521  -14.5531   20.6782 O   0  0  0  0  0  0
  -24.6245  -31.8587   23.1981 C   0  0  0  0  0  0
  -25.9085  -32.4783   23.8348 C   0  0  1  0  0  0
  -27.2430  -27.3385   20.1265 C   0  0  0  0  0  0
  -25.5888  -33.8576   24.2301 N   0  0  0  0  0  0
  -23.4171  -30.4699   21.5435 C   0  0  2  0  0  0
  -24.8673  -28.9179   20.1143 C   0  0  0  0  0  0
  -22.7462  -29.4564   22.5013 C   0  0  0  0  0  0
  -18.0279  -28.1349   22.8493 C   0  0  0  0  0  0
  -24.1459  -36.7288   23.2629 C   0  0  0  0  0  0
  -25.9513  -30.7968   21.3621 C   0  0  0  0  0  0
  -26.0294  -29.4223   20.7100 C   0  0  0  0  0  0
  -27.2160  -28.6399   20.7057 C   0  0  0  0  0  0
  -26.0604  -26.8679   19.5166 C   0  0  0  0  0  0
  -24.8810  -27.6471   19.5085 C   0  0  0  0  0  0
  -23.6275  -29.7840   20.1666 C   0  0  0  0  0  0
  -25.4080  -36.3083   24.0331 C   0  0  1  0  0  0
  -20.5865  -28.3614   23.1319 C   0  0  2  0  0  0
  -20.6749  -26.9352   22.5403 C   0  0  0  0  0  0
  -19.5737  -26.6341   21.5197 C   0  0  0  0  0  0
  -18.1904  -26.7902   22.1595 C   0  0  0  0  0  0
  -19.1532  -28.8814   23.2880 C   0  0  0  0  0  0
  -18.9456  -30.1423   23.8870 C   0  0  0  0  0  0
  -17.6458  -30.6558   24.0543 C   0  0  0  0  0  0
  -25.9001  -34.9459   23.5109 C   0  0  0  0  0  0
  -16.5345  -29.9039   23.6349 C   0  0  0  0  0  0
  -16.7267  -28.6453   23.0383 C   0  0  0  0  0  0
  -26.4476  -31.6624   25.0762 C   0  0  0  0  0  0
  -25.3712  -31.3752   26.1523 C   0  0  0  0  0  0
  -27.0343  -30.3061   24.6196 C   0  0  0  0  0  0
  -27.6014  -32.4407   25.7528 C   0  0  0  0  0  0
  -27.5580  -37.1765   24.8463 C   0  0  0  0  0  0
  -21.4176  -29.2976   22.3760 N   0  0  0  0  0  0
  -26.4286  -37.3771   23.9431 N   0  0  0  0  0  0
  -24.6816  -31.0602   22.0918 N   0  0  0  0  0  0
  -23.4207  -28.8096   23.3075 O   0  0  0  0  0  0
  -28.4122  -26.5774   20.2134 O   0  0  0  0  0  0
  -26.5557  -34.8926   22.4670 O   0  0  0  0  0  0
  -23.5415  -32.1401   23.7307 O   0  0  0  0  0  0
  -27.9578  -19.0249   20.6421 C   0  0  0  0  0  0
  -28.2777  -17.6428   20.5224 C   0  0  0  0  0  0
  -30.2791  -19.5791   20.4836 C   0  0  0  0  0  0
  -28.9377  -20.0559   20.5899 C   0  0  0  0  0  0
  -29.6051  -17.1665   20.3692 C   0  0  0  0  0  0
  -30.6086  -18.1820   20.3828 C   0  0  0  0  0  0
  -27.0428  -23.3555   20.6544 C   0  0  0  0  0  0
  -27.2275  -21.8879   21.0946 C   0  0  0  0  0  0
  -29.3041  -22.6611   20.2065 C   0  0  0  0  0  0
  -28.4557  -23.9449   20.5802 C   0  0  1  0  0  0
  -29.6548  -15.7825   18.3936 C   0  0  0  0  0  0
  -28.5842  -25.2320   19.6509 C   0  0  0  0  0  0
  -28.5511  -21.4548   20.6373 N   0  0  0  0  0  0
  -29.8111  -15.7965   19.8631 N   0  0  0  0  0  0
  -31.9077  -17.8341   20.2223 F   0  0  0  0  0  0
  -31.4725  -12.5647   19.1516 H   0  0  0  0  0  0
  -30.4075  -11.4726   20.0058 H   0  0  0  0  0  0
  -29.7568  -11.5150   17.6316 H   0  0  0  0  0  0
  -29.6574  -13.2407   17.5918 H   0  0  0  0  0  0
  -27.8645  -11.2377   18.9524 H   0  0  0  0  0  0
  -27.3697  -12.4491   17.8088 H   0  0  0  0  0  0
  -27.5854  -14.2128   19.4590 H   0  0  0  0  0  0
  -28.7425  -12.2028   21.4452 H   0  0  0  0  0  0
  -28.4448  -13.9052   21.7474 H   0  0  0  0  0  0
  -25.2692   -9.5630   22.4829 H   0  0  0  0  0  0
  -23.9909   -7.4582   22.7513 H   0  0  0  0  0  0
  -21.0792   -8.8740   19.8984 H   0  0  0  0  0  0
  -22.3640  -10.9642   19.6207 H   0  0  0  0  0  0
  -21.2011   -7.6138   23.9690 H   0  0  0  0  0  0
  -21.1463   -6.0552   25.9066 H   0  0  0  0  0  0
  -22.0603   -2.7588   23.2921 H   0  0  0  0  0  0
  -22.3982  -11.9787   22.4772 H   0  0  0  0  0  0
  -21.1060  -13.1255   22.2701 H   0  0  0  0  0  0
  -24.6583  -15.8360   20.5254 H   0  0  0  0  0  0
  -26.2626  -15.5924   20.0450 H   0  0  0  0  0  0
  -26.7148  -32.5510   23.1103 H   0  0  0  0  0  0
  -25.0185  -33.9694   25.0556 H   0  0  0  0  0  0
  -22.7076  -31.2856   21.3901 H   0  0  0  0  0  0
  -23.3747  -35.9605   23.3307 H   0  0  0  0  0  0
  -24.3530  -36.8903   22.2039 H   0  0  0  0  0  0
  -23.7206  -37.6474   23.6666 H   0  0  0  0  0  0
  -26.0778  -31.5525   20.5872 H   0  0  0  0  0  0
  -26.8335  -30.8531   21.9879 H   0  0  0  0  0  0
  -28.1114  -29.0221   21.1738 H   0  0  0  0  0  0
  -26.0179  -25.8837   19.0730 H   0  0  0  0  0  0
  -23.9866  -27.2462   19.0515 H   0  0  0  0  0  0
  -23.7215  -30.5442   19.3912 H   0  0  0  0  0  0
  -22.7586  -29.1824   19.8935 H   0  0  0  0  0  0
  -25.1250  -36.1909   25.0822 H   0  0  0  0  0  0
  -20.9948  -28.3151   24.1456 H   0  0  0  0  0  0
  -20.5607  -26.2211   23.3574 H   0  0  0  0  0  0
  -21.6622  -26.7366   22.1234 H   0  0  0  0  0  0
  -19.6882  -25.6242   21.1246 H   0  0  0  0  0  0
  -19.6711  -27.3146   20.6734 H   0  0  0  0  0  0
  -17.4190  -26.6695   21.3973 H   0  0  0  0  0  0
  -18.0266  -26.0029   22.8966 H   0  0  0  0  0  0
  -19.7940  -30.7231   24.2253 H   0  0  0  0  0  0
  -17.5016  -31.6265   24.5095 H   0  0  0  0  0  0
  -15.5342  -30.2911   23.7701 H   0  0  0  0  0  0
  -15.8664  -28.0728   22.7175 H   0  0  0  0  0  0
  -24.5877  -30.7079   25.7910 H   0  0  0  0  0  0
  -24.8903  -32.2903   26.4990 H   0  0  0  0  0  0
  -25.8045  -30.8951   27.0301 H   0  0  0  0  0  0
  -26.2949  -29.6785   24.1199 H   0  0  0  0  0  0
  -27.4037  -29.7337   25.4702 H   0  0  0  0  0  0
  -27.8792  -30.4400   23.9432 H   0  0  0  0  0  0
  -27.2633  -33.3746   26.2063 H   0  0  0  0  0  0
  -28.3849  -32.6932   25.0360 H   0  0  0  0  0  0
  -28.0667  -31.8576   26.5490 H   0  0  0  0  0  0
  -28.2573  -38.0079   24.7577 H   0  0  0  0  0  0
  -28.1082  -36.2619   24.6223 H   0  0  0  0  0  0
  -27.2288  -37.1353   25.8850 H   0  0  0  0  0  0
  -20.9347  -29.8740   21.6999 H   0  0  0  0  0  0
  -26.0156  -38.2832   24.1477 H   0  0  0  0  0  0
  -26.9107  -19.2770   20.7204 H   0  0  0  0  0  0
  -27.4627  -16.9425   20.4733 H   0  0  0  0  0  0
  -31.0914  -20.2895   20.4573 H   0  0  0  0  0  0
  -26.3822  -23.9211   21.3188 H   0  0  0  0  0  0
  -26.5764  -23.3727   19.6674 H   0  0  0  0  0  0
  -26.4118  -21.2983   20.6784 H   0  0  0  0  0  0
  -27.1857  -21.7995   22.1824 H   0  0  0  0  0  0
  -30.2795  -22.7051   20.6913 H   0  0  0  0  0  0
  -29.4801  -22.6291   19.1320 H   0  0  0  0  0  0
  -28.7501  -24.2252   21.5919 H   0  0  0  0  0  0
  -28.7415  -15.2803   18.0845 H   0  0  0  0  0  0
  -30.4881  -15.2953   17.8813 H   0  0  0  0  0  0
  -29.5929  -16.7893   17.9756 H   0  0  0  0  0  0
  -28.0191  -25.0989   18.7309 H   0  0  0  0  0  0
  -29.6217  -25.2553   19.3108 H   0  0  0  0  0  0
  1 25  1  0  0  0
  1 30  2  0  0  0
  1 84  1  0  0  0
  2  3  1  0  0  0
  2 25  1  0  0  0
  2 86  1  0  0  0
  2 87  1  0  0  0
  3  4  1  0  0  0
  3 88  1  0  0  0
  3 89  1  0  0  0
  4  5  1  0  0  0
  4 90  1  0  0  0
  4 91  1  0  0  0
  5  6  1  0  0  0
  5 26  1  0  0  0
  5 92  1  0  0  0
  6 25  1  0  0  0
  6 93  1  0  0  0
  6 94  1  0  0  0
  7  8  2  0  0  0
  7 26  1  0  0  0
  7 29  1  0  0  0
  8  9  1  0  0  0
  8 22  1  0  0  0
  9 10  1  0  0  0
  9 27  2  0  0  0
 10 11  2  0  0  0
 10 15  1  0  0  0
 11 12  1  0  0  0
 11 95  1  0  0  0
 12 13  2  0  0  0
 12 96  1  0  0  0
 13 14  1  0  0  0
 13 31  1  0  0  0
 14 15  2  0  0  0
 14 97  1  0  0  0
 15 98  1  0  0  0
 16 17  2  0  0  0
 16 21  1  0  0  0
 16 31  1  0  0  0
 17 18  1  0  0  0
 17 99  1  0  0  0
 18 19  2  0  0  0
 18100  1  0  0  0
 19 20  1  0  0  0
 19 24  1  0  0  0
 20 21  2  0  0  0
 20101  1  0  0  0
 21 23  1  0  0  0
 22 28  1  0  0  0
 22 32  2  0  0  0
 26 27  1  0  0  0
 28102  1  0  0  0
 28103  1  0  0  0
 29104  1  0  0  0
 29105  1  0  0  0
 33 34  1  0  0  0
 33 66  1  0  0  0
 33 70  2  0  0  0
 34 36  1  0  0  0
 34 59  1  0  0  0
 34106  1  0  0  0
 35 44  2  0  0  0
 35 45  1  0  0  0
 35 68  1  0  0  0
 36 56  1  0  0  0
 36107  1  0  0  0
 37 39  1  0  0  0
 37 47  1  0  0  0
 37 66  1  0  0  0
 37108  1  0  0  0
 38 43  2  0  0  0
 38 46  1  0  0  0
 38 47  1  0  0  0
 39 64  1  0  0  0
 39 67  2  0  0  0
 40 52  1  0  0  0
 40 53  2  0  0  0
 40 58  1  0  0  0
 41109  1  0  0  0
 41110  1  0  0  0
 41111  1  0  0  0
 41 48  1  0  0  0
 42 43  1  0  0  0
 42 66  1  0  0  0
 42112  1  0  0  0
 42113  1  0  0  0
 43 44  1  0  0  0
 44114  1  0  0  0
 45 46  2  0  0  0
 45115  1  0  0  0
 46116  1  0  0  0
 47117  1  0  0  0
 47118  1  0  0  0
 48 56  1  0  0  0
 48 65  1  0  0  0
 48119  1  0  0  0
 49 50  1  0  0  0
 49 53  1  0  0  0
 49 64  1  0  0  0
 49120  1  0  0  0
 50 51  1  0  0  0
 50121  1  0  0  0
 50122  1  0  0  0
 51 52  1  0  0  0
 51123  1  0  0  0
 51124  1  0  0  0
 52125  1  0  0  0
 52126  1  0  0  0
 53 54  1  0  0  0
 54 55  2  0  0  0
 54127  1  0  0  0
 55 57  1  0  0  0
 55128  1  0  0  0
 56 69  2  0  0  0
 57 58  2  0  0  0
 57129  1  0  0  0
 58130  1  0  0  0
 59 60  1  0  0  0
 59 61  1  0  0  0
 59 62  1  0  0  0
 60131  1  0  0  0
 60132  1  0  0  0
 60133  1  0  0  0
 61134  1  0  0  0
 61135  1  0  0  0
 61136  1  0  0  0
 62137  1  0  0  0
 62138  1  0  0  0
 62139  1  0  0  0
 63 65  1  0  0  0
 63140  1  0  0  0
 63141  1  0  0  0
 63142  1  0  0  0
 64143  1  0  0  0
 65144  1  0  0  0
 68 82  1  0  0  0
 71 72  2  0  0  0
 71 74  1  0  0  0
 71145  1  0  0  0
 72 75  1  0  0  0
 72146  1  0  0  0
 73 74  2  0  0  0
 73 76  1  0  0  0
 73147  1  0  0  0
 74 83  1  0  0  0
 75 76  2  0  0  0
 75 84  1  0  0  0
 76 85  1  0  0  0
 77 78  1  0  0  0
 77 80  1  0  0  0
 77148  1  0  0  0
 77149  1  0  0  0
 78 83  1  0  0  0
 78150  1  0  0  0
 78151  1  0  0  0
 79 80  1  0  0  0
 79 83  1  0  0  0
 79152  1  0  0  0
 79153  1  0  0  0
 80 82  1  0  0  0
 80154  1  0  0  0
 81 84  1  0  0  0
 81155  1  0  0  0
 81156  1  0  0  0
 81157  1  0  0  0
 82158  1  0  0  0
 82159  1  0  0  0
M  ISO  4   1 100  68 101  82 101  84 100
M  END
> <chiral flag>
0

> <version>
0

> <s_m_source_file>
/data/baiqing/PycharmProjects/Reinvent-master-3.2/result/LINK_invent/BTK/process_docking_weight1_custom_product_contain_oxygen_bond_distance_aromatic_linkinvent_7_9_3/rearranged_h_0023.sdf

> <i_m_source_file_index>
43

> <r_mmod_Potential_Energy-OPLS-2005>
397.358306884766

> <r_mmod_Stretch_Energy-OPLS-2005>
83.6145858764648

> <r_mmod_Bend_Energy-OPLS-2005>
210.406036376953

> <r_mmod_Torsional_Energy-OPLS-2005>
386.013031005859

> <r_mmod_Improper_Torsional_Energy-OPLS-2005>
27.2587985992432

> <r_mmod_Van_der_Waal_Energy-OPLS-2005>
136.790618896484

> <r_mmod_Electrostatic_Energy-OPLS-2005>
-309.662841796875

> <r_mmod_Solvation_Energy-OPLS-2005>
-216.934997558594

> <b_mmod_Minimization_Converged-OPLS-2005>
0

> <r_mmod_RMS_Derivative-OPLS-2005>
4.46805763244629

$$$$
43
                    3D
 Structure written by MMmdl.
155164  0  0  1  0            999 V2000
  -30.6218  -14.6379   20.5086 C   0  0  0  0  0  0
  -30.4433  -12.3922   19.4553 C   0  0  0  0  0  0
  -29.5102  -12.5047   18.2287 C   0  0  0  0  0  0
  -28.0344  -12.3374   18.6433 C   0  0  0  0  0  0
  -27.6559  -13.2131   19.8668 C   0  0  2  0  0  0
  -28.7001  -13.0647   20.9971 C   0  0  0  0  0  0
  -25.2573  -13.8165   20.5690 C   0  0  0  0  0  0
  -24.1832  -13.0437   20.9192 C   0  0  0  0  0  0
  -24.6396  -11.6905   20.8751 C   0  0  0  0  0  0
  -23.9063  -10.4288   21.0411 C   0  0  0  0  0  0
  -24.3618   -9.4204   21.9189 C   0  0  0  0  0  0
  -23.6291   -8.2243   22.0760 C   0  0  0  0  0  0
  -22.4274   -8.0277   21.3548 C   0  0  0  0  0  0
  -21.9910   -9.0252   20.4653 C   0  0  0  0  0  0
  -22.7239  -10.2129   20.3057 C   0  0  0  0  0  0
  -21.6847   -6.0732   22.5279 C   0  0  0  0  0  0
  -21.4003   -6.5635   23.8212 C   0  0  0  0  0  0
  -21.3662   -5.6791   24.9177 C   0  0  0  0  0  0
  -21.6045   -4.3053   24.7226 C   0  0  0  0  0  0
  -21.8817   -3.8142   23.4347 C   0  0  0  0  0  0
  -21.9191   -4.6958   22.3403 C   0  0  0  0  0  0
  -22.7856  -13.5239   21.1851 C   0  0  0  0  0  0
  -22.1659   -4.2146   21.0979 F   0  0  0  0  0  0
  -21.5639   -3.4536   25.7742 F   0  0  0  0  0  0
  -30.0176  -13.4096   20.4370 N   0  0  0  0  0  0
  -26.3002  -12.9338   20.3340 N   0  0  0  0  0  0
  -25.9322  -11.6494   20.5779 N   0  0  0  0  0  0
  -22.0490  -12.8236   22.0406 N   0  0  0  0  0  0
  -25.4298  -15.1888   20.4095 N   0  0  0  0  0  0
  -31.7786  -14.8083   20.1122 O   0  0  0  0  0  0
  -21.6638   -6.8874   21.4241 O   0  0  0  0  0  0
  -22.3550  -14.5555   20.6714 O   0  0  0  0  0  0
  -24.6256  -31.8595   23.2014 C   0  0  0  0  0  0
  -25.9108  -32.4783   23.8336 C   0  0  1  0  0  0
  -27.2325  -27.3252   20.1137 C   0  0  0  0  0  0
  -25.5928  -33.8581   24.2258 N   0  0  0  0  0  0
  -23.4199  -30.4830   21.5442 C   0  0  2  0  0  0
  -24.8674  -28.9387   20.1110 C   0  0  0  0  0  0
  -22.7475  -29.4625   22.4935 C   0  0  0  0  0  0
  -18.0291  -28.1390   22.8490 C   0  0  0  0  0  0
  -24.1479  -36.7274   23.2638 C   0  0  0  0  0  0
  -25.9597  -30.7928   21.3706 C   0  0  0  0  0  0
  -26.0362  -29.4201   20.7141 C   0  0  0  0  0  0
  -27.2214  -28.6258   20.7048 C   0  0  0  0  0  0
  -26.0376  -26.8981   19.4861 C   0  0  0  0  0  0
  -24.8696  -27.6826   19.4876 C   0  0  0  0  0  0
  -23.6344  -29.8170   20.1603 C   0  0  0  0  0  0
  -25.4109  -36.3076   24.0327 C   0  0  1  0  0  0
  -20.5896  -28.3691   23.1277 C   0  0  2  0  0  0
  -20.6776  -26.9416   22.5397 C   0  0  0  0  0  0
  -19.5753  -26.6391   21.5205 C   0  0  0  0  0  0
  -18.1934  -26.7934   22.1623 C   0  0  0  0  0  0
  -19.1546  -28.8858   23.2880 C   0  0  0  0  0  0
  -18.9478  -30.1468   23.8886 C   0  0  0  0  0  0
  -17.6480  -30.6590   24.0581 C   0  0  0  0  0  0
  -25.9055  -34.9455   23.5090 C   0  0  0  0  0  0
  -16.5366  -29.9097   23.6342 C   0  0  0  0  0  0
  -16.7281  -28.6518   23.0352 C   0  0  0  0  0  0
  -26.4494  -31.6595   25.0703 C   0  0  0  0  0  0
  -25.3728  -31.3743   26.1431 C   0  0  0  0  0  0
  -27.0348  -30.3032   24.6133 C   0  0  0  0  0  0
  -27.6042  -32.4349   25.7479 C   0  0  0  0  0  0
  -27.5575  -37.1793   24.8478 C   0  0  0  0  0  0
  -21.4189  -29.3046   22.3677 N   0  0  0  0  0  0
  -26.4277  -37.3781   23.9431 N   0  0  0  0  0  0
  -24.6870  -31.0613   22.0961 N   0  0  0  0  0  0
  -23.4201  -28.8168   23.3013 O   0  0  0  0  0  0
  -28.3544  -26.4791   20.1660 O   0  0  0  0  0  0
  -26.5629  -34.8936   22.4663 O   0  0  0  0  0  0
  -23.5417  -32.1388   23.7343 O   0  0  0  0  0  0
  -28.6928  -19.3192   20.9354 C   0  0  0  0  0  0
  -28.7337  -17.9009   21.0717 C   0  0  0  0  0  0
  -30.9921  -17.8727   20.2779 C   0  0  0  0  0  0
  -29.7995  -20.0807   20.4601 C   0  0  0  0  0  0
  -29.8762  -17.1276   20.7396 C   0  0  0  0  0  0
  -30.9591  -19.2961   20.1463 C   0  0  0  0  0  0
  -28.8191  -22.4768   20.6912 C   0  0  0  0  0  0
  -30.3915  -23.7682   19.4773 C   0  0  0  0  0  0
  -30.8626  -22.3107   19.6813 C   0  0  0  0  0  0
  -29.2424  -23.9689   20.4644 C   0  0  1  0  0  0
  -28.1254  -25.0205   20.0289 C   0  0  0  0  0  0
  -29.7636  -21.5606   20.3010 N   0  0  0  0  0  0
  -29.8092  -15.6714   20.8950 N   0  0  0  0  0  0
  -27.7255  -22.2068   21.1947 O   0  0  0  0  0  0
  -32.0954  -19.8918   19.7131 F   0  0  0  0  0  0
  -31.4841  -12.5223   19.1528 H   0  0  0  0  0  0
  -30.3841  -11.3959   19.8966 H   0  0  0  0  0  0
  -29.7762  -11.7505   17.4864 H   0  0  0  0  0  0
  -29.6481  -13.4730   17.7447 H   0  0  0  0  0  0
  -27.8817  -11.2850   18.8859 H   0  0  0  0  0  0
  -27.3744  -12.5524   17.8023 H   0  0  0  0  0  0
  -27.6757  -14.2487   19.5253 H   0  0  0  0  0  0
  -28.7115  -12.0417   21.3767 H   0  0  0  0  0  0
  -28.4428  -13.6909   21.8526 H   0  0  0  0  0  0
  -25.2760   -9.5677   22.4770 H   0  0  0  0  0  0
  -23.9994   -7.4631   22.7476 H   0  0  0  0  0  0
  -21.0843   -8.8768   19.8955 H   0  0  0  0  0  0
  -22.3699  -10.9670   19.6168 H   0  0  0  0  0  0
  -21.1980   -7.6143   23.9714 H   0  0  0  0  0  0
  -21.1491   -6.0522   25.9083 H   0  0  0  0  0  0
  -22.0595   -2.7603   23.2848 H   0  0  0  0  0  0
  -22.4082  -11.9880   22.4775 H   0  0  0  0  0  0
  -21.1119  -13.1283   22.2627 H   0  0  0  0  0  0
  -24.6588  -15.8405   20.5079 H   0  0  0  0  0  0
  -26.2740  -15.6247   20.0614 H   0  0  0  0  0  0
  -26.7170  -32.5456   23.1077 H   0  0  0  0  0  0
  -25.0116  -33.9736   25.0431 H   0  0  0  0  0  0
  -22.7141  -31.3036   21.4007 H   0  0  0  0  0  0
  -23.3760  -35.9590   23.3293 H   0  0  0  0  0  0
  -24.3565  -36.8890   22.2052 H   0  0  0  0  0  0
  -23.7205  -37.6461   23.6661 H   0  0  0  0  0  0
  -26.0872  -31.5552   20.6008 H   0  0  0  0  0  0
  -26.8402  -30.8437   21.9985 H   0  0  0  0  0  0
  -28.1179  -28.9926   21.1855 H   0  0  0  0  0  0
  -25.9751  -25.9408   18.9919 H   0  0  0  0  0  0
  -23.9756  -27.3073   19.0088 H   0  0  0  0  0  0
  -23.7542  -30.5931   19.4033 H   0  0  0  0  0  0
  -22.7546  -29.2459   19.8571 H   0  0  0  0  0  0
  -25.1282  -36.1903   25.0815 H   0  0  0  0  0  0
  -20.9993  -28.3247   24.1397 H   0  0  0  0  0  0
  -20.5675  -26.2304   23.3596 H   0  0  0  0  0  0
  -21.6645  -26.7443   22.1190 H   0  0  0  0  0  0
  -19.6917  -25.6302   21.1237 H   0  0  0  0  0  0
  -19.6684  -27.3202   20.6736 H   0  0  0  0  0  0
  -17.4203  -26.6693   21.4025 H   0  0  0  0  0  0
  -18.0335  -26.0061   22.9004 H   0  0  0  0  0  0
  -19.7961  -30.7298   24.2220 H   0  0  0  0  0  0
  -17.5043  -31.6271   24.5188 H   0  0  0  0  0  0
  -15.5370  -30.3013   23.7673 H   0  0  0  0  0  0
  -15.8676  -28.0853   22.7055 H   0  0  0  0  0  0
  -24.5902  -30.7089   25.7764 H   0  0  0  0  0  0
  -24.8937  -32.2925   26.4844 H   0  0  0  0  0  0
  -25.8049  -30.8931   27.0215 H   0  0  0  0  0  0
  -26.2919  -29.6778   24.1169 H   0  0  0  0  0  0
  -27.4091  -29.7273   25.4607 H   0  0  0  0  0  0
  -27.8755  -30.4343   23.9318 H   0  0  0  0  0  0
  -27.2630  -33.3660   26.2018 H   0  0  0  0  0  0
  -28.3867  -32.6893   25.0319 H   0  0  0  0  0  0
  -28.0688  -31.8506   26.5427 H   0  0  0  0  0  0
  -28.2583  -38.0104   24.7550 H   0  0  0  0  0  0
  -28.1074  -36.2637   24.6254 H   0  0  0  0  0  0
  -27.2309  -37.1368   25.8886 H   0  0  0  0  0  0
  -20.9359  -29.8787   21.6905 H   0  0  0  0  0  0
  -26.0144  -38.2841   24.1475 H   0  0  0  0  0  0
  -27.7698  -19.8063   21.2068 H   0  0  0  0  0  0
  -27.8469  -17.4031   21.4406 H   0  0  0  0  0  0
  -31.9073  -17.3635   20.0159 H   0  0  0  0  0  0
  -30.0375  -23.8998   18.4538 H   0  0  0  0  0  0
  -31.1996  -24.4830   19.6357 H   0  0  0  0  0  0
  -31.7276  -22.2858   20.3463 H   0  0  0  0  0  0
  -31.1560  -21.8727   18.7266 H   0  0  0  0  0  0
  -29.6506  -24.2932   21.4219 H   0  0  0  0  0  0
  -27.2345  -24.7818   20.6121 H   0  0  0  0  0  0
  -27.8708  -24.8153   18.9884 H   0  0  0  0  0  0
  -28.9202  -15.3348   21.2328 H   0  0  0  0  0  0
  1 25  1  0  0  0
  1 30  2  0  0  0
  1 83  1  0  0  0
  2  3  1  0  0  0
  2 25  1  0  0  0
  2 86  1  0  0  0
  2 87  1  0  0  0
  3  4  1  0  0  0
  3 88  1  0  0  0
  3 89  1  0  0  0
  4  5  1  0  0  0
  4 90  1  0  0  0
  4 91  1  0  0  0
  5  6  1  0  0  0
  5 26  1  0  0  0
  5 92  1  0  0  0
  6 25  1  0  0  0
  6 93  1  0  0  0
  6 94  1  0  0  0
  7  8  2  0  0  0
  7 26  1  0  0  0
  7 29  1  0  0  0
  8  9  1  0  0  0
  8 22  1  0  0  0
  9 10  1  0  0  0
  9 27  2  0  0  0
 10 11  2  0  0  0
 10 15  1  0  0  0
 11 12  1  0  0  0
 11 95  1  0  0  0
 12 13  2  0  0  0
 12 96  1  0  0  0
 13 14  1  0  0  0
 13 31  1  0  0  0
 14 15  2  0  0  0
 14 97  1  0  0  0
 15 98  1  0  0  0
 16 17  2  0  0  0
 16 21  1  0  0  0
 16 31  1  0  0  0
 17 18  1  0  0  0
 17 99  1  0  0  0
 18 19  2  0  0  0
 18100  1  0  0  0
 19 20  1  0  0  0
 19 24  1  0  0  0
 20 21  2  0  0  0
 20101  1  0  0  0
 21 23  1  0  0  0
 22 28  1  0  0  0
 22 32  2  0  0  0
 26 27  1  0  0  0
 28102  1  0  0  0
 28103  1  0  0  0
 29104  1  0  0  0
 29105  1  0  0  0
 33 34  1  0  0  0
 33 66  1  0  0  0
 33 70  2  0  0  0
 34 36  1  0  0  0
 34 59  1  0  0  0
 34106  1  0  0  0
 35 44  2  0  0  0
 35 45  1  0  0  0
 35 68  1  0  0  0
 36 56  1  0  0  0
 36107  1  0  0  0
 37 39  1  0  0  0
 37 47  1  0  0  0
 37 66  1  0  0  0
 37108  1  0  0  0
 38 43  2  0  0  0
 38 46  1  0  0  0
 38 47  1  0  0  0
 39 64  1  0  0  0
 39 67  2  0  0  0
 40 52  1  0  0  0
 40 53  2  0  0  0
 40 58  1  0  0  0
 41109  1  0  0  0
 41110  1  0  0  0
 41111  1  0  0  0
 41 48  1  0  0  0
 42 43  1  0  0  0
 42 66  1  0  0  0
 42112  1  0  0  0
 42113  1  0  0  0
 43 44  1  0  0  0
 44114  1  0  0  0
 45 46  2  0  0  0
 45115  1  0  0  0
 46116  1  0  0  0
 47117  1  0  0  0
 47118  1  0  0  0
 48 56  1  0  0  0
 48 65  1  0  0  0
 48119  1  0  0  0
 49 50  1  0  0  0
 49 53  1  0  0  0
 49 64  1  0  0  0
 49120  1  0  0  0
 50 51  1  0  0  0
 50121  1  0  0  0
 50122  1  0  0  0
 51 52  1  0  0  0
 51123  1  0  0  0
 51124  1  0  0  0
 52125  1  0  0  0
 52126  1  0  0  0
 53 54  1  0  0  0
 54 55  2  0  0  0
 54127  1  0  0  0
 55 57  1  0  0  0
 55128  1  0  0  0
 56 69  2  0  0  0
 57 58  2  0  0  0
 57129  1  0  0  0
 58130  1  0  0  0
 59 60  1  0  0  0
 59 61  1  0  0  0
 59 62  1  0  0  0
 60131  1  0  0  0
 60132  1  0  0  0
 60133  1  0  0  0
 61134  1  0  0  0
 61135  1  0  0  0
 61136  1  0  0  0
 62137  1  0  0  0
 62138  1  0  0  0
 62139  1  0  0  0
 63 65  1  0  0  0
 63140  1  0  0  0
 63141  1  0  0  0
 63142  1  0  0  0
 64143  1  0  0  0
 65144  1  0  0  0
 68 81  1  0  0  0
 71 72  2  0  0  0
 71 74  1  0  0  0
 71145  1  0  0  0
 72 75  1  0  0  0
 72146  1  0  0  0
 73 75  2  0  0  0
 73 76  1  0  0  0
 73147  1  0  0  0
 74 76  2  0  0  0
 74 82  1  0  0  0
 75 83  1  0  0  0
 76 85  1  0  0  0
 77 80  1  0  0  0
 77 82  1  0  0  0
 77 84  2  0  0  0
 78 79  1  0  0  0
 78 80  1  0  0  0
 78148  1  0  0  0
 78149  1  0  0  0
 79 82  1  0  0  0
 79150  1  0  0  0
 79151  1  0  0  0
 80 81  1  0  0  0
 80152  1  0  0  0
 81153  1  0  0  0
 81154  1  0  0  0
 83155  1  0  0  0
M  ISO  4   1 100  68 101  81 101  83 100
M  END
> <chiral flag>
0

> <version>
0

> <s_m_source_file>
/data/baiqing/PycharmProjects/Reinvent-master-3.2/result/LINK_invent/BTK/process_docking_weight1_custom_product_contain_oxygen_bond_distance_aromatic_linkinvent_7_9_3/rearranged_h_0023.sdf

> <i_m_source_file_index>
44

> <r_mmod_Potential_Energy-OPLS-2005>
135.948196411133

> <r_mmod_Stretch_Energy-OPLS-2005>
83.4098434448242

> <r_mmod_Bend_Energy-OPLS-2005>
168.991851806641

> <r_mmod_Torsional_Energy-OPLS-2005>
252.532943725586

> <r_mmod_Improper_Torsional_Energy-OPLS-2005>
3.93975591659546

> <r_mmod_Van_der_Waal_Energy-OPLS-2005>
152.924697875977

> <r_mmod_Electrostatic_Energy-OPLS-2005>
-359.209838867188

> <r_mmod_Solvation_Energy-OPLS-2005>
-213.683441162109

> <b_mmod_Minimization_Converged-OPLS-2005>
0

> <r_mmod_RMS_Derivative-OPLS-2005>
1.26658821105957

$$$$
44
                    3D
 Structure written by MMmdl.
168178  0  0  1  0            999 V2000
  -30.5040  -15.0366   20.3909 C   0  0  0  0  0  0
  -30.4460  -12.6508   19.4785 C   0  0  0  0  0  0
  -29.5188  -12.5284   18.2473 C   0  0  0  0  0  0
  -28.0564  -12.3040   18.6781 C   0  0  0  0  0  0
  -27.6230  -13.2501   19.8257 C   0  0  2  0  0  0
  -28.6734  -13.3248   20.9508 C   0  0  0  0  0  0
  -25.2457  -13.8217   20.5722 C   0  0  0  0  0  0
  -24.1782  -13.0438   20.9237 C   0  0  0  0  0  0
  -24.6415  -11.6920   20.8772 C   0  0  0  0  0  0
  -23.9099  -10.4297   21.0416 C   0  0  0  0  0  0
  -24.3645   -9.4209   21.9195 C   0  0  0  0  0  0
  -23.6309   -8.2248   22.0761 C   0  0  0  0  0  0
  -22.4288   -8.0296   21.3552 C   0  0  0  0  0  0
  -21.9931   -9.0271   20.4649 C   0  0  0  0  0  0
  -22.7271  -10.2146   20.3063 C   0  0  0  0  0  0
  -21.6859   -6.0749   22.5280 C   0  0  0  0  0  0
  -21.4011   -6.5648   23.8214 C   0  0  0  0  0  0
  -21.3659   -5.6797   24.9177 C   0  0  0  0  0  0
  -21.6041   -4.3059   24.7221 C   0  0  0  0  0  0
  -21.8821   -3.8158   23.4342 C   0  0  0  0  0  0
  -21.9189   -4.6974   22.3401 C   0  0  0  0  0  0
  -22.7802  -13.5205   21.1884 C   0  0  0  0  0  0
  -22.1661   -4.2167   21.0975 F   0  0  0  0  0  0
  -21.5631   -3.4539   25.7731 F   0  0  0  0  0  0
  -29.9241  -13.7649   20.3216 N   0  0  0  0  0  0
  -26.2873  -12.9452   20.3234 N   0  0  0  0  0  0
  -25.9345  -11.6584   20.5758 N   0  0  0  0  0  0
  -22.0448  -12.8199   22.0434 N   0  0  0  0  0  0
  -25.4103  -15.1953   20.4148 N   0  0  0  0  0  0
  -31.7297  -15.0823   20.2342 O   0  0  0  0  0  0
  -21.6643   -6.8902   21.4251 O   0  0  0  0  0  0
  -22.3484  -14.5513   20.6726 O   0  0  0  0  0  0
  -24.6497  -31.8381   23.1827 C   0  0  0  0  0  0
  -25.9230  -32.4676   23.8249 C   0  0  1  0  0  0
  -27.2153  -27.0698   20.1630 C   0  0  0  0  0  0
  -25.5947  -33.8484   24.2150 N   0  0  0  0  0  0
  -23.4557  -30.4568   21.5292 C   0  0  2  0  0  0
  -24.9033  -28.8623   20.1139 C   0  0  0  0  0  0
  -22.7596  -29.4541   22.4830 C   0  0  0  0  0  0
  -18.0329  -28.1404   22.8484 C   0  0  0  0  0  0
  -24.1476  -36.7225   23.2657 C   0  0  0  0  0  0
  -26.0171  -30.6908   21.3883 C   0  0  0  0  0  0
  -26.0848  -29.2931   20.7328 C   0  0  0  0  0  0
  -27.2434  -28.4167   20.7288 C   0  0  0  0  0  0
  -26.0093  -26.7513   19.5058 C   0  0  0  0  0  0
  -24.8832  -27.6080   19.4818 C   0  0  0  0  0  0
  -23.6834  -29.7764   20.1527 C   0  0  0  0  0  0
  -25.4116  -36.3013   24.0320 C   0  0  1  0  0  0
  -20.5941  -28.3732   23.1206 C   0  0  2  0  0  0
  -20.6795  -26.9427   22.5398 C   0  0  0  0  0  0
  -19.5759  -26.6385   21.5214 C   0  0  0  0  0  0
  -18.1951  -26.7945   22.1635 C   0  0  0  0  0  0
  -19.1593  -28.8888   23.2841 C   0  0  0  0  0  0
  -18.9509  -30.1479   23.8868 C   0  0  0  0  0  0
  -17.6501  -30.6593   24.0563 C   0  0  0  0  0  0
  -25.9078  -34.9402   23.5046 C   0  0  0  0  0  0
  -16.5391  -29.9087   23.6347 C   0  0  0  0  0  0
  -16.7319  -28.6507   23.0358 C   0  0  0  0  0  0
  -26.4523  -31.6573   25.0714 C   0  0  0  0  0  0
  -25.3679  -31.3772   26.1387 C   0  0  0  0  0  0
  -27.0407  -30.2973   24.6328 C   0  0  0  0  0  0
  -27.6041  -32.4371   25.7485 C   0  0  0  0  0  0
  -27.5564  -37.1756   24.8476 C   0  0  0  0  0  0
  -21.4285  -29.3049   22.3565 N   0  0  0  0  0  0
  -26.4270  -37.3731   23.9427 N   0  0  0  0  0  0
  -24.7281  -31.0189   22.0879 N   0  0  0  0  0  0
  -23.4217  -28.8108   23.3012 O   0  0  0  0  0  0
  -28.2729  -26.0687   20.1728 O   0  0  0  0  0  0
  -26.5682  -34.8916   22.4638 O   0  0  0  0  0  0
  -23.5597  -32.1291   23.6998 O   0  0  0  0  0  0
  -29.2257  -18.9426   19.9756 C   0  0  0  0  0  0
  -30.5233  -19.3876   22.3279 C   0  0  0  0  0  0
  -29.2808  -20.3862   20.4272 C   0  0  0  0  0  0
  -29.9299  -20.5157   21.6880 C   0  0  0  0  0  0
  -29.8281  -17.7325   20.6295 C   0  0  0  0  0  0
  -30.4967  -18.0627   21.8253 C   0  0  0  0  0  0
  -29.2796  -22.4957   24.5558 C   0  0  0  0  0  0
  -30.7732  -22.1877   24.5396 C   0  0  0  0  0  0
  -30.7816  -22.3106   18.5166 C   0  0  0  0  0  0
  -30.4018  -23.4780   19.4390 C   0  0  0  0  0  0
  -28.7638  -21.8339   23.2775 C   0  0  0  0  0  0
  -31.1078  -22.1986   23.0487 C   0  0  0  0  0  0
  -29.5049  -21.4528   18.3943 C   0  0  0  0  0  0
  -28.9264  -23.2149   19.7091 C   0  0  2  0  0  0
  -28.0799  -24.5122   20.4452 C   0  0  0  0  0  0
  -29.8984  -21.7563   22.3584 N   0  0  0  0  0  0
  -28.7864  -21.6095   19.6719 N   0  0  0  0  0  0
  -29.6927  -16.2218   20.2791 N   0  0  0  0  0  0
  -31.0584  -17.0791   22.5694 F   0  0  0  0  0  0
  -31.4693  -12.8389   19.1505 H   0  0  0  0  0  0
  -30.4803  -11.7175   20.0429 H   0  0  0  0  0  0
  -29.8490  -11.7126   17.6033 H   0  0  0  0  0  0
  -29.5880  -13.4390   17.6494 H   0  0  0  0  0  0
  -27.9656  -11.2679   19.0071 H   0  0  0  0  0  0
  -27.3880  -12.4114   17.8224 H   0  0  0  0  0  0
  -27.5689  -14.2401   19.3738 H   0  0  0  0  0  0
  -28.7930  -12.3635   21.4500 H   0  0  0  0  0  0
  -28.3676  -14.0380   21.7171 H   0  0  0  0  0  0
  -25.2788   -9.5680   22.4777 H   0  0  0  0  0  0
  -24.0014   -7.4636   22.7479 H   0  0  0  0  0  0
  -21.0866   -8.8804   19.8949 H   0  0  0  0  0  0
  -22.3740  -10.9696   19.6179 H   0  0  0  0  0  0
  -21.2006   -7.6155   23.9731 H   0  0  0  0  0  0
  -21.1473   -6.0518   25.9080 H   0  0  0  0  0  0
  -22.0599   -2.7622   23.2830 H   0  0  0  0  0  0
  -22.4057  -11.9847   22.4813 H   0  0  0  0  0  0
  -21.1074  -13.1238   22.2658 H   0  0  0  0  0  0
  -24.6374  -15.8439   20.5245 H   0  0  0  0  0  0
  -26.2562  -15.6424   20.0888 H   0  0  0  0  0  0
  -26.7307  -32.5243   23.0978 H   0  0  0  0  0  0
  -25.0037  -33.9587   25.0259 H   0  0  0  0  0  0
  -22.7646  -31.2872   21.3684 H   0  0  0  0  0  0
  -23.3757  -35.9539   23.3310 H   0  0  0  0  0  0
  -24.3562  -36.8861   22.2075 H   0  0  0  0  0  0
  -23.7213  -37.6410   23.6700 H   0  0  0  0  0  0
  -26.1872  -31.4404   20.6147 H   0  0  0  0  0  0
  -26.8840  -30.7422   22.0355 H   0  0  0  0  0  0
  -28.1504  -28.7470   21.2125 H   0  0  0  0  0  0
  -25.9234  -25.7975   19.0053 H   0  0  0  0  0  0
  -23.9872  -27.2786   18.9747 H   0  0  0  0  0  0
  -23.8256  -30.5508   19.3983 H   0  0  0  0  0  0
  -22.7916  -29.2285   19.8394 H   0  0  0  0  0  0
  -25.1307  -36.1831   25.0812 H   0  0  0  0  0  0
  -21.0081  -28.3355   24.1307 H   0  0  0  0  0  0
  -20.5682  -26.2369   23.3634 H   0  0  0  0  0  0
  -21.6656  -26.7402   22.1196 H   0  0  0  0  0  0
  -19.6914  -25.6290   21.1267 H   0  0  0  0  0  0
  -19.6684  -27.3171   20.6716 H   0  0  0  0  0  0
  -17.4212  -26.6712   21.4050 H   0  0  0  0  0  0
  -18.0334  -26.0080   22.9021 H   0  0  0  0  0  0
  -19.7983  -30.7311   24.2208 H   0  0  0  0  0  0
  -17.5051  -31.6273   24.5169 H   0  0  0  0  0  0
  -15.5383  -30.2968   23.7677 H   0  0  0  0  0  0
  -15.8722  -28.0816   22.7061 H   0  0  0  0  0  0
  -24.5877  -30.7110   25.7702 H   0  0  0  0  0  0
  -24.8842  -32.2939   26.4755 H   0  0  0  0  0  0
  -25.7934  -30.8990   27.0213 H   0  0  0  0  0  0
  -26.3038  -29.6675   24.1342 H   0  0  0  0  0  0
  -27.4016  -29.7309   25.4921 H   0  0  0  0  0  0
  -27.8947  -30.4226   23.9678 H   0  0  0  0  0  0
  -27.2640  -33.3717   26.1962 H   0  0  0  0  0  0
  -28.3882  -32.6860   25.0327 H   0  0  0  0  0  0
  -28.0673  -31.8566   26.5468 H   0  0  0  0  0  0
  -28.2565  -38.0060   24.7519 H   0  0  0  0  0  0
  -28.1068  -36.2587   24.6304 H   0  0  0  0  0  0
  -27.2286  -37.1412   25.8878 H   0  0  0  0  0  0
  -20.9504  -29.8752   21.6737 H   0  0  0  0  0  0
  -26.0135  -38.2798   24.1444 H   0  0  0  0  0  0
  -28.6926  -18.7502   19.0573 H   0  0  0  0  0  0
  -30.9895  -19.5158   23.2914 H   0  0  0  0  0  0
  -29.1203  -23.5731   24.5016 H   0  0  0  0  0  0
  -28.7794  -22.1277   25.4537 H   0  0  0  0  0  0
  -30.9569  -21.1983   24.9609 H   0  0  0  0  0  0
  -31.3631  -22.9059   25.1104 H   0  0  0  0  0  0
  -31.5890  -21.7321   18.9710 H   0  0  0  0  0  0
  -31.1258  -22.6501   17.5384 H   0  0  0  0  0  0
  -30.5427  -24.4510   18.9661 H   0  0  0  0  0  0
  -30.9892  -23.4602   20.3578 H   0  0  0  0  0  0
  -27.9435  -22.4015   22.8348 H   0  0  0  0  0  0
  -28.3825  -20.8375   23.5136 H   0  0  0  0  0  0
  -31.9888  -21.5960   22.8197 H   0  0  0  0  0  0
  -31.3255  -23.2207   22.7313 H   0  0  0  0  0  0
  -29.7617  -20.4396   18.0853 H   0  0  0  0  0  0
  -28.8788  -21.8225   17.5798 H   0  0  0  0  0  0
  -28.4741  -23.4471   18.7420 H   0  0  0  0  0  0
  -27.0214  -24.2957   20.3039 H   0  0  0  0  0  0
  -28.2296  -24.4086   21.5202 H   0  0  0  0  0  0
  -28.7558  -15.9820   19.9991 H   0  0  0  0  0  0
  1 25  1  0  0  0
  1 30  2  0  0  0
  1 88  1  0  0  0
  2  3  1  0  0  0
  2 25  1  0  0  0
  2 90  1  0  0  0
  2 91  1  0  0  0
  3  4  1  0  0  0
  3 92  1  0  0  0
  3 93  1  0  0  0
  4  5  1  0  0  0
  4 94  1  0  0  0
  4 95  1  0  0  0
  5  6  1  0  0  0
  5 26  1  0  0  0
  5 96  1  0  0  0
  6 25  1  0  0  0
  6 97  1  0  0  0
  6 98  1  0  0  0
  7  8  2  0  0  0
  7 26  1  0  0  0
  7 29  1  0  0  0
  8  9  1  0  0  0
  8 22  1  0  0  0
  9 10  1  0  0  0
  9 27  2  0  0  0
 10 11  2  0  0  0
 10 15  1  0  0  0
 11 12  1  0  0  0
 11 99  1  0  0  0
 12 13  2  0  0  0
 12100  1  0  0  0
 13 14  1  0  0  0
 13 31  1  0  0  0
 14 15  2  0  0  0
 14101  1  0  0  0
 15102  1  0  0  0
 16 17  2  0  0  0
 16 21  1  0  0  0
 16 31  1  0  0  0
 17 18  1  0  0  0
 17103  1  0  0  0
 18 19  2  0  0  0
 18104  1  0  0  0
 19 20  1  0  0  0
 19 24  1  0  0  0
 20 21  2  0  0  0
 20105  1  0  0  0
 21 23  1  0  0  0
 22 28  1  0  0  0
 22 32  2  0  0  0
 26 27  1  0  0  0
 28106  1  0  0  0
 28107  1  0  0  0
 29108  1  0  0  0
 29109  1  0  0  0
 33 34  1  0  0  0
 33 66  1  0  0  0
 33 70  2  0  0  0
 34 36  1  0  0  0
 34 59  1  0  0  0
 34110  1  0  0  0
 35 44  2  0  0  0
 35 45  1  0  0  0
 35 68  1  0  0  0
 36 56  1  0  0  0
 36111  1  0  0  0
 37 39  1  0  0  0
 37 47  1  0  0  0
 37 66  1  0  0  0
 37112  1  0  0  0
 38 43  2  0  0  0
 38 46  1  0  0  0
 38 47  1  0  0  0
 39 64  1  0  0  0
 39 67  2  0  0  0
 40 52  1  0  0  0
 40 53  2  0  0  0
 40 58  1  0  0  0
 41113  1  0  0  0
 41114  1  0  0  0
 41115  1  0  0  0
 41 48  1  0  0  0
 42 43  1  0  0  0
 42 66  1  0  0  0
 42116  1  0  0  0
 42117  1  0  0  0
 43 44  1  0  0  0
 44118  1  0  0  0
 45 46  2  0  0  0
 45119  1  0  0  0
 46120  1  0  0  0
 47121  1  0  0  0
 47122  1  0  0  0
 48 56  1  0  0  0
 48 65  1  0  0  0
 48123  1  0  0  0
 49 50  1  0  0  0
 49 53  1  0  0  0
 49 64  1  0  0  0
 49124  1  0  0  0
 50 51  1  0  0  0
 50125  1  0  0  0
 50126  1  0  0  0
 51 52  1  0  0  0
 51127  1  0  0  0
 51128  1  0  0  0
 52129  1  0  0  0
 52130  1  0  0  0
 53 54  1  0  0  0
 54 55  2  0  0  0
 54131  1  0  0  0
 55 57  1  0  0  0
 55132  1  0  0  0
 56 69  2  0  0  0
 57 58  2  0  0  0
 57133  1  0  0  0
 58134  1  0  0  0
 59 60  1  0  0  0
 59 61  1  0  0  0
 59 62  1  0  0  0
 60135  1  0  0  0
 60136  1  0  0  0
 60137  1  0  0  0
 61138  1  0  0  0
 61139  1  0  0  0
 61140  1  0  0  0
 62141  1  0  0  0
 62142  1  0  0  0
 62143  1  0  0  0
 63 65  1  0  0  0
 63144  1  0  0  0
 63145  1  0  0  0
 63146  1  0  0  0
 64147  1  0  0  0
 65148  1  0  0  0
 68 85  1  0  0  0
 71 73  2  0  0  0
 71 75  1  0  0  0
 71149  1  0  0  0
 72 74  2  0  0  0
 72 76  1  0  0  0
 72150  1  0  0  0
 73 74  1  0  0  0
 73 87  1  0  0  0
 74 86  1  0  0  0
 75 76  2  0  0  0
 75 88  1  0  0  0
 76 89  1  0  0  0
 77 78  1  0  0  0
 77 81  1  0  0  0
 77151  1  0  0  0
 77152  1  0  0  0
 78 82  1  0  0  0
 78153  1  0  0  0
 78154  1  0  0  0
 79 80  1  0  0  0
 79 83  1  0  0  0
 79155  1  0  0  0
 79156  1  0  0  0
 80 84  1  0  0  0
 80157  1  0  0  0
 80158  1  0  0  0
 81 86  1  0  0  0
 81159  1  0  0  0
 81160  1  0  0  0
 82 86  1  0  0  0
 82161  1  0  0  0
 82162  1  0  0  0
 83 87  1  0  0  0
 83163  1  0  0  0
 83164  1  0  0  0
 84 85  1  0  0  0
 84 87  1  0  0  0
 84165  1  0  0  0
 85166  1  0  0  0
 85167  1  0  0  0
 88168  1  0  0  0
M  ISO  4   1 100  68 101  85 101  88 100
M  END
> <chiral flag>
0

> <version>
0

> <s_m_source_file>
/data/baiqing/PycharmProjects/Reinvent-master-3.2/result/LINK_invent/BTK/process_docking_weight1_custom_product_contain_oxygen_bond_distance_aromatic_linkinvent_7_9_3/rearranged_h_0023.sdf

> <i_m_source_file_index>
45

> <r_mmod_Potential_Energy-OPLS-2005>
974.801818847656

> <r_mmod_Stretch_Energy-OPLS-2005>
339.910675048828

> <r_mmod_Bend_Energy-OPLS-2005>
446.17333984375

> <r_mmod_Torsional_Energy-OPLS-2005>
385.659851074219

> <r_mmod_Improper_Torsional_Energy-OPLS-2005>
23.0134983062744

> <r_mmod_Van_der_Waal_Energy-OPLS-2005>
136.337768554688

> <r_mmod_Electrostatic_Energy-OPLS-2005>
-371.224090576172

> <r_mmod_Solvation_Energy-OPLS-2005>
-242.034698486328

> <b_mmod_Minimization_Converged-OPLS-2005>
0

> <r_mmod_RMS_Derivative-OPLS-2005>
2.63064289093018

$$$$
45
                    3D
 Structure written by MMmdl.
151159  0  0  1  0            999 V2000
  -30.5258  -14.8911   20.4554 C   0  0  0  0  0  0
  -30.4538  -12.5504   19.4924 C   0  0  0  0  0  0
  -29.5250  -12.5349   18.2540 C   0  0  0  0  0  0
  -28.0546  -12.3269   18.6674 C   0  0  0  0  0  0
  -27.6416  -13.2368   19.8530 C   0  0  2  0  0  0
  -28.6855  -13.2007   20.9913 C   0  0  0  0  0  0
  -25.2476  -13.8168   20.5629 C   0  0  0  0  0  0
  -24.1794  -13.0418   20.9207 C   0  0  0  0  0  0
  -24.6405  -11.6905   20.8762 C   0  0  0  0  0  0
  -23.9079  -10.4283   21.0416 C   0  0  0  0  0  0
  -24.3626   -9.4196   21.9192 C   0  0  0  0  0  0
  -23.6295   -8.2235   22.0759 C   0  0  0  0  0  0
  -22.4278   -8.0277   21.3547 C   0  0  0  0  0  0
  -21.9917   -9.0254   20.4651 C   0  0  0  0  0  0
  -22.7251  -10.2129   20.3062 C   0  0  0  0  0  0
  -21.6850   -6.0733   22.5277 C   0  0  0  0  0  0
  -21.4012   -6.5639   23.8210 C   0  0  0  0  0  0
  -21.3659   -5.6792   24.9173 C   0  0  0  0  0  0
  -21.6043   -4.3055   24.7223 C   0  0  0  0  0  0
  -21.8820   -3.8146   23.4345 C   0  0  0  0  0  0
  -21.9192   -4.6962   22.3401 C   0  0  0  0  0  0
  -22.7815  -13.5202   21.1864 C   0  0  0  0  0  0
  -22.1661   -4.2148   21.0979 F   0  0  0  0  0  0
  -21.5630   -3.4539   25.7737 F   0  0  0  0  0  0
  -29.9748  -13.6147   20.4153 N   0  0  0  0  0  0
  -26.2937  -12.9400   20.3280 N   0  0  0  0  0  0
  -25.9345  -11.6542   20.5780 N   0  0  0  0  0  0
  -22.0465  -12.8200   22.0430 N   0  0  0  0  0  0
  -25.4078  -15.1870   20.3885 N   0  0  0  0  0  0
  -31.7007  -15.0368   20.0989 O   0  0  0  0  0  0
  -21.6639   -6.8876   21.4240 O   0  0  0  0  0  0
  -22.3498  -14.5506   20.6707 O   0  0  0  0  0  0
  -24.6416  -31.8468   23.1919 C   0  0  0  0  0  0
  -25.9197  -32.4711   23.8297 C   0  0  1  0  0  0
  -27.2158  -27.1568   20.1472 C   0  0  0  0  0  0
  -25.5955  -33.8516   24.2213 N   0  0  0  0  0  0
  -23.4447  -30.4684   21.5371 C   0  0  2  0  0  0
  -24.8942  -28.9031   20.1112 C   0  0  0  0  0  0
  -22.7566  -29.4560   22.4865 C   0  0  0  0  0  0
  -18.0307  -28.1392   22.8479 C   0  0  0  0  0  0
  -24.1489  -36.7255   23.2643 C   0  0  0  0  0  0
  -26.0004  -30.7259   21.3903 C   0  0  0  0  0  0
  -26.0715  -29.3394   20.7325 C   0  0  0  0  0  0
  -27.2344  -28.4823   20.7365 C   0  0  0  0  0  0
  -26.0180  -26.8321   19.4690 C   0  0  0  0  0  0
  -24.8792  -27.6612   19.4638 C   0  0  0  0  0  0
  -23.6703  -29.8026   20.1550 C   0  0  0  0  0  0
  -25.4121  -36.3038   24.0321 C   0  0  1  0  0  0
  -20.5921  -28.3712   23.1234 C   0  0  2  0  0  0
  -20.6786  -26.9416   22.5398 C   0  0  0  0  0  0
  -19.5761  -26.6374   21.5207 C   0  0  0  0  0  0
  -18.1943  -26.7930   22.1622 C   0  0  0  0  0  0
  -19.1564  -28.8870   23.2850 C   0  0  0  0  0  0
  -18.9480  -30.1468   23.8872 C   0  0  0  0  0  0
  -17.6476  -30.6588   24.0560 C   0  0  0  0  0  0
  -25.9068  -34.9414   23.5071 C   0  0  0  0  0  0
  -16.5366  -29.9082   23.6338 C   0  0  0  0  0  0
  -16.7291  -28.6502   23.0356 C   0  0  0  0  0  0
  -26.4527  -31.6571   25.0726 C   0  0  0  0  0  0
  -25.3720  -31.3754   26.1423 C   0  0  0  0  0  0
  -27.0387  -30.2973   24.6289 C   0  0  0  0  0  0
  -27.6062  -32.4331   25.7509 C   0  0  0  0  0  0
  -27.5574  -37.1785   24.8470 C   0  0  0  0  0  0
  -21.4257  -29.3048   22.3614 N   0  0  0  0  0  0
  -26.4286  -37.3747   23.9411 N   0  0  0  0  0  0
  -24.7152  -31.0340   22.0947 N   0  0  0  0  0  0
  -23.4220  -28.8095   23.2996 O   0  0  0  0  0  0
  -28.2612  -26.1662   20.1997 O   0  0  0  0  0  0
  -26.5643  -34.8908   22.4644 O   0  0  0  0  0  0
  -23.5537  -32.1332   23.7144 O   0  0  0  0  0  0
  -30.0695  -19.8798   19.9006 C   0  0  0  0  0  0
  -30.3439  -18.4398   19.9394 C   0  0  0  0  0  0
  -28.3205  -19.5741   21.4365 C   0  0  0  0  0  0
  -29.0120  -20.5328   20.6312 C   0  0  0  0  0  0
  -28.5839  -18.1551   21.4948 C   0  0  0  0  0  0
  -29.5978  -17.4904   20.7275 C   0  0  0  0  0  0
  -28.4972  -22.0473   20.6667 C   0  0  0  0  0  0
  -28.8181  -23.3551   20.2416 C   0  0  0  0  0  0
  -27.7156  -17.3298   22.4308 C   0  0  0  0  0  0
  -27.8791  -24.6828   20.4361 C   0  0  0  0  0  0
  -29.6716  -15.9646   20.7792 N   0  0  0  0  0  0
  -31.4862  -12.7194   19.1824 H   0  0  0  0  0  0
  -30.4489  -11.5807   19.9928 H   0  0  0  0  0  0
  -29.8332  -11.7523   17.5594 H   0  0  0  0  0  0
  -29.6213  -13.4782   17.7144 H   0  0  0  0  0  0
  -27.9363  -11.2799   18.9491 H   0  0  0  0  0  0
  -27.3933  -12.4885   17.8154 H   0  0  0  0  0  0
  -27.6241  -14.2527   19.4574 H   0  0  0  0  0  0
  -28.7572  -12.2008   21.4216 H   0  0  0  0  0  0
  -28.3897  -13.8596   21.8091 H   0  0  0  0  0  0
  -25.2768   -9.5669   22.4772 H   0  0  0  0  0  0
  -23.9997   -7.4624   22.7480 H   0  0  0  0  0  0
  -21.0847   -8.8777   19.8956 H   0  0  0  0  0  0
  -22.3711  -10.9672   19.6174 H   0  0  0  0  0  0
  -21.2003   -7.6148   23.9712 H   0  0  0  0  0  0
  -21.1481   -6.0524   25.9076 H   0  0  0  0  0  0
  -22.0599   -2.7609   23.2844 H   0  0  0  0  0  0
  -22.4084  -11.9861   22.4815 H   0  0  0  0  0  0
  -21.1087  -13.1231   22.2647 H   0  0  0  0  0  0
  -24.6237  -15.8254   20.4671 H   0  0  0  0  0  0
  -26.2296  -15.6200   19.9880 H   0  0  0  0  0  0
  -26.7261  -32.5322   23.1026 H   0  0  0  0  0  0
  -25.0105  -33.9641   25.0362 H   0  0  0  0  0  0
  -22.7468  -31.2945   21.3857 H   0  0  0  0  0  0
  -23.3754  -35.9583   23.3296 H   0  0  0  0  0  0
  -24.3578  -36.8887   22.2058 H   0  0  0  0  0  0
  -23.7240  -37.6450   23.6676 H   0  0  0  0  0  0
  -26.1553  -31.4809   20.6184 H   0  0  0  0  0  0
  -26.8716  -30.7750   22.0314 H   0  0  0  0  0  0
  -28.1300  -28.8102   21.2453 H   0  0  0  0  0  0
  -25.9247  -25.9052   18.9261 H   0  0  0  0  0  0
  -23.9866  -27.3289   18.9516 H   0  0  0  0  0  0
  -23.8072  -30.5795   19.4019 H   0  0  0  0  0  0
  -22.7855  -29.2450   19.8427 H   0  0  0  0  0  0
  -25.1309  -36.1868   25.0812 H   0  0  0  0  0  0
  -21.0018  -28.3287   24.1352 H   0  0  0  0  0  0
  -20.5669  -26.2327   23.3614 H   0  0  0  0  0  0
  -21.6653  -26.7414   22.1200 H   0  0  0  0  0  0
  -19.6921  -25.6281   21.1247 H   0  0  0  0  0  0
  -19.6694  -27.3176   20.6731 H   0  0  0  0  0  0
  -17.4210  -26.6671   21.4027 H   0  0  0  0  0  0
  -18.0347  -26.0082   22.9030 H   0  0  0  0  0  0
  -19.7956  -30.7296   24.2220 H   0  0  0  0  0  0
  -17.5028  -31.6266   24.5167 H   0  0  0  0  0  0
  -15.5364  -30.2974   23.7674 H   0  0  0  0  0  0
  -15.8693  -28.0812   22.7076 H   0  0  0  0  0  0
  -24.5912  -30.7088   25.7745 H   0  0  0  0  0  0
  -24.8893  -32.2931   26.4791 H   0  0  0  0  0  0
  -25.8007  -30.8970   27.0238 H   0  0  0  0  0  0
  -26.3000  -29.6699   24.1287 H   0  0  0  0  0  0
  -27.4005  -29.7265   25.4851 H   0  0  0  0  0  0
  -27.8908  -30.4219   23.9604 H   0  0  0  0  0  0
  -27.2669  -33.3661   26.2023 H   0  0  0  0  0  0
  -28.3909  -32.6839   25.0359 H   0  0  0  0  0  0
  -28.0690  -31.8495   26.5478 H   0  0  0  0  0  0
  -28.2585  -38.0087   24.7508 H   0  0  0  0  0  0
  -28.1073  -36.2612   24.6304 H   0  0  0  0  0  0
  -27.2292  -37.1443   25.8874 H   0  0  0  0  0  0
  -20.9454  -29.8783   21.6820 H   0  0  0  0  0  0
  -26.0151  -38.2813   24.1412 H   0  0  0  0  0  0
  -30.6817  -20.4904   19.2521 H   0  0  0  0  0  0
  -31.1400  -18.0636   19.3126 H   0  0  0  0  0  0
  -27.5116  -19.9478   22.0490 H   0  0  0  0  0  0
  -27.5457  -22.0717   21.1797 H   0  0  0  0  0  0
  -29.7421  -23.5148   19.7051 H   0  0  0  0  0  0
  -27.1345  -17.9601   23.1043 H   0  0  0  0  0  0
  -28.3239  -16.6707   23.0507 H   0  0  0  0  0  0
  -27.0155  -16.7212   21.8634 H   0  0  0  0  0  0
  -27.4941  -24.6328   21.4552 H   0  0  0  0  0  0
  -27.0237  -24.4342   19.8152 H   0  0  0  0  0  0
  -28.8131  -15.5758   21.1368 H   0  0  0  0  0  0
  1 25  1  0  0  0
  1 30  2  0  0  0
  1 81  1  0  0  0
  2  3  1  0  0  0
  2 25  1  0  0  0
  2 82  1  0  0  0
  2 83  1  0  0  0
  3  4  1  0  0  0
  3 84  1  0  0  0
  3 85  1  0  0  0
  4  5  1  0  0  0
  4 86  1  0  0  0
  4 87  1  0  0  0
  5  6  1  0  0  0
  5 26  1  0  0  0
  5 88  1  0  0  0
  6 25  1  0  0  0
  6 89  1  0  0  0
  6 90  1  0  0  0
  7  8  2  0  0  0
  7 26  1  0  0  0
  7 29  1  0  0  0
  8  9  1  0  0  0
  8 22  1  0  0  0
  9 10  1  0  0  0
  9 27  2  0  0  0
 10 11  2  0  0  0
 10 15  1  0  0  0
 11 12  1  0  0  0
 11 91  1  0  0  0
 12 13  2  0  0  0
 12 92  1  0  0  0
 13 14  1  0  0  0
 13 31  1  0  0  0
 14 15  2  0  0  0
 14 93  1  0  0  0
 15 94  1  0  0  0
 16 17  2  0  0  0
 16 21  1  0  0  0
 16 31  1  0  0  0
 17 18  1  0  0  0
 17 95  1  0  0  0
 18 19  2  0  0  0
 18 96  1  0  0  0
 19 20  1  0  0  0
 19 24  1  0  0  0
 20 21  2  0  0  0
 20 97  1  0  0  0
 21 23  1  0  0  0
 22 28  1  0  0  0
 22 32  2  0  0  0
 26 27  1  0  0  0
 28 98  1  0  0  0
 28 99  1  0  0  0
 29100  1  0  0  0
 29101  1  0  0  0
 33 34  1  0  0  0
 33 66  1  0  0  0
 33 70  2  0  0  0
 34 36  1  0  0  0
 34 59  1  0  0  0
 34102  1  0  0  0
 35 44  2  0  0  0
 35 45  1  0  0  0
 35 68  1  0  0  0
 36 56  1  0  0  0
 36103  1  0  0  0
 37 39  1  0  0  0
 37 47  1  0  0  0
 37 66  1  0  0  0
 37104  1  0  0  0
 38 43  2  0  0  0
 38 46  1  0  0  0
 38 47  1  0  0  0
 39 64  1  0  0  0
 39 67  2  0  0  0
 40 52  1  0  0  0
 40 53  2  0  0  0
 40 58  1  0  0  0
 41105  1  0  0  0
 41106  1  0  0  0
 41107  1  0  0  0
 41 48  1  0  0  0
 42 43  1  0  0  0
 42 66  1  0  0  0
 42108  1  0  0  0
 42109  1  0  0  0
 43 44  1  0  0  0
 44110  1  0  0  0
 45 46  2  0  0  0
 45111  1  0  0  0
 46112  1  0  0  0
 47113  1  0  0  0
 47114  1  0  0  0
 48 56  1  0  0  0
 48 65  1  0  0  0
 48115  1  0  0  0
 49 50  1  0  0  0
 49 53  1  0  0  0
 49 64  1  0  0  0
 49116  1  0  0  0
 50 51  1  0  0  0
 50117  1  0  0  0
 50118  1  0  0  0
 51 52  1  0  0  0
 51119  1  0  0  0
 51120  1  0  0  0
 52121  1  0  0  0
 52122  1  0  0  0
 53 54  1  0  0  0
 54 55  2  0  0  0
 54123  1  0  0  0
 55 57  1  0  0  0
 55124  1  0  0  0
 56 69  2  0  0  0
 57 58  2  0  0  0
 57125  1  0  0  0
 58126  1  0  0  0
 59 60  1  0  0  0
 59 61  1  0  0  0
 59 62  1  0  0  0
 60127  1  0  0  0
 60128  1  0  0  0
 60129  1  0  0  0
 61130  1  0  0  0
 61131  1  0  0  0
 61132  1  0  0  0
 62133  1  0  0  0
 62134  1  0  0  0
 62135  1  0  0  0
 63 65  1  0  0  0
 63136  1  0  0  0
 63137  1  0  0  0
 63138  1  0  0  0
 64139  1  0  0  0
 65140  1  0  0  0
 68 80  1  0  0  0
 71 72  2  0  0  0
 71 74  1  0  0  0
 71141  1  0  0  0
 72 76  1  0  0  0
 72142  1  0  0  0
 73 74  2  0  0  0
 73 75  1  0  0  0
 73143  1  0  0  0
 74 77  1  0  0  0
 75 76  2  0  0  0
 75 79  1  0  0  0
 76 81  1  0  0  0
 77 78  2  0  0  0
 77144  1  0  0  0
 78 80  1  0  0  0
 78145  1  0  0  0
 79146  1  0  0  0
 79147  1  0  0  0
 79148  1  0  0  0
 80149  1  0  0  0
 80150  1  0  0  0
 81151  1  0  0  0
M  ISO  4   1 100  68 101  80 101  81 100
M  END
> <chiral flag>
0

> <version>
0

> <s_m_source_file>
/data/baiqing/PycharmProjects/Reinvent-master-3.2/result/LINK_invent/BTK/process_docking_weight1_custom_product_contain_oxygen_bond_distance_aromatic_linkinvent_7_9_3/rearranged_h_0023.sdf

> <i_m_source_file_index>
46

> <r_mmod_Potential_Energy-OPLS-2005>
411.703643798828

> <r_mmod_Stretch_Energy-OPLS-2005>
203.301803588867

> <r_mmod_Bend_Energy-OPLS-2005>
266.537353515625

> <r_mmod_Torsional_Energy-OPLS-2005>
229.234878540039

> <r_mmod_Improper_Torsional_Energy-OPLS-2005>
3.86725115776062

> <r_mmod_Van_der_Waal_Energy-OPLS-2005>
136.751403808594

> <r_mmod_Electrostatic_Energy-OPLS-2005>
-387.732421875

> <r_mmod_Solvation_Energy-OPLS-2005>
-205.407867431641

> <b_mmod_Minimization_Converged-OPLS-2005>
0

> <r_mmod_RMS_Derivative-OPLS-2005>
0.580125510692596

$$$$
46
                    3D
 Structure written by MMmdl.
158167  0  0  1  0            999 V2000
  -30.6604  -14.5261   20.5399 C   0  0  0  0  0  0
  -30.4287  -12.3283   19.4355 C   0  0  0  0  0  0
  -29.5004  -12.5046   18.2144 C   0  0  0  0  0  0
  -28.0207  -12.3598   18.6237 C   0  0  0  0  0  0
  -27.6595  -13.2073   19.8730 C   0  0  2  0  0  0
  -28.7000  -13.0035   20.9974 C   0  0  0  0  0  0
  -25.2582  -13.8160   20.5681 C   0  0  0  0  0  0
  -24.1834  -13.0437   20.9177 C   0  0  0  0  0  0
  -24.6388  -11.6904   20.8733 C   0  0  0  0  0  0
  -23.9055  -10.4292   21.0403 C   0  0  0  0  0  0
  -24.3610   -9.4208   21.9181 C   0  0  0  0  0  0
  -23.6288   -8.2243   22.0751 C   0  0  0  0  0  0
  -22.4271   -8.0281   21.3543 C   0  0  0  0  0  0
  -21.9904   -9.0253   20.4646 C   0  0  0  0  0  0
  -22.7229  -10.2133   20.3053 C   0  0  0  0  0  0
  -21.6852   -6.0735   22.5280 C   0  0  0  0  0  0
  -21.4013   -6.5639   23.8213 C   0  0  0  0  0  0
  -21.3659   -5.6792   24.9175 C   0  0  0  0  0  0
  -21.6045   -4.3054   24.7225 C   0  0  0  0  0  0
  -21.8819   -3.8147   23.4344 C   0  0  0  0  0  0
  -21.9192   -4.6964   22.3403 C   0  0  0  0  0  0
  -22.7860  -13.5238   21.1848 C   0  0  0  0  0  0
  -22.1661   -4.2151   21.0981 F   0  0  0  0  0  0
  -21.5629   -3.4537   25.7738 F   0  0  0  0  0  0
  -30.0276  -13.3218   20.4463 N   0  0  0  0  0  0
  -26.3011  -12.9326   20.3349 N   0  0  0  0  0  0
  -25.9314  -11.6487   20.5758 N   0  0  0  0  0  0
  -22.0500  -12.8231   22.0405 N   0  0  0  0  0  0
  -25.4315  -15.1878   20.4101 N   0  0  0  0  0  0
  -31.8041  -14.6987   20.1074 O   0  0  0  0  0  0
  -21.6638   -6.8877   21.4241 O   0  0  0  0  0  0
  -22.3548  -14.5547   20.6700 O   0  0  0  0  0  0
  -24.6177  -31.8651   23.2069 C   0  0  0  0  0  0
  -25.9061  -32.4805   23.8372 C   0  0  1  0  0  0
  -27.2349  -27.3983   20.0955 C   0  0  0  0  0  0
  -25.5910  -33.8604   24.2307 N   0  0  0  0  0  0
  -23.4068  -30.4883   21.5479 C   0  0  2  0  0  0
  -24.8511  -28.9467   20.1141 C   0  0  0  0  0  0
  -22.7425  -29.4647   22.4972 C   0  0  0  0  0  0
  -18.0277  -28.1380   22.8493 C   0  0  0  0  0  0
  -24.1489  -36.7304   23.2639 C   0  0  0  0  0  0
  -25.9383  -30.8189   21.3641 C   0  0  0  0  0  0
  -26.0125  -29.4498   20.7114 C   0  0  0  0  0  0
  -27.2024  -28.6820   20.6995 C   0  0  0  0  0  0
  -26.0461  -26.9113   19.5043 C   0  0  0  0  0  0
  -24.8643  -27.6781   19.5094 C   0  0  0  0  0  0
  -23.6160  -29.8194   20.1629 C   0  0  0  0  0  0
  -25.4110  -36.3103   24.0337 C   0  0  1  0  0  0
  -20.5870  -28.3672   23.1311 C   0  0  2  0  0  0
  -20.6768  -26.9405   22.5416 C   0  0  0  0  0  0
  -19.5744  -26.6386   21.5214 C   0  0  0  0  0  0
  -18.1924  -26.7926   22.1626 C   0  0  0  0  0  0
  -19.1526  -28.8842   23.2898 C   0  0  0  0  0  0
  -18.9454  -30.1448   23.8909 C   0  0  0  0  0  0
  -17.6456  -30.6587   24.0564 C   0  0  0  0  0  0
  -25.9041  -34.9468   23.5120 C   0  0  0  0  0  0
  -16.5345  -29.9090   23.6325 C   0  0  0  0  0  0
  -16.7266  -28.6506   23.0350 C   0  0  0  0  0  0
  -26.4477  -31.6597   25.0713 C   0  0  0  0  0  0
  -25.3739  -31.3720   26.1462 C   0  0  0  0  0  0
  -27.0302  -30.3035   24.6106 C   0  0  0  0  0  0
  -27.6051  -32.4319   25.7476 C   0  0  0  0  0  0
  -27.5582  -37.1804   24.8464 C   0  0  0  0  0  0
  -21.4150  -29.3035   22.3713 N   0  0  0  0  0  0
  -26.4293  -37.3791   23.9412 N   0  0  0  0  0  0
  -24.6727  -31.0728   22.0979 N   0  0  0  0  0  0
  -23.4186  -28.8193   23.3026 O   0  0  0  0  0  0
  -28.4192  -26.6748   20.1233 O   0  0  0  0  0  0
  -26.5601  -34.8927   22.4682 O   0  0  0  0  0  0
  -23.5364  -32.1415   23.7449 O   0  0  0  0  0  0
  -30.9629  -18.9947   19.8280 C   0  0  0  0  0  0
  -30.8830  -17.5866   19.9243 C   0  0  0  0  0  0
  -29.2239  -17.8217   21.6670 C   0  0  0  0  0  0
  -30.1990  -19.8497   20.6587 C   0  0  0  0  0  0
  -29.3070  -19.2399   21.5811 C   0  0  0  0  0  0
  -30.0275  -16.9699   20.8681 C   0  0  0  0  0  0
  -29.4038  -23.6345   21.1377 C   0  0  0  0  0  0
  -28.4014  -22.7280   19.5713 C   0  0  0  0  0  0
  -28.2498  -24.1165   20.2341 C   0  0  2  0  0  0
  -28.4625  -20.0825   22.5209 C   0  0  0  0  0  0
  -30.5187  -21.3659   20.6241 C   0  0  0  0  0  0
  -28.5590  -25.4113   19.4275 C   0  0  0  0  0  0
  -29.4537  -22.3876   20.5464 N   0  0  0  0  0  0
  -29.9010  -15.5404   21.0260 N   0  0  0  0  0  0
  -30.0937  -24.1175   22.0122 O   0  0  0  0  0  0
  -31.4729  -12.4353   19.1364 H   0  0  0  0  0  0
  -30.3389  -11.3205   19.8438 H   0  0  0  0  0  0
  -29.7476  -11.7725   17.4444 H   0  0  0  0  0  0
  -29.6627  -13.4862   17.7660 H   0  0  0  0  0  0
  -27.8367  -11.3044   18.8277 H   0  0  0  0  0  0
  -27.3706  -12.6242   17.7889 H   0  0  0  0  0  0
  -27.6978  -14.2526   19.5655 H   0  0  0  0  0  0
  -28.6853  -11.9694   21.3453 H   0  0  0  0  0  0
  -28.4556  -13.6072   21.8725 H   0  0  0  0  0  0
  -25.2758   -9.5687   22.4752 H   0  0  0  0  0  0
  -24.0003   -7.4633   22.7467 H   0  0  0  0  0  0
  -21.0837   -8.8769   19.8951 H   0  0  0  0  0  0
  -22.3688  -10.9671   19.6161 H   0  0  0  0  0  0
  -21.2004   -7.6147   23.9718 H   0  0  0  0  0  0
  -21.1482   -6.0521   25.9079 H   0  0  0  0  0  0
  -22.0597   -2.7610   23.2844 H   0  0  0  0  0  0
  -22.4112  -11.9888   22.4790 H   0  0  0  0  0  0
  -21.1120  -13.1261   22.2613 H   0  0  0  0  0  0
  -24.6660  -15.8443   20.5184 H   0  0  0  0  0  0
  -26.2859  -15.6268   20.0904 H   0  0  0  0  0  0
  -26.7129  -32.5499   23.1129 H   0  0  0  0  0  0
  -25.0082  -33.9764   25.0467 H   0  0  0  0  0  0
  -22.6969  -31.3061   21.4077 H   0  0  0  0  0  0
  -23.3751  -35.9639   23.3309 H   0  0  0  0  0  0
  -24.3583  -36.8909   22.2051 H   0  0  0  0  0  0
  -23.7240  -37.6512   23.6643 H   0  0  0  0  0  0
  -26.0563  -31.5834   20.5948 H   0  0  0  0  0  0
  -26.8246  -30.8706   21.9850 H   0  0  0  0  0  0
  -28.0997  -29.0697   21.1618 H   0  0  0  0  0  0
  -26.0015  -25.9346   19.0468 H   0  0  0  0  0  0
  -23.9680  -27.2806   19.0528 H   0  0  0  0  0  0
  -23.7285  -30.5940   19.4033 H   0  0  0  0  0  0
  -22.7379  -29.2430   19.8658 H   0  0  0  0  0  0
  -25.1288  -36.1963   25.0830 H   0  0  0  0  0  0
  -20.9963  -28.3239   24.1431 H   0  0  0  0  0  0
  -20.5674  -26.2280   23.3607 H   0  0  0  0  0  0
  -21.6637  -26.7451   22.1204 H   0  0  0  0  0  0
  -19.6907  -25.6302   21.1236 H   0  0  0  0  0  0
  -19.6684  -27.3204   20.6751 H   0  0  0  0  0  0
  -17.4196  -26.6680   21.4026 H   0  0  0  0  0  0
  -18.0321  -26.0065   22.9019 H   0  0  0  0  0  0
  -19.7931  -30.7259   24.2285 H   0  0  0  0  0  0
  -17.5013  -31.6268   24.5166 H   0  0  0  0  0  0
  -15.5347  -30.2999   23.7639 H   0  0  0  0  0  0
  -15.8667  -28.0830   22.7057 H   0  0  0  0  0  0
  -24.5910  -30.7065   25.7805 H   0  0  0  0  0  0
  -24.8930  -32.2880   26.4903 H   0  0  0  0  0  0
  -25.8088  -30.8897   27.0225 H   0  0  0  0  0  0
  -26.2847  -29.6800   24.1154 H   0  0  0  0  0  0
  -27.4058  -29.7268   25.4569 H   0  0  0  0  0  0
  -27.8693  -30.4345   23.9268 H   0  0  0  0  0  0
  -27.2671  -33.3615   26.2067 H   0  0  0  0  0  0
  -28.3854  -32.6883   25.0297 H   0  0  0  0  0  0
  -28.0727  -31.8433   26.5380 H   0  0  0  0  0  0
  -28.2601  -38.0100   24.7516 H   0  0  0  0  0  0
  -28.1075  -36.2632   24.6283 H   0  0  0  0  0  0
  -27.2302  -37.1450   25.8868 H   0  0  0  0  0  0
  -20.9313  -29.8757   21.6935 H   0  0  0  0  0  0
  -26.0180  -38.2870   24.1413 H   0  0  0  0  0  0
  -31.6618  -19.4193   19.1207 H   0  0  0  0  0  0
  -31.5019  -16.9979   19.2634 H   0  0  0  0  0  0
  -28.5464  -17.3798   22.3850 H   0  0  0  0  0  0
  -28.7533  -22.7714   18.5386 H   0  0  0  0  0  0
  -27.5059  -22.1088   19.6505 H   0  0  0  0  0  0
  -27.2971  -24.1762   20.7602 H   0  0  0  0  0  0
  -27.9813  -19.4711   23.2847 H   0  0  0  0  0  0
  -27.6803  -20.6010   21.9661 H   0  0  0  0  0  0
  -29.0732  -20.8267   23.0328 H   0  0  0  0  0  0
  -31.1900  -21.5623   19.7875 H   0  0  0  0  0  0
  -31.1165  -21.5713   21.5137 H   0  0  0  0  0  0
  -28.0102  -25.4180   18.4863 H   0  0  0  0  0  0
  -29.6005  -25.3794   19.1047 H   0  0  0  0  0  0
  -29.0501  -15.2305   21.4699 H   0  0  0  0  0  0
  1 25  1  0  0  0
  1 30  2  0  0  0
  1 84  1  0  0  0
  2  3  1  0  0  0
  2 25  1  0  0  0
  2 86  1  0  0  0
  2 87  1  0  0  0
  3  4  1  0  0  0
  3 88  1  0  0  0
  3 89  1  0  0  0
  4  5  1  0  0  0
  4 90  1  0  0  0
  4 91  1  0  0  0
  5  6  1  0  0  0
  5 26  1  0  0  0
  5 92  1  0  0  0
  6 25  1  0  0  0
  6 93  1  0  0  0
  6 94  1  0  0  0
  7  8  2  0  0  0
  7 26  1  0  0  0
  7 29  1  0  0  0
  8  9  1  0  0  0
  8 22  1  0  0  0
  9 10  1  0  0  0
  9 27  2  0  0  0
 10 11  2  0  0  0
 10 15  1  0  0  0
 11 12  1  0  0  0
 11 95  1  0  0  0
 12 13  2  0  0  0
 12 96  1  0  0  0
 13 14  1  0  0  0
 13 31  1  0  0  0
 14 15  2  0  0  0
 14 97  1  0  0  0
 15 98  1  0  0  0
 16 17  2  0  0  0
 16 21  1  0  0  0
 16 31  1  0  0  0
 17 18  1  0  0  0
 17 99  1  0  0  0
 18 19  2  0  0  0
 18100  1  0  0  0
 19 20  1  0  0  0
 19 24  1  0  0  0
 20 21  2  0  0  0
 20101  1  0  0  0
 21 23  1  0  0  0
 22 28  1  0  0  0
 22 32  2  0  0  0
 26 27  1  0  0  0
 28102  1  0  0  0
 28103  1  0  0  0
 29104  1  0  0  0
 29105  1  0  0  0
 33 34  1  0  0  0
 33 66  1  0  0  0
 33 70  2  0  0  0
 34 36  1  0  0  0
 34 59  1  0  0  0
 34106  1  0  0  0
 35 44  2  0  0  0
 35 45  1  0  0  0
 35 68  1  0  0  0
 36 56  1  0  0  0
 36107  1  0  0  0
 37 39  1  0  0  0
 37 47  1  0  0  0
 37 66  1  0  0  0
 37108  1  0  0  0
 38 43  2  0  0  0
 38 46  1  0  0  0
 38 47  1  0  0  0
 39 64  1  0  0  0
 39 67  2  0  0  0
 40 52  1  0  0  0
 40 53  2  0  0  0
 40 58  1  0  0  0
 41109  1  0  0  0
 41110  1  0  0  0
 41111  1  0  0  0
 41 48  1  0  0  0
 42 43  1  0  0  0
 42 66  1  0  0  0
 42112  1  0  0  0
 42113  1  0  0  0
 43 44  1  0  0  0
 44114  1  0  0  0
 45 46  2  0  0  0
 45115  1  0  0  0
 46116  1  0  0  0
 47117  1  0  0  0
 47118  1  0  0  0
 48 56  1  0  0  0
 48 65  1  0  0  0
 48119  1  0  0  0
 49 50  1  0  0  0
 49 53  1  0  0  0
 49 64  1  0  0  0
 49120  1  0  0  0
 50 51  1  0  0  0
 50121  1  0  0  0
 50122  1  0  0  0
 51 52  1  0  0  0
 51123  1  0  0  0
 51124  1  0  0  0
 52125  1  0  0  0
 52126  1  0  0  0
 53 54  1  0  0  0
 54 55  2  0  0  0
 54127  1  0  0  0
 55 57  1  0  0  0
 55128  1  0  0  0
 56 69  2  0  0  0
 57 58  2  0  0  0
 57129  1  0  0  0
 58130  1  0  0  0
 59 60  1  0  0  0
 59 61  1  0  0  0
 59 62  1  0  0  0
 60131  1  0  0  0
 60132  1  0  0  0
 60133  1  0  0  0
 61134  1  0  0  0
 61135  1  0  0  0
 61136  1  0  0  0
 62137  1  0  0  0
 62138  1  0  0  0
 62139  1  0  0  0
 63 65  1  0  0  0
 63140  1  0  0  0
 63141  1  0  0  0
 63142  1  0  0  0
 64143  1  0  0  0
 65144  1  0  0  0
 68 82  1  0  0  0
 71 72  2  0  0  0
 71 74  1  0  0  0
 71145  1  0  0  0
 72 76  1  0  0  0
 72146  1  0  0  0
 73 75  1  0  0  0
 73 76  2  0  0  0
 73147  1  0  0  0
 74 75  2  0  0  0
 74 81  1  0  0  0
 75 80  1  0  0  0
 76 84  1  0  0  0
 77 79  1  0  0  0
 77 83  1  0  0  0
 77 85  2  0  0  0
 78 79  1  0  0  0
 78 83  1  0  0  0
 78148  1  0  0  0
 78149  1  0  0  0
 79 82  1  0  0  0
 79150  1  0  0  0
 80151  1  0  0  0
 80152  1  0  0  0
 80153  1  0  0  0
 81 83  1  0  0  0
 81154  1  0  0  0
 81155  1  0  0  0
 82156  1  0  0  0
 82157  1  0  0  0
 84158  1  0  0  0
M  ISO  4   1 100  68 101  82 101  84 100
M  END
> <chiral flag>
0

> <version>
0

> <s_m_source_file>
/data/baiqing/PycharmProjects/Reinvent-master-3.2/result/LINK_invent/BTK/process_docking_weight1_custom_product_contain_oxygen_bond_distance_aromatic_linkinvent_7_9_3/rearranged_h_0023.sdf

> <i_m_source_file_index>
47

> <r_mmod_Potential_Energy-OPLS-2005>
-54.5533332824707

> <r_mmod_Stretch_Energy-OPLS-2005>
46.8459701538086

> <r_mmod_Bend_Energy-OPLS-2005>
126.557182312012

> <r_mmod_Torsional_Energy-OPLS-2005>
217.60856628418

> <r_mmod_Improper_Torsional_Energy-OPLS-2005>
4.87480878829956

> <r_mmod_Van_der_Waal_Energy-OPLS-2005>
143.752349853516

> <r_mmod_Electrostatic_Energy-OPLS-2005>
-385.939331054688

> <r_mmod_Solvation_Energy-OPLS-2005>
-227.495132446289

> <b_mmod_Minimization_Converged-OPLS-2005>
0

> <r_mmod_RMS_Derivative-OPLS-2005>
0.500608623027802

$$$$
47
                    3D
 Structure written by MMmdl.
164173  0  0  1  0            999 V2000
  -30.6932  -14.4142   20.5501 C   0  0  0  0  0  0
  -30.4206  -12.2569   19.4255 C   0  0  0  0  0  0
  -29.5004  -12.5024   18.2098 C   0  0  0  0  0  0
  -28.0171  -12.3739   18.6113 C   0  0  0  0  0  0
  -27.6677  -13.1946   19.8831 C   0  0  2  0  0  0
  -28.7051  -12.9387   21.0043 C   0  0  0  0  0  0
  -25.2594  -13.8126   20.5652 C   0  0  0  0  0  0
  -24.1831  -13.0417   20.9145 C   0  0  0  0  0  0
  -24.6372  -11.6884   20.8713 C   0  0  0  0  0  0
  -23.9040  -10.4281   21.0397 C   0  0  0  0  0  0
  -24.3602   -9.4207   21.9176 C   0  0  0  0  0  0
  -23.6280   -8.2242   22.0750 C   0  0  0  0  0  0
  -22.4270   -8.0268   21.3537 C   0  0  0  0  0  0
  -21.9897   -9.0238   20.4642 C   0  0  0  0  0  0
  -22.7216  -10.2122   20.3045 C   0  0  0  0  0  0
  -21.6856   -6.0726   22.5282 C   0  0  0  0  0  0
  -21.4014   -6.5632   23.8211 C   0  0  0  0  0  0
  -21.3656   -5.6787   24.9174 C   0  0  0  0  0  0
  -21.6049   -4.3049   24.7229 C   0  0  0  0  0  0
  -21.8818   -3.8139   23.4347 C   0  0  0  0  0  0
  -21.9190   -4.6956   22.3404 C   0  0  0  0  0  0
  -22.7860  -13.5234   21.1824 C   0  0  0  0  0  0
  -22.1661   -4.2138   21.0985 F   0  0  0  0  0  0
  -21.5628   -3.4537   25.7744 F   0  0  0  0  0  0
  -30.0483  -13.2226   20.4669 N   0  0  0  0  0  0
  -26.3048  -12.9284   20.3381 N   0  0  0  0  0  0
  -25.9299  -11.6451   20.5739 N   0  0  0  0  0  0
  -22.0507  -12.8239   22.0398 N   0  0  0  0  0  0
  -25.4305  -15.1840   20.4076 N   0  0  0  0  0  0
  -31.8144  -14.6241   20.0798 O   0  0  0  0  0  0
  -21.6632   -6.8871   21.4243 O   0  0  0  0  0  0
  -22.3559  -14.5545   20.6677 O   0  0  0  0  0  0
  -24.6107  -31.8700   23.2136 C   0  0  0  0  0  0
  -25.9013  -32.4831   23.8422 C   0  0  1  0  0  0
  -27.2480  -27.4610   20.0843 C   0  0  0  0  0  0
  -25.5864  -33.8633   24.2329 N   0  0  0  0  0  0
  -23.3961  -30.4914   21.5544 C   0  0  2  0  0  0
  -24.8425  -28.9549   20.1216 C   0  0  0  0  0  0
  -22.7382  -29.4668   22.5049 C   0  0  0  0  0  0
  -18.0259  -28.1360   22.8505 C   0  0  0  0  0  0
  -24.1480  -36.7348   23.2637 C   0  0  0  0  0  0
  -25.9227  -30.8389   21.3667 C   0  0  0  0  0  0
  -25.9978  -29.4743   20.7144 C   0  0  0  0  0  0
  -27.1959  -28.7324   20.6953 C   0  0  0  0  0  0
  -26.0688  -26.9433   19.4954 C   0  0  0  0  0  0
  -24.8715  -27.6862   19.5142 C   0  0  0  0  0  0
  -23.6018  -29.8171   20.1710 C   0  0  0  0  0  0
  -25.4098  -36.3124   24.0335 C   0  0  1  0  0  0
  -20.5850  -28.3643   23.1350 C   0  0  2  0  0  0
  -20.6755  -26.9386   22.5442 C   0  0  0  0  0  0
  -19.5735  -26.6374   21.5233 C   0  0  0  0  0  0
  -18.1908  -26.7910   22.1637 C   0  0  0  0  0  0
  -19.1508  -28.8826   23.2921 C   0  0  0  0  0  0
  -18.9434  -30.1439   23.8920 C   0  0  0  0  0  0
  -17.6433  -30.6578   24.0568 C   0  0  0  0  0  0
  -25.9025  -34.9484   23.5138 C   0  0  0  0  0  0
  -16.5328  -29.9077   23.6322 C   0  0  0  0  0  0
  -16.7250  -28.6494   23.0351 C   0  0  0  0  0  0
  -26.4446  -31.6618   25.0755 C   0  0  0  0  0  0
  -25.3717  -31.3741   26.1518 C   0  0  0  0  0  0
  -27.0283  -30.3051   24.6162 C   0  0  0  0  0  0
  -27.6022  -32.4353   25.7498 C   0  0  0  0  0  0
  -27.5577  -37.1833   24.8452 C   0  0  0  0  0  0
  -21.4119  -29.3014   22.3772 N   0  0  0  0  0  0
  -26.4289  -37.3805   23.9398 N   0  0  0  0  0  0
  -24.6608  -31.0815   22.1022 N   0  0  0  0  0  0
  -23.4174  -28.8231   23.3093 O   0  0  0  0  0  0
  -28.4792  -26.8399   20.0691 O   0  0  0  0  0  0
  -26.5599  -34.8932   22.4708 O   0  0  0  0  0  0
  -23.5313  -32.1448   23.7540 O   0  0  0  0  0  0
  -31.6216  -19.3281   22.0156 C   0  0  0  0  0  0
  -30.1810  -20.3618   20.3479 C   0  0  0  0  0  0
  -31.1842  -18.0509   21.6050 C   0  0  0  0  0  0
  -29.7486  -19.0908   19.9379 C   0  0  0  0  0  0
  -31.1143  -20.4943   21.3973 C   0  0  0  0  0  0
  -30.2372  -17.9296   20.5656 C   0  0  0  0  0  0
  -30.2886  -23.7659   20.8714 C   0  0  0  0  0  0
  -28.1931  -22.9960   22.7971 C   0  0  0  0  0  0
  -27.8482  -23.8704   21.5734 C   0  0  0  0  0  0
  -29.7033  -22.9175   23.0978 C   0  0  0  0  0  0
  -29.0439  -24.6750   21.0156 C   0  0  2  0  0  0
  -31.5871  -21.8764   21.8433 C   0  0  0  0  0  0
  -29.7381  -16.5926   20.0467 C   0  0  0  0  0  0
  -28.6486  -25.4621   19.7350 C   0  0  0  0  0  0
  -30.5174  -22.8874   21.8766 N   0  0  0  0  0  0
  -29.8998  -15.4270   20.9135 N   0  0  0  0  0  0
  -31.0164  -23.8359   19.8752 O   0  0  0  0  0  0
  -31.4700  -12.3364   19.1364 H   0  0  0  0  0  0
  -30.2940  -11.2390   19.8000 H   0  0  0  0  0  0
  -29.7345  -11.7956   17.4126 H   0  0  0  0  0  0
  -29.6865  -13.4966   17.8005 H   0  0  0  0  0  0
  -27.8127  -11.3177   18.7849 H   0  0  0  0  0  0
  -27.3759  -12.6742   17.7816 H   0  0  0  0  0  0
  -27.7201  -14.2463   19.6028 H   0  0  0  0  0  0
  -28.6586  -11.8985   21.3288 H   0  0  0  0  0  0
  -28.4799  -13.5284   21.8946 H   0  0  0  0  0  0
  -25.2755   -9.5678   22.4740 H   0  0  0  0  0  0
  -23.9987   -7.4636   22.7468 H   0  0  0  0  0  0
  -21.0823   -8.8744   19.8953 H   0  0  0  0  0  0
  -22.3666  -10.9649   19.6138 H   0  0  0  0  0  0
  -21.2007   -7.6142   23.9708 H   0  0  0  0  0  0
  -21.1484   -6.0522   25.9074 H   0  0  0  0  0  0
  -22.0600   -2.7602   23.2857 H   0  0  0  0  0  0
  -22.4136  -11.9911   22.4798 H   0  0  0  0  0  0
  -21.1113  -13.1237   22.2592 H   0  0  0  0  0  0
  -24.6573  -15.8332   20.5039 H   0  0  0  0  0  0
  -26.2834  -15.6314   20.1001 H   0  0  0  0  0  0
  -26.7092  -32.5540   23.1200 H   0  0  0  0  0  0
  -24.9965  -33.9798   25.0440 H   0  0  0  0  0  0
  -22.6831  -31.3072   21.4155 H   0  0  0  0  0  0
  -23.3722  -35.9702   23.3301 H   0  0  0  0  0  0
  -24.3581  -36.8968   22.2054 H   0  0  0  0  0  0
  -23.7255  -37.6563   23.6657 H   0  0  0  0  0  0
  -26.0379  -31.6070   20.6006 H   0  0  0  0  0  0
  -26.8091  -30.8871   21.9878 H   0  0  0  0  0  0
  -28.0918  -29.1384   21.1451 H   0  0  0  0  0  0
  -26.0441  -25.9898   18.9924 H   0  0  0  0  0  0
  -23.9833  -27.2791   19.0519 H   0  0  0  0  0  0
  -23.7003  -30.5872   19.4053 H   0  0  0  0  0  0
  -22.7276  -29.2300   19.8840 H   0  0  0  0  0  0
  -25.1277  -36.1997   25.0828 H   0  0  0  0  0  0
  -20.9929  -28.3202   24.1478 H   0  0  0  0  0  0
  -20.5657  -26.2256   23.3627 H   0  0  0  0  0  0
  -21.6627  -26.7439   22.1236 H   0  0  0  0  0  0
  -19.6895  -25.6293   21.1239 H   0  0  0  0  0  0
  -19.6660  -27.3213   20.6785 H   0  0  0  0  0  0
  -17.4183  -26.6671   21.4029 H   0  0  0  0  0  0
  -18.0294  -26.0044   22.9023 H   0  0  0  0  0  0
  -19.7914  -30.7249   24.2295 H   0  0  0  0  0  0
  -17.4989  -31.6257   24.5163 H   0  0  0  0  0  0
  -15.5331  -30.2980   23.7632 H   0  0  0  0  0  0
  -15.8655  -28.0815   22.7052 H   0  0  0  0  0  0
  -24.5857  -30.7123   25.7861 H   0  0  0  0  0  0
  -24.8950  -32.2908   26.4998 H   0  0  0  0  0  0
  -25.8065  -30.8880   27.0259 H   0  0  0  0  0  0
  -26.2844  -29.6823   24.1178 H   0  0  0  0  0  0
  -27.3987  -29.7290   25.4651 H   0  0  0  0  0  0
  -27.8707  -30.4362   23.9368 H   0  0  0  0  0  0
  -27.2624  -33.3625   26.2132 H   0  0  0  0  0  0
  -28.3781  -32.6969   25.0288 H   0  0  0  0  0  0
  -28.0755  -31.8461   26.5368 H   0  0  0  0  0  0
  -28.2595  -38.0125   24.7474 H   0  0  0  0  0  0
  -28.1063  -36.2654   24.6285 H   0  0  0  0  0  0
  -27.2302  -37.1513   25.8857 H   0  0  0  0  0  0
  -20.9290  -29.8707   21.6964 H   0  0  0  0  0  0
  -26.0177  -38.2887   24.1371 H   0  0  0  0  0  0
  -32.3525  -19.4043   22.8088 H   0  0  0  0  0  0
  -29.7888  -21.2295   19.8383 H   0  0  0  0  0  0
  -31.5855  -17.1685   22.0846 H   0  0  0  0  0  0
  -29.0377  -19.0108   19.1273 H   0  0  0  0  0  0
  -27.8078  -21.9887   22.6300 H   0  0  0  0  0  0
  -27.6719  -23.3674   23.6807 H   0  0  0  0  0  0
  -27.0345  -24.5528   21.8252 H   0  0  0  0  0  0
  -27.4597  -23.2254   20.7845 H   0  0  0  0  0  0
  -29.8995  -22.0509   23.7307 H   0  0  0  0  0  0
  -30.0117  -23.7890   23.6783 H   0  0  0  0  0  0
  -29.3350  -25.4071   21.7706 H   0  0  0  0  0  0
  -32.3980  -22.1870   21.1815 H   0  0  0  0  0  0
  -32.0398  -21.8052   22.8333 H   0  0  0  0  0  0
  -28.6690  -16.6851   19.8482 H   0  0  0  0  0  0
  -30.1912  -16.4242   19.0682 H   0  0  0  0  0  0
  -29.4386  -25.4511   18.9852 H   0  0  0  0  0  0
  -27.8048  -24.9934   19.2374 H   0  0  0  0  0  0
  -29.0602  -15.1459   21.3962 H   0  0  0  0  0  0
  1 25  1  0  0  0
  1 30  2  0  0  0
  1 86  1  0  0  0
  2  3  1  0  0  0
  2 25  1  0  0  0
  2 88  1  0  0  0
  2 89  1  0  0  0
  3  4  1  0  0  0
  3 90  1  0  0  0
  3 91  1  0  0  0
  4  5  1  0  0  0
  4 92  1  0  0  0
  4 93  1  0  0  0
  5  6  1  0  0  0
  5 26  1  0  0  0
  5 94  1  0  0  0
  6 25  1  0  0  0
  6 95  1  0  0  0
  6 96  1  0  0  0
  7  8  2  0  0  0
  7 26  1  0  0  0
  7 29  1  0  0  0
  8  9  1  0  0  0
  8 22  1  0  0  0
  9 10  1  0  0  0
  9 27  2  0  0  0
 10 11  2  0  0  0
 10 15  1  0  0  0
 11 12  1  0  0  0
 11 97  1  0  0  0
 12 13  2  0  0  0
 12 98  1  0  0  0
 13 14  1  0  0  0
 13 31  1  0  0  0
 14 15  2  0  0  0
 14 99  1  0  0  0
 15100  1  0  0  0
 16 17  2  0  0  0
 16 21  1  0  0  0
 16 31  1  0  0  0
 17 18  1  0  0  0
 17101  1  0  0  0
 18 19  2  0  0  0
 18102  1  0  0  0
 19 20  1  0  0  0
 19 24  1  0  0  0
 20 21  2  0  0  0
 20103  1  0  0  0
 21 23  1  0  0  0
 22 28  1  0  0  0
 22 32  2  0  0  0
 26 27  1  0  0  0
 28104  1  0  0  0
 28105  1  0  0  0
 29106  1  0  0  0
 29107  1  0  0  0
 33 34  1  0  0  0
 33 66  1  0  0  0
 33 70  2  0  0  0
 34 36  1  0  0  0
 34 59  1  0  0  0
 34108  1  0  0  0
 35 44  2  0  0  0
 35 45  1  0  0  0
 35 68  1  0  0  0
 36 56  1  0  0  0
 36109  1  0  0  0
 37 39  1  0  0  0
 37 47  1  0  0  0
 37 66  1  0  0  0
 37110  1  0  0  0
 38 43  2  0  0  0
 38 46  1  0  0  0
 38 47  1  0  0  0
 39 64  1  0  0  0
 39 67  2  0  0  0
 40 52  1  0  0  0
 40 53  2  0  0  0
 40 58  1  0  0  0
 41111  1  0  0  0
 41112  1  0  0  0
 41113  1  0  0  0
 41 48  1  0  0  0
 42 43  1  0  0  0
 42 66  1  0  0  0
 42114  1  0  0  0
 42115  1  0  0  0
 43 44  1  0  0  0
 44116  1  0  0  0
 45 46  2  0  0  0
 45117  1  0  0  0
 46118  1  0  0  0
 47119  1  0  0  0
 47120  1  0  0  0
 48 56  1  0  0  0
 48 65  1  0  0  0
 48121  1  0  0  0
 49 50  1  0  0  0
 49 53  1  0  0  0
 49 64  1  0  0  0
 49122  1  0  0  0
 50 51  1  0  0  0
 50123  1  0  0  0
 50124  1  0  0  0
 51 52  1  0  0  0
 51125  1  0  0  0
 51126  1  0  0  0
 52127  1  0  0  0
 52128  1  0  0  0
 53 54  1  0  0  0
 54 55  2  0  0  0
 54129  1  0  0  0
 55 57  1  0  0  0
 55130  1  0  0  0
 56 69  2  0  0  0
 57 58  2  0  0  0
 57131  1  0  0  0
 58132  1  0  0  0
 59 60  1  0  0  0
 59 61  1  0  0  0
 59 62  1  0  0  0
 60133  1  0  0  0
 60134  1  0  0  0
 60135  1  0  0  0
 61136  1  0  0  0
 61137  1  0  0  0
 61138  1  0  0  0
 62139  1  0  0  0
 62140  1  0  0  0
 62141  1  0  0  0
 63 65  1  0  0  0
 63142  1  0  0  0
 63143  1  0  0  0
 63144  1  0  0  0
 64145  1  0  0  0
 65146  1  0  0  0
 68 84  1  0  0  0
 71 73  2  0  0  0
 71 75  1  0  0  0
 71147  1  0  0  0
 72 74  1  0  0  0
 72 75  2  0  0  0
 72148  1  0  0  0
 73 76  1  0  0  0
 73149  1  0  0  0
 74 76  2  0  0  0
 74150  1  0  0  0
 75 82  1  0  0  0
 76 83  1  0  0  0
 77 81  1  0  0  0
 77 85  1  0  0  0
 77 87  2  0  0  0
 78 79  1  0  0  0
 78 80  1  0  0  0
 78151  1  0  0  0
 78152  1  0  0  0
 79 81  1  0  0  0
 79153  1  0  0  0
 79154  1  0  0  0
 80 85  1  0  0  0
 80155  1  0  0  0
 80156  1  0  0  0
 81 84  1  0  0  0
 81157  1  0  0  0
 82 85  1  0  0  0
 82158  1  0  0  0
 82159  1  0  0  0
 83 86  1  0  0  0
 83160  1  0  0  0
 83161  1  0  0  0
 84162  1  0  0  0
 84163  1  0  0  0
 86164  1  0  0  0
M  ISO  4   1 100  68 101  84 101  86 100
M  END
> <chiral flag>
0

> <version>
0

> <s_m_source_file>
/data/baiqing/PycharmProjects/Reinvent-master-3.2/result/LINK_invent/BTK/process_docking_weight1_custom_product_contain_oxygen_bond_distance_aromatic_linkinvent_7_9_3/rearranged_h_0023.sdf

> <i_m_source_file_index>
48

> <r_mmod_Potential_Energy-OPLS-2005>
-33.1264533996582

> <r_mmod_Stretch_Energy-OPLS-2005>
36.0101089477539

> <r_mmod_Bend_Energy-OPLS-2005>
111.816413879395

> <r_mmod_Torsional_Energy-OPLS-2005>
252.935836791992

> <r_mmod_Improper_Torsional_Energy-OPLS-2005>
10.6991901397705

> <r_mmod_Van_der_Waal_Energy-OPLS-2005>
171.931198120117

> <r_mmod_Electrostatic_Energy-OPLS-2005>
-392.871276855469

> <r_mmod_Solvation_Energy-OPLS-2005>
-234.895217895508

> <b_mmod_Minimization_Converged-OPLS-2005>
0

> <r_mmod_RMS_Derivative-OPLS-2005>
1.98900198936462

$$$$
48
                    3D
 Structure written by MMmdl.
152161  0  0  1  0            999 V2000
  -30.5963  -14.7025   20.4870 C   0  0  0  0  0  0
  -30.4473  -12.4260   19.4709 C   0  0  0  0  0  0
  -29.5173  -12.4949   18.2372 C   0  0  0  0  0  0
  -28.0391  -12.3294   18.6453 C   0  0  0  0  0  0
  -27.6494  -13.2186   19.8552 C   0  0  2  0  0  0
  -28.6921  -13.1038   20.9897 C   0  0  0  0  0  0
  -25.2545  -13.8170   20.5668 C   0  0  0  0  0  0
  -24.1810  -13.0432   20.9186 C   0  0  0  0  0  0
  -24.6372  -11.6912   20.8731 C   0  0  0  0  0  0
  -23.9046  -10.4289   21.0396 C   0  0  0  0  0  0
  -24.3596   -9.4208   21.9179 C   0  0  0  0  0  0
  -23.6272   -8.2243   22.0755 C   0  0  0  0  0  0
  -22.4263   -8.0271   21.3542 C   0  0  0  0  0  0
  -21.9890   -9.0236   20.4645 C   0  0  0  0  0  0
  -22.7218  -10.2115   20.3046 C   0  0  0  0  0  0
  -21.6860   -6.0717   22.5274 C   0  0  0  0  0  0
  -21.4018   -6.5625   23.8204 C   0  0  0  0  0  0
  -21.3662   -5.6787   24.9172 C   0  0  0  0  0  0
  -21.6044   -4.3048   24.7231 C   0  0  0  0  0  0
  -21.8822   -3.8130   23.4354 C   0  0  0  0  0  0
  -21.9188   -4.6941   22.3407 C   0  0  0  0  0  0
  -22.7831  -13.5224   21.1851 C   0  0  0  0  0  0
  -22.1665   -4.2123   21.0989 F   0  0  0  0  0  0
  -21.5621   -3.4540   25.7748 F   0  0  0  0  0  0
  -30.0053  -13.4619   20.4270 N   0  0  0  0  0  0
  -26.2966  -12.9349   20.3263 N   0  0  0  0  0  0
  -25.9300  -11.6513   20.5729 N   0  0  0  0  0  0
  -22.0465  -12.8219   22.0398 N   0  0  0  0  0  0
  -25.4245  -15.1894   20.4093 N   0  0  0  0  0  0
  -31.7599  -14.8696   20.1045 O   0  0  0  0  0  0
  -21.6643   -6.8859   21.4236 O   0  0  0  0  0  0
  -22.3519  -14.5533   20.6694 O   0  0  0  0  0  0
  -24.6318  -31.8577   23.2010 C   0  0  0  0  0  0
  -25.9156  -32.4766   23.8335 C   0  0  1  0  0  0
  -27.2315  -27.2817   20.1219 C   0  0  0  0  0  0
  -25.5945  -33.8566   24.2286 N   0  0  0  0  0  0
  -23.4254  -30.4870   21.5418 C   0  0  2  0  0  0
  -24.8719  -28.9304   20.1104 C   0  0  0  0  0  0
  -22.7477  -29.4687   22.4896 C   0  0  0  0  0  0
  -18.0307  -28.1403   22.8507 C   0  0  0  0  0  0
  -24.1493  -36.7275   23.2633 C   0  0  0  0  0  0
  -25.9711  -30.7756   21.3782 C   0  0  0  0  0  0
  -26.0424  -29.4000   20.7198 C   0  0  0  0  0  0
  -27.2212  -28.5872   20.7160 C   0  0  0  0  0  0
  -26.0350  -26.8783   19.4825 C   0  0  0  0  0  0
  -24.8718  -27.6753   19.4831 C   0  0  0  0  0  0
  -23.6408  -29.8169   20.1590 C   0  0  0  0  0  0
  -25.4120  -36.3088   24.0334 C   0  0  1  0  0  0
  -20.5916  -28.3752   23.1249 C   0  0  2  0  0  0
  -20.6798  -26.9464   22.5407 C   0  0  0  0  0  0
  -19.5769  -26.6428   21.5215 C   0  0  0  0  0  0
  -18.1952  -26.7956   22.1628 C   0  0  0  0  0  0
  -19.1560  -28.8882   23.2884 C   0  0  0  0  0  0
  -18.9483  -30.1477   23.8916 C   0  0  0  0  0  0
  -17.6479  -30.6600   24.0585 C   0  0  0  0  0  0
  -25.9056  -34.9457   23.5121 C   0  0  0  0  0  0
  -16.5370  -29.9109   23.6333 C   0  0  0  0  0  0
  -16.7290  -28.6522   23.0359 C   0  0  0  0  0  0
  -26.4514  -31.6571   25.0708 C   0  0  0  0  0  0
  -25.3755  -31.3703   26.1448 C   0  0  0  0  0  0
  -27.0357  -30.2983   24.6197 C   0  0  0  0  0  0
  -27.6082  -32.4284   25.7467 C   0  0  0  0  0  0
  -27.5590  -37.1807   24.8466 C   0  0  0  0  0  0
  -21.4196  -29.3093   22.3605 N   0  0  0  0  0  0
  -26.4297  -37.3790   23.9410 N   0  0  0  0  0  0
  -24.6950  -31.0570   22.0972 N   0  0  0  0  0  0
  -23.4165  -28.8220   23.2994 O   0  0  0  0  0  0
  -28.3460  -26.4102   20.1878 O   0  0  0  0  0  0
  -26.5619  -34.8938   22.4681 O   0  0  0  0  0  0
  -23.5490  -32.1374   23.7347 O   0  0  0  0  0  0
  -28.7390  -19.3914   21.3728 C   0  0  0  0  0  0
  -28.8185  -17.9674   21.4242 C   0  0  0  0  0  0
  -30.7396  -18.0247   20.0285 C   0  0  0  0  0  0
  -29.6261  -20.2337   20.6409 C   0  0  0  0  0  0
  -29.8226  -17.2205   20.7604 C   0  0  0  0  0  0
  -30.6386  -19.4634   19.9705 C   0  0  0  0  0  0
  -28.6193  -22.6407   21.2754 C   0  0  0  0  0  0
  -29.6989  -22.6002   19.5187 C   0  0  0  0  0  0
  -29.2123  -23.8192   20.4055 C   0  0  1  0  0  0
  -28.1629  -24.9426   19.9235 C   0  0  0  0  0  0
  -29.4898  -21.7156   20.6765 N   0  0  0  0  0  0
  -29.7722  -15.7439   20.8515 N   0  0  0  0  0  0
  -27.7187  -22.4913   22.0776 O   0  0  0  0  0  0
  -31.5755  -20.1284   19.2507 F   0  0  0  0  0  0
  -31.4866  -12.5669   19.1687 H   0  0  0  0  0  0
  -30.4017  -11.4417   19.9401 H   0  0  0  0  0  0
  -29.7954  -11.7209   17.5204 H   0  0  0  0  0  0
  -29.6520  -13.4498   17.7254 H   0  0  0  0  0  0
  -27.8855  -11.2794   18.8975 H   0  0  0  0  0  0
  -27.3865  -12.5356   17.7962 H   0  0  0  0  0  0
  -27.6578  -14.2470   19.4925 H   0  0  0  0  0  0
  -28.7157  -12.0882   21.3862 H   0  0  0  0  0  0
  -28.4214  -13.7436   21.8308 H   0  0  0  0  0  0
  -25.2728   -9.5701   22.4763 H   0  0  0  0  0  0
  -23.9983   -7.4647   22.7481 H   0  0  0  0  0  0
  -21.0816   -8.8738   19.8957 H   0  0  0  0  0  0
  -22.3655  -10.9643   19.6152 H   0  0  0  0  0  0
  -21.2025   -7.6137   23.9700 H   0  0  0  0  0  0
  -21.1483   -6.0522   25.9074 H   0  0  0  0  0  0
  -22.0599   -2.7588   23.2868 H   0  0  0  0  0  0
  -22.4072  -11.9873   22.4787 H   0  0  0  0  0  0
  -21.1078  -13.1235   22.2599 H   0  0  0  0  0  0
  -24.6525  -15.8392   20.5104 H   0  0  0  0  0  0
  -26.2641  -15.6258   20.0497 H   0  0  0  0  0  0
  -26.7227  -32.5425   23.1066 H   0  0  0  0  0  0
  -25.0135  -33.9673   25.0474 H   0  0  0  0  0  0
  -22.7245  -31.3115   21.3956 H   0  0  0  0  0  0
  -23.3776  -35.9591   23.3307 H   0  0  0  0  0  0
  -24.3583  -36.8872   22.2043 H   0  0  0  0  0  0
  -23.7226  -37.6474   23.6638 H   0  0  0  0  0  0
  -26.1147  -31.5366   20.6097 H   0  0  0  0  0  0
  -26.8473  -30.8193   22.0133 H   0  0  0  0  0  0
  -28.1168  -28.9395   21.2080 H   0  0  0  0  0  0
  -25.9667  -25.9218   18.9879 H   0  0  0  0  0  0
  -23.9740  -27.3084   19.0031 H   0  0  0  0  0  0
  -23.7597  -30.5894   19.3991 H   0  0  0  0  0  0
  -22.7578  -29.2494   19.8610 H   0  0  0  0  0  0
  -25.1315  -36.1951   25.0832 H   0  0  0  0  0  0
  -21.0059  -28.3379   24.1346 H   0  0  0  0  0  0
  -20.5727  -26.2368   23.3628 H   0  0  0  0  0  0
  -21.6662  -26.7511   22.1175 H   0  0  0  0  0  0
  -19.6927  -25.6351   21.1215 H   0  0  0  0  0  0
  -19.6667  -27.3255   20.6758 H   0  0  0  0  0  0
  -17.4221  -26.6739   21.4025 H   0  0  0  0  0  0
  -18.0330  -26.0072   22.8991 H   0  0  0  0  0  0
  -19.7962  -30.7302   24.2272 H   0  0  0  0  0  0
  -17.5038  -31.6272   24.5208 H   0  0  0  0  0  0
  -15.5372  -30.3013   23.7656 H   0  0  0  0  0  0
  -15.8692  -28.0847   22.7064 H   0  0  0  0  0  0
  -24.5930  -30.7032   25.7799 H   0  0  0  0  0  0
  -24.8933  -32.2864   26.4877 H   0  0  0  0  0  0
  -25.8103  -30.8890   27.0220 H   0  0  0  0  0  0
  -26.2949  -29.6695   24.1234 H   0  0  0  0  0  0
  -27.4042  -29.7270   25.4724 H   0  0  0  0  0  0
  -27.8833  -30.4217   23.9448 H   0  0  0  0  0  0
  -27.2717  -33.3596   26.2030 H   0  0  0  0  0  0
  -28.3907  -32.6801   25.0299 H   0  0  0  0  0  0
  -28.0728  -31.8391   26.5379 H   0  0  0  0  0  0
  -28.2645  -38.0074   24.7539 H   0  0  0  0  0  0
  -28.1062  -36.2619   24.6300 H   0  0  0  0  0  0
  -27.2292  -37.1475   25.8862 H   0  0  0  0  0  0
  -20.9371  -29.8774   21.6780 H   0  0  0  0  0  0
  -26.0189  -38.2877   24.1398 H   0  0  0  0  0  0
  -27.9444  -19.8535   21.9382 H   0  0  0  0  0  0
  -28.0714  -17.4425   22.0023 H   0  0  0  0  0  0
  -31.5402  -17.5425   19.4878 H   0  0  0  0  0  0
  -30.7357  -22.6756   19.1868 H   0  0  0  0  0  0
  -29.0332  -22.3618   18.6856 H   0  0  0  0  0  0
  -30.0657  -24.2797   20.9042 H   0  0  0  0  0  0
  -27.1983  -24.6645   20.3506 H   0  0  0  0  0  0
  -28.0370  -24.8378   18.8444 H   0  0  0  0  0  0
  -28.8938  -15.3925   21.2034 H   0  0  0  0  0  0
  1 25  1  0  0  0
  1 30  2  0  0  0
  1 82  1  0  0  0
  2  3  1  0  0  0
  2 25  1  0  0  0
  2 85  1  0  0  0
  2 86  1  0  0  0
  3  4  1  0  0  0
  3 87  1  0  0  0
  3 88  1  0  0  0
  4  5  1  0  0  0
  4 89  1  0  0  0
  4 90  1  0  0  0
  5  6  1  0  0  0
  5 26  1  0  0  0
  5 91  1  0  0  0
  6 25  1  0  0  0
  6 92  1  0  0  0
  6 93  1  0  0  0
  7  8  2  0  0  0
  7 26  1  0  0  0
  7 29  1  0  0  0
  8  9  1  0  0  0
  8 22  1  0  0  0
  9 10  1  0  0  0
  9 27  2  0  0  0
 10 11  2  0  0  0
 10 15  1  0  0  0
 11 12  1  0  0  0
 11 94  1  0  0  0
 12 13  2  0  0  0
 12 95  1  0  0  0
 13 14  1  0  0  0
 13 31  1  0  0  0
 14 15  2  0  0  0
 14 96  1  0  0  0
 15 97  1  0  0  0
 16 17  2  0  0  0
 16 21  1  0  0  0
 16 31  1  0  0  0
 17 18  1  0  0  0
 17 98  1  0  0  0
 18 19  2  0  0  0
 18 99  1  0  0  0
 19 20  1  0  0  0
 19 24  1  0  0  0
 20 21  2  0  0  0
 20100  1  0  0  0
 21 23  1  0  0  0
 22 28  1  0  0  0
 22 32  2  0  0  0
 26 27  1  0  0  0
 28101  1  0  0  0
 28102  1  0  0  0
 29103  1  0  0  0
 29104  1  0  0  0
 33 34  1  0  0  0
 33 66  1  0  0  0
 33 70  2  0  0  0
 34 36  1  0  0  0
 34 59  1  0  0  0
 34105  1  0  0  0
 35 44  2  0  0  0
 35 45  1  0  0  0
 35 68  1  0  0  0
 36 56  1  0  0  0
 36106  1  0  0  0
 37 39  1  0  0  0
 37 47  1  0  0  0
 37 66  1  0  0  0
 37107  1  0  0  0
 38 43  2  0  0  0
 38 46  1  0  0  0
 38 47  1  0  0  0
 39 64  1  0  0  0
 39 67  2  0  0  0
 40 52  1  0  0  0
 40 53  2  0  0  0
 40 58  1  0  0  0
 41108  1  0  0  0
 41109  1  0  0  0
 41110  1  0  0  0
 41 48  1  0  0  0
 42 43  1  0  0  0
 42 66  1  0  0  0
 42111  1  0  0  0
 42112  1  0  0  0
 43 44  1  0  0  0
 44113  1  0  0  0
 45 46  2  0  0  0
 45114  1  0  0  0
 46115  1  0  0  0
 47116  1  0  0  0
 47117  1  0  0  0
 48 56  1  0  0  0
 48 65  1  0  0  0
 48118  1  0  0  0
 49 50  1  0  0  0
 49 53  1  0  0  0
 49 64  1  0  0  0
 49119  1  0  0  0
 50 51  1  0  0  0
 50120  1  0  0  0
 50121  1  0  0  0
 51 52  1  0  0  0
 51122  1  0  0  0
 51123  1  0  0  0
 52124  1  0  0  0
 52125  1  0  0  0
 53 54  1  0  0  0
 54 55  2  0  0  0
 54126  1  0  0  0
 55 57  1  0  0  0
 55127  1  0  0  0
 56 69  2  0  0  0
 57 58  2  0  0  0
 57128  1  0  0  0
 58129  1  0  0  0
 59 60  1  0  0  0
 59 61  1  0  0  0
 59 62  1  0  0  0
 60130  1  0  0  0
 60131  1  0  0  0
 60132  1  0  0  0
 61133  1  0  0  0
 61134  1  0  0  0
 61135  1  0  0  0
 62136  1  0  0  0
 62137  1  0  0  0
 62138  1  0  0  0
 63 65  1  0  0  0
 63139  1  0  0  0
 63140  1  0  0  0
 63141  1  0  0  0
 64142  1  0  0  0
 65143  1  0  0  0
 68 80  1  0  0  0
 71 72  2  0  0  0
 71 74  1  0  0  0
 71144  1  0  0  0
 72 75  1  0  0  0
 72145  1  0  0  0
 73 75  2  0  0  0
 73 76  1  0  0  0
 73146  1  0  0  0
 74 76  2  0  0  0
 74 81  1  0  0  0
 75 82  1  0  0  0
 76 84  1  0  0  0
 77 79  1  0  0  0
 77 81  1  0  0  0
 77 83  2  0  0  0
 78 79  1  0  0  0
 78 81  1  0  0  0
 78147  1  0  0  0
 78148  1  0  0  0
 79 80  1  0  0  0
 79149  1  0  0  0
 80150  1  0  0  0
 80151  1  0  0  0
 82152  1  0  0  0
M  ISO  4   1 100  68 101  80 101  82 100
M  END
> <chiral flag>
0

> <version>
0

> <s_m_source_file>
/data/baiqing/PycharmProjects/Reinvent-master-3.2/result/LINK_invent/BTK/process_docking_weight1_custom_product_contain_oxygen_bond_distance_aromatic_linkinvent_7_9_3/rearranged_h_0023.sdf

> <i_m_source_file_index>
49

> <r_mmod_Potential_Energy-OPLS-2005>
118.818412780762

> <r_mmod_Stretch_Energy-OPLS-2005>
103.12508392334

> <r_mmod_Bend_Energy-OPLS-2005>
190.35969543457

> <r_mmod_Torsional_Energy-OPLS-2005>
222.331161499023

> <r_mmod_Improper_Torsional_Energy-OPLS-2005>
6.59575128555298

> <r_mmod_Van_der_Waal_Energy-OPLS-2005>
140.887588500977

> <r_mmod_Electrostatic_Energy-OPLS-2005>
-392.83984375

> <r_mmod_Solvation_Energy-OPLS-2005>
-221.109039306641

> <b_mmod_Minimization_Converged-OPLS-2005>
0

> <r_mmod_RMS_Derivative-OPLS-2005>
3.30142402648926

$$$$
49
                    3D
 Structure written by MMmdl.
171180  0  0  1  0            999 V2000
  -30.5772  -15.0053   20.2845 C   0  0  0  0  0  0
  -30.4540  -12.5866   19.4954 C   0  0  0  0  0  0
  -29.5181  -12.2295   18.3112 C   0  0  0  0  0  0
  -28.0275  -12.2314   18.6948 C   0  0  0  0  0  0
  -27.6194  -13.2419   19.8015 C   0  0  2  0  0  0
  -28.6807  -13.3723   20.9078 C   0  0  0  0  0  0
  -25.2460  -13.8259   20.5737 C   0  0  0  0  0  0
  -24.1761  -13.0500   20.9269 C   0  0  0  0  0  0
  -24.6359  -11.6976   20.8825 C   0  0  0  0  0  0
  -23.9059  -10.4327   21.0436 C   0  0  0  0  0  0
  -24.3618   -9.4220   21.9197 C   0  0  0  0  0  0
  -23.6297   -8.2250   22.0747 C   0  0  0  0  0  0
  -22.4282   -8.0282   21.3535 C   0  0  0  0  0  0
  -21.9919   -9.0271   20.4645 C   0  0  0  0  0  0
  -22.7239  -10.2159   20.3068 C   0  0  0  0  0  0
  -21.6869   -6.0728   22.5271 C   0  0  0  0  0  0
  -21.4031   -6.5636   23.8200 C   0  0  0  0  0  0
  -21.3656   -5.6787   24.9168 C   0  0  0  0  0  0
  -21.6029   -4.3049   24.7214 C   0  0  0  0  0  0
  -21.8821   -3.8135   23.4341 C   0  0  0  0  0  0
  -21.9204   -4.6958   22.3393 C   0  0  0  0  0  0
  -22.7780  -13.5255   21.1887 C   0  0  0  0  0  0
  -22.1664   -4.2137   21.0974 F   0  0  0  0  0  0
  -21.5624   -3.4531   25.7730 F   0  0  0  0  0  0
  -29.9207  -13.7705   20.2298 N   0  0  0  0  0  0
  -26.2867  -12.9487   20.3247 N   0  0  0  0  0  0
  -25.9289  -11.6642   20.5883 N   0  0  0  0  0  0
  -22.0430  -12.8231   22.0434 N   0  0  0  0  0  0
  -25.4179  -15.1965   20.4108 N   0  0  0  0  0  0
  -31.8109  -14.9420   20.3066 O   0  0  0  0  0  0
  -21.6642   -6.8881   21.4232 O   0  0  0  0  0  0
  -22.3468  -14.5559   20.6721 O   0  0  0  0  0  0
  -24.6421  -31.8476   23.1919 C   0  0  0  0  0  0
  -25.9213  -32.4707   23.8292 C   0  0  1  0  0  0
  -27.2030  -27.1520   20.1587 C   0  0  0  0  0  0
  -25.5966  -33.8512   24.2212 N   0  0  0  0  0  0
  -23.4431  -30.4692   21.5393 C   0  0  2  0  0  0
  -24.8885  -28.9003   20.1127 C   0  0  0  0  0  0
  -22.7568  -29.4573   22.4902 C   0  0  0  0  0  0
  -18.0309  -28.1382   22.8491 C   0  0  0  0  0  0
  -24.1497  -36.7257   23.2643 C   0  0  0  0  0  0
  -25.9973  -30.7281   21.3880 C   0  0  0  0  0  0
  -26.0663  -29.3406   20.7295 C   0  0  0  0  0  0
  -27.2270  -28.4817   20.7368 C   0  0  0  0  0  0
  -26.0019  -26.8136   19.4966 C   0  0  0  0  0  0
  -24.8688  -27.6498   19.4800 C   0  0  0  0  0  0
  -23.6667  -29.8017   20.1572 C   0  0  0  0  0  0
  -25.4130  -36.3044   24.0323 C   0  0  1  0  0  0
  -20.5926  -28.3712   23.1263 C   0  0  2  0  0  0
  -20.6806  -26.9427   22.5408 C   0  0  0  0  0  0
  -19.5770  -26.6385   21.5222 C   0  0  0  0  0  0
  -18.1949  -26.7925   22.1632 C   0  0  0  0  0  0
  -19.1564  -28.8868   23.2864 C   0  0  0  0  0  0
  -18.9474  -30.1469   23.8882 C   0  0  0  0  0  0
  -17.6470  -30.6585   24.0561 C   0  0  0  0  0  0
  -25.9073  -34.9415   23.5072 C   0  0  0  0  0  0
  -16.5367  -29.9073   23.6330 C   0  0  0  0  0  0
  -16.7292  -28.6488   23.0358 C   0  0  0  0  0  0
  -26.4528  -31.6549   25.0711 C   0  0  0  0  0  0
  -25.3711  -31.3735   26.1406 C   0  0  0  0  0  0
  -27.0374  -30.2941   24.6267 C   0  0  0  0  0  0
  -27.6063  -32.4305   25.7495 C   0  0  0  0  0  0
  -27.5589  -37.1790   24.8472 C   0  0  0  0  0  0
  -21.4268  -29.3051   22.3645 N   0  0  0  0  0  0
  -26.4296  -37.3756   23.9413 N   0  0  0  0  0  0
  -24.7139  -31.0351   22.0946 N   0  0  0  0  0  0
  -23.4227  -28.8132   23.3050 O   0  0  0  0  0  0
  -28.2481  -26.1679   20.2321 O   0  0  0  0  0  0
  -26.5652  -34.8918   22.4649 O   0  0  0  0  0  0
  -23.5554  -32.1354   23.7158 O   0  0  0  0  0  0
  -30.1906  -20.0692   20.6175 C   0  0  0  0  0  0
  -30.5717  -18.6678   20.5101 C   0  0  0  0  0  0
  -28.3064  -18.0353   20.5460 C   0  0  0  0  0  0
  -27.9148  -19.4315   20.6386 C   0  0  0  0  0  0
  -28.8379  -20.5432   20.6522 C   0  0  0  0  0  0
  -29.6513  -17.5624   20.4139 C   0  0  0  0  0  0
  -29.1962  -22.9479   22.8322 C   0  0  0  0  0  0
  -29.8587  -23.6468   21.6386 C   0  0  0  0  0  0
  -28.0442  -22.1288   22.2340 C   0  0  0  0  0  0
  -28.9410  -23.3447   20.4541 C   0  0  2  0  0  0
  -26.4192  -19.7043   20.6706 C   0  0  0  0  0  0
  -29.1180  -17.4581   17.6702 C   0  0  0  0  0  0
  -31.5806  -17.0910   17.9519 C   0  0  0  0  0  0
  -30.0503  -15.2512   17.3788 C   0  0  0  0  0  0
  -27.9063  -24.6549   20.2457 C   0  0  0  0  0  0
  -30.1835  -16.4875   18.2660 C   0  0  0  0  0  0
  -28.3717  -21.9484   20.8211 N   0  0  0  0  0  0
  -29.9668  -16.2112   19.7571 N   0  0  0  0  0  0
  -31.4633  -12.7585   19.1183 H   0  0  0  0  0  0
  -30.5391  -11.7416   20.1809 H   0  0  0  0  0  0
  -29.7761  -11.2197   17.9891 H   0  0  0  0  0  0
  -29.6941  -12.7937   17.4056 H   0  0  0  0  0  0
  -27.8228  -11.2186   19.0427 H   0  0  0  0  0  0
  -27.4040  -12.3659   17.8099 H   0  0  0  0  0  0
  -27.5589  -14.2132   19.3100 H   0  0  0  0  0  0
  -28.8014  -12.4394   21.4595 H   0  0  0  0  0  0
  -28.3888  -14.1373   21.6303 H   0  0  0  0  0  0
  -25.2762   -9.5688   22.4786 H   0  0  0  0  0  0
  -23.9998   -7.4630   22.7462 H   0  0  0  0  0  0
  -21.0844   -8.8796   19.8950 H   0  0  0  0  0  0
  -22.3691  -10.9707   19.6182 H   0  0  0  0  0  0
  -21.2038   -7.6148   23.9702 H   0  0  0  0  0  0
  -21.1470   -6.0517   25.9067 H   0  0  0  0  0  0
  -22.0607   -2.7594   23.2842 H   0  0  0  0  0  0
  -22.4069  -11.9904   22.4837 H   0  0  0  0  0  0
  -21.1045  -13.1232   22.2655 H   0  0  0  0  0  0
  -24.6543  -15.8555   20.5094 H   0  0  0  0  0  0
  -26.2658  -15.6169   20.0570 H   0  0  0  0  0  0
  -26.7278  -32.5325   23.1026 H   0  0  0  0  0  0
  -25.0078  -33.9615   25.0340 H   0  0  0  0  0  0
  -22.7441  -31.2947   21.3891 H   0  0  0  0  0  0
  -23.3763  -35.9582   23.3293 H   0  0  0  0  0  0
  -24.3594  -36.8895   22.2059 H   0  0  0  0  0  0
  -23.7238  -37.6450   23.6676 H   0  0  0  0  0  0
  -26.1529  -31.4862   20.6197 H   0  0  0  0  0  0
  -26.8687  -30.7754   22.0297 H   0  0  0  0  0  0
  -28.1222  -28.8105   21.2465 H   0  0  0  0  0  0
  -25.8963  -25.8622   19.0006 H   0  0  0  0  0  0
  -23.9699  -27.3084   18.9857 H   0  0  0  0  0  0
  -23.8085  -30.5792   19.4056 H   0  0  0  0  0  0
  -22.7789  -29.2487   19.8428 H   0  0  0  0  0  0
  -25.1317  -36.1871   25.0811 H   0  0  0  0  0  0
  -21.0006  -28.3288   24.1391 H   0  0  0  0  0  0
  -20.5723  -26.2324   23.3621 H   0  0  0  0  0  0
  -21.6667  -26.7460   22.1194 H   0  0  0  0  0  0
  -19.6936  -25.6294   21.1253 H   0  0  0  0  0  0
  -19.6681  -27.3198   20.6752 H   0  0  0  0  0  0
  -17.4224  -26.6691   21.4028 H   0  0  0  0  0  0
  -18.0332  -26.0056   22.9014 H   0  0  0  0  0  0
  -19.7952  -30.7291   24.2242 H   0  0  0  0  0  0
  -17.5018  -31.6257   24.5168 H   0  0  0  0  0  0
  -15.5364  -30.2958   23.7657 H   0  0  0  0  0  0
  -15.8702  -28.0791   22.7082 H   0  0  0  0  0  0
  -24.5915  -30.7049   25.7742 H   0  0  0  0  0  0
  -24.8862  -32.2901   26.4766 H   0  0  0  0  0  0
  -25.7999  -30.8967   27.0227 H   0  0  0  0  0  0
  -26.2978  -29.6668   24.1275 H   0  0  0  0  0  0
  -27.3992  -29.7236   25.4830 H   0  0  0  0  0  0
  -27.8893  -30.4176   23.9578 H   0  0  0  0  0  0
  -27.2671  -33.3641   26.2009 H   0  0  0  0  0  0
  -28.3910  -32.6808   25.0338 H   0  0  0  0  0  0
  -28.0684  -31.8454   26.5461 H   0  0  0  0  0  0
  -28.2600  -38.0094   24.7524 H   0  0  0  0  0  0
  -28.1087  -36.2622   24.6285 H   0  0  0  0  0  0
  -27.2307  -37.1431   25.8875 H   0  0  0  0  0  0
  -20.9482  -29.8739   21.6804 H   0  0  0  0  0  0
  -26.0163  -38.2831   24.1386 H   0  0  0  0  0  0
  -30.9828  -20.8015   20.6595 H   0  0  0  0  0  0
  -31.6264  -18.4589   20.4048 H   0  0  0  0  0  0
  -27.5203  -17.3019   20.4492 H   0  0  0  0  0  0
  -28.8269  -23.6593   23.5722 H   0  0  0  0  0  0
  -29.9188  -22.3018   23.3344 H   0  0  0  0  0  0
  -30.8462  -23.2199   21.4580 H   0  0  0  0  0  0
  -29.9953  -24.7173   21.7977 H   0  0  0  0  0  0
  -27.1009  -22.6692   22.3201 H   0  0  0  0  0  0
  -27.9095  -21.1956   22.7859 H   0  0  0  0  0  0
  -29.5434  -23.2490   19.5487 H   0  0  0  0  0  0
  -26.1679  -20.6587   20.2077 H   0  0  0  0  0  0
  -26.0593  -19.7131   21.6986 H   0  0  0  0  0  0
  -25.8751  -18.9338   20.1237 H   0  0  0  0  0  0
  -29.1953  -17.5315   16.5840 H   0  0  0  0  0  0
  -29.2228  -18.4844   18.0224 H   0  0  0  0  0  0
  -28.1016  -17.1262   17.8860 H   0  0  0  0  0  0
  -31.6618  -18.1418   18.2182 H   0  0  0  0  0  0
  -32.3929  -16.5549   18.4384 H   0  0  0  0  0  0
  -31.7895  -17.0606   16.8810 H   0  0  0  0  0  0
  -30.1183  -15.4925   16.3168 H   0  0  0  0  0  0
  -29.0731  -14.7924   17.5266 H   0  0  0  0  0  0
  -30.8605  -14.5468   17.5611 H   0  0  0  0  0  0
  -27.1190  -24.5598   20.9940 H   0  0  0  0  0  0
  -27.4181  -24.4375   19.2970 H   0  0  0  0  0  0
  1 25  1  0  0  0
  1 30  2  0  0  0
  1 88  1  0  0  0
  2  3  1  0  0  0
  2 25  1  0  0  0
  2 89  1  0  0  0
  2 90  1  0  0  0
  3  4  1  0  0  0
  3 91  1  0  0  0
  3 92  1  0  0  0
  4  5  1  0  0  0
  4 93  1  0  0  0
  4 94  1  0  0  0
  5  6  1  0  0  0
  5 26  1  0  0  0
  5 95  1  0  0  0
  6 25  1  0  0  0
  6 96  1  0  0  0
  6 97  1  0  0  0
  7  8  2  0  0  0
  7 26  1  0  0  0
  7 29  1  0  0  0
  8  9  1  0  0  0
  8 22  1  0  0  0
  9 10  1  0  0  0
  9 27  2  0  0  0
 10 11  2  0  0  0
 10 15  1  0  0  0
 11 12  1  0  0  0
 11 98  1  0  0  0
 12 13  2  0  0  0
 12 99  1  0  0  0
 13 14  1  0  0  0
 13 31  1  0  0  0
 14 15  2  0  0  0
 14100  1  0  0  0
 15101  1  0  0  0
 16 17  2  0  0  0
 16 21  1  0  0  0
 16 31  1  0  0  0
 17 18  1  0  0  0
 17102  1  0  0  0
 18 19  2  0  0  0
 18103  1  0  0  0
 19 20  1  0  0  0
 19 24  1  0  0  0
 20 21  2  0  0  0
 20104  1  0  0  0
 21 23  1  0  0  0
 22 28  1  0  0  0
 22 32  2  0  0  0
 26 27  1  0  0  0
 28105  1  0  0  0
 28106  1  0  0  0
 29107  1  0  0  0
 29108  1  0  0  0
 33 34  1  0  0  0
 33 66  1  0  0  0
 33 70  2  0  0  0
 34 36  1  0  0  0
 34 59  1  0  0  0
 34109  1  0  0  0
 35 44  2  0  0  0
 35 45  1  0  0  0
 35 68  1  0  0  0
 36 56  1  0  0  0
 36110  1  0  0  0
 37 39  1  0  0  0
 37 47  1  0  0  0
 37 66  1  0  0  0
 37111  1  0  0  0
 38 43  2  0  0  0
 38 46  1  0  0  0
 38 47  1  0  0  0
 39 64  1  0  0  0
 39 67  2  0  0  0
 40 52  1  0  0  0
 40 53  2  0  0  0
 40 58  1  0  0  0
 41112  1  0  0  0
 41113  1  0  0  0
 41114  1  0  0  0
 41 48  1  0  0  0
 42 43  1  0  0  0
 42 66  1  0  0  0
 42115  1  0  0  0
 42116  1  0  0  0
 43 44  1  0  0  0
 44117  1  0  0  0
 45 46  2  0  0  0
 45118  1  0  0  0
 46119  1  0  0  0
 47120  1  0  0  0
 47121  1  0  0  0
 48 56  1  0  0  0
 48 65  1  0  0  0
 48122  1  0  0  0
 49 50  1  0  0  0
 49 53  1  0  0  0
 49 64  1  0  0  0
 49123  1  0  0  0
 50 51  1  0  0  0
 50124  1  0  0  0
 50125  1  0  0  0
 51 52  1  0  0  0
 51126  1  0  0  0
 51127  1  0  0  0
 52128  1  0  0  0
 52129  1  0  0  0
 53 54  1  0  0  0
 54 55  2  0  0  0
 54130  1  0  0  0
 55 57  1  0  0  0
 55131  1  0  0  0
 56 69  2  0  0  0
 57 58  2  0  0  0
 57132  1  0  0  0
 58133  1  0  0  0
 59 60  1  0  0  0
 59 61  1  0  0  0
 59 62  1  0  0  0
 60134  1  0  0  0
 60135  1  0  0  0
 60136  1  0  0  0
 61137  1  0  0  0
 61138  1  0  0  0
 61139  1  0  0  0
 62140  1  0  0  0
 62141  1  0  0  0
 62142  1  0  0  0
 63 65  1  0  0  0
 63143  1  0  0  0
 63144  1  0  0  0
 63145  1  0  0  0
 64146  1  0  0  0
 65147  1  0  0  0
 68 85  1  0  0  0
 71 72  2  0  0  0
 71 75  1  0  0  0
 71148  1  0  0  0
 72 76  1  0  0  0
 72149  1  0  0  0
 73 74  1  0  0  0
 73 76  2  0  0  0
 73150  1  0  0  0
 74 75  2  0  0  0
 74 81  1  0  0  0
 75 87  1  0  0  0
 76 88  1  0  0  0
 77 78  1  0  0  0
 77 79  1  0  0  0
 77151  1  0  0  0
 77152  1  0  0  0
 78 80  1  0  0  0
 78153  1  0  0  0
 78154  1  0  0  0
 79 87  1  0  0  0
 79155  1  0  0  0
 79156  1  0  0  0
 80 85  1  0  0  0
 80 87  1  0  0  0
 80157  1  0  0  0
 81158  1  0  0  0
 81159  1  0  0  0
 81160  1  0  0  0
 82161  1  0  0  0
 82162  1  0  0  0
 82163  1  0  0  0
 82 86  1  0  0  0
 83 86  1  0  0  0
 83164  1  0  0  0
 83165  1  0  0  0
 83166  1  0  0  0
 84 86  1  0  0  0
 84167  1  0  0  0
 84168  1  0  0  0
 84169  1  0  0  0
 85170  1  0  0  0
 85171  1  0  0  0
 86 88  1  0  0  0
M  ISO  4   1 100  68 101  85 101  88 100
M  END
> <chiral flag>
0

> <version>
0

> <s_m_source_file>
/data/baiqing/PycharmProjects/Reinvent-master-3.2/result/LINK_invent/BTK/process_docking_weight1_custom_product_contain_oxygen_bond_distance_aromatic_linkinvent_7_9_3/rearranged_h_0023.sdf

> <i_m_source_file_index>
50

> <r_mmod_Potential_Energy-OPLS-2005>
959.954223632812

> <r_mmod_Stretch_Energy-OPLS-2005>
238.058807373047

> <r_mmod_Bend_Energy-OPLS-2005>
316.926513671875

> <r_mmod_Torsional_Energy-OPLS-2005>
433.471160888672

> <r_mmod_Improper_Torsional_Energy-OPLS-2005>
33.7093696594238

> <r_mmod_Van_der_Waal_Energy-OPLS-2005>
160.893524169922

> <r_mmod_Electrostatic_Energy-OPLS-2005>
-270.346405029297

> <r_mmod_Solvation_Energy-OPLS-2005>
-190.352355957031

> <b_mmod_Minimization_Converged-OPLS-2005>
0

> <r_mmod_RMS_Derivative-OPLS-2005>
2.02918267250061

$$$$
50
                    3D
 Structure written by MMmdl.
173182  0  0  1  0            999 V2000
  -30.6763  -14.8255   20.3499 C   0  0  0  0  0  0
  -30.4229  -12.5045   19.4808 C   0  0  0  0  0  0
  -29.5217  -12.5002   18.2344 C   0  0  0  0  0  0
  -28.0662  -12.2594   18.6670 C   0  0  0  0  0  0
  -27.6175  -13.2300   19.7912 C   0  0  2  0  0  0
  -28.6661  -13.3399   20.9237 C   0  0  0  0  0  0
  -25.2300  -13.7982   20.5630 C   0  0  0  0  0  0
  -24.1670  -13.0205   20.9125 C   0  0  0  0  0  0
  -24.6352  -11.6747   20.8678 C   0  0  0  0  0  0
  -23.9040  -10.4167   21.0348 C   0  0  0  0  0  0
  -24.3611   -9.4131   21.9151 C   0  0  0  0  0  0
  -23.6289   -8.2184   22.0787 C   0  0  0  0  0  0
  -22.4258   -8.0232   21.3575 C   0  0  0  0  0  0
  -21.9845   -9.0188   20.4661 C   0  0  0  0  0  0
  -22.7180  -10.2052   20.3022 C   0  0  0  0  0  0
  -21.6848   -6.0686   22.5272 C   0  0  0  0  0  0
  -21.4009   -6.5592   23.8202 C   0  0  0  0  0  0
  -21.3658   -5.6769   24.9178 C   0  0  0  0  0  0
  -21.6055   -4.3031   24.7222 C   0  0  0  0  0  0
  -21.8819   -3.8107   23.4333 C   0  0  0  0  0  0
  -21.9184   -4.6913   22.3391 C   0  0  0  0  0  0
  -22.7699  -13.5008   21.1802 C   0  0  0  0  0  0
  -22.1630   -4.2084   21.0970 F   0  0  0  0  0  0
  -21.5682   -3.4535   25.7743 F   0  0  0  0  0  0
  -29.9622  -13.6435   20.3023 N   0  0  0  0  0  0
  -26.2801  -12.9312   20.3036 N   0  0  0  0  0  0
  -25.9276  -11.6430   20.5592 N   0  0  0  0  0  0
  -22.0336  -12.8166   22.0469 N   0  0  0  0  0  0
  -25.3568  -15.1728   20.4317 N   0  0  0  0  0  0
  -31.9077  -14.7445   20.3596 O   0  0  0  0  0  0
  -21.6638   -6.8822   21.4243 O   0  0  0  0  0  0
  -22.3436  -14.5335   20.6625 O   0  0  0  0  0  0
  -24.6490  -31.8639   23.2044 C   0  0  0  0  0  0
  -25.9280  -32.4835   23.8388 C   0  0  1  0  0  0
  -27.2462  -27.2914   20.1212 C   0  0  0  0  0  0
  -25.6028  -33.8609   24.2315 N   0  0  0  0  0  0
  -23.4586  -30.4867   21.5581 C   0  0  2  0  0  0
  -24.8868  -28.9350   20.1198 C   0  0  0  0  0  0
  -22.7858  -29.4762   22.5149 C   0  0  0  0  0  0
  -17.9962  -28.1195   22.8701 C   0  0  0  0  0  0
  -24.1457  -36.7292   23.2626 C   0  0  0  0  0  0
  -25.9884  -30.7882   21.3722 C   0  0  0  0  0  0
  -26.0567  -29.4090   20.7209 C   0  0  0  0  0  0
  -27.2308  -28.5954   20.7128 C   0  0  0  0  0  0
  -26.0555  -26.8986   19.4622 C   0  0  0  0  0  0
  -24.8892  -27.6833   19.4849 C   0  0  0  0  0  0
  -23.6623  -29.8226   20.1702 C   0  0  0  0  0  0
  -25.4081  -36.3082   24.0327 C   0  0  1  0  0  0
  -20.4818  -28.4577   22.7766 C   0  0  2  0  0  0
  -20.6904  -26.9571   22.5336 C   0  0  0  0  0  0
  -19.5551  -26.4499   21.6188 C   0  0  0  0  0  0
  -18.1570  -26.7484   22.2084 C   0  0  0  0  0  0
  -19.1173  -28.8976   23.2522 C   0  0  0  0  0  0
  -18.9386  -30.1468   23.8775 C   0  0  0  0  0  0
  -17.6408  -30.6512   24.0797 C   0  0  0  0  0  0
  -25.9067  -34.9496   23.5113 C   0  0  0  0  0  0
  -16.5249  -29.8984   23.6722 C   0  0  0  0  0  0
  -16.7020  -28.6316   23.0855 C   0  0  0  0  0  0
  -26.4583  -31.6614   25.0743 C   0  0  0  0  0  0
  -25.3792  -31.3796   26.1450 C   0  0  0  0  0  0
  -27.0396  -30.3020   24.6186 C   0  0  0  0  0  0
  -27.6111  -32.4323   25.7578 C   0  0  0  0  0  0
  -27.5552  -37.1800   24.8467 C   0  0  0  0  0  0
  -21.4618  -29.4467   22.3990 N   0  0  0  0  0  0
  -26.4252  -37.3783   23.9437 N   0  0  0  0  0  0
  -24.7195  -31.0634   22.1025 N   0  0  0  0  0  0
  -23.4306  -28.7508   23.2715 O   0  0  0  0  0  0
  -28.3660  -26.4327   20.2086 O   0  0  0  0  0  0
  -26.5553  -34.8966   22.4640 O   0  0  0  0  0  0
  -23.5595  -32.1424   23.7345 O   0  0  0  0  0  0
  -27.1406  -18.0725   20.4226 C   0  0  0  0  0  0
  -28.0248  -16.9919   20.2821 C   0  0  0  0  0  0
  -27.5963  -19.4043   20.4906 C   0  0  0  0  0  0
  -29.4090  -17.1610   20.2091 C   0  0  0  0  0  0
  -28.9891  -19.7064   20.4320 C   0  0  0  0  0  0
  -29.8819  -18.5448   20.3028 C   0  0  0  0  0  0
  -24.8043  -21.0122   22.1150 C   0  0  0  0  0  0
  -24.5795  -21.5064   20.6830 C   0  0  0  0  0  0
  -26.2590  -20.5358   22.1272 C   0  0  0  0  0  0
  -25.4702  -20.5651   19.8759 C   0  0  0  0  0  0
  -28.2284  -23.8121   22.0108 C   0  0  0  0  0  0
  -30.4519  -24.1252   20.9336 C   0  0  0  0  0  0
  -30.7266  -16.2232   18.3836 C   0  0  0  0  0  0
  -28.8268  -22.3475   19.9575 C   0  0  0  0  0  0
  -28.3085  -24.9978   19.7871 C   0  0  0  0  0  0
  -28.9685  -23.8079   20.6591 C   0  0  0  0  0  0
  -26.6403  -20.4022   20.7315 N   0  0  0  0  0  0
  -29.4540  -21.0875   20.5581 N   0  0  0  0  0  0
  -30.1519  -15.9665   19.7146 N   0  0  0  0  0  0
  -31.2132  -18.7748   20.2471 F   0  0  0  0  0  0
  -31.4762  -12.5877   19.1990 H   0  0  0  0  0  0
  -30.3242  -11.5682   20.0316 H   0  0  0  0  0  0
  -29.8557  -11.7453   17.5222 H   0  0  0  0  0  0
  -29.5867  -13.4620   17.7256 H   0  0  0  0  0  0
  -28.0077  -11.2303   19.0226 H   0  0  0  0  0  0
  -27.3974  -12.3300   17.8089 H   0  0  0  0  0  0
  -27.5442  -14.1799   19.2637 H   0  0  0  0  0  0
  -28.7134  -12.4169   21.5049 H   0  0  0  0  0  0
  -28.3892  -14.1344   21.6207 H   0  0  0  0  0  0
  -25.2752   -9.5672   22.4714 H   0  0  0  0  0  0
  -23.9978   -7.4599   22.7538 H   0  0  0  0  0  0
  -21.0717   -8.8691   19.9032 H   0  0  0  0  0  0
  -22.3554  -10.9599   19.6181 H   0  0  0  0  0  0
  -21.2005   -7.6103   23.9684 H   0  0  0  0  0  0
  -21.1494   -6.0521   25.9086 H   0  0  0  0  0  0
  -22.0609   -2.7558   23.2856 H   0  0  0  0  0  0
  -22.3925  -11.9885   22.4956 H   0  0  0  0  0  0
  -21.1035  -13.1411   22.2682 H   0  0  0  0  0  0
  -24.5665  -15.7779   20.6244 H   0  0  0  0  0  0
  -26.2271  -15.6715   20.3528 H   0  0  0  0  0  0
  -26.7391  -32.5489   23.1170 H   0  0  0  0  0  0
  -25.0241  -33.9739   25.0505 H   0  0  0  0  0  0
  -22.7659  -31.3188   21.4039 H   0  0  0  0  0  0
  -23.3720  -35.9627   23.3296 H   0  0  0  0  0  0
  -24.3544  -36.8917   22.2043 H   0  0  0  0  0  0
  -23.7240  -37.6509   23.6643 H   0  0  0  0  0  0
  -26.1000  -31.5409   20.5901 H   0  0  0  0  0  0
  -26.8807  -30.8592   21.9830 H   0  0  0  0  0  0
  -28.1289  -28.9547   21.1953 H   0  0  0  0  0  0
  -25.9756  -25.9736   18.9189 H   0  0  0  0  0  0
  -23.9974  -27.3141   18.9955 H   0  0  0  0  0  0
  -23.7951  -30.6001   19.4158 H   0  0  0  0  0  0
  -22.7766  -29.2617   19.8674 H   0  0  0  0  0  0
  -25.1260  -36.1917   25.0811 H   0  0  0  0  0  0
  -20.1637  -28.6730   21.7526 H   0  0  0  0  0  0
  -20.6716  -26.4247   23.4844 H   0  0  0  0  0  0
  -21.6577  -26.7541   22.0749 H   0  0  0  0  0  0
  -19.6579  -25.3771   21.4469 H   0  0  0  0  0  0
  -19.6401  -26.9097   20.6334 H   0  0  0  0  0  0
  -17.4006  -26.6274   21.4331 H   0  0  0  0  0  0
  -17.9348  -25.9981   22.9703 H   0  0  0  0  0  0
  -19.7947  -30.7464   24.1537 H   0  0  0  0  0  0
  -17.5044  -31.6191   24.5405 H   0  0  0  0  0  0
  -15.5258  -30.2901   23.8265 H   0  0  0  0  0  0
  -15.8335  -28.0597   22.7880 H   0  0  0  0  0  0
  -24.5957  -30.7132   25.7817 H   0  0  0  0  0  0
  -24.8970  -32.2985   26.4806 H   0  0  0  0  0  0
  -25.8100  -30.9039   27.0285 H   0  0  0  0  0  0
  -26.2966  -29.6790   24.1159 H   0  0  0  0  0  0
  -27.4056  -29.7242   25.4709 H   0  0  0  0  0  0
  -27.8872  -30.4289   23.9428 H   0  0  0  0  0  0
  -27.2706  -33.3653   26.2116 H   0  0  0  0  0  0
  -28.3999  -32.6873   25.0471 H   0  0  0  0  0  0
  -28.0697  -31.8446   26.5563 H   0  0  0  0  0  0
  -28.2554  -38.0093   24.7489 H   0  0  0  0  0  0
  -28.1042  -36.2637   24.6295 H   0  0  0  0  0  0
  -27.2264  -37.1474   25.8858 H   0  0  0  0  0  0
  -21.0781  -30.1682   21.8058 H   0  0  0  0  0  0
  -26.0117  -38.2836   24.1494 H   0  0  0  0  0  0
  -26.0814  -17.8730   20.4925 H   0  0  0  0  0  0
  -27.6412  -16.0062   20.1488 H   0  0  0  0  0  0
  -24.1470  -20.1718   22.3308 H   0  0  0  0  0  0
  -24.6159  -21.7764   22.8646 H   0  0  0  0  0  0
  -24.9413  -22.5304   20.5768 H   0  0  0  0  0  0
  -23.5286  -21.4988   20.3777 H   0  0  0  0  0  0
  -26.3696  -19.6049   22.6889 H   0  0  0  0  0  0
  -26.9142  -21.2646   22.6038 H   0  0  0  0  0  0
  -25.7295  -21.0131   18.9155 H   0  0  0  0  0  0
  -24.9520  -19.6235   19.6759 H   0  0  0  0  0  0
  -27.1448  -23.8241   21.8811 H   0  0  0  0  0  0
  -28.4800  -24.6956   22.6046 H   0  0  0  0  0  0
  -28.4851  -22.9308   22.6023 H   0  0  0  0  0  0
  -30.9262  -23.3318   21.5144 H   0  0  0  0  0  0
  -30.5475  -25.0482   21.5137 H   0  0  0  0  0  0
  -31.0299  -24.2524   20.0197 H   0  0  0  0  0  0
  -30.0267  -16.7827   17.7536 H   0  0  0  0  0  0
  -30.9379  -15.2961   17.8491 H   0  0  0  0  0  0
  -31.6567  -16.7860   18.4403 H   0  0  0  0  0  0
  -29.2457  -22.4350   18.9546 H   0  0  0  0  0  0
  -27.7671  -22.2208   19.7630 H   0  0  0  0  0  0
  -27.2818  -24.6648   19.6685 H   0  0  0  0  0  0
  -28.7309  -24.9598   18.7854 H   0  0  0  0  0  0
  -30.4515  -21.1567   20.7211 H   0  0  0  0  0  0
  1 25  1  0  0  0
  1 30  2  0  0  0
  1 89  1  0  0  0
  2  3  1  0  0  0
  2 25  1  0  0  0
  2 91  1  0  0  0
  2 92  1  0  0  0
  3  4  1  0  0  0
  3 93  1  0  0  0
  3 94  1  0  0  0
  4  5  1  0  0  0
  4 95  1  0  0  0
  4 96  1  0  0  0
  5  6  1  0  0  0
  5 26  1  0  0  0
  5 97  1  0  0  0
  6 25  1  0  0  0
  6 98  1  0  0  0
  6 99  1  0  0  0
  7  8  2  0  0  0
  7 26  1  0  0  0
  7 29  1  0  0  0
  8  9  1  0  0  0
  8 22  1  0  0  0
  9 10  1  0  0  0
  9 27  2  0  0  0
 10 11  2  0  0  0
 10 15  1  0  0  0
 11 12  1  0  0  0
 11100  1  0  0  0
 12 13  2  0  0  0
 12101  1  0  0  0
 13 14  1  0  0  0
 13 31  1  0  0  0
 14 15  2  0  0  0
 14102  1  0  0  0
 15103  1  0  0  0
 16 17  2  0  0  0
 16 21  1  0  0  0
 16 31  1  0  0  0
 17 18  1  0  0  0
 17104  1  0  0  0
 18 19  2  0  0  0
 18105  1  0  0  0
 19 20  1  0  0  0
 19 24  1  0  0  0
 20 21  2  0  0  0
 20106  1  0  0  0
 21 23  1  0  0  0
 22 28  1  0  0  0
 22 32  2  0  0  0
 26 27  1  0  0  0
 28107  1  0  0  0
 28108  1  0  0  0
 29109  1  0  0  0
 29110  1  0  0  0
 33 34  1  0  0  0
 33 66  1  0  0  0
 33 70  2  0  0  0
 34 36  1  0  0  0
 34 59  1  0  0  0
 34111  1  0  0  0
 35 44  2  0  0  0
 35 45  1  0  0  0
 35 68  1  0  0  0
 36 56  1  0  0  0
 36112  1  0  0  0
 37 39  1  0  0  0
 37 47  1  0  0  0
 37 66  1  0  0  0
 37113  1  0  0  0
 38 43  2  0  0  0
 38 46  1  0  0  0
 38 47  1  0  0  0
 39 64  1  0  0  0
 39 67  2  0  0  0
 40 52  1  0  0  0
 40 53  2  0  0  0
 40 58  1  0  0  0
 41114  1  0  0  0
 41115  1  0  0  0
 41116  1  0  0  0
 41 48  1  0  0  0
 42 43  1  0  0  0
 42 66  1  0  0  0
 42117  1  0  0  0
 42118  1  0  0  0
 43 44  1  0  0  0
 44119  1  0  0  0
 45 46  2  0  0  0
 45120  1  0  0  0
 46121  1  0  0  0
 47122  1  0  0  0
 47123  1  0  0  0
 48 56  1  0  0  0
 48 65  1  0  0  0
 48124  1  0  0  0
 49 50  1  0  0  0
 49 53  1  0  0  0
 49 64  1  0  0  0
 49125  1  0  0  0
 50 51  1  0  0  0
 50126  1  0  0  0
 50127  1  0  0  0
 51 52  1  0  0  0
 51128  1  0  0  0
 51129  1  0  0  0
 52130  1  0  0  0
 52131  1  0  0  0
 53 54  1  0  0  0
 54 55  2  0  0  0
 54132  1  0  0  0
 55 57  1  0  0  0
 55133  1  0  0  0
 56 69  2  0  0  0
 57 58  2  0  0  0
 57134  1  0  0  0
 58135  1  0  0  0
 59 60  1  0  0  0
 59 61  1  0  0  0
 59 62  1  0  0  0
 60136  1  0  0  0
 60137  1  0  0  0
 60138  1  0  0  0
 61139  1  0  0  0
 61140  1  0  0  0
 61141  1  0  0  0
 62142  1  0  0  0
 62143  1  0  0  0
 62144  1  0  0  0
 63 65  1  0  0  0
 63145  1  0  0  0
 63146  1  0  0  0
 63147  1  0  0  0
 64148  1  0  0  0
 65149  1  0  0  0
 68 85  1  0  0  0
 71 72  2  0  0  0
 71 73  1  0  0  0
 71150  1  0  0  0
 72 74  1  0  0  0
 72151  1  0  0  0
 73 75  2  0  0  0
 73 87  1  0  0  0
 74 76  2  0  0  0
 74 89  1  0  0  0
 75 76  1  0  0  0
 75 88  1  0  0  0
 76 90  1  0  0  0
 77 78  1  0  0  0
 77 79  1  0  0  0
 77152  1  0  0  0
 77153  1  0  0  0
 78 80  1  0  0  0
 78154  1  0  0  0
 78155  1  0  0  0
 79 87  1  0  0  0
 79156  1  0  0  0
 79157  1  0  0  0
 80 87  1  0  0  0
 80158  1  0  0  0
 80159  1  0  0  0
 81160  1  0  0  0
 81161  1  0  0  0
 81162  1  0  0  0
 81 86  1  0  0  0
 82 86  1  0  0  0
 82163  1  0  0  0
 82164  1  0  0  0
 82165  1  0  0  0
 83 89  1  0  0  0
 83166  1  0  0  0
 83167  1  0  0  0
 83168  1  0  0  0
 84 86  1  0  0  0
 84 88  1  0  0  0
 84169  1  0  0  0
 84170  1  0  0  0
 85 86  1  0  0  0
 85171  1  0  0  0
 85172  1  0  0  0
 88173  1  0  0  0
M  ISO  4   1 100  68 101  85 101  89 100
M  END
> <chiral flag>
0

> <version>
0

> <s_m_source_file>
/data/baiqing/PycharmProjects/Reinvent-master-3.2/result/LINK_invent/BTK/process_docking_weight1_custom_product_contain_oxygen_bond_distance_aromatic_linkinvent_7_9_3/rearranged_h_0023.sdf

> <i_m_source_file_index>
51

> <r_mmod_Potential_Energy-OPLS-2005>
773.805847167969

> <r_mmod_Stretch_Energy-OPLS-2005>
132.596710205078

> <r_mmod_Bend_Energy-OPLS-2005>
354.835296630859

> <r_mmod_Torsional_Energy-OPLS-2005>
430.481597900391

> <r_mmod_Improper_Torsional_Energy-OPLS-2005>
38.0748596191406

> <r_mmod_Van_der_Waal_Energy-OPLS-2005>
150.08740234375

> <r_mmod_Electrostatic_Energy-OPLS-2005>
-274.193237304688

> <r_mmod_Solvation_Energy-OPLS-2005>
-205.028518676758

> <b_mmod_Minimization_Converged-OPLS-2005>
0

> <r_mmod_RMS_Derivative-OPLS-2005>
8.22167682647705

$$$$
51
                    3D
 Structure written by MMmdl.
160169  0  0  1  0            999 V2000
  -30.6041  -14.7256   20.4387 C   0  0  0  0  0  0
  -30.4339  -12.4235   19.4825 C   0  0  0  0  0  0
  -29.5162  -12.4904   18.2422 C   0  0  0  0  0  0
  -28.0386  -12.3244   18.6515 C   0  0  0  0  0  0
  -27.6452  -13.2242   19.8538 C   0  0  2  0  0  0
  -28.6874  -13.1491   20.9917 C   0  0  0  0  0  0
  -25.2498  -13.8200   20.5644 C   0  0  0  0  0  0
  -24.1782  -13.0470   20.9195 C   0  0  0  0  0  0
  -24.6351  -11.6948   20.8751 C   0  0  0  0  0  0
  -23.9025  -10.4335   21.0423 C   0  0  0  0  0  0
  -24.3579   -9.4255   21.9211 C   0  0  0  0  0  0
  -23.6258   -8.2288   22.0783 C   0  0  0  0  0  0
  -22.4246   -8.0296   21.3573 C   0  0  0  0  0  0
  -21.9882   -9.0279   20.4695 C   0  0  0  0  0  0
  -22.7193  -10.2167   20.3086 C   0  0  0  0  0  0
  -21.6867   -6.0716   22.5280 C   0  0  0  0  0  0
  -21.4020   -6.5621   23.8208 C   0  0  0  0  0  0
  -21.3662   -5.6776   24.9173 C   0  0  0  0  0  0
  -21.6043   -4.3035   24.7221 C   0  0  0  0  0  0
  -21.8808   -3.8131   23.4338 C   0  0  0  0  0  0
  -21.9210   -4.6952   22.3399 C   0  0  0  0  0  0
  -22.7813  -13.5315   21.1836 C   0  0  0  0  0  0
  -22.1676   -4.2149   21.0979 F   0  0  0  0  0  0
  -21.5626   -3.4518   25.7725 F   0  0  0  0  0  0
  -29.9976  -13.4888   20.4151 N   0  0  0  0  0  0
  -26.2937  -12.9400   20.3264 N   0  0  0  0  0  0
  -25.9279  -11.6544   20.5717 N   0  0  0  0  0  0
  -22.0390  -12.8378   22.0402 N   0  0  0  0  0  0
  -25.4171  -15.1914   20.3988 N   0  0  0  0  0  0
  -31.7811  -14.8473   20.0919 O   0  0  0  0  0  0
  -21.6646   -6.8864   21.4239 O   0  0  0  0  0  0
  -22.3553  -14.5645   20.6683 O   0  0  0  0  0  0
  -24.6285  -31.8565   23.1987 C   0  0  0  0  0  0
  -25.9121  -32.4741   23.8321 C   0  0  1  0  0  0
  -27.2271  -27.3061   20.1248 C   0  0  0  0  0  0
  -25.5934  -33.8546   24.2235 N   0  0  0  0  0  0
  -23.4232  -30.4790   21.5422 C   0  0  2  0  0  0
  -24.8721  -28.9298   20.1089 C   0  0  0  0  0  0
  -22.7487  -29.4607   22.4930 C   0  0  0  0  0  0
  -18.0292  -28.1401   22.8474 C   0  0  0  0  0  0
  -24.1488  -36.7295   23.2629 C   0  0  0  0  0  0
  -25.9639  -30.7808   21.3732 C   0  0  0  0  0  0
  -26.0391  -29.4066   20.7191 C   0  0  0  0  0  0
  -27.2223  -28.6082   20.7151 C   0  0  0  0  0  0
  -26.0415  -26.8817   19.4893 C   0  0  0  0  0  0
  -24.8768  -27.6739   19.4782 C   0  0  0  0  0  0
  -23.6396  -29.8100   20.1580 C   0  0  0  0  0  0
  -25.4104  -36.3051   24.0317 C   0  0  1  0  0  0
  -20.5881  -28.3699   23.1278 C   0  0  2  0  0  0
  -20.6771  -26.9424   22.5408 C   0  0  0  0  0  0
  -19.5747  -26.6413   21.5197 C   0  0  0  0  0  0
  -18.1926  -26.7957   22.1592 C   0  0  0  0  0  0
  -19.1541  -28.8874   23.2870 C   0  0  0  0  0  0
  -18.9452  -30.1479   23.8876 C   0  0  0  0  0  0
  -17.6447  -30.6583   24.0576 C   0  0  0  0  0  0
  -25.9042  -34.9432   23.5070 C   0  0  0  0  0  0
  -16.5341  -29.9071   23.6357 C   0  0  0  0  0  0
  -16.7278  -28.6511   23.0340 C   0  0  0  0  0  0
  -26.4492  -31.6575   25.0719 C   0  0  0  0  0  0
  -25.3732  -31.3769   26.1472 C   0  0  0  0  0  0
  -27.0293  -30.2959   24.6216 C   0  0  0  0  0  0
  -27.6061  -32.4324   25.7465 C   0  0  0  0  0  0
  -27.5593  -37.1764   24.8430 C   0  0  0  0  0  0
  -21.4205  -29.3030   22.3660 N   0  0  0  0  0  0
  -26.4256  -37.3772   23.9441 N   0  0  0  0  0  0
  -24.6904  -31.0569   22.0938 N   0  0  0  0  0  0
  -23.4204  -28.8164   23.3027 O   0  0  0  0  0  0
  -28.3332  -26.4393   20.1377 O   0  0  0  0  0  0
  -26.5627  -34.8902   22.4634 O   0  0  0  0  0  0
  -23.5450  -32.1379   23.7311 O   0  0  0  0  0  0
  -30.9783  -19.3621   19.6007 C   0  0  0  0  0  0
  -30.9324  -17.9364   19.7418 C   0  0  0  0  0  0
  -29.0295  -19.5991   20.9545 C   0  0  0  0  0  0
  -30.0508  -20.2609   20.2202 C   0  0  0  0  0  0
  -29.9303  -17.2836   20.5096 C   0  0  0  0  0  0
  -28.9670  -18.1697   21.0858 C   0  0  0  0  0  0
  -29.4562  -22.7872   20.7011 C   0  0  0  0  0  0
  -28.8075  -23.8193   20.0393 C   0  0  0  0  0  0
  -29.8616  -22.9093   22.1612 C   0  0  0  0  0  0
  -31.2209  -22.2116   22.2315 C   0  0  0  0  0  0
  -31.5373  -21.9783   20.7557 C   0  0  0  0  0  0
  -28.6507  -23.8104   18.5311 C   0  0  0  0  0  0
  -28.1110  -25.0802   20.7027 C   0  0  0  0  0  0
  -30.2312  -21.7068   20.1555 N   0  0  0  0  0  0
  -29.7942  -15.8157   20.6917 N   0  0  0  0  0  0
  -27.6635  -17.4974   21.9986 Cl  0  0  0  0  0  0
  -31.4803  -12.5264   19.1923 H   0  0  0  0  0  0
  -30.3556  -11.4477   19.9639 H   0  0  0  0  0  0
  -29.7911  -11.7159   17.5251 H   0  0  0  0  0  0
  -29.6570  -13.4421   17.7279 H   0  0  0  0  0  0
  -27.8791  -11.2773   18.9100 H   0  0  0  0  0  0
  -27.3885  -12.5209   17.7993 H   0  0  0  0  0  0
  -27.6501  -14.2442   19.4713 H   0  0  0  0  0  0
  -28.7075  -12.1504   21.4294 H   0  0  0  0  0  0
  -28.4197  -13.8283   21.8035 H   0  0  0  0  0  0
  -25.2709   -9.5750   22.4782 H   0  0  0  0  0  0
  -23.9989   -7.4696   22.7500 H   0  0  0  0  0  0
  -21.0816   -8.8778   19.9007 H   0  0  0  0  0  0
  -22.3630  -10.9689   19.6186 H   0  0  0  0  0  0
  -21.2002   -7.6123   23.9690 H   0  0  0  0  0  0
  -21.1492   -6.0519   25.9072 H   0  0  0  0  0  0
  -22.0585   -2.7594   23.2844 H   0  0  0  0  0  0
  -22.3917  -12.0043   22.4850 H   0  0  0  0  0  0
  -21.1028  -13.1508   22.2555 H   0  0  0  0  0  0
  -24.6494  -15.8412   20.5228 H   0  0  0  0  0  0
  -26.2671  -15.6432   20.0876 H   0  0  0  0  0  0
  -26.7200  -32.5398   23.1080 H   0  0  0  0  0  0
  -25.0102  -33.9679   25.0383 H   0  0  0  0  0  0
  -22.7174  -31.2987   21.3973 H   0  0  0  0  0  0
  -23.3752  -35.9624   23.3215 H   0  0  0  0  0  0
  -24.3603  -36.8997   22.2061 H   0  0  0  0  0  0
  -23.7226  -37.6464   23.6704 H   0  0  0  0  0  0
  -26.0980  -31.5386   20.6006 H   0  0  0  0  0  0
  -26.8429  -30.8298   22.0042 H   0  0  0  0  0  0
  -28.1172  -28.9744   21.1975 H   0  0  0  0  0  0
  -26.0085  -25.9183   18.9994 H   0  0  0  0  0  0
  -23.9894  -27.3103   18.9806 H   0  0  0  0  0  0
  -23.7580  -30.5843   19.3989 H   0  0  0  0  0  0
  -22.7605  -29.2376   19.8566 H   0  0  0  0  0  0
  -25.1272  -36.1879   25.0811 H   0  0  0  0  0  0
  -20.9968  -28.3273   24.1395 H   0  0  0  0  0  0
  -20.5668  -26.2299   23.3601 H   0  0  0  0  0  0
  -21.6643  -26.7460   22.1199 H   0  0  0  0  0  0
  -19.6903  -25.6327   21.1223 H   0  0  0  0  0  0
  -19.6694  -27.3231   20.6731 H   0  0  0  0  0  0
  -17.4218  -26.6757   21.3968 H   0  0  0  0  0  0
  -18.0281  -26.0080   22.8962 H   0  0  0  0  0  0
  -19.7922  -30.7326   24.2208 H   0  0  0  0  0  0
  -17.4990  -31.6253   24.5189 H   0  0  0  0  0  0
  -15.5331  -30.2950   23.7691 H   0  0  0  0  0  0
  -15.8689  -28.0833   22.7015 H   0  0  0  0  0  0
  -24.5880  -30.7123   25.7848 H   0  0  0  0  0  0
  -24.8964  -32.2967   26.4873 H   0  0  0  0  0  0
  -25.8068  -30.8990   27.0264 H   0  0  0  0  0  0
  -26.2848  -29.6737   24.1238 H   0  0  0  0  0  0
  -27.3916  -29.7199   25.4741 H   0  0  0  0  0  0
  -27.8771  -30.4168   23.9465 H   0  0  0  0  0  0
  -27.2646  -33.3587   26.2092 H   0  0  0  0  0  0
  -28.3814  -32.6955   25.0258 H   0  0  0  0  0  0
  -28.0807  -31.8455   26.5333 H   0  0  0  0  0  0
  -28.2532  -38.0134   24.7580 H   0  0  0  0  0  0
  -28.1151  -36.2675   24.6080 H   0  0  0  0  0  0
  -27.2366  -37.1239   25.8839 H   0  0  0  0  0  0
  -20.9395  -29.8726   21.6846 H   0  0  0  0  0  0
  -26.0124  -38.2827   24.1504 H   0  0  0  0  0  0
  -31.7862  -19.7722   19.0100 H   0  0  0  0  0  0
  -31.6850  -17.3492   19.2370 H   0  0  0  0  0  0
  -28.2892  -20.2042   21.4546 H   0  0  0  0  0  0
  -29.1205  -22.4597   22.8224 H   0  0  0  0  0  0
  -30.0012  -23.9526   22.4451 H   0  0  0  0  0  0
  -31.1382  -21.2557   22.7520 H   0  0  0  0  0  0
  -31.9858  -22.8037   22.7338 H   0  0  0  0  0  0
  -32.3059  -21.2159   20.6273 H   0  0  0  0  0  0
  -31.9400  -22.8942   20.3173 H   0  0  0  0  0  0
  -29.2199  -23.0065   18.0639 H   0  0  0  0  0  0
  -29.0018  -24.7533   18.1109 H   0  0  0  0  0  0
  -27.6012  -23.6929   18.2595 H   0  0  0  0  0  0
  -28.3563  -25.1461   21.7611 H   0  0  0  0  0  0
  -27.0481  -24.8440   20.6979 H   0  0  0  0  0  0
  -28.8843  -15.5502   21.0357 H   0  0  0  0  0  0
  1 25  1  0  0  0
  1 30  2  0  0  0
  1 85  1  0  0  0
  2  3  1  0  0  0
  2 25  1  0  0  0
  2 87  1  0  0  0
  2 88  1  0  0  0
  3  4  1  0  0  0
  3 89  1  0  0  0
  3 90  1  0  0  0
  4  5  1  0  0  0
  4 91  1  0  0  0
  4 92  1  0  0  0
  5  6  1  0  0  0
  5 26  1  0  0  0
  5 93  1  0  0  0
  6 25  1  0  0  0
  6 94  1  0  0  0
  6 95  1  0  0  0
  7  8  2  0  0  0
  7 26  1  0  0  0
  7 29  1  0  0  0
  8  9  1  0  0  0
  8 22  1  0  0  0
  9 10  1  0  0  0
  9 27  2  0  0  0
 10 11  2  0  0  0
 10 15  1  0  0  0
 11 12  1  0  0  0
 11 96  1  0  0  0
 12 13  2  0  0  0
 12 97  1  0  0  0
 13 14  1  0  0  0
 13 31  1  0  0  0
 14 15  2  0  0  0
 14 98  1  0  0  0
 15 99  1  0  0  0
 16 17  2  0  0  0
 16 21  1  0  0  0
 16 31  1  0  0  0
 17 18  1  0  0  0
 17100  1  0  0  0
 18 19  2  0  0  0
 18101  1  0  0  0
 19 20  1  0  0  0
 19 24  1  0  0  0
 20 21  2  0  0  0
 20102  1  0  0  0
 21 23  1  0  0  0
 22 28  1  0  0  0
 22 32  2  0  0  0
 26 27  1  0  0  0
 28103  1  0  0  0
 28104  1  0  0  0
 29105  1  0  0  0
 29106  1  0  0  0
 33 34  1  0  0  0
 33 66  1  0  0  0
 33 70  2  0  0  0
 34 36  1  0  0  0
 34 59  1  0  0  0
 34107  1  0  0  0
 35 44  2  0  0  0
 35 45  1  0  0  0
 35 68  1  0  0  0
 36 56  1  0  0  0
 36108  1  0  0  0
 37 39  1  0  0  0
 37 47  1  0  0  0
 37 66  1  0  0  0
 37109  1  0  0  0
 38 43  2  0  0  0
 38 46  1  0  0  0
 38 47  1  0  0  0
 39 64  1  0  0  0
 39 67  2  0  0  0
 40 52  1  0  0  0
 40 53  2  0  0  0
 40 58  1  0  0  0
 41110  1  0  0  0
 41111  1  0  0  0
 41112  1  0  0  0
 41 48  1  0  0  0
 42 43  1  0  0  0
 42 66  1  0  0  0
 42113  1  0  0  0
 42114  1  0  0  0
 43 44  1  0  0  0
 44115  1  0  0  0
 45 46  2  0  0  0
 45116  1  0  0  0
 46117  1  0  0  0
 47118  1  0  0  0
 47119  1  0  0  0
 48 56  1  0  0  0
 48 65  1  0  0  0
 48120  1  0  0  0
 49 50  1  0  0  0
 49 53  1  0  0  0
 49 64  1  0  0  0
 49121  1  0  0  0
 50 51  1  0  0  0
 50122  1  0  0  0
 50123  1  0  0  0
 51 52  1  0  0  0
 51124  1  0  0  0
 51125  1  0  0  0
 52126  1  0  0  0
 52127  1  0  0  0
 53 54  1  0  0  0
 54 55  2  0  0  0
 54128  1  0  0  0
 55 57  1  0  0  0
 55129  1  0  0  0
 56 69  2  0  0  0
 57 58  2  0  0  0
 57130  1  0  0  0
 58131  1  0  0  0
 59 60  1  0  0  0
 59 61  1  0  0  0
 59 62  1  0  0  0
 60132  1  0  0  0
 60133  1  0  0  0
 60134  1  0  0  0
 61135  1  0  0  0
 61136  1  0  0  0
 61137  1  0  0  0
 62138  1  0  0  0
 62139  1  0  0  0
 62140  1  0  0  0
 63 65  1  0  0  0
 63141  1  0  0  0
 63142  1  0  0  0
 63143  1  0  0  0
 64144  1  0  0  0
 65145  1  0  0  0
 68 83  1  0  0  0
 71 72  2  0  0  0
 71 74  1  0  0  0
 71146  1  0  0  0
 72 75  1  0  0  0
 72147  1  0  0  0
 73 74  2  0  0  0
 73 76  1  0  0  0
 73148  1  0  0  0
 74 84  1  0  0  0
 75 76  2  0  0  0
 75 85  1  0  0  0
 76 86  1  0  0  0
 77 78  2  0  0  0
 77 79  1  0  0  0
 77 84  1  0  0  0
 78 82  1  0  0  0
 78 83  1  0  0  0
 79 80  1  0  0  0
 79149  1  0  0  0
 79150  1  0  0  0
 80 81  1  0  0  0
 80151  1  0  0  0
 80152  1  0  0  0
 81 84  1  0  0  0
 81153  1  0  0  0
 81154  1  0  0  0
 82155  1  0  0  0
 82156  1  0  0  0
 82157  1  0  0  0
 83158  1  0  0  0
 83159  1  0  0  0
 85160  1  0  0  0
M  ISO  4   1 100  68 101  83 101  85 100
M  END
> <chiral flag>
0

> <version>
0

> <s_m_source_file>
/data/baiqing/PycharmProjects/Reinvent-master-3.2/result/LINK_invent/BTK/process_docking_weight1_custom_product_contain_oxygen_bond_distance_aromatic_linkinvent_7_9_3/rearranged_h_0023.sdf

> <i_m_source_file_index>
52

> <r_mmod_Potential_Energy-OPLS-2005>
194.262084960938

> <r_mmod_Stretch_Energy-OPLS-2005>
100.331764221191

> <r_mmod_Bend_Energy-OPLS-2005>
209.694854736328

> <r_mmod_Torsional_Energy-OPLS-2005>
286.361602783203

> <r_mmod_Improper_Torsional_Energy-OPLS-2005>
11.1581859588623

> <r_mmod_Van_der_Waal_Energy-OPLS-2005>
142.237030029297

> <r_mmod_Electrostatic_Energy-OPLS-2005>
-427.805206298828

> <r_mmod_Solvation_Energy-OPLS-2005>
-197.940521240234

> <b_mmod_Minimization_Converged-OPLS-2005>
0

> <r_mmod_RMS_Derivative-OPLS-2005>
3.71343111991882

$$$$
52
                    3D
 Structure written by MMmdl.
164173  0  0  1  0            999 V2000
  -30.7027  -14.4620   20.5652 C   0  0  0  0  0  0
  -30.4262  -12.2950   19.4328 C   0  0  0  0  0  0
  -29.5010  -12.5152   18.2179 C   0  0  0  0  0  0
  -28.0192  -12.3818   18.6243 C   0  0  0  0  0  0
  -27.6695  -13.2093   19.8891 C   0  0  2  0  0  0
  -28.7114  -12.9801   21.0096 C   0  0  0  0  0  0
  -25.2632  -13.8164   20.5693 C   0  0  0  0  0  0
  -24.1862  -13.0446   20.9162 C   0  0  0  0  0  0
  -24.6415  -11.6913   20.8739 C   0  0  0  0  0  0
  -23.9057  -10.4307   21.0388 C   0  0  0  0  0  0
  -24.3617   -9.4213   21.9156 C   0  0  0  0  0  0
  -23.6305   -8.2243   22.0724 C   0  0  0  0  0  0
  -22.4284   -8.0285   21.3513 C   0  0  0  0  0  0
  -21.9906   -9.0256   20.4609 C   0  0  0  0  0  0
  -22.7230  -10.2141   20.3017 C   0  0  0  0  0  0
  -21.6852   -6.0740   22.5276 C   0  0  0  0  0  0
  -21.4018   -6.5638   23.8223 C   0  0  0  0  0  0
  -21.3665   -5.6782   24.9174 C   0  0  0  0  0  0
  -21.6056   -4.3052   24.7213 C   0  0  0  0  0  0
  -21.8826   -3.8145   23.4330 C   0  0  0  0  0  0
  -21.9197   -4.6965   22.3396 C   0  0  0  0  0  0
  -22.7897  -13.5239   21.1856 C   0  0  0  0  0  0
  -22.1661   -4.2151   21.0970 F   0  0  0  0  0  0
  -21.5636   -3.4533   25.7724 F   0  0  0  0  0  0
  -30.0483  -13.2738   20.4633 N   0  0  0  0  0  0
  -26.3089  -12.9346   20.3453 N   0  0  0  0  0  0
  -25.9360  -11.6501   20.5816 N   0  0  0  0  0  0
  -22.0531  -12.8219   22.0402 N   0  0  0  0  0  0
  -25.4367  -15.1876   20.4108 N   0  0  0  0  0  0
  -31.8138  -14.6654   20.0684 O   0  0  0  0  0  0
  -21.6636   -6.8885   21.4237 O   0  0  0  0  0  0
  -22.3584  -14.5558   20.6721 O   0  0  0  0  0  0
  -24.6139  -31.8679   23.2150 C   0  0  0  0  0  0
  -25.9040  -32.4818   23.8425 C   0  0  1  0  0  0
  -27.2315  -27.4407   20.0819 C   0  0  0  0  0  0
  -25.5904  -33.8621   24.2342 N   0  0  0  0  0  0
  -23.4012  -30.4961   21.5548 C   0  0  2  0  0  0
  -24.8456  -28.9693   20.1162 C   0  0  0  0  0  0
  -22.7397  -29.4674   22.4994 C   0  0  0  0  0  0
  -18.0269  -28.1384   22.8493 C   0  0  0  0  0  0
  -24.1487  -36.7316   23.2633 C   0  0  0  0  0  0
  -25.9327  -30.8354   21.3701 C   0  0  0  0  0  0
  -26.0094  -29.4745   20.7081 C   0  0  0  0  0  0
  -27.2055  -28.7188   20.6876 C   0  0  0  0  0  0
  -26.0412  -26.9583   19.4813 C   0  0  0  0  0  0
  -24.8550  -27.7085   19.5039 C   0  0  0  0  0  0
  -23.6089  -29.8347   20.1682 C   0  0  0  0  0  0
  -25.4103  -36.3108   24.0332 C   0  0  1  0  0  0
  -20.5857  -28.3667   23.1316 C   0  0  2  0  0  0
  -20.6761  -26.9406   22.5413 C   0  0  0  0  0  0
  -19.5743  -26.6394   21.5212 C   0  0  0  0  0  0
  -18.1922  -26.7930   22.1622 C   0  0  0  0  0  0
  -19.1517  -28.8842   23.2905 C   0  0  0  0  0  0
  -18.9444  -30.1448   23.8911 C   0  0  0  0  0  0
  -17.6447  -30.6588   24.0571 C   0  0  0  0  0  0
  -25.9030  -34.9468   23.5130 C   0  0  0  0  0  0
  -16.5338  -29.9089   23.6331 C   0  0  0  0  0  0
  -16.7260  -28.6512   23.0340 C   0  0  0  0  0  0
  -26.4470  -31.6607   25.0762 C   0  0  0  0  0  0
  -25.3763  -31.3714   26.1540 C   0  0  0  0  0  0
  -27.0294  -30.3040   24.6160 C   0  0  0  0  0  0
  -27.6049  -32.4336   25.7508 C   0  0  0  0  0  0
  -27.5581  -37.1801   24.8456 C   0  0  0  0  0  0
  -21.4128  -29.3032   22.3724 N   0  0  0  0  0  0
  -26.4285  -37.3795   23.9415 N   0  0  0  0  0  0
  -24.6678  -31.0790   22.1052 N   0  0  0  0  0  0
  -23.4168  -28.8198   23.3023 O   0  0  0  0  0  0
  -28.3968  -26.6912   20.1026 O   0  0  0  0  0  0
  -26.5580  -34.8914   22.4684 O   0  0  0  0  0  0
  -23.5334  -32.1421   23.7555 O   0  0  0  0  0  0
  -29.6687  -18.4459   18.9075 C   0  0  0  0  0  0
  -29.8044  -17.1106   19.3354 C   0  0  0  0  0  0
  -29.9825  -17.8727   21.6384 C   0  0  0  0  0  0
  -29.6818  -19.5117   19.8324 C   0  0  0  0  0  0
  -29.9662  -16.8076   20.7082 C   0  0  0  0  0  0
  -29.8438  -19.2126   21.2070 C   0  0  0  0  0  0
  -31.0694  -22.8843   19.4924 C   0  0  0  0  0  0
  -32.2915  -22.4718   19.1007 C   0  0  0  0  0  0
  -30.5432  -24.3052   19.4278 C   0  0  0  0  0  0
  -28.9759  -22.9460   20.6941 C   0  0  0  0  0  0
  -29.4097  -24.4046   20.4531 C   0  0  2  0  0  0
  -32.8736  -21.0750   19.2090 C   0  0  0  0  0  0
  -29.4630  -20.9370   19.3067 C   0  0  0  0  0  0
  -28.2101  -25.2717   20.0126 C   0  0  0  0  0  0
  -30.0160  -15.4546   21.1597 N   0  0  0  0  0  0
  -30.0208  -22.0416   20.1470 N   0  3  1  0  0  0
  -29.8616  -20.2146   22.1182 F   0  0  0  0  0  0
  -31.4732  -12.3860   19.1359 H   0  0  0  0  0  0
  -30.3158  -11.2814   19.8219 H   0  0  0  0  0  0
  -29.7404  -11.8018   17.4290 H   0  0  0  0  0  0
  -29.6796  -13.5079   17.8018 H   0  0  0  0  0  0
  -27.8213  -11.3260   18.8089 H   0  0  0  0  0  0
  -27.3707  -12.6716   17.7963 H   0  0  0  0  0  0
  -27.7186  -14.2607   19.6058 H   0  0  0  0  0  0
  -28.6823  -11.9461   21.3583 H   0  0  0  0  0  0
  -28.4770  -13.5847   21.8859 H   0  0  0  0  0  0
  -25.2757   -9.5710   22.4723 H   0  0  0  0  0  0
  -24.0023   -7.4635   22.7441 H   0  0  0  0  0  0
  -21.0827   -8.8764   19.8924 H   0  0  0  0  0  0
  -22.3672  -10.9671   19.6127 H   0  0  0  0  0  0
  -21.1997   -7.6144   23.9727 H   0  0  0  0  0  0
  -21.1490   -6.0496   25.9080 H   0  0  0  0  0  0
  -22.0598   -2.7603   23.2815 H   0  0  0  0  0  0
  -22.4140  -11.9860   22.4759 H   0  0  0  0  0  0
  -21.1150  -13.1248   22.2635 H   0  0  0  0  0  0
  -24.6751  -15.8483   20.5174 H   0  0  0  0  0  0
  -26.3010  -15.6236   20.1140 H   0  0  0  0  0  0
  -26.7110  -32.5522   23.1182 H   0  0  0  0  0  0
  -25.0093  -33.9788   25.0513 H   0  0  0  0  0  0
  -22.6903  -31.3140   21.4180 H   0  0  0  0  0  0
  -23.3742  -35.9659   23.3307 H   0  0  0  0  0  0
  -24.3587  -36.8916   22.2046 H   0  0  0  0  0  0
  -23.7248  -37.6529   23.6635 H   0  0  0  0  0  0
  -26.0519  -31.6108   20.6122 H   0  0  0  0  0  0
  -26.8169  -30.8751   21.9949 H   0  0  0  0  0  0
  -28.1020  -29.1053   21.1526 H   0  0  0  0  0  0
  -25.9987  -25.9996   18.9873 H   0  0  0  0  0  0
  -23.9580  -27.3129   19.0486 H   0  0  0  0  0  0
  -23.7188  -30.6117   19.4102 H   0  0  0  0  0  0
  -22.7327  -29.2548   19.8706 H   0  0  0  0  0  0
  -25.1276  -36.1969   25.0824 H   0  0  0  0  0  0
  -20.9949  -28.3234   24.1439 H   0  0  0  0  0  0
  -20.5685  -26.2267   23.3590 H   0  0  0  0  0  0
  -21.6634  -26.7466   22.1190 H   0  0  0  0  0  0
  -19.6905  -25.6314   21.1221 H   0  0  0  0  0  0
  -19.6687  -27.3221   20.6752 H   0  0  0  0  0  0
  -17.4192  -26.6681   21.4026 H   0  0  0  0  0  0
  -18.0331  -26.0068   22.9017 H   0  0  0  0  0  0
  -19.7924  -30.7265   24.2279 H   0  0  0  0  0  0
  -17.5005  -31.6273   24.5174 H   0  0  0  0  0  0
  -15.5337  -30.2992   23.7661 H   0  0  0  0  0  0
  -15.8661  -28.0847   22.7019 H   0  0  0  0  0  0
  -24.5925  -30.7055   25.7917 H   0  0  0  0  0  0
  -24.8975  -32.2867   26.5025 H   0  0  0  0  0  0
  -25.8159  -30.8884   27.0275 H   0  0  0  0  0  0
  -26.2839  -29.6808   24.1208 H   0  0  0  0  0  0
  -27.4026  -29.7277   25.4635 H   0  0  0  0  0  0
  -27.8697  -30.4337   23.9338 H   0  0  0  0  0  0
  -27.2655  -33.3614   26.2124 H   0  0  0  0  0  0
  -28.3828  -32.6933   25.0319 H   0  0  0  0  0  0
  -28.0752  -31.8451   26.5393 H   0  0  0  0  0  0
  -28.2585  -38.0113   24.7530 H   0  0  0  0  0  0
  -28.1085  -36.2645   24.6240 H   0  0  0  0  0  0
  -27.2304  -37.1407   25.8860 H   0  0  0  0  0  0
  -20.9281  -29.8749   21.6946 H   0  0  0  0  0  0
  -26.0172  -38.2864   24.1452 H   0  0  0  0  0  0
  -29.5312  -18.6478   17.8536 H   0  0  0  0  0  0
  -29.7621  -16.3230   18.5960 H   0  0  0  0  0  0
  -30.0943  -17.6681   22.6931 H   0  0  0  0  0  0
  -32.9434  -23.2006   18.6398 H   0  0  0  0  0  0
  -30.1966  -24.5049   18.4132 H   0  0  0  0  0  0
  -31.3403  -25.0163   19.6490 H   0  0  0  0  0  0
  -28.0074  -22.7762   20.2237 H   0  0  0  0  0  0
  -28.8287  -22.7559   21.7576 H   0  0  0  0  0  0
  -29.8186  -24.7921   21.3882 H   0  0  0  0  0  0
  -32.2840  -20.4113   19.8386 H   0  0  0  0  0  0
  -33.8731  -21.1335   19.6435 H   0  0  0  0  0  0
  -32.9643  -20.6270   18.2185 H   0  0  0  0  0  0
  -28.3922  -21.0479   19.1325 H   0  0  0  0  0  0
  -29.9037  -21.0013   18.3102 H   0  0  0  0  0  0
  -27.3738  -25.0011   20.6607 H   0  0  0  0  0  0
  -27.9303  -24.9959   18.9947 H   0  0  0  0  0  0
  -29.2444  -15.1572   21.7392 H   0  0  0  0  0  0
  -30.4186  -21.5785   20.9551 H   0  0  0  0  0  0
  1 25  1  0  0  0
  1 30  2  0  0  0
  1 85  1  0  0  0
  2  3  1  0  0  0
  2 25  1  0  0  0
  2 88  1  0  0  0
  2 89  1  0  0  0
  3  4  1  0  0  0
  3 90  1  0  0  0
  3 91  1  0  0  0
  4  5  1  0  0  0
  4 92  1  0  0  0
  4 93  1  0  0  0
  5  6  1  0  0  0
  5 26  1  0  0  0
  5 94  1  0  0  0
  6 25  1  0  0  0
  6 95  1  0  0  0
  6 96  1  0  0  0
  7  8  2  0  0  0
  7 26  1  0  0  0
  7 29  1  0  0  0
  8  9  1  0  0  0
  8 22  1  0  0  0
  9 10  1  0  0  0
  9 27  2  0  0  0
 10 11  2  0  0  0
 10 15  1  0  0  0
 11 12  1  0  0  0
 11 97  1  0  0  0
 12 13  2  0  0  0
 12 98  1  0  0  0
 13 14  1  0  0  0
 13 31  1  0  0  0
 14 15  2  0  0  0
 14 99  1  0  0  0
 15100  1  0  0  0
 16 17  2  0  0  0
 16 21  1  0  0  0
 16 31  1  0  0  0
 17 18  1  0  0  0
 17101  1  0  0  0
 18 19  2  0  0  0
 18102  1  0  0  0
 19 20  1  0  0  0
 19 24  1  0  0  0
 20 21  2  0  0  0
 20103  1  0  0  0
 21 23  1  0  0  0
 22 28  1  0  0  0
 22 32  2  0  0  0
 26 27  1  0  0  0
 28104  1  0  0  0
 28105  1  0  0  0
 29106  1  0  0  0
 29107  1  0  0  0
 33 34  1  0  0  0
 33 66  1  0  0  0
 33 70  2  0  0  0
 34 36  1  0  0  0
 34 59  1  0  0  0
 34108  1  0  0  0
 35 44  2  0  0  0
 35 45  1  0  0  0
 35 68  1  0  0  0
 36 56  1  0  0  0
 36109  1  0  0  0
 37 39  1  0  0  0
 37 47  1  0  0  0
 37 66  1  0  0  0
 37110  1  0  0  0
 38 43  2  0  0  0
 38 46  1  0  0  0
 38 47  1  0  0  0
 39 64  1  0  0  0
 39 67  2  0  0  0
 40 52  1  0  0  0
 40 53  2  0  0  0
 40 58  1  0  0  0
 41111  1  0  0  0
 41112  1  0  0  0
 41113  1  0  0  0
 41 48  1  0  0  0
 42 43  1  0  0  0
 42 66  1  0  0  0
 42114  1  0  0  0
 42115  1  0  0  0
 43 44  1  0  0  0
 44116  1  0  0  0
 45 46  2  0  0  0
 45117  1  0  0  0
 46118  1  0  0  0
 47119  1  0  0  0
 47120  1  0  0  0
 48 56  1  0  0  0
 48 65  1  0  0  0
 48121  1  0  0  0
 49 50  1  0  0  0
 49 53  1  0  0  0
 49 64  1  0  0  0
 49122  1  0  0  0
 50 51  1  0  0  0
 50123  1  0  0  0
 50124  1  0  0  0
 51 52  1  0  0  0
 51125  1  0  0  0
 51126  1  0  0  0
 52127  1  0  0  0
 52128  1  0  0  0
 53 54  1  0  0  0
 54 55  2  0  0  0
 54129  1  0  0  0
 55 57  1  0  0  0
 55130  1  0  0  0
 56 69  2  0  0  0
 57 58  2  0  0  0
 57131  1  0  0  0
 58132  1  0  0  0
 59 60  1  0  0  0
 59 61  1  0  0  0
 59 62  1  0  0  0
 60133  1  0  0  0
 60134  1  0  0  0
 60135  1  0  0  0
 61136  1  0  0  0
 61137  1  0  0  0
 61138  1  0  0  0
 62139  1  0  0  0
 62140  1  0  0  0
 62141  1  0  0  0
 63 65  1  0  0  0
 63142  1  0  0  0
 63143  1  0  0  0
 63144  1  0  0  0
 64145  1  0  0  0
 65146  1  0  0  0
 68 84  1  0  0  0
 71 72  2  0  0  0
 71 74  1  0  0  0
 71147  1  0  0  0
 72 75  1  0  0  0
 72148  1  0  0  0
 73 75  2  0  0  0
 73 76  1  0  0  0
 73149  1  0  0  0
 74 76  2  0  0  0
 74 83  1  0  0  0
 75 85  1  0  0  0
 76 87  1  0  0  0
 77 78  2  0  0  0
 77 79  1  0  0  0
 77 86  1  0  0  0
 78 82  1  0  0  0
 78150  1  0  0  0
 79 81  1  0  0  0
 79151  1  0  0  0
 79152  1  0  0  0
 80 81  1  0  0  0
 80 86  1  0  0  0
 80153  1  0  0  0
 80154  1  0  0  0
 81 84  1  0  0  0
 81155  1  0  0  0
 82156  1  0  0  0
 82157  1  0  0  0
 82158  1  0  0  0
 83159  1  0  0  0
 83160  1  0  0  0
 83 86  1  0  0  0
 84161  1  0  0  0
 84162  1  0  0  0
 85163  1  0  0  0
 86164  1  0  0  0
M  CHG  1  86   1
M  ISO  4   1 100  68 101  84 101  85 100
M  END
> <chiral flag>
0

> <version>
0

> <s_m_source_file>
/data/baiqing/PycharmProjects/Reinvent-master-3.2/result/LINK_invent/BTK/process_docking_weight1_custom_product_contain_oxygen_bond_distance_aromatic_linkinvent_7_9_3/rearranged_h_0023.sdf

> <i_m_source_file_index>
53

> <r_mmod_Potential_Energy-OPLS-2005>
-125.890716552734

> <r_mmod_Stretch_Energy-OPLS-2005>
37.6752738952637

> <r_mmod_Bend_Energy-OPLS-2005>
114.968650817871

> <r_mmod_Torsional_Energy-OPLS-2005>
286.389068603516

> <r_mmod_Improper_Torsional_Energy-OPLS-2005>
4.26359033584595

> <r_mmod_Van_der_Waal_Energy-OPLS-2005>
159.523056030273

> <r_mmod_Electrostatic_Energy-OPLS-2005>
-311.466857910156

> <r_mmod_Solvation_Energy-OPLS-2005>
-429.322021484375

> <b_mmod_Minimization_Converged-OPLS-2005>
0

> <r_mmod_RMS_Derivative-OPLS-2005>
2.48891949653625

$$$$
53
                    3D
 Structure written by MMmdl.
155164  0  0  1  0            999 V2000
  -30.6217  -14.6357   20.5067 C   0  0  0  0  0  0
  -30.4415  -12.3908   19.4512 C   0  0  0  0  0  0
  -29.5084  -12.5091   18.2249 C   0  0  0  0  0  0
  -28.0307  -12.3492   18.6365 C   0  0  0  0  0  0
  -27.6559  -13.2158   19.8686 C   0  0  2  0  0  0
  -28.7018  -13.0600   20.9960 C   0  0  0  0  0  0
  -25.2561  -13.8160   20.5686 C   0  0  0  0  0  0
  -24.1822  -13.0424   20.9161 C   0  0  0  0  0  0
  -24.6399  -11.6899   20.8727 C   0  0  0  0  0  0
  -23.9067  -10.4284   21.0398 C   0  0  0  0  0  0
  -24.3617   -9.4204   21.9180 C   0  0  0  0  0  0
  -23.6290   -8.2241   22.0754 C   0  0  0  0  0  0
  -22.4271   -8.0279   21.3544 C   0  0  0  0  0  0
  -21.9907   -9.0251   20.4644 C   0  0  0  0  0  0
  -22.7237  -10.2129   20.3050 C   0  0  0  0  0  0
  -21.6853   -6.0735   22.5279 C   0  0  0  0  0  0
  -21.4013   -6.5639   23.8212 C   0  0  0  0  0  0
  -21.3660   -5.6791   24.9174 C   0  0  0  0  0  0
  -21.6045   -4.3056   24.7223 C   0  0  0  0  0  0
  -21.8819   -3.8147   23.4345 C   0  0  0  0  0  0
  -21.9192   -4.6963   22.3401 C   0  0  0  0  0  0
  -22.7847  -13.5221   21.1838 C   0  0  0  0  0  0
  -22.1661   -4.2150   21.0979 F   0  0  0  0  0  0
  -21.5629   -3.4539   25.7738 F   0  0  0  0  0  0
  -30.0185  -13.4066   20.4354 N   0  0  0  0  0  0
  -26.3008  -12.9348   20.3358 N   0  0  0  0  0  0
  -25.9334  -11.6502   20.5770 N   0  0  0  0  0  0
  -22.0500  -12.8212   22.0404 N   0  0  0  0  0  0
  -25.4251  -15.1882   20.4153 N   0  0  0  0  0  0
  -31.7772  -14.8078   20.1072 O   0  0  0  0  0  0
  -21.6637   -6.8876   21.4241 O   0  0  0  0  0  0
  -22.3524  -14.5532   20.6700 O   0  0  0  0  0  0
  -24.6263  -31.8607   23.2038 C   0  0  0  0  0  0
  -25.9116  -32.4784   23.8361 C   0  0  1  0  0  0
  -27.2217  -27.3211   20.1123 C   0  0  0  0  0  0
  -25.5934  -33.8584   24.2287 N   0  0  0  0  0  0
  -23.4193  -30.4857   21.5467 C   0  0  2  0  0  0
  -24.8653  -28.9452   20.1101 C   0  0  0  0  0  0
  -22.7476  -29.4628   22.4938 C   0  0  0  0  0  0
  -18.0286  -28.1382   22.8485 C   0  0  0  0  0  0
  -24.1489  -36.7289   23.2636 C   0  0  0  0  0  0
  -25.9616  -30.7919   21.3760 C   0  0  0  0  0  0
  -26.0355  -29.4211   20.7147 C   0  0  0  0  0  0
  -27.2171  -28.6211   20.7063 C   0  0  0  0  0  0
  -26.0264  -26.9025   19.4804 C   0  0  0  0  0  0
  -24.8627  -27.6910   19.4845 C   0  0  0  0  0  0
  -23.6336  -29.8244   20.1608 C   0  0  0  0  0  0
  -25.4112  -36.3083   24.0331 C   0  0  1  0  0  0
  -20.5887  -28.3682   23.1285 C   0  0  2  0  0  0
  -20.6776  -26.9406   22.5407 C   0  0  0  0  0  0
  -19.5750  -26.6377   21.5212 C   0  0  0  0  0  0
  -18.1928  -26.7924   22.1623 C   0  0  0  0  0  0
  -19.1540  -28.8848   23.2881 C   0  0  0  0  0  0
  -18.9465  -30.1454   23.8894 C   0  0  0  0  0  0
  -17.6465  -30.6585   24.0561 C   0  0  0  0  0  0
  -25.9051  -34.9454   23.5106 C   0  0  0  0  0  0
  -16.5355  -29.9083   23.6334 C   0  0  0  0  0  0
  -16.7273  -28.6501   23.0352 C   0  0  0  0  0  0
  -26.4501  -31.6593   25.0731 C   0  0  0  0  0  0
  -25.3736  -31.3737   26.1460 C   0  0  0  0  0  0
  -27.0343  -30.3017   24.6182 C   0  0  0  0  0  0
  -27.6057  -32.4331   25.7503 C   0  0  0  0  0  0
  -27.5584  -37.1790   24.8459 C   0  0  0  0  0  0
  -21.4188  -29.3045   22.3689 N   0  0  0  0  0  0
  -26.4286  -37.3781   23.9419 N   0  0  0  0  0  0
  -24.6878  -31.0622   22.0989 N   0  0  0  0  0  0
  -23.4205  -28.8158   23.3006 O   0  0  0  0  0  0
  -28.3337  -26.4621   20.1688 O   0  0  0  0  0  0
  -26.5613  -34.8920   22.4668 O   0  0  0  0  0  0
  -23.5428  -32.1405   23.7367 O   0  0  0  0  0  0
  -30.8689  -19.3004   20.1105 C   0  0  0  0  0  0
  -30.9509  -17.8793   20.2404 C   0  0  0  0  0  0
  -28.6241  -19.2723   20.9562 C   0  0  0  0  0  0
  -29.7055  -20.0541   20.4602 C   0  0  0  0  0  0
  -29.8606  -17.1165   20.7329 C   0  0  0  0  0  0
  -28.7021  -17.8547   21.0867 C   0  0  0  0  0  0
  -28.7349  -22.4505   20.7052 C   0  0  0  0  0  0
  -30.3180  -23.7205   19.4802 C   0  0  0  0  0  0
  -30.7749  -22.2567   19.6782 C   0  0  0  0  0  0
  -29.1790  -23.9370   20.4782 C   0  0  1  0  0  0
  -28.0756  -25.0049   20.0534 C   0  0  0  0  0  0
  -29.6669  -21.5279   20.3030 N   0  0  0  0  0  0
  -29.8136  -15.6649   20.9029 N   0  0  0  0  0  0
  -27.6432  -22.1860   21.2170 O   0  0  0  0  0  0
  -27.6274  -17.1778   21.5588 F   0  0  0  0  0  0
  -31.4821  -12.5193   19.1480 H   0  0  0  0  0  0
  -30.3796  -11.3930   19.8881 H   0  0  0  0  0  0
  -29.7704  -11.7577   17.4789 H   0  0  0  0  0  0
  -29.6514  -13.4787   17.7453 H   0  0  0  0  0  0
  -27.8646  -11.2952   18.8626 H   0  0  0  0  0  0
  -27.3764  -12.5852   17.7965 H   0  0  0  0  0  0
  -27.6759  -14.2532   19.5343 H   0  0  0  0  0  0
  -28.7128  -12.0345   21.3679 H   0  0  0  0  0  0
  -28.4469  -13.6814   21.8558 H   0  0  0  0  0  0
  -25.2765   -9.5682   22.4749 H   0  0  0  0  0  0
  -24.0001   -7.4635   22.7476 H   0  0  0  0  0  0
  -21.0838   -8.8769   19.8950 H   0  0  0  0  0  0
  -22.3697  -10.9666   19.6158 H   0  0  0  0  0  0
  -21.2004   -7.6146   23.9716 H   0  0  0  0  0  0
  -21.1481   -6.0521   25.9077 H   0  0  0  0  0  0
  -22.0598   -2.7608   23.2845 H   0  0  0  0  0  0
  -22.4120  -11.9869   22.4781 H   0  0  0  0  0  0
  -21.1124  -13.1240   22.2628 H   0  0  0  0  0  0
  -24.6667  -15.8429   20.5697 H   0  0  0  0  0  0
  -26.3018  -15.6484   20.2060 H   0  0  0  0  0  0
  -26.7183  -32.5456   23.1106 H   0  0  0  0  0  0
  -25.0107  -33.9735   25.0450 H   0  0  0  0  0  0
  -22.7125  -31.3061   21.4052 H   0  0  0  0  0  0
  -23.3761  -35.9611   23.3285 H   0  0  0  0  0  0
  -24.3584  -36.8920   22.2053 H   0  0  0  0  0  0
  -23.7226  -37.6480   23.6665 H   0  0  0  0  0  0
  -26.0953  -31.5582   20.6109 H   0  0  0  0  0  0
  -26.8414  -30.8368   22.0063 H   0  0  0  0  0  0
  -28.1133  -28.9802   21.1924 H   0  0  0  0  0  0
  -25.9554  -25.9470   18.9836 H   0  0  0  0  0  0
  -23.9664  -27.3210   19.0059 H   0  0  0  0  0  0
  -23.7523  -30.6032   19.4063 H   0  0  0  0  0  0
  -22.7540  -29.2543   19.8569 H   0  0  0  0  0  0
  -25.1288  -36.1930   25.0822 H   0  0  0  0  0  0
  -20.9977  -28.3251   24.1407 H   0  0  0  0  0  0
  -20.5678  -26.2291   23.3604 H   0  0  0  0  0  0
  -21.6644  -26.7434   22.1197 H   0  0  0  0  0  0
  -19.6912  -25.6288   21.1241 H   0  0  0  0  0  0
  -19.6691  -27.3190   20.6745 H   0  0  0  0  0  0
  -17.4198  -26.6677   21.4024 H   0  0  0  0  0  0
  -18.0325  -26.0064   22.9016 H   0  0  0  0  0  0
  -19.7945  -30.7271   24.2256 H   0  0  0  0  0  0
  -17.5022  -31.6267   24.5157 H   0  0  0  0  0  0
  -15.5356  -30.2985   23.7661 H   0  0  0  0  0  0
  -15.8672  -28.0819   22.7071 H   0  0  0  0  0  0
  -24.5905  -30.7092   25.7794 H   0  0  0  0  0  0
  -24.8939  -32.2911   26.4886 H   0  0  0  0  0  0
  -25.8061  -30.8913   27.0234 H   0  0  0  0  0  0
  -26.2917  -29.6770   24.1204 H   0  0  0  0  0  0
  -27.4046  -29.7269   25.4680 H   0  0  0  0  0  0
  -27.8785  -30.4308   23.9403 H   0  0  0  0  0  0
  -27.2661  -33.3633   26.2072 H   0  0  0  0  0  0
  -28.3875  -32.6888   25.0338 H   0  0  0  0  0  0
  -28.0717  -31.8463   26.5428 H   0  0  0  0  0  0
  -28.2572  -38.0119   24.7551 H   0  0  0  0  0  0
  -28.1111  -36.2650   24.6225 H   0  0  0  0  0  0
  -27.2311  -37.1365   25.8863 H   0  0  0  0  0  0
  -20.9360  -29.8783   21.6917 H   0  0  0  0  0  0
  -26.0166  -38.2849   24.1451 H   0  0  0  0  0  0
  -31.7437  -19.8081   19.7308 H   0  0  0  0  0  0
  -31.8686  -17.3862   19.9543 H   0  0  0  0  0  0
  -27.6969  -19.7412   21.2452 H   0  0  0  0  0  0
  -29.9529  -23.8565   18.4611 H   0  0  0  0  0  0
  -31.1358  -24.4260   19.6295 H   0  0  0  0  0  0
  -31.6416  -22.2151   20.3399 H   0  0  0  0  0  0
  -31.0581  -21.8091   18.7246 H   0  0  0  0  0  0
  -29.5995  -24.2533   21.4329 H   0  0  0  0  0  0
  -27.1913  -24.7877   20.6552 H   0  0  0  0  0  0
  -27.7990  -24.7894   19.0209 H   0  0  0  0  0  0
  -28.9243  -15.3455   21.2569 H   0  0  0  0  0  0
  1 25  1  0  0  0
  1 30  2  0  0  0
  1 83  1  0  0  0
  2  3  1  0  0  0
  2 25  1  0  0  0
  2 86  1  0  0  0
  2 87  1  0  0  0
  3  4  1  0  0  0
  3 88  1  0  0  0
  3 89  1  0  0  0
  4  5  1  0  0  0
  4 90  1  0  0  0
  4 91  1  0  0  0
  5  6  1  0  0  0
  5 26  1  0  0  0
  5 92  1  0  0  0
  6 25  1  0  0  0
  6 93  1  0  0  0
  6 94  1  0  0  0
  7  8  2  0  0  0
  7 26  1  0  0  0
  7 29  1  0  0  0
  8  9  1  0  0  0
  8 22  1  0  0  0
  9 10  1  0  0  0
  9 27  2  0  0  0
 10 11  2  0  0  0
 10 15  1  0  0  0
 11 12  1  0  0  0
 11 95  1  0  0  0
 12 13  2  0  0  0
 12 96  1  0  0  0
 13 14  1  0  0  0
 13 31  1  0  0  0
 14 15  2  0  0  0
 14 97  1  0  0  0
 15 98  1  0  0  0
 16 17  2  0  0  0
 16 21  1  0  0  0
 16 31  1  0  0  0
 17 18  1  0  0  0
 17 99  1  0  0  0
 18 19  2  0  0  0
 18100  1  0  0  0
 19 20  1  0  0  0
 19 24  1  0  0  0
 20 21  2  0  0  0
 20101  1  0  0  0
 21 23  1  0  0  0
 22 28  1  0  0  0
 22 32  2  0  0  0
 26 27  1  0  0  0
 28102  1  0  0  0
 28103  1  0  0  0
 29104  1  0  0  0
 29105  1  0  0  0
 33 34  1  0  0  0
 33 66  1  0  0  0
 33 70  2  0  0  0
 34 36  1  0  0  0
 34 59  1  0  0  0
 34106  1  0  0  0
 35 44  2  0  0  0
 35 45  1  0  0  0
 35 68  1  0  0  0
 36 56  1  0  0  0
 36107  1  0  0  0
 37 39  1  0  0  0
 37 47  1  0  0  0
 37 66  1  0  0  0
 37108  1  0  0  0
 38 43  2  0  0  0
 38 46  1  0  0  0
 38 47  1  0  0  0
 39 64  1  0  0  0
 39 67  2  0  0  0
 40 52  1  0  0  0
 40 53  2  0  0  0
 40 58  1  0  0  0
 41109  1  0  0  0
 41110  1  0  0  0
 41111  1  0  0  0
 41 48  1  0  0  0
 42 43  1  0  0  0
 42 66  1  0  0  0
 42112  1  0  0  0
 42113  1  0  0  0
 43 44  1  0  0  0
 44114  1  0  0  0
 45 46  2  0  0  0
 45115  1  0  0  0
 46116  1  0  0  0
 47117  1  0  0  0
 47118  1  0  0  0
 48 56  1  0  0  0
 48 65  1  0  0  0
 48119  1  0  0  0
 49 50  1  0  0  0
 49 53  1  0  0  0
 49 64  1  0  0  0
 49120  1  0  0  0
 50 51  1  0  0  0
 50121  1  0  0  0
 50122  1  0  0  0
 51 52  1  0  0  0
 51123  1  0  0  0
 51124  1  0  0  0
 52125  1  0  0  0
 52126  1  0  0  0
 53 54  1  0  0  0
 54 55  2  0  0  0
 54127  1  0  0  0
 55 57  1  0  0  0
 55128  1  0  0  0
 56 69  2  0  0  0
 57 58  2  0  0  0
 57129  1  0  0  0
 58130  1  0  0  0
 59 60  1  0  0  0
 59 61  1  0  0  0
 59 62  1  0  0  0
 60131  1  0  0  0
 60132  1  0  0  0
 60133  1  0  0  0
 61134  1  0  0  0
 61135  1  0  0  0
 61136  1  0  0  0
 62137  1  0  0  0
 62138  1  0  0  0
 62139  1  0  0  0
 63 65  1  0  0  0
 63140  1  0  0  0
 63141  1  0  0  0
 63142  1  0  0  0
 64143  1  0  0  0
 65144  1  0  0  0
 68 81  1  0  0  0
 71 72  2  0  0  0
 71 74  1  0  0  0
 71145  1  0  0  0
 72 75  1  0  0  0
 72146  1  0  0  0
 73 74  2  0  0  0
 73 76  1  0  0  0
 73147  1  0  0  0
 74 82  1  0  0  0
 75 76  2  0  0  0
 75 83  1  0  0  0
 76 85  1  0  0  0
 77 80  1  0  0  0
 77 82  1  0  0  0
 77 84  2  0  0  0
 78 79  1  0  0  0
 78 80  1  0  0  0
 78148  1  0  0  0
 78149  1  0  0  0
 79 82  1  0  0  0
 79150  1  0  0  0
 79151  1  0  0  0
 80 81  1  0  0  0
 80152  1  0  0  0
 81153  1  0  0  0
 81154  1  0  0  0
 83155  1  0  0  0
M  ISO  4   1 100  68 101  81 101  83 100
M  END
> <chiral flag>
0

> <version>
0

> <s_m_source_file>
/data/baiqing/PycharmProjects/Reinvent-master-3.2/result/LINK_invent/BTK/process_docking_weight1_custom_product_contain_oxygen_bond_distance_aromatic_linkinvent_7_9_3/rearranged_h_0023.sdf

> <i_m_source_file_index>
54

> <r_mmod_Potential_Energy-OPLS-2005>
104.43994140625

> <r_mmod_Stretch_Energy-OPLS-2005>
79.9662475585938

> <r_mmod_Bend_Energy-OPLS-2005>
168.272598266602

> <r_mmod_Torsional_Energy-OPLS-2005>
253.14094543457

> <r_mmod_Improper_Torsional_Energy-OPLS-2005>
3.68619656562805

> <r_mmod_Van_der_Waal_Energy-OPLS-2005>
148.356887817383

> <r_mmod_Electrostatic_Energy-OPLS-2005>
-388.333709716797

> <r_mmod_Solvation_Energy-OPLS-2005>
-208.69873046875

> <b_mmod_Minimization_Converged-OPLS-2005>
0

> <r_mmod_RMS_Derivative-OPLS-2005>
0.457433491945267

$$$$
54
                    3D
 Structure written by MMmdl.
157166  0  0  1  0            999 V2000
  -30.6750  -14.4957   20.5735 C   0  0  0  0  0  0
  -30.4303  -12.3197   19.4314 C   0  0  0  0  0  0
  -29.5011  -12.5135   18.2149 C   0  0  0  0  0  0
  -28.0223  -12.3684   18.6246 C   0  0  0  0  0  0
  -27.6626  -13.2064   19.8803 C   0  0  2  0  0  0
  -28.7019  -12.9815   21.0029 C   0  0  0  0  0  0
  -25.2557  -13.8126   20.5636 C   0  0  0  0  0  0
  -24.1805  -13.0410   20.9094 C   0  0  0  0  0  0
  -24.6379  -11.6884   20.8690 C   0  0  0  0  0  0
  -23.9043  -10.4288   21.0389 C   0  0  0  0  0  0
  -24.3597   -9.4212   21.9179 C   0  0  0  0  0  0
  -23.6280   -8.2248   22.0757 C   0  0  0  0  0  0
  -22.4252   -8.0277   21.3553 C   0  0  0  0  0  0
  -21.9887   -9.0247   20.4659 C   0  0  0  0  0  0
  -22.7216  -10.2127   20.3055 C   0  0  0  0  0  0
  -21.6852   -6.0723   22.5280 C   0  0  0  0  0  0
  -21.4015   -6.5624   23.8207 C   0  0  0  0  0  0
  -21.3662   -5.6785   24.9172 C   0  0  0  0  0  0
  -21.6040   -4.3048   24.7226 C   0  0  0  0  0  0
  -21.8823   -3.8133   23.4353 C   0  0  0  0  0  0
  -21.9194   -4.6950   22.3409 C   0  0  0  0  0  0
  -22.7844  -13.5233   21.1787 C   0  0  0  0  0  0
  -22.1665   -4.2140   21.0984 F   0  0  0  0  0  0
  -21.5627   -3.4525   25.7741 F   0  0  0  0  0  0
  -30.0359  -13.2973   20.4600 N   0  0  0  0  0  0
  -26.3021  -12.9321   20.3380 N   0  0  0  0  0  0
  -25.9312  -11.6475   20.5741 N   0  0  0  0  0  0
  -22.0498  -12.8249   22.0381 N   0  0  0  0  0  0
  -25.4227  -15.1839   20.4116 N   0  0  0  0  0  0
  -31.7905  -14.6999   20.0869 O   0  0  0  0  0  0
  -21.6635   -6.8860   21.4238 O   0  0  0  0  0  0
  -22.3528  -14.5551   20.6664 O   0  0  0  0  0  0
  -24.6163  -31.8646   23.2064 C   0  0  0  0  0  0
  -25.9048  -32.4809   23.8369 C   0  0  1  0  0  0
  -27.2434  -27.4128   20.0886 C   0  0  0  0  0  0
  -25.5887  -33.8610   24.2300 N   0  0  0  0  0  0
  -23.4053  -30.4865   21.5473 C   0  0  2  0  0  0
  -24.8517  -28.9468   20.1144 C   0  0  0  0  0  0
  -22.7400  -29.4652   22.4982 C   0  0  0  0  0  0
  -18.0269  -28.1370   22.8488 C   0  0  0  0  0  0
  -24.1485  -36.7316   23.2630 C   0  0  0  0  0  0
  -25.9360  -30.8241   21.3606 C   0  0  0  0  0  0
  -26.0123  -29.4558   20.7081 C   0  0  0  0  0  0
  -27.2047  -28.6939   20.6942 C   0  0  0  0  0  0
  -26.0527  -26.9132   19.5108 C   0  0  0  0  0  0
  -24.8675  -27.6747   19.5180 C   0  0  0  0  0  0
  -23.6134  -29.8138   20.1639 C   0  0  0  0  0  0
  -25.4099  -36.3105   24.0332 C   0  0  1  0  0  0
  -20.5855  -28.3660   23.1310 C   0  0  2  0  0  0
  -20.6762  -26.9397   22.5410 C   0  0  0  0  0  0
  -19.5743  -26.6381   21.5202 C   0  0  0  0  0  0
  -18.1921  -26.7917   22.1618 C   0  0  0  0  0  0
  -19.1519  -28.8833   23.2900 C   0  0  0  0  0  0
  -18.9452  -30.1436   23.8908 C   0  0  0  0  0  0
  -17.6458  -30.6579   24.0563 C   0  0  0  0  0  0
  -25.9024  -34.9474   23.5117 C   0  0  0  0  0  0
  -16.5348  -29.9078   23.6329 C   0  0  0  0  0  0
  -16.7263  -28.6497   23.0351 C   0  0  0  0  0  0
  -26.4467  -31.6607   25.0714 C   0  0  0  0  0  0
  -25.3732  -31.3749   26.1471 C   0  0  0  0  0  0
  -27.0283  -30.3033   24.6121 C   0  0  0  0  0  0
  -27.6036  -32.4331   25.7483 C   0  0  0  0  0  0
  -27.5588  -37.1792   24.8450 C   0  0  0  0  0  0
  -21.4129  -29.3028   22.3717 N   0  0  0  0  0  0
  -26.4283  -37.3794   23.9423 N   0  0  0  0  0  0
  -24.6710  -31.0735   22.0962 N   0  0  0  0  0  0
  -23.4170  -28.8188   23.3025 O   0  0  0  0  0  0
  -28.4338  -26.7025   20.1275 O   0  0  0  0  0  0
  -26.5596  -34.8929   22.4682 O   0  0  0  0  0  0
  -23.5353  -32.1416   23.7445 O   0  0  0  0  0  0
  -30.6703  -18.9640   19.8584 C   0  0  0  0  0  0
  -30.9065  -17.6334   20.2865 C   0  0  0  0  0  0
  -28.3492  -18.7782   20.5413 C   0  0  0  0  0  0
  -29.3791  -19.5436   19.9457 C   0  0  0  0  0  0
  -29.8505  -16.8469   20.8088 C   0  0  0  0  0  0
  -28.5854  -17.4519   20.9697 C   0  0  0  0  0  0
  -28.0297  -23.0473   20.0957 C   0  0  0  0  0  0
  -29.9603  -23.2271   19.4529 C   0  0  0  0  0  0
  -28.9921  -24.2488   20.0702 C   0  0  1  0  0  0
  -29.0587  -20.8878   19.2555 C   0  0  0  0  0  0
  -28.6742  -25.5526   19.2907 C   0  0  0  0  0  0
  -29.9598  -15.4662   21.1796 N   0  0  0  0  0  0
  -29.1910  -22.1359   20.0697 N   0  3  2  0  0  0
  -27.5717  -16.7288   21.4993 F   0  0  0  0  0  0
  -31.4756  -12.4275   19.1342 H   0  0  0  0  0  0
  -30.3353  -11.3071   19.8256 H   0  0  0  0  0  0
  -29.7456  -11.7918   17.4345 H   0  0  0  0  0  0
  -29.6675  -13.5000   17.7789 H   0  0  0  0  0  0
  -27.8377  -11.3107   18.8212 H   0  0  0  0  0  0
  -27.3732  -12.6394   17.7919 H   0  0  0  0  0  0
  -27.7081  -14.2555   19.5848 H   0  0  0  0  0  0
  -28.6808  -11.9423   21.3352 H   0  0  0  0  0  0
  -28.4516  -13.5691   21.8876 H   0  0  0  0  0  0
  -25.2751   -9.5677   22.4746 H   0  0  0  0  0  0
  -23.9988   -7.4633   22.7473 H   0  0  0  0  0  0
  -21.0812   -8.8753   19.8977 H   0  0  0  0  0  0
  -22.3665  -10.9648   19.6147 H   0  0  0  0  0  0
  -21.2012   -7.6138   23.9701 H   0  0  0  0  0  0
  -21.1476   -6.0521   25.9071 H   0  0  0  0  0  0
  -22.0602   -2.7592   23.2857 H   0  0  0  0  0  0
  -22.4108  -11.9928   22.4790 H   0  0  0  0  0  0
  -21.1132  -13.1308   22.2607 H   0  0  0  0  0  0
  -24.6690  -15.8347   20.5959 H   0  0  0  0  0  0
  -26.3242  -15.6400   20.3367 H   0  0  0  0  0  0
  -26.7123  -32.5508   23.1132 H   0  0  0  0  0  0
  -25.0048  -33.9770   25.0458 H   0  0  0  0  0  0
  -22.6958  -31.3038   21.4048 H   0  0  0  0  0  0
  -23.3740  -35.9653   23.3295 H   0  0  0  0  0  0
  -24.3594  -36.8926   22.2046 H   0  0  0  0  0  0
  -23.7247  -37.6524   23.6647 H   0  0  0  0  0  0
  -26.0499  -31.5888   20.5906 H   0  0  0  0  0  0
  -26.8226  -30.8783   21.9812 H   0  0  0  0  0  0
  -28.1016  -29.0870   21.1526 H   0  0  0  0  0  0
  -26.0020  -25.9281   19.0750 H   0  0  0  0  0  0
  -23.9692  -27.2666   19.0759 H   0  0  0  0  0  0
  -23.7192  -30.5853   19.4006 H   0  0  0  0  0  0
  -22.7381  -29.2300   19.8731 H   0  0  0  0  0  0
  -25.1275  -36.1956   25.0821 H   0  0  0  0  0  0
  -20.9957  -28.3227   24.1424 H   0  0  0  0  0  0
  -20.5659  -26.2262   23.3591 H   0  0  0  0  0  0
  -21.6635  -26.7430   22.1211 H   0  0  0  0  0  0
  -19.6903  -25.6293   21.1229 H   0  0  0  0  0  0
  -19.6680  -27.3191   20.6732 H   0  0  0  0  0  0
  -17.4185  -26.6655   21.4027 H   0  0  0  0  0  0
  -18.0331  -26.0059   22.9014 H   0  0  0  0  0  0
  -19.7932  -30.7244   24.2282 H   0  0  0  0  0  0
  -17.5017  -31.6264   24.5150 H   0  0  0  0  0  0
  -15.5349  -30.2981   23.7650 H   0  0  0  0  0  0
  -15.8663  -28.0814   22.7065 H   0  0  0  0  0  0
  -24.5883  -30.7109   25.7840 H   0  0  0  0  0  0
  -24.8944  -32.2916   26.4920 H   0  0  0  0  0  0
  -25.8075  -30.8931   27.0237 H   0  0  0  0  0  0
  -26.2827  -29.6814   24.1147 H   0  0  0  0  0  0
  -27.3998  -29.7266   25.4605 H   0  0  0  0  0  0
  -27.8697  -30.4337   23.9307 H   0  0  0  0  0  0
  -27.2642  -33.3607   26.2112 H   0  0  0  0  0  0
  -28.3818  -32.6936   25.0297 H   0  0  0  0  0  0
  -28.0742  -31.8433   26.5361 H   0  0  0  0  0  0
  -28.2567  -38.0129   24.7557 H   0  0  0  0  0  0
  -28.1117  -36.2663   24.6183 H   0  0  0  0  0  0
  -27.2323  -37.1338   25.8855 H   0  0  0  0  0  0
  -20.9280  -29.8746   21.6941 H   0  0  0  0  0  0
  -26.0166  -38.2860   24.1457 H   0  0  0  0  0  0
  -31.4827  -19.5172   19.4060 H   0  0  0  0  0  0
  -31.8983  -17.2180   20.1788 H   0  0  0  0  0  0
  -27.3487  -19.1766   20.6250 H   0  0  0  0  0  0
  -27.4071  -22.9899   19.2008 H   0  0  0  0  0  0
  -27.4295  -22.9603   21.0014 H   0  0  0  0  0  0
  -30.9891  -23.2960   19.8071 H   0  0  0  0  0  0
  -29.9185  -23.2240   18.3613 H   0  0  0  0  0  0
  -29.3337  -24.4745   21.0826 H   0  0  0  0  0  0
  -28.0488  -20.8184   18.8511 H   0  0  0  0  0  0
  -29.7049  -20.9569   18.3807 H   0  0  0  0  0  0
  -27.9217  -25.3824   18.5243 H   0  0  0  0  0  0
  -29.5589  -25.8261   18.7145 H   0  0  0  0  0  0
  -29.1289  -15.1178   21.6337 H   0  0  0  0  0  0
  -29.5269  -21.9436   21.0001 H   0  0  0  0  0  0
  1 25  1  0  0  0
  1 30  2  0  0  0
  1 82  1  0  0  0
  2  3  1  0  0  0
  2 25  1  0  0  0
  2 85  1  0  0  0
  2 86  1  0  0  0
  3  4  1  0  0  0
  3 87  1  0  0  0
  3 88  1  0  0  0
  4  5  1  0  0  0
  4 89  1  0  0  0
  4 90  1  0  0  0
  5  6  1  0  0  0
  5 26  1  0  0  0
  5 91  1  0  0  0
  6 25  1  0  0  0
  6 92  1  0  0  0
  6 93  1  0  0  0
  7  8  2  0  0  0
  7 26  1  0  0  0
  7 29  1  0  0  0
  8  9  1  0  0  0
  8 22  1  0  0  0
  9 10  1  0  0  0
  9 27  2  0  0  0
 10 11  2  0  0  0
 10 15  1  0  0  0
 11 12  1  0  0  0
 11 94  1  0  0  0
 12 13  2  0  0  0
 12 95  1  0  0  0
 13 14  1  0  0  0
 13 31  1  0  0  0
 14 15  2  0  0  0
 14 96  1  0  0  0
 15 97  1  0  0  0
 16 17  2  0  0  0
 16 21  1  0  0  0
 16 31  1  0  0  0
 17 18  1  0  0  0
 17 98  1  0  0  0
 18 19  2  0  0  0
 18 99  1  0  0  0
 19 20  1  0  0  0
 19 24  1  0  0  0
 20 21  2  0  0  0
 20100  1  0  0  0
 21 23  1  0  0  0
 22 28  1  0  0  0
 22 32  2  0  0  0
 26 27  1  0  0  0
 28101  1  0  0  0
 28102  1  0  0  0
 29103  1  0  0  0
 29104  1  0  0  0
 33 34  1  0  0  0
 33 66  1  0  0  0
 33 70  2  0  0  0
 34 36  1  0  0  0
 34 59  1  0  0  0
 34105  1  0  0  0
 35 44  2  0  0  0
 35 45  1  0  0  0
 35 68  1  0  0  0
 36 56  1  0  0  0
 36106  1  0  0  0
 37 39  1  0  0  0
 37 47  1  0  0  0
 37 66  1  0  0  0
 37107  1  0  0  0
 38 43  2  0  0  0
 38 46  1  0  0  0
 38 47  1  0  0  0
 39 64  1  0  0  0
 39 67  2  0  0  0
 40 52  1  0  0  0
 40 53  2  0  0  0
 40 58  1  0  0  0
 41108  1  0  0  0
 41109  1  0  0  0
 41110  1  0  0  0
 41 48  1  0  0  0
 42 43  1  0  0  0
 42 66  1  0  0  0
 42111  1  0  0  0
 42112  1  0  0  0
 43 44  1  0  0  0
 44113  1  0  0  0
 45 46  2  0  0  0
 45114  1  0  0  0
 46115  1  0  0  0
 47116  1  0  0  0
 47117  1  0  0  0
 48 56  1  0  0  0
 48 65  1  0  0  0
 48118  1  0  0  0
 49 50  1  0  0  0
 49 53  1  0  0  0
 49 64  1  0  0  0
 49119  1  0  0  0
 50 51  1  0  0  0
 50120  1  0  0  0
 50121  1  0  0  0
 51 52  1  0  0  0
 51122  1  0  0  0
 51123  1  0  0  0
 52124  1  0  0  0
 52125  1  0  0  0
 53 54  1  0  0  0
 54 55  2  0  0  0
 54126  1  0  0  0
 55 57  1  0  0  0
 55127  1  0  0  0
 56 69  2  0  0  0
 57 58  2  0  0  0
 57128  1  0  0  0
 58129  1  0  0  0
 59 60  1  0  0  0
 59 61  1  0  0  0
 59 62  1  0  0  0
 60130  1  0  0  0
 60131  1  0  0  0
 60132  1  0  0  0
 61133  1  0  0  0
 61134  1  0  0  0
 61135  1  0  0  0
 62136  1  0  0  0
 62137  1  0  0  0
 62138  1  0  0  0
 63 65  1  0  0  0
 63139  1  0  0  0
 63140  1  0  0  0
 63141  1  0  0  0
 64142  1  0  0  0
 65143  1  0  0  0
 68 81  1  0  0  0
 71 72  2  0  0  0
 71 74  1  0  0  0
 71144  1  0  0  0
 72 75  1  0  0  0
 72145  1  0  0  0
 73 74  2  0  0  0
 73 76  1  0  0  0
 73146  1  0  0  0
 74 80  1  0  0  0
 75 76  2  0  0  0
 75 82  1  0  0  0
 76 84  1  0  0  0
 77 79  1  0  0  0
 77 83  1  0  0  0
 77147  1  0  0  0
 77148  1  0  0  0
 78 79  1  0  0  0
 78 83  1  0  0  0
 78149  1  0  0  0
 78150  1  0  0  0
 79 81  1  0  0  0
 79151  1  0  0  0
 80152  1  0  0  0
 80153  1  0  0  0
 80 83  1  0  0  0
 81154  1  0  0  0
 81155  1  0  0  0
 82156  1  0  0  0
 83157  1  0  0  0
M  CHG  1  83   1
M  ISO  4   1 100  68 101  81 101  82 100
M  END
> <chiral flag>
0

> <version>
0

> <s_m_source_file>
/data/baiqing/PycharmProjects/Reinvent-master-3.2/result/LINK_invent/BTK/process_docking_weight1_custom_product_contain_oxygen_bond_distance_aromatic_linkinvent_7_9_3/rearranged_h_0023.sdf

> <i_m_source_file_index>
55

> <r_mmod_Potential_Energy-OPLS-2005>
-200.902908325195

> <r_mmod_Stretch_Energy-OPLS-2005>
42.9391822814941

> <r_mmod_Bend_Energy-OPLS-2005>
128.617401123047

> <r_mmod_Torsional_Energy-OPLS-2005>
247.288101196289

> <r_mmod_Improper_Torsional_Energy-OPLS-2005>
5.96660900115967

> <r_mmod_Van_der_Waal_Energy-OPLS-2005>
151.454010009766

> <r_mmod_Electrostatic_Energy-OPLS-2005>
-320.637145996094

> <r_mmod_Solvation_Energy-OPLS-2005>
-471.947235107422

> <b_mmod_Minimization_Converged-OPLS-2005>
0

> <r_mmod_RMS_Derivative-OPLS-2005>
1.96112811565399

$$$$
55
                    3D
 Structure written by MMmdl.
150159  0  0  1  0            999 V2000
  -30.4763  -15.0236   20.4057 C   0  0  0  0  0  0
  -30.4528  -12.6370   19.4976 C   0  0  0  0  0  0
  -29.5283  -12.5411   18.2591 C   0  0  0  0  0  0
  -28.0628  -12.3124   18.6786 C   0  0  0  0  0  0
  -27.6285  -13.2487   19.8355 C   0  0  2  0  0  0
  -28.6720  -13.2868   20.9718 C   0  0  0  0  0  0
  -25.2461  -13.8215   20.5705 C   0  0  0  0  0  0
  -24.1784  -13.0434   20.9232 C   0  0  0  0  0  0
  -24.6402  -11.6921   20.8752 C   0  0  0  0  0  0
  -23.9084  -10.4291   21.0407 C   0  0  0  0  0  0
  -24.3630   -9.4205   21.9184 C   0  0  0  0  0  0
  -23.6300   -8.2243   22.0754 C   0  0  0  0  0  0
  -22.4281   -8.0283   21.3545 C   0  0  0  0  0  0
  -21.9920   -9.0257   20.4647 C   0  0  0  0  0  0
  -22.7254  -10.2134   20.3056 C   0  0  0  0  0  0
  -21.6855   -6.0737   22.5279 C   0  0  0  0  0  0
  -21.4016   -6.5640   23.8212 C   0  0  0  0  0  0
  -21.3660   -5.6793   24.9174 C   0  0  0  0  0  0
  -21.6044   -4.3056   24.7225 C   0  0  0  0  0  0
  -21.8819   -3.8148   23.4346 C   0  0  0  0  0  0
  -21.9193   -4.6964   22.3402 C   0  0  0  0  0  0
  -22.7802  -13.5203   21.1888 C   0  0  0  0  0  0
  -22.1662   -4.2150   21.0980 F   0  0  0  0  0  0
  -21.5628   -3.4539   25.7737 F   0  0  0  0  0  0
  -29.9381  -13.7317   20.3719 N   0  0  0  0  0  0
  -26.2883  -12.9445   20.3224 N   0  0  0  0  0  0
  -25.9332  -11.6573   20.5725 N   0  0  0  0  0  0
  -22.0456  -12.8188   22.0444 N   0  0  0  0  0  0
  -25.4070  -15.1953   20.4133 N   0  0  0  0  0  0
  -31.6852  -15.1293   20.1643 O   0  0  0  0  0  0
  -21.6642   -6.8881   21.4241 O   0  0  0  0  0  0
  -22.3478  -14.5504   20.6731 O   0  0  0  0  0  0
  -24.6480  -31.8382   23.1815 C   0  0  0  0  0  0
  -25.9227  -32.4664   23.8231 C   0  0  1  0  0  0
  -27.2239  -27.0854   20.1688 C   0  0  0  0  0  0
  -25.5952  -33.8471   24.2148 N   0  0  0  0  0  0
  -23.4547  -30.4529   21.5283 C   0  0  2  0  0  0
  -24.9057  -28.8617   20.1162 C   0  0  0  0  0  0
  -22.7589  -29.4515   22.4845 C   0  0  0  0  0  0
  -18.0308  -28.1399   22.8475 C   0  0  0  0  0  0
  -24.1492  -36.7243   23.2645 C   0  0  0  0  0  0
  -26.0128  -30.6969   21.3851 C   0  0  0  0  0  0
  -26.0850  -29.3006   20.7316 C   0  0  0  0  0  0
  -27.2459  -28.4320   20.7309 C   0  0  0  0  0  0
  -26.0154  -26.7485   19.5256 C   0  0  0  0  0  0
  -24.8861  -27.6010   19.4962 C   0  0  0  0  0  0
  -23.6848  -29.7717   20.1520 C   0  0  0  0  0  0
  -25.4127  -36.3014   24.0311 C   0  0  1  0  0  0
  -20.5922  -28.3729   23.1228 C   0  0  2  0  0  0
  -20.6790  -26.9427   22.5406 C   0  0  0  0  0  0
  -19.5764  -26.6380   21.5214 C   0  0  0  0  0  0
  -18.1946  -26.7936   22.1625 C   0  0  0  0  0  0
  -19.1565  -28.8883   23.2841 C   0  0  0  0  0  0
  -18.9480  -30.1478   23.8869 C   0  0  0  0  0  0
  -17.6476  -30.6594   24.0558 C   0  0  0  0  0  0
  -25.9080  -34.9391   23.5044 C   0  0  0  0  0  0
  -16.5367  -29.9085   23.6338 C   0  0  0  0  0  0
  -16.7292  -28.6504   23.0358 C   0  0  0  0  0  0
  -26.4531  -31.6555   25.0697 C   0  0  0  0  0  0
  -25.3700  -31.3760   26.1383 C   0  0  0  0  0  0
  -27.0407  -30.2946   24.6314 C   0  0  0  0  0  0
  -27.6047  -32.4336   25.7492 C   0  0  0  0  0  0
  -27.5574  -37.1778   24.8465 C   0  0  0  0  0  0
  -21.4276  -29.3044   22.3594 N   0  0  0  0  0  0
  -26.4285  -37.3733   23.9407 N   0  0  0  0  0  0
  -24.7254  -31.0190   22.0868 N   0  0  0  0  0  0
  -23.4207  -28.8078   23.3028 O   0  0  0  0  0  0
  -28.2893  -26.0999   20.1905 O   0  0  0  0  0  0
  -26.5678  -34.8902   22.4631 O   0  0  0  0  0  0
  -23.5587  -32.1278   23.7007 O   0  0  0  0  0  0
  -28.1065  -19.8006   19.9212 C   0  0  0  0  0  0
  -30.4685  -18.7262   20.8080 C   0  0  0  0  0  0
  -28.9875  -20.8559   20.3660 C   0  0  0  0  0  0
  -29.5375  -17.7028   20.3976 C   0  0  0  0  0  0
  -28.3382  -18.3573   19.9485 C   0  0  0  0  0  0
  -30.2044  -20.1781   20.8010 C   0  0  0  0  0  0
  -29.2961  -23.5816   20.9848 C   0  0  0  0  0  0
  -27.8958  -23.3034   19.4902 C   0  0  0  0  0  0
  -28.1025  -24.5552   20.4917 C   0  0  0  0  0  0
  -28.5931  -22.3736   20.4467 N   0  0  0  0  0  0
  -29.5890  -16.1456   20.4943 N   0  0  0  0  0  0
  -27.3282  -17.5527   19.5366 F   0  0  0  0  0  0
  -31.1955  -20.9701   21.2770 F   0  0  0  0  0  0
  -31.4792  -12.8276   19.1803 H   0  0  0  0  0  0
  -30.4779  -11.6900   20.0392 H   0  0  0  0  0  0
  -29.8595  -11.7378   17.5996 H   0  0  0  0  0  0
  -29.6011  -13.4625   17.6792 H   0  0  0  0  0  0
  -27.9702  -11.2727   18.9947 H   0  0  0  0  0  0
  -27.3983  -12.4307   17.8218 H   0  0  0  0  0  0
  -27.5839  -14.2468   19.3990 H   0  0  0  0  0  0
  -28.7784  -12.3084   21.4427 H   0  0  0  0  0  0
  -28.3594  -13.9747   21.7592 H   0  0  0  0  0  0
  -25.2773   -9.5680   22.4762 H   0  0  0  0  0  0
  -24.0006   -7.4633   22.7474 H   0  0  0  0  0  0
  -21.0851   -8.8780   19.8952 H   0  0  0  0  0  0
  -22.3714  -10.9675   19.6167 H   0  0  0  0  0  0
  -21.2009   -7.6149   23.9716 H   0  0  0  0  0  0
  -21.1482   -6.0523   25.9077 H   0  0  0  0  0  0
  -22.0598   -2.7610   23.2846 H   0  0  0  0  0  0
  -22.4086  -11.9857   22.4835 H   0  0  0  0  0  0
  -21.1070  -13.1200   22.2650 H   0  0  0  0  0  0
  -24.6251  -15.8306   20.5265 H   0  0  0  0  0  0
  -26.2266  -15.6571   20.0389 H   0  0  0  0  0  0
  -26.7293  -32.5256   23.0956 H   0  0  0  0  0  0
  -25.0060  -33.9573   25.0270 H   0  0  0  0  0  0
  -22.7601  -31.2798   21.3663 H   0  0  0  0  0  0
  -23.3760  -35.9567   23.3289 H   0  0  0  0  0  0
  -24.3573  -36.8899   22.2063 H   0  0  0  0  0  0
  -23.7241  -37.6429   23.6701 H   0  0  0  0  0  0
  -26.1714  -31.4465   20.6087 H   0  0  0  0  0  0
  -26.8815  -30.7522   22.0296 H   0  0  0  0  0  0
  -28.1493  -28.7695   21.2192 H   0  0  0  0  0  0
  -25.9306  -25.7803   19.0528 H   0  0  0  0  0  0
  -23.9855  -27.2586   19.0052 H   0  0  0  0  0  0
  -23.8268  -30.5409   19.3920 H   0  0  0  0  0  0
  -22.7984  -29.2156   19.8417 H   0  0  0  0  0  0
  -25.1319  -36.1831   25.0802 H   0  0  0  0  0  0
  -21.0012  -28.3323   24.1350 H   0  0  0  0  0  0
  -20.5680  -26.2343   23.3630 H   0  0  0  0  0  0
  -21.6655  -26.7425   22.1207 H   0  0  0  0  0  0
  -19.6925  -25.6283   21.1263 H   0  0  0  0  0  0
  -19.6702  -27.3174   20.6731 H   0  0  0  0  0  0
  -17.4214  -26.6679   21.4029 H   0  0  0  0  0  0
  -18.0345  -26.0085   22.9029 H   0  0  0  0  0  0
  -19.7956  -30.7302   24.2226 H   0  0  0  0  0  0
  -17.5028  -31.6271   24.5165 H   0  0  0  0  0  0
  -15.5366  -30.2977   23.7678 H   0  0  0  0  0  0
  -15.8692  -28.0813   22.7090 H   0  0  0  0  0  0
  -24.5883  -30.7107   25.7697 H   0  0  0  0  0  0
  -24.8887  -32.2948   26.4742 H   0  0  0  0  0  0
  -25.7968  -30.8971   27.0205 H   0  0  0  0  0  0
  -26.3037  -29.6654   24.1311 H   0  0  0  0  0  0
  -27.3994  -29.7264   25.4907 H   0  0  0  0  0  0
  -27.8952  -30.4171   23.9656 H   0  0  0  0  0  0
  -27.2627  -33.3658   26.2000 H   0  0  0  0  0  0
  -28.3895  -32.6864   25.0350 H   0  0  0  0  0  0
  -28.0675  -31.8509   26.5468 H   0  0  0  0  0  0
  -28.2581  -38.0084   24.7511 H   0  0  0  0  0  0
  -28.1081  -36.2612   24.6294 H   0  0  0  0  0  0
  -27.2290  -37.1424   25.8868 H   0  0  0  0  0  0
  -20.9501  -29.8741   21.6749 H   0  0  0  0  0  0
  -26.0146  -38.2798   24.1412 H   0  0  0  0  0  0
  -27.1340  -20.1092   19.5695 H   0  0  0  0  0  0
  -31.4229  -18.4039   21.1958 H   0  0  0  0  0  0
  -29.4279  -23.5670   22.0674 H   0  0  0  0  0  0
  -30.2440  -23.7656   20.4758 H   0  0  0  0  0  0
  -28.4377  -23.4077   18.5485 H   0  0  0  0  0  0
  -26.8485  -23.0526   19.3171 H   0  0  0  0  0  0
  -27.3107  -24.5089   21.2415 H   0  0  0  0  0  0
  -28.6495  -15.7833   20.5449 H   0  0  0  0  0  0
  1 25  1  0  0  0
  1 30  2  0  0  0
  1 81  1  0  0  0
  2  3  1  0  0  0
  2 25  1  0  0  0
  2 84  1  0  0  0
  2 85  1  0  0  0
  3  4  1  0  0  0
  3 86  1  0  0  0
  3 87  1  0  0  0
  4  5  1  0  0  0
  4 88  1  0  0  0
  4 89  1  0  0  0
  5  6  1  0  0  0
  5 26  1  0  0  0
  5 90  1  0  0  0
  6 25  1  0  0  0
  6 91  1  0  0  0
  6 92  1  0  0  0
  7  8  2  0  0  0
  7 26  1  0  0  0
  7 29  1  0  0  0
  8  9  1  0  0  0
  8 22  1  0  0  0
  9 10  1  0  0  0
  9 27  2  0  0  0
 10 11  2  0  0  0
 10 15  1  0  0  0
 11 12  1  0  0  0
 11 93  1  0  0  0
 12 13  2  0  0  0
 12 94  1  0  0  0
 13 14  1  0  0  0
 13 31  1  0  0  0
 14 15  2  0  0  0
 14 95  1  0  0  0
 15 96  1  0  0  0
 16 17  2  0  0  0
 16 21  1  0  0  0
 16 31  1  0  0  0
 17 18  1  0  0  0
 17 97  1  0  0  0
 18 19  2  0  0  0
 18 98  1  0  0  0
 19 20  1  0  0  0
 19 24  1  0  0  0
 20 21  2  0  0  0
 20 99  1  0  0  0
 21 23  1  0  0  0
 22 28  1  0  0  0
 22 32  2  0  0  0
 26 27  1  0  0  0
 28100  1  0  0  0
 28101  1  0  0  0
 29102  1  0  0  0
 29103  1  0  0  0
 33 34  1  0  0  0
 33 66  1  0  0  0
 33 70  2  0  0  0
 34 36  1  0  0  0
 34 59  1  0  0  0
 34104  1  0  0  0
 35 44  2  0  0  0
 35 45  1  0  0  0
 35 68  1  0  0  0
 36 56  1  0  0  0
 36105  1  0  0  0
 37 39  1  0  0  0
 37 47  1  0  0  0
 37 66  1  0  0  0
 37106  1  0  0  0
 38 43  2  0  0  0
 38 46  1  0  0  0
 38 47  1  0  0  0
 39 64  1  0  0  0
 39 67  2  0  0  0
 40 52  1  0  0  0
 40 53  2  0  0  0
 40 58  1  0  0  0
 41107  1  0  0  0
 41108  1  0  0  0
 41109  1  0  0  0
 41 48  1  0  0  0
 42 43  1  0  0  0
 42 66  1  0  0  0
 42110  1  0  0  0
 42111  1  0  0  0
 43 44  1  0  0  0
 44112  1  0  0  0
 45 46  2  0  0  0
 45113  1  0  0  0
 46114  1  0  0  0
 47115  1  0  0  0
 47116  1  0  0  0
 48 56  1  0  0  0
 48 65  1  0  0  0
 48117  1  0  0  0
 49 50  1  0  0  0
 49 53  1  0  0  0
 49 64  1  0  0  0
 49118  1  0  0  0
 50 51  1  0  0  0
 50119  1  0  0  0
 50120  1  0  0  0
 51 52  1  0  0  0
 51121  1  0  0  0
 51122  1  0  0  0
 52123  1  0  0  0
 52124  1  0  0  0
 53 54  1  0  0  0
 54 55  2  0  0  0
 54125  1  0  0  0
 55 57  1  0  0  0
 55126  1  0  0  0
 56 69  2  0  0  0
 57 58  2  0  0  0
 57127  1  0  0  0
 58128  1  0  0  0
 59 60  1  0  0  0
 59 61  1  0  0  0
 59 62  1  0  0  0
 60129  1  0  0  0
 60130  1  0  0  0
 60131  1  0  0  0
 61132  1  0  0  0
 61133  1  0  0  0
 61134  1  0  0  0
 62135  1  0  0  0
 62136  1  0  0  0
 62137  1  0  0  0
 63 65  1  0  0  0
 63138  1  0  0  0
 63139  1  0  0  0
 63140  1  0  0  0
 64141  1  0  0  0
 65142  1  0  0  0
 68 79  1  0  0  0
 71 73  2  0  0  0
 71 75  1  0  0  0
 71143  1  0  0  0
 72 74  1  0  0  0
 72 76  2  0  0  0
 72144  1  0  0  0
 73 76  1  0  0  0
 73 80  1  0  0  0
 74 75  2  0  0  0
 74 81  1  0  0  0
 75 82  1  0  0  0
 76 83  1  0  0  0
 77 79  1  0  0  0
 77 80  1  0  0  0
 77145  1  0  0  0
 77146  1  0  0  0
 78 79  1  0  0  0
 78 80  1  0  0  0
 78147  1  0  0  0
 78148  1  0  0  0
 79149  1  0  0  0
 81150  1  0  0  0
M  ISO  4   1 100  68 101  79 101  81 100
M  END
> <chiral flag>
0

> <version>
0

> <s_m_source_file>
/data/baiqing/PycharmProjects/Reinvent-master-3.2/result/LINK_invent/BTK/process_docking_weight1_custom_product_contain_oxygen_bond_distance_aromatic_linkinvent_7_9_3/rearranged_h_0023.sdf

> <i_m_source_file_index>
56

> <r_mmod_Potential_Energy-OPLS-2005>
693.734741210938

> <r_mmod_Stretch_Energy-OPLS-2005>
270.666595458984

> <r_mmod_Bend_Energy-OPLS-2005>
389.816925048828

> <r_mmod_Torsional_Energy-OPLS-2005>
249.123260498047

> <r_mmod_Improper_Torsional_Energy-OPLS-2005>
9.43694114685059

> <r_mmod_Van_der_Waal_Energy-OPLS-2005>
123.943984985352

> <r_mmod_Electrostatic_Energy-OPLS-2005>
-372.347320556641

> <r_mmod_Solvation_Energy-OPLS-2005>
-220.210571289062

> <b_mmod_Minimization_Converged-OPLS-2005>
0

> <r_mmod_RMS_Derivative-OPLS-2005>
0.0664378106594086

$$$$
56
                    3D
 Structure written by MMmdl.
158167  0  0  1  0            999 V2000
  -30.5986  -14.6471   20.5124 C   0  0  0  0  0  0
  -30.4437  -12.4004   19.4491 C   0  0  0  0  0  0
  -29.5085  -12.5191   18.2239 C   0  0  0  0  0  0
  -28.0312  -12.3531   18.6338 C   0  0  0  0  0  0
  -27.6548  -13.2141   19.8678 C   0  0  2  0  0  0
  -28.6986  -13.0495   20.9952 C   0  0  0  0  0  0
  -25.2563  -13.8162   20.5677 C   0  0  0  0  0  0
  -24.1820  -13.0438   20.9180 C   0  0  0  0  0  0
  -24.6387  -11.6906   20.8721 C   0  0  0  0  0  0
  -23.9060  -10.4290   21.0399 C   0  0  0  0  0  0
  -24.3612   -9.4210   21.9180 C   0  0  0  0  0  0
  -23.6285   -8.2247   22.0755 C   0  0  0  0  0  0
  -22.4268   -8.0277   21.3546 C   0  0  0  0  0  0
  -21.9900   -9.0250   20.4652 C   0  0  0  0  0  0
  -22.7230  -10.2129   20.3058 C   0  0  0  0  0  0
  -21.6855   -6.0727   22.5275 C   0  0  0  0  0  0
  -21.4013   -6.5629   23.8208 C   0  0  0  0  0  0
  -21.3661   -5.6786   24.9171 C   0  0  0  0  0  0
  -21.6045   -4.3049   24.7225 C   0  0  0  0  0  0
  -21.8819   -3.8139   23.4346 C   0  0  0  0  0  0
  -21.9199   -4.6955   22.3403 C   0  0  0  0  0  0
  -22.7848  -13.5240   21.1840 C   0  0  0  0  0  0
  -22.1668   -4.2140   21.0982 F   0  0  0  0  0  0
  -21.5639   -3.4537   25.7742 F   0  0  0  0  0  0
  -30.0150  -13.4073   20.4403 N   0  0  0  0  0  0
  -26.2990  -12.9339   20.3325 N   0  0  0  0  0  0
  -25.9313  -11.6497   20.5740 N   0  0  0  0  0  0
  -22.0490  -12.8238   22.0401 N   0  0  0  0  0  0
  -25.4286  -15.1884   20.4108 N   0  0  0  0  0  0
  -31.7442  -14.8468   20.0954 O   0  0  0  0  0  0
  -21.6641   -6.8867   21.4236 O   0  0  0  0  0  0
  -22.3537  -14.5558   20.6712 O   0  0  0  0  0  0
  -24.6266  -31.8583   23.2023 C   0  0  0  0  0  0
  -25.9123  -32.4764   23.8346 C   0  0  1  0  0  0
  -27.2277  -27.3153   20.1103 C   0  0  0  0  0  0
  -25.5946  -33.8564   24.2285 N   0  0  0  0  0  0
  -23.4191  -30.4821   21.5447 C   0  0  2  0  0  0
  -24.8634  -28.9305   20.1137 C   0  0  0  0  0  0
  -22.7472  -29.4615   22.4935 C   0  0  0  0  0  0
  -18.0288  -28.1380   22.8481 C   0  0  0  0  0  0
  -24.1491  -36.7276   23.2638 C   0  0  0  0  0  0
  -25.9598  -30.7866   21.3729 C   0  0  0  0  0  0
  -26.0310  -29.4133   20.7150 C   0  0  0  0  0  0
  -27.2116  -28.6155   20.7039 C   0  0  0  0  0  0
  -26.0305  -26.8743   19.5031 C   0  0  0  0  0  0
  -24.8642  -27.6657   19.5032 C   0  0  0  0  0  0
  -23.6342  -29.8154   20.1602 C   0  0  0  0  0  0
  -25.4114  -36.3071   24.0337 C   0  0  1  0  0  0
  -20.5886  -28.3684   23.1279 C   0  0  2  0  0  0
  -20.6775  -26.9406   22.5407 C   0  0  0  0  0  0
  -19.5761  -26.6384   21.5201 C   0  0  0  0  0  0
  -18.1937  -26.7927   22.1608 C   0  0  0  0  0  0
  -19.1540  -28.8850   23.2874 C   0  0  0  0  0  0
  -18.9465  -30.1452   23.8890 C   0  0  0  0  0  0
  -17.6466  -30.6581   24.0566 C   0  0  0  0  0  0
  -25.9057  -34.9444   23.5113 C   0  0  0  0  0  0
  -16.5356  -29.9082   23.6332 C   0  0  0  0  0  0
  -16.7277  -28.6501   23.0349 C   0  0  0  0  0  0
  -26.4517  -31.6566   25.0713 C   0  0  0  0  0  0
  -25.3767  -31.3687   26.1454 C   0  0  0  0  0  0
  -27.0364  -30.2995   24.6153 C   0  0  0  0  0  0
  -27.6083  -32.4293   25.7479 C   0  0  0  0  0  0
  -27.5582  -37.1792   24.8469 C   0  0  0  0  0  0
  -21.4184  -29.3035   22.3671 N   0  0  0  0  0  0
  -26.4288  -37.3768   23.9421 N   0  0  0  0  0  0
  -24.6871  -31.0594   22.0968 N   0  0  0  0  0  0
  -23.4199  -28.8162   23.3019 O   0  0  0  0  0  0
  -28.3834  -26.5206   20.1620 O   0  0  0  0  0  0
  -26.5605  -34.8915   22.4666 O   0  0  0  0  0  0
  -23.5431  -32.1386   23.7358 O   0  0  0  0  0  0
  -28.7835  -19.0822   19.6058 C   0  0  0  0  0  0
  -29.0960  -17.6871   19.6520 C   0  0  0  0  0  0
  -30.1638  -17.9994   21.7850 C   0  0  0  0  0  0
  -29.1226  -19.9702   20.6640 C   0  0  0  0  0  0
  -29.7713  -17.1007   20.7573 C   0  0  0  0  0  0
  -29.8514  -19.3937   21.7444 C   0  0  0  0  0  0
  -29.0013  -22.4911   20.2480 C   0  0  0  0  0  0
  -26.8710  -22.5973   22.2084 C   0  0  0  0  0  0
  -26.9660  -23.7730   21.2393 C   0  0  0  0  0  0
  -27.2225  -21.2911   21.4838 C   0  0  0  0  0  0
  -28.3886  -23.9079   20.6752 C   0  0  2  0  0  0
  -28.4675  -25.1301   19.6496 C   0  0  0  0  0  0
  -28.5169  -21.3060   20.7801 N   0  0  0  0  0  0
  -29.7844  -15.6523   20.9650 N   0  0  0  0  0  0
  -29.9548  -22.4847   19.4632 O   0  0  0  0  0  0
  -30.2771  -20.3689   23.1073 Cl  0  0  0  0  0  0
  -31.4830  -12.5389   19.1452 H   0  0  0  0  0  0
  -30.3889  -11.3996   19.8806 H   0  0  0  0  0  0
  -29.7725  -11.7757   17.4706 H   0  0  0  0  0  0
  -29.6479  -13.4931   17.7512 H   0  0  0  0  0  0
  -27.8632  -11.2982   18.8532 H   0  0  0  0  0  0
  -27.3797  -12.5959   17.7940 H   0  0  0  0  0  0
  -27.6789  -14.2523   19.5368 H   0  0  0  0  0  0
  -28.7113  -12.0200   21.3556 H   0  0  0  0  0  0
  -28.4374  -13.6579   21.8622 H   0  0  0  0  0  0
  -25.2757   -9.5692   22.4756 H   0  0  0  0  0  0
  -23.9994   -7.4641   22.7477 H   0  0  0  0  0  0
  -21.0830   -8.8765   19.8962 H   0  0  0  0  0  0
  -22.3678  -10.9666   19.6169 H   0  0  0  0  0  0
  -21.1991   -7.6134   23.9704 H   0  0  0  0  0  0
  -21.1490   -6.0518   25.9074 H   0  0  0  0  0  0
  -22.0598   -2.7601   23.2850 H   0  0  0  0  0  0
  -22.4105  -11.9898   22.4786 H   0  0  0  0  0  0
  -21.1118  -13.1279   22.2623 H   0  0  0  0  0  0
  -24.6637  -15.8436   20.5288 H   0  0  0  0  0  0
  -26.2805  -15.6301   20.0903 H   0  0  0  0  0  0
  -26.7183  -32.5437   23.1083 H   0  0  0  0  0  0
  -25.0141  -33.9698   25.0465 H   0  0  0  0  0  0
  -22.7128  -31.3028   21.4015 H   0  0  0  0  0  0
  -23.3761  -35.9601   23.3297 H   0  0  0  0  0  0
  -24.3579  -36.8893   22.2052 H   0  0  0  0  0  0
  -23.7237  -37.6476   23.6657 H   0  0  0  0  0  0
  -26.0941  -31.5497   20.6046 H   0  0  0  0  0  0
  -26.8390  -30.8326   22.0040 H   0  0  0  0  0  0
  -28.1106  -28.9833   21.1771 H   0  0  0  0  0  0
  -25.9564  -25.9039   19.0389 H   0  0  0  0  0  0
  -23.9646  -27.2853   19.0395 H   0  0  0  0  0  0
  -23.7624  -30.5927   19.4060 H   0  0  0  0  0  0
  -22.7522  -29.2505   19.8532 H   0  0  0  0  0  0
  -25.1290  -36.1918   25.0826 H   0  0  0  0  0  0
  -20.9982  -28.3266   24.1399 H   0  0  0  0  0  0
  -20.5656  -26.2291   23.3599 H   0  0  0  0  0  0
  -21.6647  -26.7429   22.1212 H   0  0  0  0  0  0
  -19.6915  -25.6294   21.1230 H   0  0  0  0  0  0
  -19.6710  -27.3196   20.6734 H   0  0  0  0  0  0
  -17.4205  -26.6678   21.4008 H   0  0  0  0  0  0
  -18.0341  -26.0059   22.8996 H   0  0  0  0  0  0
  -19.7942  -30.7269   24.2249 H   0  0  0  0  0  0
  -17.5024  -31.6260   24.5168 H   0  0  0  0  0  0
  -15.5358  -30.2984   23.7654 H   0  0  0  0  0  0
  -15.8677  -28.0820   22.7067 H   0  0  0  0  0  0
  -24.5966  -30.6998   25.7802 H   0  0  0  0  0  0
  -24.8934  -32.2839   26.4881 H   0  0  0  0  0  0
  -25.8120  -30.8888   27.0229 H   0  0  0  0  0  0
  -26.2930  -29.6720   24.1223 H   0  0  0  0  0  0
  -27.4129  -29.7266   25.4638 H   0  0  0  0  0  0
  -27.8771  -30.4287   23.9331 H   0  0  0  0  0  0
  -27.2714  -33.3605   26.2044 H   0  0  0  0  0  0
  -28.3903  -32.6818   25.0307 H   0  0  0  0  0  0
  -28.0742  -31.8420   26.5404 H   0  0  0  0  0  0
  -28.2593  -38.0094   24.7518 H   0  0  0  0  0  0
  -28.1080  -36.2623   24.6287 H   0  0  0  0  0  0
  -27.2300  -37.1437   25.8871 H   0  0  0  0  0  0
  -20.9360  -29.8742   21.6867 H   0  0  0  0  0  0
  -26.0169  -38.2840   24.1428 H   0  0  0  0  0  0
  -28.1970  -19.4533   18.7771 H   0  0  0  0  0  0
  -28.7346  -17.0525   18.8545 H   0  0  0  0  0  0
  -30.6411  -17.6070   22.6717 H   0  0  0  0  0  0
  -25.8648  -22.5329   22.6236 H   0  0  0  0  0  0
  -27.5450  -22.7503   23.0529 H   0  0  0  0  0  0
  -26.6851  -24.6923   21.7540 H   0  0  0  0  0  0
  -26.2498  -23.6427   20.4268 H   0  0  0  0  0  0
  -26.4483  -21.0633   20.7498 H   0  0  0  0  0  0
  -27.1993  -20.4733   22.2061 H   0  0  0  0  0  0
  -29.0262  -24.1954   21.5116 H   0  0  0  0  0  0
  -27.7919  -24.9584   18.8143 H   0  0  0  0  0  0
  -29.4521  -25.0869   19.1832 H   0  0  0  0  0  0
  -28.9201  -15.2883   21.3367 H   0  0  0  0  0  0
  1 25  1  0  0  0
  1 30  2  0  0  0
  1 84  1  0  0  0
  2  3  1  0  0  0
  2 25  1  0  0  0
  2 87  1  0  0  0
  2 88  1  0  0  0
  3  4  1  0  0  0
  3 89  1  0  0  0
  3 90  1  0  0  0
  4  5  1  0  0  0
  4 91  1  0  0  0
  4 92  1  0  0  0
  5  6  1  0  0  0
  5 26  1  0  0  0
  5 93  1  0  0  0
  6 25  1  0  0  0
  6 94  1  0  0  0
  6 95  1  0  0  0
  7  8  2  0  0  0
  7 26  1  0  0  0
  7 29  1  0  0  0
  8  9  1  0  0  0
  8 22  1  0  0  0
  9 10  1  0  0  0
  9 27  2  0  0  0
 10 11  2  0  0  0
 10 15  1  0  0  0
 11 12  1  0  0  0
 11 96  1  0  0  0
 12 13  2  0  0  0
 12 97  1  0  0  0
 13 14  1  0  0  0
 13 31  1  0  0  0
 14 15  2  0  0  0
 14 98  1  0  0  0
 15 99  1  0  0  0
 16 17  2  0  0  0
 16 21  1  0  0  0
 16 31  1  0  0  0
 17 18  1  0  0  0
 17100  1  0  0  0
 18 19  2  0  0  0
 18101  1  0  0  0
 19 20  1  0  0  0
 19 24  1  0  0  0
 20 21  2  0  0  0
 20102  1  0  0  0
 21 23  1  0  0  0
 22 28  1  0  0  0
 22 32  2  0  0  0
 26 27  1  0  0  0
 28103  1  0  0  0
 28104  1  0  0  0
 29105  1  0  0  0
 29106  1  0  0  0
 33 34  1  0  0  0
 33 66  1  0  0  0
 33 70  2  0  0  0
 34 36  1  0  0  0
 34 59  1  0  0  0
 34107  1  0  0  0
 35 44  2  0  0  0
 35 45  1  0  0  0
 35 68  1  0  0  0
 36 56  1  0  0  0
 36108  1  0  0  0
 37 39  1  0  0  0
 37 47  1  0  0  0
 37 66  1  0  0  0
 37109  1  0  0  0
 38 43  2  0  0  0
 38 46  1  0  0  0
 38 47  1  0  0  0
 39 64  1  0  0  0
 39 67  2  0  0  0
 40 52  1  0  0  0
 40 53  2  0  0  0
 40 58  1  0  0  0
 41110  1  0  0  0
 41111  1  0  0  0
 41112  1  0  0  0
 41 48  1  0  0  0
 42 43  1  0  0  0
 42 66  1  0  0  0
 42113  1  0  0  0
 42114  1  0  0  0
 43 44  1  0  0  0
 44115  1  0  0  0
 45 46  2  0  0  0
 45116  1  0  0  0
 46117  1  0  0  0
 47118  1  0  0  0
 47119  1  0  0  0
 48 56  1  0  0  0
 48 65  1  0  0  0
 48120  1  0  0  0
 49 50  1  0  0  0
 49 53  1  0  0  0
 49 64  1  0  0  0
 49121  1  0  0  0
 50 51  1  0  0  0
 50122  1  0  0  0
 50123  1  0  0  0
 51 52  1  0  0  0
 51124  1  0  0  0
 51125  1  0  0  0
 52126  1  0  0  0
 52127  1  0  0  0
 53 54  1  0  0  0
 54 55  2  0  0  0
 54128  1  0  0  0
 55 57  1  0  0  0
 55129  1  0  0  0
 56 69  2  0  0  0
 57 58  2  0  0  0
 57130  1  0  0  0
 58131  1  0  0  0
 59 60  1  0  0  0
 59 61  1  0  0  0
 59 62  1  0  0  0
 60132  1  0  0  0
 60133  1  0  0  0
 60134  1  0  0  0
 61135  1  0  0  0
 61136  1  0  0  0
 61137  1  0  0  0
 62138  1  0  0  0
 62139  1  0  0  0
 62140  1  0  0  0
 63 65  1  0  0  0
 63141  1  0  0  0
 63142  1  0  0  0
 63143  1  0  0  0
 64144  1  0  0  0
 65145  1  0  0  0
 68 82  1  0  0  0
 71 72  2  0  0  0
 71 74  1  0  0  0
 71146  1  0  0  0
 72 75  1  0  0  0
 72147  1  0  0  0
 73 75  2  0  0  0
 73 76  1  0  0  0
 73148  1  0  0  0
 74 76  2  0  0  0
 74 83  1  0  0  0
 75 84  1  0  0  0
 76 86  1  0  0  0
 77 81  1  0  0  0
 77 83  1  0  0  0
 77 85  2  0  0  0
 78 79  1  0  0  0
 78 80  1  0  0  0
 78149  1  0  0  0
 78150  1  0  0  0
 79 81  1  0  0  0
 79151  1  0  0  0
 79152  1  0  0  0
 80 83  1  0  0  0
 80153  1  0  0  0
 80154  1  0  0  0
 81 82  1  0  0  0
 81155  1  0  0  0
 82156  1  0  0  0
 82157  1  0  0  0
 84158  1  0  0  0
M  ISO  4   1 100  68 101  82 101  84 100
M  END
> <chiral flag>
0

> <version>
0

> <s_m_source_file>
/data/baiqing/PycharmProjects/Reinvent-master-3.2/result/LINK_invent/BTK/process_docking_weight1_custom_product_contain_oxygen_bond_distance_aromatic_linkinvent_7_9_3/rearranged_h_0023.sdf

> <i_m_source_file_index>
57

> <r_mmod_Potential_Energy-OPLS-2005>
198.220138549805

> <r_mmod_Stretch_Energy-OPLS-2005>
87.2781829833984

> <r_mmod_Bend_Energy-OPLS-2005>
152.671737670898

> <r_mmod_Torsional_Energy-OPLS-2005>
322.988677978516

> <r_mmod_Improper_Torsional_Energy-OPLS-2005>
8.06334400177002

> <r_mmod_Van_der_Waal_Energy-OPLS-2005>
138.547592163086

> <r_mmod_Electrostatic_Energy-OPLS-2005>
-333.185455322266

> <r_mmod_Solvation_Energy-OPLS-2005>
-225.986862182617

> <b_mmod_Minimization_Converged-OPLS-2005>
0

> <r_mmod_RMS_Derivative-OPLS-2005>
1.15014374256134

$$$$
57
                    3D
 Structure written by MMmdl.
159167  0  0  1  0            999 V2000
  -30.6630  -14.4738   20.5996 C   0  0  0  0  0  0
  -30.4355  -12.3140   19.4136 C   0  0  0  0  0  0
  -29.4986  -12.5085   18.2018 C   0  0  0  0  0  0
  -28.0175  -12.3685   18.6113 C   0  0  0  0  0  0
  -27.6649  -13.1945   19.8765 C   0  0  2  0  0  0
  -28.7032  -12.9387   20.9915 C   0  0  0  0  0  0
  -25.2618  -13.8126   20.5646 C   0  0  0  0  0  0
  -24.1855  -13.0433   20.9168 C   0  0  0  0  0  0
  -24.6384  -11.6890   20.8729 C   0  0  0  0  0  0
  -23.9041  -10.4287   21.0401 C   0  0  0  0  0  0
  -24.3601   -9.4212   21.9185 C   0  0  0  0  0  0
  -23.6284   -8.2243   22.0757 C   0  0  0  0  0  0
  -22.4268   -8.0276   21.3539 C   0  0  0  0  0  0
  -21.9897   -9.0247   20.4645 C   0  0  0  0  0  0
  -22.7214  -10.2130   20.3053 C   0  0  0  0  0  0
  -21.6854   -6.0733   22.5279 C   0  0  0  0  0  0
  -21.4013   -6.5640   23.8212 C   0  0  0  0  0  0
  -21.3659   -5.6793   24.9174 C   0  0  0  0  0  0
  -21.6039   -4.3054   24.7228 C   0  0  0  0  0  0
  -21.8822   -3.8146   23.4350 C   0  0  0  0  0  0
  -21.9193   -4.6960   22.3401 C   0  0  0  0  0  0
  -22.7881  -13.5245   21.1833 C   0  0  0  0  0  0
  -22.1663   -4.2143   21.0978 F   0  0  0  0  0  0
  -21.5629   -3.4536   25.7744 F   0  0  0  0  0  0
  -30.0345  -13.2749   20.4521 N   0  0  0  0  0  0
  -26.3035  -12.9269   20.3338 N   0  0  0  0  0  0
  -25.9303  -11.6444   20.5737 N   0  0  0  0  0  0
  -22.0512  -12.8244   22.0389 N   0  0  0  0  0  0
  -25.4383  -15.1844   20.4027 N   0  0  0  0  0  0
  -31.7797  -14.7061   20.1238 O   0  0  0  0  0  0
  -21.6637   -6.8872   21.4237 O   0  0  0  0  0  0
  -22.3577  -14.5557   20.6685 O   0  0  0  0  0  0
  -24.6132  -31.8671   23.2078 C   0  0  0  0  0  0
  -25.9020  -32.4823   23.8375 C   0  0  1  0  0  0
  -27.2381  -27.4349   20.0977 C   0  0  0  0  0  0
  -25.5865  -33.8618   24.2302 N   0  0  0  0  0  0
  -23.4013  -30.4891   21.5498 C   0  0  2  0  0  0
  -24.8486  -28.9521   20.1190 C   0  0  0  0  0  0
  -22.7403  -29.4641   22.4993 C   0  0  0  0  0  0
  -18.0266  -28.1369   22.8495 C   0  0  0  0  0  0
  -24.1484  -36.7323   23.2636 C   0  0  0  0  0  0
  -25.9290  -30.8363   21.3582 C   0  0  0  0  0  0
  -26.0092  -29.4698   20.7069 C   0  0  0  0  0  0
  -27.2079  -28.7202   20.6877 C   0  0  0  0  0  0
  -26.0573  -26.9271   19.5111 C   0  0  0  0  0  0
  -24.8667  -27.6794   19.5202 C   0  0  0  0  0  0
  -23.6106  -29.8187   20.1662 C   0  0  0  0  0  0
  -25.4105  -36.3115   24.0332 C   0  0  1  0  0  0
  -20.5856  -28.3648   23.1325 C   0  0  2  0  0  0
  -20.6763  -26.9385   22.5426 C   0  0  0  0  0  0
  -19.5741  -26.6377   21.5217 C   0  0  0  0  0  0
  -18.1917  -26.7916   22.1625 C   0  0  0  0  0  0
  -19.1518  -28.8827   23.2907 C   0  0  0  0  0  0
  -18.9451  -30.1435   23.8915 C   0  0  0  0  0  0
  -17.6459  -30.6587   24.0556 C   0  0  0  0  0  0
  -25.9030  -34.9477   23.5122 C   0  0  0  0  0  0
  -16.5347  -29.9091   23.6316 C   0  0  0  0  0  0
  -16.7259  -28.6502   23.0345 C   0  0  0  0  0  0
  -26.4455  -31.6601   25.0697 C   0  0  0  0  0  0
  -25.3717  -31.3712   26.1444 C   0  0  0  0  0  0
  -27.0255  -30.3039   24.6041 C   0  0  0  0  0  0
  -27.6023  -32.4317   25.7475 C   0  0  0  0  0  0
  -27.5584  -37.1816   24.8457 C   0  0  0  0  0  0
  -21.4131  -29.3018   22.3739 N   0  0  0  0  0  0
  -26.4296  -37.3797   23.9406 N   0  0  0  0  0  0
  -24.6664  -31.0772   22.0982 N   0  0  0  0  0  0
  -23.4180  -28.8184   23.3033 O   0  0  0  0  0  0
  -28.4201  -26.7232   20.0836 O   0  0  0  0  0  0
  -26.5614  -34.8941   22.4700 O   0  0  0  0  0  0
  -23.5331  -32.1418   23.7487 O   0  0  0  0  0  0
  -28.8695  -18.9699   21.6864 C   0  0  0  0  0  0
  -31.2790  -18.9331   21.3798 C   0  0  0  0  0  0
  -28.8336  -17.5690   21.5127 C   0  0  0  0  0  0
  -31.2438  -17.5312   21.2002 C   0  0  0  0  0  0
  -30.0966  -19.6655   21.6428 C   0  0  0  0  0  0
  -30.0172  -16.8298   21.2797 C   0  0  0  0  0  0
  -30.6160  -21.9426   19.7027 C   0  0  0  0  0  0
  -30.1658  -21.1563   22.0104 C   0  0  0  0  0  0
  -29.7812  -24.7728   20.5643 C   0  0  0  0  0  0
  -29.9523  -23.5426   21.5097 C   0  0  0  0  0  0
  -28.3491  -25.3122   20.3457 C   0  0  0  0  0  0
  -29.8989  -15.4079   21.2059 N   0  0  0  0  0  0
  -29.8359  -22.1554   20.9470 N   0  3  1  0  0  0
  -31.4766  -12.4421   19.1116 H   0  0  0  0  0  0
  -30.3597  -11.2955   19.7965 H   0  0  0  0  0  0
  -29.7377  -11.7843   17.4223 H   0  0  0  0  0  0
  -29.6657  -13.4937   17.7635 H   0  0  0  0  0  0
  -27.8228  -11.3109   18.7943 H   0  0  0  0  0  0
  -27.3701  -12.6558   17.7818 H   0  0  0  0  0  0
  -27.7182  -14.2456   19.5951 H   0  0  0  0  0  0
  -28.6873  -11.8882   21.2871 H   0  0  0  0  0  0
  -28.4519  -13.4895   21.8986 H   0  0  0  0  0  0
  -25.2748   -9.5692   22.4756 H   0  0  0  0  0  0
  -23.9997   -7.4636   22.7480 H   0  0  0  0  0  0
  -21.0831   -8.8756   19.8952 H   0  0  0  0  0  0
  -22.3671  -10.9666   19.6162 H   0  0  0  0  0  0
  -21.2008   -7.6151   23.9710 H   0  0  0  0  0  0
  -21.1476   -6.0526   25.9075 H   0  0  0  0  0  0
  -22.0602   -2.7607   23.2852 H   0  0  0  0  0  0
  -22.4119  -11.9901   22.4771 H   0  0  0  0  0  0
  -21.1131  -13.1279   22.2578 H   0  0  0  0  0  0
  -24.6705  -15.8409   20.4939 H   0  0  0  0  0  0
  -26.2806  -15.6100   20.0376 H   0  0  0  0  0  0
  -26.7091  -32.5549   23.1139 H   0  0  0  0  0  0
  -24.9971  -33.9772   25.0418 H   0  0  0  0  0  0
  -22.6892  -31.3051   21.4092 H   0  0  0  0  0  0
  -23.3746  -35.9655   23.3299 H   0  0  0  0  0  0
  -24.3582  -36.8938   22.2050 H   0  0  0  0  0  0
  -23.7239  -37.6527   23.6659 H   0  0  0  0  0  0
  -26.0314  -31.6029   20.5891 H   0  0  0  0  0  0
  -26.8194  -30.8950   21.9722 H   0  0  0  0  0  0
  -28.1076  -29.1192   21.1375 H   0  0  0  0  0  0
  -26.0476  -25.9590   19.0316 H   0  0  0  0  0  0
  -23.9725  -27.2730   19.0671 H   0  0  0  0  0  0
  -23.7184  -30.5912   19.4035 H   0  0  0  0  0  0
  -22.7348  -29.2371   19.8740 H   0  0  0  0  0  0
  -25.1285  -36.1980   25.0824 H   0  0  0  0  0  0
  -20.9948  -28.3235   24.1439 H   0  0  0  0  0  0
  -20.5671  -26.2259   23.3617 H   0  0  0  0  0  0
  -21.6639  -26.7437   22.1211 H   0  0  0  0  0  0
  -19.6902  -25.6290   21.1235 H   0  0  0  0  0  0
  -19.6687  -27.3203   20.6759 H   0  0  0  0  0  0
  -17.4186  -26.6659   21.4025 H   0  0  0  0  0  0
  -18.0305  -26.0060   22.9024 H   0  0  0  0  0  0
  -19.7939  -30.7223   24.2315 H   0  0  0  0  0  0
  -17.5025  -31.6276   24.5143 H   0  0  0  0  0  0
  -15.5350  -30.3004   23.7633 H   0  0  0  0  0  0
  -15.8654  -28.0834   22.7050 H   0  0  0  0  0  0
  -24.5897  -30.7044   25.7784 H   0  0  0  0  0  0
  -24.8906  -32.2875   26.4878 H   0  0  0  0  0  0
  -25.8070  -30.8899   27.0208 H   0  0  0  0  0  0
  -26.2768  -29.6845   24.1084 H   0  0  0  0  0  0
  -27.4000  -29.7229   25.4476 H   0  0  0  0  0  0
  -27.8622  -30.4335   23.9173 H   0  0  0  0  0  0
  -27.2612  -33.3600   26.2072 H   0  0  0  0  0  0
  -28.3835  -32.6904   25.0313 H   0  0  0  0  0  0
  -28.0679  -31.8421   26.5383 H   0  0  0  0  0  0
  -28.2598  -38.0124   24.7528 H   0  0  0  0  0  0
  -28.1094  -36.2659   24.6259 H   0  0  0  0  0  0
  -27.2306  -37.1421   25.8862 H   0  0  0  0  0  0
  -20.9288  -29.8751   21.6970 H   0  0  0  0  0  0
  -26.0192  -38.2871   24.1437 H   0  0  0  0  0  0
  -27.9512  -19.4993   21.9020 H   0  0  0  0  0  0
  -32.2353  -19.4382   21.3593 H   0  0  0  0  0  0
  -27.8798  -17.0642   21.5855 H   0  0  0  0  0  0
  -32.1759  -17.0057   21.0456 H   0  0  0  0  0  0
  -30.5278  -20.9177   19.3427 H   0  0  0  0  0  0
  -31.6749  -22.1535   19.8552 H   0  0  0  0  0  0
  -30.2494  -22.5730   18.8943 H   0  0  0  0  0  0
  -31.1698  -21.3595   22.3869 H   0  0  0  0  0  0
  -29.5000  -21.3154   22.8607 H   0  0  0  0  0  0
  -30.3000  -24.6564   19.6150 H   0  0  0  0  0  0
  -30.3245  -25.5806   21.0566 H   0  0  0  0  0  0
  -29.2749  -23.6457   22.3586 H   0  0  0  0  0  0
  -30.9524  -23.6238   21.9385 H   0  0  0  0  0  0
  -27.7410  -25.1472   21.2376 H   0  0  0  0  0  0
  -27.8804  -24.7767   19.5196 H   0  0  0  0  0  0
  -29.0125  -15.0397   21.5148 H   0  0  0  0  0  0
  -28.8678  -22.0032   20.7073 H   0  0  0  0  0  0
  1 25  1  0  0  0
  1 30  2  0  0  0
  1 82  1  0  0  0
  2  3  1  0  0  0
  2 25  1  0  0  0
  2 84  1  0  0  0
  2 85  1  0  0  0
  3  4  1  0  0  0
  3 86  1  0  0  0
  3 87  1  0  0  0
  4  5  1  0  0  0
  4 88  1  0  0  0
  4 89  1  0  0  0
  5  6  1  0  0  0
  5 26  1  0  0  0
  5 90  1  0  0  0
  6 25  1  0  0  0
  6 91  1  0  0  0
  6 92  1  0  0  0
  7  8  2  0  0  0
  7 26  1  0  0  0
  7 29  1  0  0  0
  8  9  1  0  0  0
  8 22  1  0  0  0
  9 10  1  0  0  0
  9 27  2  0  0  0
 10 11  2  0  0  0
 10 15  1  0  0  0
 11 12  1  0  0  0
 11 93  1  0  0  0
 12 13  2  0  0  0
 12 94  1  0  0  0
 13 14  1  0  0  0
 13 31  1  0  0  0
 14 15  2  0  0  0
 14 95  1  0  0  0
 15 96  1  0  0  0
 16 17  2  0  0  0
 16 21  1  0  0  0
 16 31  1  0  0  0
 17 18  1  0  0  0
 17 97  1  0  0  0
 18 19  2  0  0  0
 18 98  1  0  0  0
 19 20  1  0  0  0
 19 24  1  0  0  0
 20 21  2  0  0  0
 20 99  1  0  0  0
 21 23  1  0  0  0
 22 28  1  0  0  0
 22 32  2  0  0  0
 26 27  1  0  0  0
 28100  1  0  0  0
 28101  1  0  0  0
 29102  1  0  0  0
 29103  1  0  0  0
 33 34  1  0  0  0
 33 66  1  0  0  0
 33 70  2  0  0  0
 34 36  1  0  0  0
 34 59  1  0  0  0
 34104  1  0  0  0
 35 44  2  0  0  0
 35 45  1  0  0  0
 35 68  1  0  0  0
 36 56  1  0  0  0
 36105  1  0  0  0
 37 39  1  0  0  0
 37 47  1  0  0  0
 37 66  1  0  0  0
 37106  1  0  0  0
 38 43  2  0  0  0
 38 46  1  0  0  0
 38 47  1  0  0  0
 39 64  1  0  0  0
 39 67  2  0  0  0
 40 52  1  0  0  0
 40 53  2  0  0  0
 40 58  1  0  0  0
 41107  1  0  0  0
 41108  1  0  0  0
 41109  1  0  0  0
 41 48  1  0  0  0
 42 43  1  0  0  0
 42 66  1  0  0  0
 42110  1  0  0  0
 42111  1  0  0  0
 43 44  1  0  0  0
 44112  1  0  0  0
 45 46  2  0  0  0
 45113  1  0  0  0
 46114  1  0  0  0
 47115  1  0  0  0
 47116  1  0  0  0
 48 56  1  0  0  0
 48 65  1  0  0  0
 48117  1  0  0  0
 49 50  1  0  0  0
 49 53  1  0  0  0
 49 64  1  0  0  0
 49118  1  0  0  0
 50 51  1  0  0  0
 50119  1  0  0  0
 50120  1  0  0  0
 51 52  1  0  0  0
 51121  1  0  0  0
 51122  1  0  0  0
 52123  1  0  0  0
 52124  1  0  0  0
 53 54  1  0  0  0
 54 55  2  0  0  0
 54125  1  0  0  0
 55 57  1  0  0  0
 55126  1  0  0  0
 56 69  2  0  0  0
 57 58  2  0  0  0
 57127  1  0  0  0
 58128  1  0  0  0
 59 60  1  0  0  0
 59 61  1  0  0  0
 59 62  1  0  0  0
 60129  1  0  0  0
 60130  1  0  0  0
 60131  1  0  0  0
 61132  1  0  0  0
 61133  1  0  0  0
 61134  1  0  0  0
 62135  1  0  0  0
 62136  1  0  0  0
 62137  1  0  0  0
 63 65  1  0  0  0
 63138  1  0  0  0
 63139  1  0  0  0
 63140  1  0  0  0
 64141  1  0  0  0
 65142  1  0  0  0
 68 81  1  0  0  0
 71 73  2  0  0  0
 71 75  1  0  0  0
 71143  1  0  0  0
 72 74  1  0  0  0
 72 75  2  0  0  0
 72144  1  0  0  0
 73 76  1  0  0  0
 73145  1  0  0  0
 74 76  2  0  0  0
 74146  1  0  0  0
 75 78  1  0  0  0
 76 82  1  0  0  0
 77147  1  0  0  0
 77148  1  0  0  0
 77149  1  0  0  0
 77 83  1  0  0  0
 78 83  1  0  0  0
 78150  1  0  0  0
 78151  1  0  0  0
 79 80  1  0  0  0
 79 81  1  0  0  0
 79152  1  0  0  0
 79153  1  0  0  0
 80 83  1  0  0  0
 80154  1  0  0  0
 80155  1  0  0  0
 81156  1  0  0  0
 81157  1  0  0  0
 82158  1  0  0  0
 83159  1  0  0  0
M  CHG  1  83   1
M  ISO  4   1 100  68 101  81 101  82 100
M  END
> <chiral flag>
0

> <version>
0

> <s_m_source_file>
/data/baiqing/PycharmProjects/Reinvent-master-3.2/result/LINK_invent/BTK/process_docking_weight1_custom_product_contain_oxygen_bond_distance_aromatic_linkinvent_7_9_3/rearranged_h_0023.sdf

> <i_m_source_file_index>
58

> <r_mmod_Potential_Energy-OPLS-2005>
-169.5888671875

> <r_mmod_Stretch_Energy-OPLS-2005>
39.6837730407715

> <r_mmod_Bend_Energy-OPLS-2005>
116.625686645508

> <r_mmod_Torsional_Energy-OPLS-2005>
224.905197143555

> <r_mmod_Improper_Torsional_Energy-OPLS-2005>
4.02819395065308

> <r_mmod_Van_der_Waal_Energy-OPLS-2005>
155.463958740234

> <r_mmod_Electrostatic_Energy-OPLS-2005>
-270.951782226562

> <r_mmod_Solvation_Energy-OPLS-2005>
-451.460754394531

> <b_mmod_Minimization_Converged-OPLS-2005>
0

> <r_mmod_RMS_Derivative-OPLS-2005>
1.51259875297546

$$$$
58
                    3D
 Structure written by MMmdl.
156165  0  0  1  0            999 V2000
  -30.6056  -14.6383   20.5173 C   0  0  0  0  0  0
  -30.4434  -12.3957   19.4508 C   0  0  0  0  0  0
  -29.5113  -12.5212   18.2236 C   0  0  0  0  0  0
  -28.0331  -12.3551   18.6318 C   0  0  0  0  0  0
  -27.6563  -13.2128   19.8689 C   0  0  2  0  0  0
  -28.6990  -13.0488   20.9988 C   0  0  0  0  0  0
  -25.2580  -13.8144   20.5671 C   0  0  0  0  0  0
  -24.1829  -13.0432   20.9171 C   0  0  0  0  0  0
  -24.6376  -11.6895   20.8716 C   0  0  0  0  0  0
  -23.9036  -10.4286   21.0392 C   0  0  0  0  0  0
  -24.3593   -9.4204   21.9173 C   0  0  0  0  0  0
  -23.6281   -8.2230   22.0743 C   0  0  0  0  0  0
  -22.4273   -8.0256   21.3523 C   0  0  0  0  0  0
  -21.9892   -9.0232   20.4635 C   0  0  0  0  0  0
  -22.7204  -10.2123   20.3047 C   0  0  0  0  0  0
  -21.6850   -6.0718   22.5274 C   0  0  0  0  0  0
  -21.4013   -6.5630   23.8202 C   0  0  0  0  0  0
  -21.3668   -5.6782   24.9168 C   0  0  0  0  0  0
  -21.6047   -4.3038   24.7223 C   0  0  0  0  0  0
  -21.8821   -3.8128   23.4342 C   0  0  0  0  0  0
  -21.9196   -4.6948   22.3403 C   0  0  0  0  0  0
  -22.7857  -13.5242   21.1859 C   0  0  0  0  0  0
  -22.1656   -4.2130   21.0981 F   0  0  0  0  0  0
  -21.5650   -3.4522   25.7737 F   0  0  0  0  0  0
  -30.0159  -13.4023   20.4431 N   0  0  0  0  0  0
  -26.3001  -12.9313   20.3324 N   0  0  0  0  0  0
  -25.9305  -11.6474   20.5723 N   0  0  0  0  0  0
  -22.0485  -12.8239   22.0404 N   0  0  0  0  0  0
  -25.4318  -15.1867   20.4104 N   0  0  0  0  0  0
  -31.7587  -14.8242   20.1163 O   0  0  0  0  0  0
  -21.6635   -6.8856   21.4233 O   0  0  0  0  0  0
  -22.3550  -14.5553   20.6717 O   0  0  0  0  0  0
  -24.6256  -31.8613   23.2047 C   0  0  0  0  0  0
  -25.9121  -32.4772   23.8365 C   0  0  1  0  0  0
  -27.2252  -27.3247   20.1263 C   0  0  0  0  0  0
  -25.5953  -33.8572   24.2309 N   0  0  0  0  0  0
  -23.4171  -30.4868   21.5459 C   0  0  2  0  0  0
  -24.8677  -28.9378   20.1129 C   0  0  0  0  0  0
  -22.7455  -29.4661   22.4945 C   0  0  0  0  0  0
  -18.0270  -28.1378   22.8495 C   0  0  0  0  0  0
  -24.1492  -36.7289   23.2626 C   0  0  0  0  0  0
  -25.9580  -30.7928   21.3749 C   0  0  0  0  0  0
  -26.0346  -29.4194   20.7194 C   0  0  0  0  0  0
  -27.2194  -28.6251   20.7161 C   0  0  0  0  0  0
  -26.0417  -26.8961   19.4873 C   0  0  0  0  0  0
  -24.8722  -27.6803   19.4860 C   0  0  0  0  0  0
  -23.6339  -29.8171   20.1624 C   0  0  0  0  0  0
  -25.4113  -36.3074   24.0333 C   0  0  1  0  0  0
  -20.5872  -28.3707   23.1274 C   0  0  2  0  0  0
  -20.6774  -26.9438   22.5396 C   0  0  0  0  0  0
  -19.5756  -26.6392   21.5199 C   0  0  0  0  0  0
  -18.1933  -26.7926   22.1612 C   0  0  0  0  0  0
  -19.1523  -28.8855   23.2881 C   0  0  0  0  0  0
  -18.9452  -30.1448   23.8902 C   0  0  0  0  0  0
  -17.6458  -30.6593   24.0552 C   0  0  0  0  0  0
  -25.9062  -34.9445   23.5121 C   0  0  0  0  0  0
  -16.5346  -29.9096   23.6313 C   0  0  0  0  0  0
  -16.7258  -28.6496   23.0371 C   0  0  0  0  0  0
  -26.4514  -31.6561   25.0720 C   0  0  0  0  0  0
  -25.3750  -31.3678   26.1450 C   0  0  0  0  0  0
  -27.0346  -30.2976   24.6179 C   0  0  0  0  0  0
  -27.6106  -32.4274   25.7466 C   0  0  0  0  0  0
  -27.5591  -37.1792   24.8459 C   0  0  0  0  0  0
  -21.4178  -29.3064   22.3670 N   0  0  0  0  0  0
  -26.4289  -37.3780   23.9418 N   0  0  0  0  0  0
  -24.6852  -31.0642   22.0986 N   0  0  0  0  0  0
  -23.4184  -28.8203   23.3030 O   0  0  0  0  0  0
  -28.3341  -26.4684   20.1524 O   0  0  0  0  0  0
  -26.5621  -34.8916   22.4680 O   0  0  0  0  0  0
  -23.5432  -32.1424   23.7395 O   0  0  0  0  0  0
  -30.8316  -19.3042   20.1900 C   0  0  0  0  0  0
  -28.5582  -19.2786   20.9576 C   0  0  0  0  0  0
  -30.9098  -17.8830   20.3152 C   0  0  0  0  0  0
  -28.6360  -17.8583   21.0894 C   0  0  0  0  0  0
  -29.6552  -20.0511   20.4977 C   0  0  0  0  0  0
  -29.8052  -17.1143   20.7652 C   0  0  0  0  0  0
  -30.3862  -23.7638   20.3300 C   0  0  0  0  0  0
  -30.7796  -22.2920   20.0620 C   0  0  0  0  0  0
  -28.4359  -22.3966   20.5203 C   0  0  0  0  0  0
  -28.8763  -23.8441   20.0529 C   0  0  1  0  0  0
  -28.1169  -25.0998   20.6805 C   0  0  0  0  0  0
  -29.5975  -21.4859   20.3539 N   0  0  0  0  0  0
  -29.7786  -15.6576   20.9220 N   0  0  0  0  0  0
  -31.4838  -12.5313   19.1515 H   0  0  0  0  0  0
  -30.3846  -11.3938   19.8773 H   0  0  0  0  0  0
  -29.7769  -11.7795   17.4692 H   0  0  0  0  0  0
  -29.6541  -13.4969   17.7543 H   0  0  0  0  0  0
  -27.8644  -11.3006   18.8515 H   0  0  0  0  0  0
  -27.3807  -12.5985   17.7910 H   0  0  0  0  0  0
  -27.6800  -14.2525   19.5431 H   0  0  0  0  0  0
  -28.7103  -12.0213   21.3670 H   0  0  0  0  0  0
  -28.4394  -13.6651   21.8618 H   0  0  0  0  0  0
  -25.2732   -9.5699   22.4752 H   0  0  0  0  0  0
  -23.9992   -7.4627   22.7471 H   0  0  0  0  0  0
  -21.0809   -8.8751   19.8951 H   0  0  0  0  0  0
  -22.3639  -10.9662   19.6166 H   0  0  0  0  0  0
  -21.1988   -7.6138   23.9690 H   0  0  0  0  0  0
  -21.1504   -6.0516   25.9070 H   0  0  0  0  0  0
  -22.0597   -2.7590   23.2836 H   0  0  0  0  0  0
  -22.4087  -11.9902   22.4801 H   0  0  0  0  0  0
  -21.1118  -13.1289   22.2630 H   0  0  0  0  0  0
  -24.6642  -15.8421   20.5077 H   0  0  0  0  0  0
  -26.2772  -15.6164   20.0565 H   0  0  0  0  0  0
  -26.7183  -32.5466   23.1107 H   0  0  0  0  0  0
  -25.0112  -33.9700   25.0465 H   0  0  0  0  0  0
  -22.7083  -31.3062   21.4016 H   0  0  0  0  0  0
  -23.3769  -35.9605   23.3256 H   0  0  0  0  0  0
  -24.3587  -36.8941   22.2044 H   0  0  0  0  0  0
  -23.7236  -37.6482   23.6670 H   0  0  0  0  0  0
  -26.0872  -31.5543   20.6048 H   0  0  0  0  0  0
  -26.8387  -30.8438   22.0042 H   0  0  0  0  0  0
  -28.1132  -28.9897   21.2023 H   0  0  0  0  0  0
  -26.0151  -25.9353   18.9934 H   0  0  0  0  0  0
  -23.9787  -27.3094   19.0026 H   0  0  0  0  0  0
  -23.7474  -30.5915   19.4031 H   0  0  0  0  0  0
  -22.7549  -29.2422   19.8646 H   0  0  0  0  0  0
  -25.1288  -36.1905   25.0826 H   0  0  0  0  0  0
  -20.9959  -28.3280   24.1399 H   0  0  0  0  0  0
  -20.5666  -26.2332   23.3601 H   0  0  0  0  0  0
  -21.6650  -26.7482   22.1192 H   0  0  0  0  0  0
  -19.6931  -25.6291   21.1255 H   0  0  0  0  0  0
  -19.6704  -27.3185   20.6712 H   0  0  0  0  0  0
  -17.4218  -26.6655   21.4000 H   0  0  0  0  0  0
  -18.0371  -26.0051   22.8999 H   0  0  0  0  0  0
  -19.7924  -30.7257   24.2298 H   0  0  0  0  0  0
  -17.5016  -31.6274   24.5157 H   0  0  0  0  0  0
  -15.5344  -30.3011   23.7644 H   0  0  0  0  0  0
  -15.8650  -28.0807   22.7123 H   0  0  0  0  0  0
  -24.5942  -30.7011   25.7762 H   0  0  0  0  0  0
  -24.8914  -32.2826   26.4884 H   0  0  0  0  0  0
  -25.8078  -30.8842   27.0215 H   0  0  0  0  0  0
  -26.2904  -29.6713   24.1244 H   0  0  0  0  0  0
  -27.4064  -29.7249   25.4685 H   0  0  0  0  0  0
  -27.8775  -30.4217   23.9377 H   0  0  0  0  0  0
  -27.2756  -33.3584   26.2044 H   0  0  0  0  0  0
  -28.3907  -32.6805   25.0272 H   0  0  0  0  0  0
  -28.0787  -31.8384   26.5363 H   0  0  0  0  0  0
  -28.2577  -38.0127   24.7578 H   0  0  0  0  0  0
  -28.1124  -36.2667   24.6183 H   0  0  0  0  0  0
  -27.2332  -37.1315   25.8868 H   0  0  0  0  0  0
  -20.9370  -29.8728   21.6821 H   0  0  0  0  0  0
  -26.0168  -38.2855   24.1439 H   0  0  0  0  0  0
  -31.7167  -19.8158   19.8423 H   0  0  0  0  0  0
  -27.6341  -19.7710   21.2259 H   0  0  0  0  0  0
  -31.8406  -17.3967   20.0619 H   0  0  0  0  0  0
  -27.7606  -17.3364   21.4509 H   0  0  0  0  0  0
  -30.9643  -24.4656   19.7272 H   0  0  0  0  0  0
  -30.5809  -24.0024   21.3770 H   0  0  0  0  0  0
  -31.6343  -21.9960   20.6736 H   0  0  0  0  0  0
  -31.0527  -22.1528   19.0141 H   0  0  0  0  0  0
  -27.5775  -22.0446   19.9459 H   0  0  0  0  0  0
  -28.1384  -22.4116   21.5699 H   0  0  0  0  0  0
  -28.7378  -23.8846   18.9715 H   0  0  0  0  0  0
  -28.3724  -25.1406   21.7407 H   0  0  0  0  0  0
  -27.0547  -24.8523   20.6770 H   0  0  0  0  0  0
  -28.9026  -15.2991   21.2678 H   0  0  0  0  0  0
  1 25  1  0  0  0
  1 30  2  0  0  0
  1 83  1  0  0  0
  2  3  1  0  0  0
  2 25  1  0  0  0
  2 84  1  0  0  0
  2 85  1  0  0  0
  3  4  1  0  0  0
  3 86  1  0  0  0
  3 87  1  0  0  0
  4  5  1  0  0  0
  4 88  1  0  0  0
  4 89  1  0  0  0
  5  6  1  0  0  0
  5 26  1  0  0  0
  5 90  1  0  0  0
  6 25  1  0  0  0
  6 91  1  0  0  0
  6 92  1  0  0  0
  7  8  2  0  0  0
  7 26  1  0  0  0
  7 29  1  0  0  0
  8  9  1  0  0  0
  8 22  1  0  0  0
  9 10  1  0  0  0
  9 27  2  0  0  0
 10 11  2  0  0  0
 10 15  1  0  0  0
 11 12  1  0  0  0
 11 93  1  0  0  0
 12 13  2  0  0  0
 12 94  1  0  0  0
 13 14  1  0  0  0
 13 31  1  0  0  0
 14 15  2  0  0  0
 14 95  1  0  0  0
 15 96  1  0  0  0
 16 17  2  0  0  0
 16 21  1  0  0  0
 16 31  1  0  0  0
 17 18  1  0  0  0
 17 97  1  0  0  0
 18 19  2  0  0  0
 18 98  1  0  0  0
 19 20  1  0  0  0
 19 24  1  0  0  0
 20 21  2  0  0  0
 20 99  1  0  0  0
 21 23  1  0  0  0
 22 28  1  0  0  0
 22 32  2  0  0  0
 26 27  1  0  0  0
 28100  1  0  0  0
 28101  1  0  0  0
 29102  1  0  0  0
 29103  1  0  0  0
 33 34  1  0  0  0
 33 66  1  0  0  0
 33 70  2  0  0  0
 34 36  1  0  0  0
 34 59  1  0  0  0
 34104  1  0  0  0
 35 44  2  0  0  0
 35 45  1  0  0  0
 35 68  1  0  0  0
 36 56  1  0  0  0
 36105  1  0  0  0
 37 39  1  0  0  0
 37 47  1  0  0  0
 37 66  1  0  0  0
 37106  1  0  0  0
 38 43  2  0  0  0
 38 46  1  0  0  0
 38 47  1  0  0  0
 39 64  1  0  0  0
 39 67  2  0  0  0
 40 52  1  0  0  0
 40 53  2  0  0  0
 40 58  1  0  0  0
 41107  1  0  0  0
 41108  1  0  0  0
 41109  1  0  0  0
 41 48  1  0  0  0
 42 43  1  0  0  0
 42 66  1  0  0  0
 42110  1  0  0  0
 42111  1  0  0  0
 43 44  1  0  0  0
 44112  1  0  0  0
 45 46  2  0  0  0
 45113  1  0  0  0
 46114  1  0  0  0
 47115  1  0  0  0
 47116  1  0  0  0
 48 56  1  0  0  0
 48 65  1  0  0  0
 48117  1  0  0  0
 49 50  1  0  0  0
 49 53  1  0  0  0
 49 64  1  0  0  0
 49118  1  0  0  0
 50 51  1  0  0  0
 50119  1  0  0  0
 50120  1  0  0  0
 51 52  1  0  0  0
 51121  1  0  0  0
 51122  1  0  0  0
 52123  1  0  0  0
 52124  1  0  0  0
 53 54  1  0  0  0
 54 55  2  0  0  0
 54125  1  0  0  0
 55 57  1  0  0  0
 55126  1  0  0  0
 56 69  2  0  0  0
 57 58  2  0  0  0
 57127  1  0  0  0
 58128  1  0  0  0
 59 60  1  0  0  0
 59 61  1  0  0  0
 59 62  1  0  0  0
 60129  1  0  0  0
 60130  1  0  0  0
 60131  1  0  0  0
 61132  1  0  0  0
 61133  1  0  0  0
 61134  1  0  0  0
 62135  1  0  0  0
 62136  1  0  0  0
 62137  1  0  0  0
 63 65  1  0  0  0
 63138  1  0  0  0
 63139  1  0  0  0
 63140  1  0  0  0
 64141  1  0  0  0
 65142  1  0  0  0
 68 81  1  0  0  0
 71 73  2  0  0  0
 71 75  1  0  0  0
 71143  1  0  0  0
 72 74  1  0  0  0
 72 75  2  0  0  0
 72144  1  0  0  0
 73 76  1  0  0  0
 73145  1  0  0  0
 74 76  2  0  0  0
 74146  1  0  0  0
 75 82  1  0  0  0
 76 83  1  0  0  0
 77 78  1  0  0  0
 77 80  1  0  0  0
 77147  1  0  0  0
 77148  1  0  0  0
 78 82  1  0  0  0
 78149  1  0  0  0
 78150  1  0  0  0
 79 80  1  0  0  0
 79 82  1  0  0  0
 79151  1  0  0  0
 79152  1  0  0  0
 80 81  1  0  0  0
 80153  1  0  0  0
 81154  1  0  0  0
 81155  1  0  0  0
 83156  1  0  0  0
M  ISO  4   1 100  68 101  81 101  83 100
M  END
> <chiral flag>
0

> <version>
0

> <s_m_source_file>
/data/baiqing/PycharmProjects/Reinvent-master-3.2/result/LINK_invent/BTK/process_docking_weight1_custom_product_contain_oxygen_bond_distance_aromatic_linkinvent_7_9_3/rearranged_h_0023.sdf

> <i_m_source_file_index>
59

> <r_mmod_Potential_Energy-OPLS-2005>
110.317306518555

> <r_mmod_Stretch_Energy-OPLS-2005>
76.4861373901367

> <r_mmod_Bend_Energy-OPLS-2005>
182.149383544922

> <r_mmod_Torsional_Energy-OPLS-2005>
272.810119628906

> <r_mmod_Improper_Torsional_Energy-OPLS-2005>
3.87873816490173

> <r_mmod_Van_der_Waal_Energy-OPLS-2005>
140.137268066406

> <r_mmod_Electrostatic_Energy-OPLS-2005>
-384.825012207031

> <r_mmod_Solvation_Energy-OPLS-2005>
-227.490417480469

> <b_mmod_Minimization_Converged-OPLS-2005>
0

> <r_mmod_RMS_Derivative-OPLS-2005>
2.38283944129944

$$$$
59
                    3D
 Structure written by MMmdl.
171180  0  0  1  0            999 V2000
  -31.9662  -13.0471   20.2553 C   0  0  0  0  0  0
  -31.0011  -14.4355   18.8147 C   0  0  0  0  0  0
  -29.7792  -15.6568   19.2212 C   0  0  0  0  0  0
  -27.6670  -15.2213   19.9289 C   0  0  0  0  0  0
  -27.1841  -13.5221   20.5113 C   0  0  2  0  0  0
  -28.3566  -12.1973   20.4094 C   0  0  0  0  0  0
  -24.8691  -13.8787   20.5612 C   0  0  0  0  0  0
  -23.8942  -13.0268   20.8952 C   0  0  0  0  0  0
  -24.4272  -11.7083   20.8476 C   0  0  0  0  0  0
  -23.8017  -10.4160   21.0272 C   0  0  0  0  0  0
  -24.3099   -9.4351   21.9040 C   0  0  0  0  0  0
  -23.6145   -8.2215   22.0597 C   0  0  0  0  0  0
  -22.4128   -7.9991   21.3445 C   0  0  0  0  0  0
  -21.9411   -8.9698   20.4488 C   0  0  0  0  0  0
  -22.6372  -10.1692   20.2827 C   0  0  0  0  0  0
  -21.6879   -6.0580   22.5329 C   0  0  0  0  0  0
  -21.4043   -6.5568   23.8221 C   0  0  0  0  0  0
  -21.3617   -5.6741   24.9183 C   0  0  0  0  0  0
  -21.6009   -4.3005   24.7282 C   0  0  0  0  0  0
  -21.8850   -3.8041   23.4426 C   0  0  0  0  0  0
  -21.9218   -4.6825   22.3473 C   0  0  0  0  0  0
  -22.5304  -13.4841   21.2157 C   0  0  0  0  0  0
  -22.1710   -4.2024   21.1050 F   0  0  0  0  0  0
  -21.5541   -3.4519   25.7809 F   0  0  0  0  0  0
  -30.8450  -13.0864   19.5438 N   0  0  0  0  0  0
  -25.9252  -13.0719   20.3610 N   0  0  0  0  0  0
  -25.6897  -11.7560   20.5527 N   0  0  0  0  0  0
  -21.8591  -12.7666   22.0966 N   0  0  0  0  0  0
  -24.9345  -15.2617   20.5335 N   0  0  0  0  0  0
  -32.6468  -14.0322   20.5812 O   0  0  0  0  0  0
  -21.6609   -6.8564   21.4212 O   0  0  0  0  0  0
  -22.1076  -14.5356   20.7407 O   0  0  0  0  0  0
  -24.6998  -31.7853   23.1402 C   0  0  0  0  0  0
  -25.9511  -32.4374   23.8002 C   0  0  1  0  0  0
  -27.0548  -26.5574   20.0130 C   0  0  0  0  0  0
  -25.6032  -33.8222   24.1869 N   0  0  0  0  0  0
  -23.5151  -30.4038   21.5105 C   0  0  2  0  0  0
  -24.9124  -28.7378   20.0751 C   0  0  0  0  0  0
  -22.7819  -29.4262   22.4703 C   0  0  0  0  0  0
  -18.0371  -28.1406   22.8493 C   0  0  0  0  0  0
  -24.1505  -36.7103   23.2674 C   0  0  0  0  0  0
  -26.1021  -30.4420   21.4206 C   0  0  0  0  0  0
  -26.1220  -29.0114   20.7238 C   0  0  0  0  0  0
  -27.1839  -27.9414   20.6700 C   0  0  0  0  0  0
  -25.8225  -26.5395   19.3357 C   0  0  0  0  0  0
  -24.8085  -27.5339   19.3650 C   0  0  0  0  0  0
  -23.7408  -29.7290   20.1329 C   0  0  0  0  0  0
  -25.4166  -36.2838   24.0276 C   0  0  1  0  0  0
  -20.6000  -28.3764   23.1161 C   0  0  2  0  0  0
  -20.6813  -26.9438   22.5415 C   0  0  0  0  0  0
  -19.5781  -26.6369   21.5238 C   0  0  0  0  0  0
  -18.1978  -26.7939   22.1640 C   0  0  0  0  0  0
  -19.1642  -28.8922   23.2794 C   0  0  0  0  0  0
  -18.9520  -30.1517   23.8828 C   0  0  0  0  0  0
  -17.6498  -30.6588   24.0566 C   0  0  0  0  0  0
  -25.9176  -34.9248   23.4927 C   0  0  0  0  0  0
  -16.5396  -29.9067   23.6363 C   0  0  0  0  0  0
  -16.7344  -28.6485   23.0395 C   0  0  0  0  0  0
  -26.4600  -31.6530   25.0745 C   0  0  0  0  0  0
  -25.3620  -31.3901   26.1348 C   0  0  0  0  0  0
  -27.0592  -30.2887   24.6725 C   0  0  0  0  0  0
  -27.6018  -32.4486   25.7499 C   0  0  0  0  0  0
  -27.5581  -37.1713   24.8459 C   0  0  0  0  0  0
  -21.4447  -29.3009   22.3463 N   0  0  0  0  0  0
  -26.4303  -37.3591   23.9400 N   0  0  0  0  0  0
  -24.8040  -30.9146   22.0723 N   0  0  0  0  0  0
  -23.4286  -28.7898   23.3089 O   0  0  0  0  0  0
  -27.8621  -25.2033   19.9833 O   0  0  0  0  0  0
  -26.5809  -34.8840   22.4546 O   0  0  0  0  0  0
  -23.6008  -32.1045   23.6294 O   0  0  0  0  0  0
  -29.2352  -12.0095   18.2311 C   0  0  0  0  0  0
  -30.0250  -10.9224   19.3302 C   0  0  0  0  0  0
  -30.0982  -12.7796   21.8156 C   0  0  0  0  0  0
  -29.4415  -14.0714   20.9264 C   0  0  0  0  0  0
  -28.7959  -13.6086   18.7282 C   0  0  0  0  0  0
  -30.5402  -11.3830   20.9347 C   0  0  0  0  0  0
  -27.9735  -16.6089   17.9545 C   0  0  0  0  0  0
  -29.5086  -15.4424   21.8474 C   0  0  0  0  0  0
  -28.9501  -16.9963   21.5855 C   0  0  0  0  0  0
  -28.9350  -18.0059   20.2752 C   0  0  0  0  0  0
  -26.4844  -21.2560   20.3892 C   0  0  0  0  0  0
  -27.5028  -14.3223   16.4942 C   0  0  0  0  0  0
  -27.9391  -19.7634   18.6045 C   0  0  0  0  0  0
  -27.6734  -23.5169   19.2967 C   0  0  0  0  0  0
  -27.7700  -21.5168   19.5778 C   0  0  1  0  0  0
  -28.1702  -14.9786   17.6277 N   0  0  0  0  0  0
  -28.1642  -17.9536   18.9029 N   0  0  0  0  0  0
  -31.9018  -11.8137   20.8157 N   0  0  0  0  0  0
  -27.2990  -17.1007   16.9058 N   0  3  0  0  0  0
  -31.9586  -14.9467   18.7178 H   0  0  0  0  0  0
  -30.9328  -14.1985   17.7484 H   0  0  0  0  0  0
  -29.8897  -16.3702   18.4061 H   0  0  0  0  0  0
  -30.4371  -16.2048   19.8839 H   0  0  0  0  0  0
  -26.8779  -15.6028   19.2849 H   0  0  0  0  0  0
  -27.2766  -15.8273   20.7216 H   0  0  0  0  0  0
  -27.1531  -13.6867   21.5980 H   0  0  0  0  0  0
  -27.8408  -11.3961   19.8661 H   0  0  0  0  0  0
  -28.2045  -11.6558   21.3585 H   0  0  0  0  0  0
  -25.2171   -9.6226   22.4639 H   0  0  0  0  0  0
  -24.0014   -7.4708   22.7338 H   0  0  0  0  0  0
  -21.0375   -8.7864   19.8831 H   0  0  0  0  0  0
  -22.2572  -10.9053   19.5886 H   0  0  0  0  0  0
  -21.2085   -7.6101   23.9670 H   0  0  0  0  0  0
  -21.1393   -6.0503   25.9063 H   0  0  0  0  0  0
  -22.0685   -2.7542   23.2970 H   0  0  0  0  0  0
  -22.2626  -11.9345   22.5007 H   0  0  0  0  0  0
  -20.9258  -13.0385   22.3693 H   0  0  0  0  0  0
  -24.1189  -15.8366   20.7101 H   0  0  0  0  0  0
  -25.7867  -15.7855   20.4162 H   0  0  0  0  0  0
  -26.7643  -32.4708   23.0749 H   0  0  0  0  0  0
  -25.0035  -33.9220   24.9924 H   0  0  0  0  0  0
  -22.8489  -31.2524   21.3465 H   0  0  0  0  0  0
  -23.3807  -35.9394   23.3239 H   0  0  0  0  0  0
  -24.3590  -36.8844   22.2115 H   0  0  0  0  0  0
  -23.7228  -37.6248   23.6808 H   0  0  0  0  0  0
  -26.3660  -31.1770   20.6582 H   0  0  0  0  0  0
  -26.9369  -30.4501   22.1104 H   0  0  0  0  0  0
  -28.0966  -28.1404   21.2139 H   0  0  0  0  0  0
  -25.5708  -25.6453   18.7849 H   0  0  0  0  0  0
  -23.8955  -27.3395   18.8225 H   0  0  0  0  0  0
  -23.9307  -30.5067   19.3908 H   0  0  0  0  0  0
  -22.8194  -29.2398   19.8086 H   0  0  0  0  0  0
  -25.1386  -36.1599   25.0765 H   0  0  0  0  0  0
  -21.0080  -28.3378   24.1286 H   0  0  0  0  0  0
  -20.5694  -26.2411   23.3694 H   0  0  0  0  0  0
  -21.6669  -26.7388   22.1238 H   0  0  0  0  0  0
  -19.6950  -25.6275   21.1310 H   0  0  0  0  0  0
  -19.6694  -27.3146   20.6746 H   0  0  0  0  0  0
  -17.4263  -26.6751   21.4028 H   0  0  0  0  0  0
  -18.0318  -26.0072   22.9012 H   0  0  0  0  0  0
  -19.7986  -30.7363   24.2164 H   0  0  0  0  0  0
  -17.5035  -31.6250   24.5177 H   0  0  0  0  0  0
  -15.5392  -30.2934   23.7659 H   0  0  0  0  0  0
  -15.8763  -28.0743   22.7133 H   0  0  0  0  0  0
  -24.5798  -30.7230   25.7674 H   0  0  0  0  0  0
  -24.8840  -32.3159   26.4578 H   0  0  0  0  0  0
  -25.7785  -30.9229   27.0275 H   0  0  0  0  0  0
  -26.3352  -29.6467   24.1700 H   0  0  0  0  0  0
  -27.3968  -29.7351   25.5485 H   0  0  0  0  0  0
  -27.9321  -30.4075   24.0294 H   0  0  0  0  0  0
  -27.2527  -33.3889   26.1737 H   0  0  0  0  0  0
  -28.3911  -32.6885   25.0376 H   0  0  0  0  0  0
  -28.0564  -31.8905   26.5676 H   0  0  0  0  0  0
  -28.2534  -38.0064   24.7524 H   0  0  0  0  0  0
  -28.1145  -36.2596   24.6257 H   0  0  0  0  0  0
  -27.2296  -37.1271   25.8856 H   0  0  0  0  0  0
  -20.9773  -29.8674   21.6521 H   0  0  0  0  0  0
  -26.0122  -38.2646   24.1372 H   0  0  0  0  0  0
  -29.0534  -11.6908   17.2139 H   0  0  0  0  0  0
  -30.3724   -9.9784   18.9295 H   0  0  0  0  0  0
  -30.4918  -12.9664   22.8061 H   0  0  0  0  0  0
  -30.5744  -15.5608   22.0484 H   0  0  0  0  0  0
  -29.1021  -15.1462   22.8147 H   0  0  0  0  0  0
  -29.5740  -17.5561   22.2822 H   0  0  0  0  0  0
  -27.9957  -17.1123   22.0897 H   0  0  0  0  0  0
  -29.9722  -18.2479   20.0355 H   0  0  0  0  0  0
  -28.5861  -18.9317   20.7260 H   0  0  0  0  0  0
  -25.6102  -21.3202   19.7405 H   0  0  0  0  0  0
  -26.3505  -21.9865   21.1873 H   0  0  0  0  0  0
  -26.4703  -20.2671   20.8531 H   0  0  0  0  0  0
  -27.8094  -13.2861   16.3831 H   0  0  0  0  0  0
  -27.7151  -14.8236   15.5538 H   0  0  0  0  0  0
  -26.4256  -14.3416   16.6759 H   0  0  0  0  0  0
  -28.8410  -19.9461   18.0205 H   0  0  0  0  0  0
  -27.1536  -19.7919   17.8508 H   0  0  0  0  0  0
  -28.4554  -23.6202   18.5458 H   0  0  0  0  0  0
  -26.7525  -23.6214   18.7232 H   0  0  0  0  0  0
  -28.5976  -21.4374   20.2865 H   0  0  0  0  0  0
  -32.5508  -11.6029   21.5572 H   0  0  0  0  0  0
  -26.9941  -16.5029   16.1554 H   0  0  0  0  0  0
  -27.0222  -18.0658   16.8728 H   0  0  0  0  0  0
  1 25  1  0  0  0
  1 30  2  0  0  0
  1 88  1  0  0  0
  2  3  1  0  0  0
  2 25  1  0  0  0
  2 90  1  0  0  0
  2 91  1  0  0  0
  3  4  1  0  0  0
  3 92  1  0  0  0
  3 93  1  0  0  0
  4  5  1  0  0  0
  4 94  1  0  0  0
  4 95  1  0  0  0
  5  6  1  0  0  0
  5 26  1  0  0  0
  5 96  1  0  0  0
  6 25  1  0  0  0
  6 97  1  0  0  0
  6 98  1  0  0  0
  7  8  2  0  0  0
  7 26  1  0  0  0
  7 29  1  0  0  0
  8  9  1  0  0  0
  8 22  1  0  0  0
  9 10  1  0  0  0
  9 27  2  0  0  0
 10 11  2  0  0  0
 10 15  1  0  0  0
 11 12  1  0  0  0
 11 99  1  0  0  0
 12 13  2  0  0  0
 12100  1  0  0  0
 13 14  1  0  0  0
 13 31  1  0  0  0
 14 15  2  0  0  0
 14101  1  0  0  0
 15102  1  0  0  0
 16 17  2  0  0  0
 16 21  1  0  0  0
 16 31  1  0  0  0
 17 18  1  0  0  0
 17103  1  0  0  0
 18 19  2  0  0  0
 18104  1  0  0  0
 19 20  1  0  0  0
 19 24  1  0  0  0
 20 21  2  0  0  0
 20105  1  0  0  0
 21 23  1  0  0  0
 22 28  1  0  0  0
 22 32  2  0  0  0
 26 27  1  0  0  0
 28106  1  0  0  0
 28107  1  0  0  0
 29108  1  0  0  0
 29109  1  0  0  0
 33 34  1  0  0  0
 33 66  1  0  0  0
 33 70  2  0  0  0
 34 36  1  0  0  0
 34 59  1  0  0  0
 34110  1  0  0  0
 35 44  2  0  0  0
 35 45  1  0  0  0
 35 68  1  0  0  0
 36 56  1  0  0  0
 36111  1  0  0  0
 37 39  1  0  0  0
 37 47  1  0  0  0
 37 66  1  0  0  0
 37112  1  0  0  0
 38 43  2  0  0  0
 38 46  1  0  0  0
 38 47  1  0  0  0
 39 64  1  0  0  0
 39 67  2  0  0  0
 40 52  1  0  0  0
 40 53  2  0  0  0
 40 58  1  0  0  0
 41113  1  0  0  0
 41114  1  0  0  0
 41115  1  0  0  0
 41 48  1  0  0  0
 42 43  1  0  0  0
 42 66  1  0  0  0
 42116  1  0  0  0
 42117  1  0  0  0
 43 44  1  0  0  0
 44118  1  0  0  0
 45 46  2  0  0  0
 45119  1  0  0  0
 46120  1  0  0  0
 47121  1  0  0  0
 47122  1  0  0  0
 48 56  1  0  0  0
 48 65  1  0  0  0
 48123  1  0  0  0
 49 50  1  0  0  0
 49 53  1  0  0  0
 49 64  1  0  0  0
 49124  1  0  0  0
 50 51  1  0  0  0
 50125  1  0  0  0
 50126  1  0  0  0
 51 52  1  0  0  0
 51127  1  0  0  0
 51128  1  0  0  0
 52129  1  0  0  0
 52130  1  0  0  0
 53 54  1  0  0  0
 54 55  2  0  0  0
 54131  1  0  0  0
 55 57  1  0  0  0
 55132  1  0  0  0
 56 69  2  0  0  0
 57 58  2  0  0  0
 57133  1  0  0  0
 58134  1  0  0  0
 59 60  1  0  0  0
 59 61  1  0  0  0
 59 62  1  0  0  0
 60135  1  0  0  0
 60136  1  0  0  0
 60137  1  0  0  0
 61138  1  0  0  0
 61139  1  0  0  0
 61140  1  0  0  0
 62141  1  0  0  0
 62142  1  0  0  0
 62143  1  0  0  0
 63 65  1  0  0  0
 63144  1  0  0  0
 63145  1  0  0  0
 63146  1  0  0  0
 64147  1  0  0  0
 65148  1  0  0  0
 68 84  1  0  0  0
 71 72  2  0  0  0
 71 75  1  0  0  0
 71149  1  0  0  0
 72 76  1  0  0  0
 72150  1  0  0  0
 73 74  1  0  0  0
 73 76  2  0  0  0
 73151  1  0  0  0
 74 75  2  0  0  0
 74 78  1  0  0  0
 75 86  1  0  0  0
 76 88  1  0  0  0
 77 86  1  0  0  0
 77 87  1  0  0  0
 77 89  2  0  0  0
 78 79  1  0  0  0
 78152  1  0  0  0
 78153  1  0  0  0
 79 80  1  0  0  0
 79154  1  0  0  0
 79155  1  0  0  0
 80 87  1  0  0  0
 80156  1  0  0  0
 80157  1  0  0  0
 81158  1  0  0  0
 81159  1  0  0  0
 81160  1  0  0  0
 81 85  1  0  0  0
 82 86  1  0  0  0
 82161  1  0  0  0
 82162  1  0  0  0
 82163  1  0  0  0
 83 85  1  0  0  0
 83 87  1  0  0  0
 83164  1  0  0  0
 83165  1  0  0  0
 84 85  1  0  0  0
 84166  1  0  0  0
 84167  1  0  0  0
 85168  1  0  0  0
 88169  1  0  0  0
 89170  1  0  0  0
 89171  1  0  0  0
M  CHG  1  89   1
M  ISO  4   1 100  68 101  84 101  88 100
M  END
> <chiral flag>
0

> <version>
0

> <s_m_source_file>
/data/baiqing/PycharmProjects/Reinvent-master-3.2/result/LINK_invent/BTK/process_docking_weight1_custom_product_contain_oxygen_bond_distance_aromatic_linkinvent_7_9_3/rearranged_h_0023.sdf

> <i_m_source_file_index>
60

> <r_mmod_Potential_Energy-OPLS-2005>
17144.9296875

> <r_mmod_Stretch_Energy-OPLS-2005>
8114.48583984375

> <r_mmod_Bend_Energy-OPLS-2005>
1232.85339355469

> <r_mmod_Torsional_Energy-OPLS-2005>
463.885528564453

> <r_mmod_Improper_Torsional_Energy-OPLS-2005>
47.1578750610352

> <r_mmod_Van_der_Waal_Energy-OPLS-2005>
3869.86303710938

> <r_mmod_Electrostatic_Energy-OPLS-2005>
-260.267333984375

> <r_mmod_Solvation_Energy-OPLS-2005>
-379.707977294922

> <b_mmod_Minimization_Converged-OPLS-2005>
0

> <r_mmod_RMS_Derivative-OPLS-2005>
12.7235469818115

$$$$
60
                    3D
 Structure written by MMmdl.
159168  0  0  1  0            999 V2000
  -30.5233  -14.9122   20.4226 C   0  0  0  0  0  0
  -30.4515  -12.5608   19.4839 C   0  0  0  0  0  0
  -29.5226  -12.5279   18.2469 C   0  0  0  0  0  0
  -28.0533  -12.3172   18.6644 C   0  0  0  0  0  0
  -27.6339  -13.2365   19.8410 C   0  0  2  0  0  0
  -28.6825  -13.2273   20.9750 C   0  0  0  0  0  0
  -25.2465  -13.8137   20.5754 C   0  0  0  0  0  0
  -24.1776  -13.0379   20.9254 C   0  0  0  0  0  0
  -24.6382  -11.6873   20.8756 C   0  0  0  0  0  0
  -23.9058  -10.4260   21.0397 C   0  0  0  0  0  0
  -24.3610   -9.4187   21.9180 C   0  0  0  0  0  0
  -23.6293   -8.2222   22.0744 C   0  0  0  0  0  0
  -22.4275   -8.0260   21.3539 C   0  0  0  0  0  0
  -21.9908   -9.0227   20.4641 C   0  0  0  0  0  0
  -22.7227  -10.2109   20.3046 C   0  0  0  0  0  0
  -21.6845   -6.0728   22.5284 C   0  0  0  0  0  0
  -21.4009   -6.5633   23.8219 C   0  0  0  0  0  0
  -21.3661   -5.6785   24.9183 C   0  0  0  0  0  0
  -21.6046   -4.3050   24.7234 C   0  0  0  0  0  0
  -21.8815   -3.8140   23.4356 C   0  0  0  0  0  0
  -21.9194   -4.6959   22.3413 C   0  0  0  0  0  0
  -22.7799  -13.5172   21.1902 C   0  0  0  0  0  0
  -22.1657   -4.2142   21.0990 F   0  0  0  0  0  0
  -21.5635   -3.4533   25.7748 F   0  0  0  0  0  0
  -29.9645  -13.6397   20.3843 N   0  0  0  0  0  0
  -26.2899  -12.9372   20.3255 N   0  0  0  0  0  0
  -25.9316  -11.6512   20.5735 N   0  0  0  0  0  0
  -22.0423  -12.8186   22.0457 N   0  0  0  0  0  0
  -25.4083  -15.1856   20.4235 N   0  0  0  0  0  0
  -31.7262  -15.0300   20.1634 O   0  0  0  0  0  0
  -21.6631   -6.8866   21.4243 O   0  0  0  0  0  0
  -22.3497  -14.5479   20.6738 O   0  0  0  0  0  0
  -24.6424  -31.8455   23.1895 C   0  0  0  0  0  0
  -25.9204  -32.4702   23.8282 C   0  0  1  0  0  0
  -27.2260  -27.1551   20.1477 C   0  0  0  0  0  0
  -25.5957  -33.8507   24.2202 N   0  0  0  0  0  0
  -23.4459  -30.4643   21.5347 C   0  0  2  0  0  0
  -24.8960  -28.8924   20.1147 C   0  0  0  0  0  0
  -22.7561  -29.4552   22.4869 C   0  0  0  0  0  0
  -18.0303  -28.1394   22.8466 C   0  0  0  0  0  0
  -24.1492  -36.7259   23.2639 C   0  0  0  0  0  0
  -25.9999  -30.7245   21.3858 C   0  0  0  0  0  0
  -26.0730  -29.3364   20.7301 C   0  0  0  0  0  0
  -27.2393  -28.4846   20.7287 C   0  0  0  0  0  0
  -26.0220  -26.8107   19.4928 C   0  0  0  0  0  0
  -24.8823  -27.6416   19.4811 C   0  0  0  0  0  0
  -23.6723  -29.7926   20.1548 C   0  0  0  0  0  0
  -25.4124  -36.3037   24.0315 C   0  0  1  0  0  0
  -20.5910  -28.3719   23.1231 C   0  0  2  0  0  0
  -20.6788  -26.9423   22.5396 C   0  0  0  0  0  0
  -19.5767  -26.6377   21.5202 C   0  0  0  0  0  0
  -18.1947  -26.7929   22.1613 C   0  0  0  0  0  0
  -19.1557  -28.8877   23.2837 C   0  0  0  0  0  0
  -18.9476  -30.1469   23.8864 C   0  0  0  0  0  0
  -17.6474  -30.6589   24.0555 C   0  0  0  0  0  0
  -25.9073  -34.9412   23.5063 C   0  0  0  0  0  0
  -16.5364  -29.9082   23.6332 C   0  0  0  0  0  0
  -16.7286  -28.6502   23.0348 C   0  0  0  0  0  0
  -26.4530  -31.6555   25.0711 C   0  0  0  0  0  0
  -25.3723  -31.3739   26.1410 C   0  0  0  0  0  0
  -27.0393  -30.2953   24.6274 C   0  0  0  0  0  0
  -27.6066  -32.4308   25.7501 C   0  0  0  0  0  0
  -27.5575  -37.1787   24.8463 C   0  0  0  0  0  0
  -21.4255  -29.3052   22.3618 N   0  0  0  0  0  0
  -26.4284  -37.3751   23.9410 N   0  0  0  0  0  0
  -24.7157  -31.0322   22.0925 N   0  0  0  0  0  0
  -23.4206  -28.8091   23.3013 O   0  0  0  0  0  0
  -28.2970  -26.1933   20.1830 O   0  0  0  0  0  0
  -26.5651  -34.8906   22.4639 O   0  0  0  0  0  0
  -23.5541  -32.1324   23.7120 O   0  0  0  0  0  0
  -28.4363  -19.6999   19.7732 C   0  0  0  0  0  0
  -30.2892  -19.8806   21.2068 C   0  0  0  0  0  0
  -28.6326  -18.2615   19.7030 C   0  0  0  0  0  0
  -29.2169  -20.6026   20.5603 C   0  0  0  0  0  0
  -29.6576  -17.5383   20.4184 C   0  0  0  0  0  0
  -30.5013  -18.4393   21.1504 C   0  0  0  0  0  0
  -30.1571  -23.2345   22.3928 C   0  0  0  0  0  0
  -30.3836  -23.7708   20.9751 C   0  0  0  0  0  0
  -28.9455  -22.2958   22.2763 C   0  0  0  0  0  0
  -29.1090  -23.3867   20.2228 C   0  0  2  0  0  0
  -27.6499  -17.4918   18.8402 C   0  0  0  0  0  0
  -28.0231  -24.6727   20.3483 C   0  0  0  0  0  0
  -28.7836  -22.0031   20.8520 N   0  0  0  0  0  0
  -29.6395  -16.0105   20.5128 N   0  0  0  0  0  0
  -31.5029  -17.9132   21.8947 F   0  0  0  0  0  0
  -31.4832  -12.7317   19.1733 H   0  0  0  0  0  0
  -30.4465  -11.5979   19.9972 H   0  0  0  0  0  0
  -29.8337  -11.7388   17.5611 H   0  0  0  0  0  0
  -29.6158  -13.4646   17.6951 H   0  0  0  0  0  0
  -27.9461  -11.2726   18.9590 H   0  0  0  0  0  0
  -27.3894  -12.4624   17.8108 H   0  0  0  0  0  0
  -27.6027  -14.2450   19.4288 H   0  0  0  0  0  0
  -28.7628  -12.2364   21.4241 H   0  0  0  0  0  0
  -28.3913  -13.9071   21.7779 H   0  0  0  0  0  0
  -25.2746   -9.5675   22.4762 H   0  0  0  0  0  0
  -24.0002   -7.4614   22.7458 H   0  0  0  0  0  0
  -21.0839   -8.8734   19.8953 H   0  0  0  0  0  0
  -22.3668  -10.9646   19.6162 H   0  0  0  0  0  0
  -21.1987   -7.6137   23.9726 H   0  0  0  0  0  0
  -21.1490   -6.0513   25.9088 H   0  0  0  0  0  0
  -22.0598   -2.7600   23.2859 H   0  0  0  0  0  0
  -22.4009  -11.9857   22.4884 H   0  0  0  0  0  0
  -21.1028  -13.1210   22.2614 H   0  0  0  0  0  0
  -24.6324  -15.8287   20.5388 H   0  0  0  0  0  0
  -26.2451  -15.6333   20.0807 H   0  0  0  0  0  0
  -26.7266  -32.5317   23.1010 H   0  0  0  0  0  0
  -25.0107  -33.9634   25.0350 H   0  0  0  0  0  0
  -22.7471  -31.2889   21.3794 H   0  0  0  0  0  0
  -23.3761  -35.9584   23.3288 H   0  0  0  0  0  0
  -24.3579  -36.8905   22.2056 H   0  0  0  0  0  0
  -23.7241  -37.6450   23.6682 H   0  0  0  0  0  0
  -26.1505  -31.4775   20.6111 H   0  0  0  0  0  0
  -26.8728  -30.7781   22.0248 H   0  0  0  0  0  0
  -28.1383  -28.8217   21.2251 H   0  0  0  0  0  0
  -25.9299  -25.8677   18.9774 H   0  0  0  0  0  0
  -23.9865  -27.2985   18.9811 H   0  0  0  0  0  0
  -23.8098  -30.5660   19.3981 H   0  0  0  0  0  0
  -22.7882  -29.2331   19.8442 H   0  0  0  0  0  0
  -25.1312  -36.1869   25.0805 H   0  0  0  0  0  0
  -20.9993  -28.3306   24.1357 H   0  0  0  0  0  0
  -20.5677  -26.2335   23.3617 H   0  0  0  0  0  0
  -21.6657  -26.7431   22.1201 H   0  0  0  0  0  0
  -19.6934  -25.6281   21.1255 H   0  0  0  0  0  0
  -19.6707  -27.3167   20.6717 H   0  0  0  0  0  0
  -17.4214  -26.6654   21.4019 H   0  0  0  0  0  0
  -18.0355  -26.0079   22.9019 H   0  0  0  0  0  0
  -19.7955  -30.7289   24.2216 H   0  0  0  0  0  0
  -17.5033  -31.6270   24.5161 H   0  0  0  0  0  0
  -15.5365  -30.2980   23.7682 H   0  0  0  0  0  0
  -15.8680  -28.0822   22.7075 H   0  0  0  0  0  0
  -24.5912  -30.7072   25.7736 H   0  0  0  0  0  0
  -24.8899  -32.2915   26.4783 H   0  0  0  0  0  0
  -25.8014  -30.8952   27.0220 H   0  0  0  0  0  0
  -26.3005  -29.6676   24.1275 H   0  0  0  0  0  0
  -27.4012  -29.7249   25.4837 H   0  0  0  0  0  0
  -27.8908  -30.4198   23.9583 H   0  0  0  0  0  0
  -27.2669  -33.3622   26.2037 H   0  0  0  0  0  0
  -28.3906  -32.6836   25.0353 H   0  0  0  0  0  0
  -28.0697  -31.8454   26.5453 H   0  0  0  0  0  0
  -28.2581  -38.0094   24.7515 H   0  0  0  0  0  0
  -28.1080  -36.2624   24.6282 H   0  0  0  0  0  0
  -27.2291  -37.1423   25.8864 H   0  0  0  0  0  0
  -20.9465  -29.8782   21.6812 H   0  0  0  0  0  0
  -26.0152  -38.2817   24.1421 H   0  0  0  0  0  0
  -27.5889  -20.1172   19.2461 H   0  0  0  0  0  0
  -30.9588  -20.4336   21.8480 H   0  0  0  0  0  0
  -29.9548  -24.0389   23.1018 H   0  0  0  0  0  0
  -31.0439  -22.7064   22.7450 H   0  0  0  0  0  0
  -31.2412  -23.2663   20.5265 H   0  0  0  0  0  0
  -30.5907  -24.8421   20.9510 H   0  0  0  0  0  0
  -28.0470  -22.8007   22.6339 H   0  0  0  0  0  0
  -29.0581  -21.4137   22.9093 H   0  0  0  0  0  0
  -29.3488  -23.2505   19.1668 H   0  0  0  0  0  0
  -27.3306  -18.0922   17.9878 H   0  0  0  0  0  0
  -26.7624  -17.2483   19.4199 H   0  0  0  0  0  0
  -28.0818  -16.5738   18.4419 H   0  0  0  0  0  0
  -27.5642  -24.6031   21.3345 H   0  0  0  0  0  0
  -27.2253  -24.3984   19.6630 H   0  0  0  0  0  0
  -28.6987  -15.6590   20.5754 H   0  0  0  0  0  0
  1 25  1  0  0  0
  1 30  2  0  0  0
  1 84  1  0  0  0
  2  3  1  0  0  0
  2 25  1  0  0  0
  2 86  1  0  0  0
  2 87  1  0  0  0
  3  4  1  0  0  0
  3 88  1  0  0  0
  3 89  1  0  0  0
  4  5  1  0  0  0
  4 90  1  0  0  0
  4 91  1  0  0  0
  5  6  1  0  0  0
  5 26  1  0  0  0
  5 92  1  0  0  0
  6 25  1  0  0  0
  6 93  1  0  0  0
  6 94  1  0  0  0
  7  8  2  0  0  0
  7 26  1  0  0  0
  7 29  1  0  0  0
  8  9  1  0  0  0
  8 22  1  0  0  0
  9 10  1  0  0  0
  9 27  2  0  0  0
 10 11  2  0  0  0
 10 15  1  0  0  0
 11 12  1  0  0  0
 11 95  1  0  0  0
 12 13  2  0  0  0
 12 96  1  0  0  0
 13 14  1  0  0  0
 13 31  1  0  0  0
 14 15  2  0  0  0
 14 97  1  0  0  0
 15 98  1  0  0  0
 16 17  2  0  0  0
 16 21  1  0  0  0
 16 31  1  0  0  0
 17 18  1  0  0  0
 17 99  1  0  0  0
 18 19  2  0  0  0
 18100  1  0  0  0
 19 20  1  0  0  0
 19 24  1  0  0  0
 20 21  2  0  0  0
 20101  1  0  0  0
 21 23  1  0  0  0
 22 28  1  0  0  0
 22 32  2  0  0  0
 26 27  1  0  0  0
 28102  1  0  0  0
 28103  1  0  0  0
 29104  1  0  0  0
 29105  1  0  0  0
 33 34  1  0  0  0
 33 66  1  0  0  0
 33 70  2  0  0  0
 34 36  1  0  0  0
 34 59  1  0  0  0
 34106  1  0  0  0
 35 44  2  0  0  0
 35 45  1  0  0  0
 35 68  1  0  0  0
 36 56  1  0  0  0
 36107  1  0  0  0
 37 39  1  0  0  0
 37 47  1  0  0  0
 37 66  1  0  0  0
 37108  1  0  0  0
 38 43  2  0  0  0
 38 46  1  0  0  0
 38 47  1  0  0  0
 39 64  1  0  0  0
 39 67  2  0  0  0
 40 52  1  0  0  0
 40 53  2  0  0  0
 40 58  1  0  0  0
 41109  1  0  0  0
 41110  1  0  0  0
 41111  1  0  0  0
 41 48  1  0  0  0
 42 43  1  0  0  0
 42 66  1  0  0  0
 42112  1  0  0  0
 42113  1  0  0  0
 43 44  1  0  0  0
 44114  1  0  0  0
 45 46  2  0  0  0
 45115  1  0  0  0
 46116  1  0  0  0
 47117  1  0  0  0
 47118  1  0  0  0
 48 56  1  0  0  0
 48 65  1  0  0  0
 48119  1  0  0  0
 49 50  1  0  0  0
 49 53  1  0  0  0
 49 64  1  0  0  0
 49120  1  0  0  0
 50 51  1  0  0  0
 50121  1  0  0  0
 50122  1  0  0  0
 51 52  1  0  0  0
 51123  1  0  0  0
 51124  1  0  0  0
 52125  1  0  0  0
 52126  1  0  0  0
 53 54  1  0  0  0
 54 55  2  0  0  0
 54127  1  0  0  0
 55 57  1  0  0  0
 55128  1  0  0  0
 56 69  2  0  0  0
 57 58  2  0  0  0
 57129  1  0  0  0
 58130  1  0  0  0
 59 60  1  0  0  0
 59 61  1  0  0  0
 59 62  1  0  0  0
 60131  1  0  0  0
 60132  1  0  0  0
 60133  1  0  0  0
 61134  1  0  0  0
 61135  1  0  0  0
 61136  1  0  0  0
 62137  1  0  0  0
 62138  1  0  0  0
 62139  1  0  0  0
 63 65  1  0  0  0
 63140  1  0  0  0
 63141  1  0  0  0
 63142  1  0  0  0
 64143  1  0  0  0
 65144  1  0  0  0
 68 82  1  0  0  0
 71 73  2  0  0  0
 71 74  1  0  0  0
 71145  1  0  0  0
 72 74  2  0  0  0
 72 76  1  0  0  0
 72146  1  0  0  0
 73 75  1  0  0  0
 73 81  1  0  0  0
 74 83  1  0  0  0
 75 76  2  0  0  0
 75 84  1  0  0  0
 76 85  1  0  0  0
 77 78  1  0  0  0
 77 79  1  0  0  0
 77147  1  0  0  0
 77148  1  0  0  0
 78 80  1  0  0  0
 78149  1  0  0  0
 78150  1  0  0  0
 79 83  1  0  0  0
 79151  1  0  0  0
 79152  1  0  0  0
 80 82  1  0  0  0
 80 83  1  0  0  0
 80153  1  0  0  0
 81154  1  0  0  0
 81155  1  0  0  0
 81156  1  0  0  0
 82157  1  0  0  0
 82158  1  0  0  0
 84159  1  0  0  0
M  ISO  4   1 100  68 101  82 101  84 100
M  END
> <chiral flag>
0

> <version>
0

> <s_m_source_file>
/data/baiqing/PycharmProjects/Reinvent-master-3.2/result/LINK_invent/BTK/process_docking_weight1_custom_product_contain_oxygen_bond_distance_aromatic_linkinvent_7_9_3/rearranged_h_0023.sdf

> <i_m_source_file_index>
61

> <r_mmod_Potential_Energy-OPLS-2005>
533.958740234375

> <r_mmod_Stretch_Energy-OPLS-2005>
214.4990234375

> <r_mmod_Bend_Energy-OPLS-2005>
291.156982421875

> <r_mmod_Torsional_Energy-OPLS-2005>
328.584136962891

> <r_mmod_Improper_Torsional_Energy-OPLS-2005>
13.6668119430542

> <r_mmod_Van_der_Waal_Energy-OPLS-2005>
130.775161743164

> <r_mmod_Electrostatic_Energy-OPLS-2005>
-389.720947265625

> <r_mmod_Solvation_Energy-OPLS-2005>
-225.226943969727

> <b_mmod_Minimization_Converged-OPLS-2005>
0

> <r_mmod_RMS_Derivative-OPLS-2005>
1.27193570137024

$$$$
61
                    3D
 Structure written by MMmdl.
161170  0  0  1  0            999 V2000
  -30.6833  -14.4659   20.5739 C   0  0  0  0  0  0
  -30.4274  -12.3048   19.4157 C   0  0  0  0  0  0
  -29.4926  -12.5117   18.2050 C   0  0  0  0  0  0
  -28.0150  -12.3697   18.6195 C   0  0  0  0  0  0
  -27.6650  -13.2016   19.8815 C   0  0  2  0  0  0
  -28.7067  -12.9593   20.9980 C   0  0  0  0  0  0
  -25.2599  -13.8154   20.5675 C   0  0  0  0  0  0
  -24.1844  -13.0435   20.9170 C   0  0  0  0  0  0
  -24.6397  -11.6896   20.8745 C   0  0  0  0  0  0
  -23.9068  -10.4287   21.0411 C   0  0  0  0  0  0
  -24.3611   -9.4207   21.9190 C   0  0  0  0  0  0
  -23.6284   -8.2242   22.0760 C   0  0  0  0  0  0
  -22.4271   -8.0280   21.3546 C   0  0  0  0  0  0
  -21.9909   -9.0259   20.4652 C   0  0  0  0  0  0
  -22.7237  -10.2136   20.3064 C   0  0  0  0  0  0
  -21.6853   -6.0737   22.5279 C   0  0  0  0  0  0
  -21.4012   -6.5640   23.8213 C   0  0  0  0  0  0
  -21.3658   -5.6791   24.9175 C   0  0  0  0  0  0
  -21.6045   -4.3052   24.7228 C   0  0  0  0  0  0
  -21.8818   -3.8144   23.4348 C   0  0  0  0  0  0
  -21.9190   -4.6963   22.3401 C   0  0  0  0  0  0
  -22.7871  -13.5241   21.1833 C   0  0  0  0  0  0
  -22.1660   -4.2148   21.0977 F   0  0  0  0  0  0
  -21.5628   -3.4536   25.7744 F   0  0  0  0  0  0
  -30.0401  -13.2726   20.4529 N   0  0  0  0  0  0
  -26.3040  -12.9317   20.3396 N   0  0  0  0  0  0
  -25.9324  -11.6482   20.5783 N   0  0  0  0  0  0
  -22.0513  -12.8237   22.0394 N   0  0  0  0  0  0
  -25.4337  -15.1872   20.4084 N   0  0  0  0  0  0
  -31.7896  -14.6904   20.0731 O   0  0  0  0  0  0
  -21.6633   -6.8879   21.4242 O   0  0  0  0  0  0
  -22.3564  -14.5551   20.6686 O   0  0  0  0  0  0
  -24.6125  -31.8674   23.2089 C   0  0  0  0  0  0
  -25.9019  -32.4821   23.8380 C   0  0  1  0  0  0
  -27.2426  -27.4326   20.0857 C   0  0  0  0  0  0
  -25.5882  -33.8619   24.2313 N   0  0  0  0  0  0
  -23.3999  -30.4896   21.5495 C   0  0  2  0  0  0
  -24.8468  -28.9507   20.1157 C   0  0  0  0  0  0
  -22.7396  -29.4650   22.4992 C   0  0  0  0  0  0
  -18.0268  -28.1370   22.8497 C   0  0  0  0  0  0
  -24.1486  -36.7320   23.2637 C   0  0  0  0  0  0
  -25.9274  -30.8306   21.3605 C   0  0  0  0  0  0
  -26.0042  -29.4629   20.7115 C   0  0  0  0  0  0
  -27.1988  -28.7086   20.6955 C   0  0  0  0  0  0
  -26.0576  -26.9250   19.5020 C   0  0  0  0  0  0
  -24.8670  -27.6796   19.5136 C   0  0  0  0  0  0
  -23.6080  -29.8170   20.1657 C   0  0  0  0  0  0
  -25.4107  -36.3112   24.0329 C   0  0  1  0  0  0
  -20.5861  -28.3657   23.1320 C   0  0  2  0  0  0
  -20.6762  -26.9395   22.5417 C   0  0  0  0  0  0
  -19.5737  -26.6377   21.5214 C   0  0  0  0  0  0
  -18.1910  -26.7919   22.1625 C   0  0  0  0  0  0
  -19.1518  -28.8828   23.2906 C   0  0  0  0  0  0
  -18.9450  -30.1437   23.8918 C   0  0  0  0  0  0
  -17.6458  -30.6586   24.0558 C   0  0  0  0  0  0
  -25.9034  -34.9479   23.5125 C   0  0  0  0  0  0
  -16.5347  -29.9093   23.6317 C   0  0  0  0  0  0
  -16.7259  -28.6504   23.0348 C   0  0  0  0  0  0
  -26.4460  -31.6611   25.0711 C   0  0  0  0  0  0
  -25.3726  -31.3713   26.1459 C   0  0  0  0  0  0
  -27.0301  -30.3059   24.6082 C   0  0  0  0  0  0
  -27.6024  -32.4346   25.7486 C   0  0  0  0  0  0
  -27.5580  -37.1813   24.8461 C   0  0  0  0  0  0
  -21.4124  -29.3028   22.3737 N   0  0  0  0  0  0
  -26.4299  -37.3792   23.9401 N   0  0  0  0  0  0
  -24.6649  -31.0775   22.0983 N   0  0  0  0  0  0
  -23.4177  -28.8183   23.3021 O   0  0  0  0  0  0
  -28.4510  -26.7603   20.0936 O   0  0  0  0  0  0
  -26.5600  -34.8935   22.4689 O   0  0  0  0  0  0
  -23.5323  -32.1435   23.7484 O   0  0  0  0  0  0
  -30.3102  -19.0434   22.1002 C   0  0  0  0  0  0
  -30.1910  -18.8536   19.6830 C   0  0  0  0  0  0
  -30.3215  -19.6717   20.8317 C   0  0  0  0  0  0
  -30.1221  -16.8264   21.0684 C   0  0  0  0  0  0
  -30.1968  -17.6404   22.2183 C   0  0  0  0  0  0
  -30.0931  -17.4474   19.7953 C   0  0  0  0  0  0
  -29.6440  -23.0297   22.1400 C   0  0  0  0  0  0
  -29.9647  -22.6609   23.3914 C   0  0  0  0  0  0
  -29.3273  -24.4347   21.6701 C   0  0  0  0  0  0
  -29.0376  -22.9448   19.8196 C   0  0  0  0  0  0
  -28.5125  -24.2843   20.3856 C   0  0  2  0  0  0
  -30.5971  -21.1808   20.6886 C   0  0  0  0  0  0
  -28.6345  -25.5000   19.4276 C   0  0  0  0  0  0
  -29.9943  -15.4151   21.2287 N   0  0  0  0  0  0
  -29.4492  -22.1001   20.9785 N   0  3  1  0  0  0
  -30.1784  -17.0714   23.4485 F   0  0  0  0  0  0
  -29.9485  -16.7026   18.6718 F   0  0  0  0  0  0
  -31.4699  -12.4133   19.1116 H   0  0  0  0  0  0
  -30.3352  -11.2880   19.8009 H   0  0  0  0  0  0
  -29.7286  -11.7944   17.4187 H   0  0  0  0  0  0
  -29.6575  -13.5010   17.7757 H   0  0  0  0  0  0
  -27.8242  -11.3127   18.8096 H   0  0  0  0  0  0
  -27.3616  -12.6499   17.7925 H   0  0  0  0  0  0
  -27.7169  -14.2527   19.5968 H   0  0  0  0  0  0
  -28.6820  -11.9171   21.3182 H   0  0  0  0  0  0
  -28.4632  -13.5360   21.8913 H   0  0  0  0  0  0
  -25.2761   -9.5675   22.4761 H   0  0  0  0  0  0
  -23.9996   -7.4635   22.7481 H   0  0  0  0  0  0
  -21.0839   -8.8779   19.8957 H   0  0  0  0  0  0
  -22.3703  -10.9675   19.6166 H   0  0  0  0  0  0
  -21.2007   -7.6150   23.9717 H   0  0  0  0  0  0
  -21.1481   -6.0521   25.9079 H   0  0  0  0  0  0
  -22.0600   -2.7606   23.2848 H   0  0  0  0  0  0
  -22.4116  -11.9881   22.4762 H   0  0  0  0  0  0
  -21.1147  -13.1282   22.2625 H   0  0  0  0  0  0
  -24.6668  -15.8433   20.5103 H   0  0  0  0  0  0
  -26.2892  -15.6253   20.0892 H   0  0  0  0  0  0
  -26.7079  -32.5542   23.1137 H   0  0  0  0  0  0
  -25.0007  -33.9779   25.0435 H   0  0  0  0  0  0
  -22.6875  -31.3048   21.4087 H   0  0  0  0  0  0
  -23.3745  -35.9657   23.3309 H   0  0  0  0  0  0
  -24.3564  -36.8942   22.2049 H   0  0  0  0  0  0
  -23.7253  -37.6528   23.6658 H   0  0  0  0  0  0
  -26.0338  -31.5939   20.5893 H   0  0  0  0  0  0
  -26.8173  -30.8891   21.9758 H   0  0  0  0  0  0
  -28.0964  -29.1058   21.1489 H   0  0  0  0  0  0
  -26.0255  -25.9504   19.0386 H   0  0  0  0  0  0
  -23.9721  -27.2757   19.0603 H   0  0  0  0  0  0
  -23.7129  -30.5885   19.4018 H   0  0  0  0  0  0
  -22.7338  -29.2331   19.8744 H   0  0  0  0  0  0
  -25.1288  -36.1972   25.0823 H   0  0  0  0  0  0
  -20.9945  -28.3232   24.1444 H   0  0  0  0  0  0
  -20.5661  -26.2269   23.3603 H   0  0  0  0  0  0
  -21.6632  -26.7436   22.1215 H   0  0  0  0  0  0
  -19.6889  -25.6289   21.1237 H   0  0  0  0  0  0
  -19.6678  -27.3197   20.6745 H   0  0  0  0  0  0
  -17.4184  -26.6669   21.4023 H   0  0  0  0  0  0
  -18.0303  -26.0055   22.9010 H   0  0  0  0  0  0
  -19.7930  -30.7226   24.2315 H   0  0  0  0  0  0
  -17.5020  -31.6270   24.5146 H   0  0  0  0  0  0
  -15.5352  -30.2996   23.7630 H   0  0  0  0  0  0
  -15.8655  -28.0825   22.7054 H   0  0  0  0  0  0
  -24.5880  -30.7090   25.7788 H   0  0  0  0  0  0
  -24.8935  -32.2874   26.4929 H   0  0  0  0  0  0
  -25.8063  -30.8854   27.0204 H   0  0  0  0  0  0
  -26.2850  -29.6819   24.1133 H   0  0  0  0  0  0
  -27.4083  -29.7296   25.4532 H   0  0  0  0  0  0
  -27.8674  -30.4399   23.9225 H   0  0  0  0  0  0
  -27.2623  -33.3630   26.2090 H   0  0  0  0  0  0
  -28.3820  -32.6937   25.0310 H   0  0  0  0  0  0
  -28.0706  -31.8455   26.5389 H   0  0  0  0  0  0
  -28.2595  -38.0112   24.7514 H   0  0  0  0  0  0
  -28.1081  -36.2640   24.6287 H   0  0  0  0  0  0
  -27.2286  -37.1472   25.8862 H   0  0  0  0  0  0
  -20.9277  -29.8781   21.6992 H   0  0  0  0  0  0
  -26.0187  -38.2869   24.1405 H   0  0  0  0  0  0
  -30.4184  -19.6205   23.0038 H   0  0  0  0  0  0
  -30.1946  -19.2936   18.6963 H   0  0  0  0  0  0
  -30.0532  -23.4014   24.1736 H   0  0  0  0  0  0
  -30.1449  -21.6362   23.6714 H   0  0  0  0  0  0
  -30.2664  -24.9599   21.4865 H   0  0  0  0  0  0
  -28.7799  -24.9933   22.4305 H   0  0  0  0  0  0
  -29.9000  -23.1535   19.1857 H   0  0  0  0  0  0
  -28.2978  -22.4392   19.1986 H   0  0  0  0  0  0
  -27.4650  -24.1553   20.6629 H   0  0  0  0  0  0
  -30.9832  -21.3484   19.6831 H   0  0  0  0  0  0
  -31.4355  -21.4307   21.3398 H   0  0  0  0  0  0
  -28.0052  -25.3807   18.5460 H   0  0  0  0  0  0
  -29.6516  -25.5280   19.0346 H   0  0  0  0  0  0
  -29.2167  -15.1024   21.7874 H   0  0  0  0  0  0
  -28.6625  -21.5032   21.1807 H   0  0  0  0  0  0
  1 25  1  0  0  0
  1 30  2  0  0  0
  1 84  1  0  0  0
  2  3  1  0  0  0
  2 25  1  0  0  0
  2 88  1  0  0  0
  2 89  1  0  0  0
  3  4  1  0  0  0
  3 90  1  0  0  0
  3 91  1  0  0  0
  4  5  1  0  0  0
  4 92  1  0  0  0
  4 93  1  0  0  0
  5  6  1  0  0  0
  5 26  1  0  0  0
  5 94  1  0  0  0
  6 25  1  0  0  0
  6 95  1  0  0  0
  6 96  1  0  0  0
  7  8  2  0  0  0
  7 26  1  0  0  0
  7 29  1  0  0  0
  8  9  1  0  0  0
  8 22  1  0  0  0
  9 10  1  0  0  0
  9 27  2  0  0  0
 10 11  2  0  0  0
 10 15  1  0  0  0
 11 12  1  0  0  0
 11 97  1  0  0  0
 12 13  2  0  0  0
 12 98  1  0  0  0
 13 14  1  0  0  0
 13 31  1  0  0  0
 14 15  2  0  0  0
 14 99  1  0  0  0
 15100  1  0  0  0
 16 17  2  0  0  0
 16 21  1  0  0  0
 16 31  1  0  0  0
 17 18  1  0  0  0
 17101  1  0  0  0
 18 19  2  0  0  0
 18102  1  0  0  0
 19 20  1  0  0  0
 19 24  1  0  0  0
 20 21  2  0  0  0
 20103  1  0  0  0
 21 23  1  0  0  0
 22 28  1  0  0  0
 22 32  2  0  0  0
 26 27  1  0  0  0
 28104  1  0  0  0
 28105  1  0  0  0
 29106  1  0  0  0
 29107  1  0  0  0
 33 34  1  0  0  0
 33 66  1  0  0  0
 33 70  2  0  0  0
 34 36  1  0  0  0
 34 59  1  0  0  0
 34108  1  0  0  0
 35 44  2  0  0  0
 35 45  1  0  0  0
 35 68  1  0  0  0
 36 56  1  0  0  0
 36109  1  0  0  0
 37 39  1  0  0  0
 37 47  1  0  0  0
 37 66  1  0  0  0
 37110  1  0  0  0
 38 43  2  0  0  0
 38 46  1  0  0  0
 38 47  1  0  0  0
 39 64  1  0  0  0
 39 67  2  0  0  0
 40 52  1  0  0  0
 40 53  2  0  0  0
 40 58  1  0  0  0
 41111  1  0  0  0
 41112  1  0  0  0
 41113  1  0  0  0
 41 48  1  0  0  0
 42 43  1  0  0  0
 42 66  1  0  0  0
 42114  1  0  0  0
 42115  1  0  0  0
 43 44  1  0  0  0
 44116  1  0  0  0
 45 46  2  0  0  0
 45117  1  0  0  0
 46118  1  0  0  0
 47119  1  0  0  0
 47120  1  0  0  0
 48 56  1  0  0  0
 48 65  1  0  0  0
 48121  1  0  0  0
 49 50  1  0  0  0
 49 53  1  0  0  0
 49 64  1  0  0  0
 49122  1  0  0  0
 50 51  1  0  0  0
 50123  1  0  0  0
 50124  1  0  0  0
 51 52  1  0  0  0
 51125  1  0  0  0
 51126  1  0  0  0
 52127  1  0  0  0
 52128  1  0  0  0
 53 54  1  0  0  0
 54 55  2  0  0  0
 54129  1  0  0  0
 55 57  1  0  0  0
 55130  1  0  0  0
 56 69  2  0  0  0
 57 58  2  0  0  0
 57131  1  0  0  0
 58132  1  0  0  0
 59 60  1  0  0  0
 59 61  1  0  0  0
 59 62  1  0  0  0
 60133  1  0  0  0
 60134  1  0  0  0
 60135  1  0  0  0
 61136  1  0  0  0
 61137  1  0  0  0
 61138  1  0  0  0
 62139  1  0  0  0
 62140  1  0  0  0
 62141  1  0  0  0
 63 65  1  0  0  0
 63142  1  0  0  0
 63143  1  0  0  0
 63144  1  0  0  0
 64145  1  0  0  0
 65146  1  0  0  0
 68 83  1  0  0  0
 71 73  2  0  0  0
 71 75  1  0  0  0
 71147  1  0  0  0
 72 73  1  0  0  0
 72 76  2  0  0  0
 72148  1  0  0  0
 73 82  1  0  0  0
 74 75  2  0  0  0
 74 76  1  0  0  0
 74 84  1  0  0  0
 75 86  1  0  0  0
 76 87  1  0  0  0
 77 78  2  0  0  0
 77 79  1  0  0  0
 77 85  1  0  0  0
 78149  1  0  0  0
 78150  1  0  0  0
 79 81  1  0  0  0
 79151  1  0  0  0
 79152  1  0  0  0
 80 81  1  0  0  0
 80 85  1  0  0  0
 80153  1  0  0  0
 80154  1  0  0  0
 81 83  1  0  0  0
 81155  1  0  0  0
 82156  1  0  0  0
 82157  1  0  0  0
 82 85  1  0  0  0
 83158  1  0  0  0
 83159  1  0  0  0
 84160  1  0  0  0
 85161  1  0  0  0
M  CHG  1  85   1
M  ISO  4   1 100  68 101  83 101  84 100
M  END
> <chiral flag>
0

> <version>
0

> <s_m_source_file>
/data/baiqing/PycharmProjects/Reinvent-master-3.2/result/LINK_invent/BTK/process_docking_weight1_custom_product_contain_oxygen_bond_distance_aromatic_linkinvent_7_9_3/rearranged_h_0023.sdf

> <i_m_source_file_index>
62

> <r_mmod_Potential_Energy-OPLS-2005>
-215.679870605469

> <r_mmod_Stretch_Energy-OPLS-2005>
39.5320129394531

> <r_mmod_Bend_Energy-OPLS-2005>
130.091949462891

> <r_mmod_Torsional_Energy-OPLS-2005>
254.866455078125

> <r_mmod_Improper_Torsional_Energy-OPLS-2005>
3.17746806144714

> <r_mmod_Van_der_Waal_Energy-OPLS-2005>
147.877578735352

> <r_mmod_Electrostatic_Energy-OPLS-2005>
-334.602294921875

> <r_mmod_Solvation_Energy-OPLS-2005>
-468.445587158203

> <b_mmod_Minimization_Converged-OPLS-2005>
0

> <r_mmod_RMS_Derivative-OPLS-2005>
1.46834230422974

$$$$
62
                    3D
 Structure written by MMmdl.
160169  0  0  1  0            999 V2000
  -30.6093  -14.5537   20.5425 C   0  0  0  0  0  0
  -30.4201  -12.3598   19.4054 C   0  0  0  0  0  0
  -29.4816  -12.5587   18.1967 C   0  0  0  0  0  0
  -28.0027  -12.3980   18.6150 C   0  0  0  0  0  0
  -27.6491  -13.2155   19.8895 C   0  0  2  0  0  0
  -28.6971  -12.9729   20.9956 C   0  0  0  0  0  0
  -25.2475  -13.8145   20.5794 C   0  0  0  0  0  0
  -24.1741  -13.0397   20.9144 C   0  0  0  0  0  0
  -24.6351  -11.6868   20.8704 C   0  0  0  0  0  0
  -23.9034  -10.4283   21.0371 C   0  0  0  0  0  0
  -24.3616   -9.4224   21.9152 C   0  0  0  0  0  0
  -23.6308   -8.2264   22.0737 C   0  0  0  0  0  0
  -22.4264   -8.0285   21.3572 C   0  0  0  0  0  0
  -21.9880   -9.0231   20.4635 C   0  0  0  0  0  0
  -22.7207  -10.2125   20.3030 C   0  0  0  0  0  0
  -21.6852   -6.0726   22.5282 C   0  0  0  0  0  0
  -21.3960   -6.5626   23.8215 C   0  0  0  0  0  0
  -21.3682   -5.6795   24.9199 C   0  0  0  0  0  0
  -21.6090   -4.3070   24.7236 C   0  0  0  0  0  0
  -21.8810   -3.8154   23.4331 C   0  0  0  0  0  0
  -21.9169   -4.6950   22.3379 C   0  0  0  0  0  0
  -22.7764  -13.5151   21.1836 C   0  0  0  0  0  0
  -22.1655   -4.2155   21.0959 F   0  0  0  0  0  0
  -21.5700   -3.4524   25.7731 F   0  0  0  0  0  0
  -30.0149  -13.3326   20.4385 N   0  0  0  0  0  0
  -26.2942  -12.9356   20.3488 N   0  0  0  0  0  0
  -25.9273  -11.6491   20.5755 N   0  0  0  0  0  0
  -22.0436  -12.8138   22.0389 N   0  0  0  0  0  0
  -25.4147  -15.1902   20.4483 N   0  0  0  0  0  0
  -31.7634  -14.7527   20.1441 O   0  0  0  0  0  0
  -21.6683   -6.8859   21.4249 O   0  0  0  0  0  0
  -22.3447  -14.5488   20.6733 O   0  0  0  0  0  0
  -24.6096  -31.8680   23.2032 C   0  0  0  0  0  0
  -25.8998  -32.4804   23.8370 C   0  0  1  0  0  0
  -27.2678  -27.4260   20.0890 C   0  0  0  0  0  0
  -25.5860  -33.8623   24.2282 N   0  0  0  0  0  0
  -23.3995  -30.4846   21.5426 C   0  0  2  0  0  0
  -24.8596  -28.9383   20.1235 C   0  0  0  0  0  0
  -22.7356  -29.4662   22.4970 C   0  0  0  0  0  0
  -18.0243  -28.1357   22.8504 C   0  0  0  0  0  0
  -24.1544  -36.7331   23.2633 C   0  0  0  0  0  0
  -25.9259  -30.8286   21.3588 C   0  0  0  0  0  0
  -26.0134  -29.4519   20.7271 C   0  0  0  0  0  0
  -27.2096  -28.6971   20.7190 C   0  0  0  0  0  0
  -26.0906  -26.9301   19.4871 C   0  0  0  0  0  0
  -24.8945  -27.6740   19.5103 C   0  0  0  0  0  0
  -23.6137  -29.7959   20.1648 C   0  0  0  0  0  0
  -25.4154  -36.3120   24.0311 C   0  0  1  0  0  0
  -20.5831  -28.3680   23.1314 C   0  0  2  0  0  0
  -20.6739  -26.9426   22.5399 C   0  0  0  0  0  0
  -19.5747  -26.6385   21.5161 C   0  0  0  0  0  0
  -18.1921  -26.7925   22.1589 C   0  0  0  0  0  0
  -19.1492  -28.8821   23.2923 C   0  0  0  0  0  0
  -18.9442  -30.1423   23.8950 C   0  0  0  0  0  0
  -17.6442  -30.6595   24.0565 C   0  0  0  0  0  0
  -25.9079  -34.9485   23.5127 C   0  0  0  0  0  0
  -16.5333  -29.9102   23.6315 C   0  0  0  0  0  0
  -16.7225  -28.6488   23.0375 C   0  0  0  0  0  0
  -26.4463  -31.6539   25.0676 C   0  0  0  0  0  0
  -25.3672  -31.3514   26.1338 C   0  0  0  0  0  0
  -27.0291  -30.3014   24.5994 C   0  0  0  0  0  0
  -27.6094  -32.4181   25.7407 C   0  0  0  0  0  0
  -27.5589  -37.1822   24.8458 C   0  0  0  0  0  0
  -21.4083  -29.3043   22.3704 N   0  0  0  0  0  0
  -26.4319  -37.3812   23.9393 N   0  0  0  0  0  0
  -24.6629  -31.0762   22.0933 N   0  0  0  0  0  0
  -23.4092  -28.8221   23.3055 O   0  0  0  0  0  0
  -28.4703  -26.7317   20.0996 O   0  0  0  0  0  0
  -26.5687  -34.8920   22.4727 O   0  0  0  0  0  0
  -23.5307  -32.1447   23.7430 O   0  0  0  0  0  0
  -30.9471  -19.1359   20.3716 C   0  0  0  0  0  0
  -30.9228  -17.7201   20.3197 C   0  0  0  0  0  0
  -29.9513  -19.8899   21.0500 C   0  0  0  0  0  0
  -28.8852  -19.1658   21.6736 C   0  0  0  0  0  0
  -29.8855  -16.9937   20.9516 C   0  0  0  0  0  0
  -28.8658  -17.7405   21.6003 C   0  0  0  0  0  0
  -28.8918  -22.8533   19.4922 C   0  0  0  0  0  0
  -29.3552  -23.7863   21.2432 C   0  0  0  0  0  0
  -28.4472  -24.2164   20.0814 C   0  0  1  0  0  0
  -27.7665  -19.8474   22.4709 C   0  0  0  0  0  0
  -30.1877  -21.4208   21.2001 C   0  0  0  0  0  0
  -28.6817  -25.5429   19.3089 C   0  0  0  0  0  0
  -29.7795  -15.5489   20.9571 N   0  0  0  0  0  0
  -29.0892  -22.3871   20.8733 N   0  3  2  0  0  0
  -27.8436  -17.0721   22.1939 F   0  0  0  0  0  0
  -31.4575  -12.5002   19.0983 H   0  0  0  0  0  0
  -30.3521  -11.3366   19.7821 H   0  0  0  0  0  0
  -29.7167  -11.8508   17.3967 H   0  0  0  0  0  0
  -29.6319  -13.5583   17.7781 H   0  0  0  0  0  0
  -27.8164  -11.3380   18.7919 H   0  0  0  0  0  0
  -27.3487  -12.6908   17.7946 H   0  0  0  0  0  0
  -27.6818  -14.2667   19.6119 H   0  0  0  0  0  0
  -28.6884  -11.9193   21.2812 H   0  0  0  0  0  0
  -28.4581  -13.5199   21.9109 H   0  0  0  0  0  0
  -25.2768   -9.5749   22.4713 H   0  0  0  0  0  0
  -24.0024   -7.4674   22.7462 H   0  0  0  0  0  0
  -21.0808   -8.8751   19.8925 H   0  0  0  0  0  0
  -22.3660  -10.9658   19.6156 H   0  0  0  0  0  0
  -21.1885   -7.6139   23.9689 H   0  0  0  0  0  0
  -21.1549   -6.0547   25.9104 H   0  0  0  0  0  0
  -22.0540   -2.7588   23.2853 H   0  0  0  0  0  0
  -22.4019  -11.9750   22.4740 H   0  0  0  0  0  0
  -21.1059  -13.1148   22.2643 H   0  0  0  0  0  0
  -24.6600  -15.8312   20.6648 H   0  0  0  0  0  0
  -26.3082  -15.6531   20.3417 H   0  0  0  0  0  0
  -26.7056  -32.5576   23.1142 H   0  0  0  0  0  0
  -24.9899  -33.9850   25.0322 H   0  0  0  0  0  0
  -22.6874  -31.3004   21.3906 H   0  0  0  0  0  0
  -23.3827  -35.9654   23.3295 H   0  0  0  0  0  0
  -24.3576  -36.8963   22.2042 H   0  0  0  0  0  0
  -23.7316  -37.6522   23.6696 H   0  0  0  0  0  0
  -26.0120  -31.5778   20.5712 H   0  0  0  0  0  0
  -26.8232  -30.9136   21.9599 H   0  0  0  0  0  0
  -28.1022  -29.0932   21.1877 H   0  0  0  0  0  0
  -26.0795  -25.9661   19.0011 H   0  0  0  0  0  0
  -24.0104  -27.2670   19.0428 H   0  0  0  0  0  0
  -23.7067  -30.5579   19.3914 H   0  0  0  0  0  0
  -22.7504  -29.1928   19.8790 H   0  0  0  0  0  0
  -25.1334  -36.1988   25.0796 H   0  0  0  0  0  0
  -20.9868  -28.3314   24.1467 H   0  0  0  0  0  0
  -20.5618  -26.2330   23.3594 H   0  0  0  0  0  0
  -21.6649  -26.7482   22.1268 H   0  0  0  0  0  0
  -19.6964  -25.6288   21.1203 H   0  0  0  0  0  0
  -19.6720  -27.3234   20.6714 H   0  0  0  0  0  0
  -17.4185  -26.6632   21.3998 H   0  0  0  0  0  0
  -18.0401  -26.0031   22.8977 H   0  0  0  0  0  0
  -19.7937  -30.7172   24.2388 H   0  0  0  0  0  0
  -17.5045  -31.6287   24.5181 H   0  0  0  0  0  0
  -15.5377  -30.3043   23.7597 H   0  0  0  0  0  0
  -15.8612  -28.0789   22.7126 H   0  0  0  0  0  0
  -24.5991  -30.6750   25.7498 H   0  0  0  0  0  0
  -24.8678  -32.2620   26.4734 H   0  0  0  0  0  0
  -25.7973  -30.8648   27.0120 H   0  0  0  0  0  0
  -26.2838  -29.6727   24.1132 H   0  0  0  0  0  0
  -27.4186  -29.7249   25.4380 H   0  0  0  0  0  0
  -27.8590  -30.4325   23.9051 H   0  0  0  0  0  0
  -27.2849  -33.3528   26.1986 H   0  0  0  0  0  0
  -28.3910  -32.6600   25.0190 H   0  0  0  0  0  0
  -28.0772  -31.8255   26.5287 H   0  0  0  0  0  0
  -28.2587  -38.0139   24.7531 H   0  0  0  0  0  0
  -28.1112  -36.2665   24.6303 H   0  0  0  0  0  0
  -27.2262  -37.1437   25.8842 H   0  0  0  0  0  0
  -20.9213  -29.8791   21.6949 H   0  0  0  0  0  0
  -26.0210  -38.2885   24.1438 H   0  0  0  0  0  0
  -31.7961  -19.6296   19.9129 H   0  0  0  0  0  0
  -31.7222  -17.2098   19.7976 H   0  0  0  0  0  0
  -29.8206  -22.9133   18.9169 H   0  0  0  0  0  0
  -28.1164  -22.3107   18.9458 H   0  0  0  0  0  0
  -29.0013  -24.0646   22.2376 H   0  0  0  0  0  0
  -30.4016  -24.0725   21.1073 H   0  0  0  0  0  0
  -27.4064  -24.1594   20.4075 H   0  0  0  0  0  0
  -26.7928  -19.6770   22.0084 H   0  0  0  0  0  0
  -27.8815  -20.9213   22.5805 H   0  0  0  0  0  0
  -27.7120  -19.4494   23.4862 H   0  0  0  0  0  0
  -31.0774  -21.7068   20.6350 H   0  0  0  0  0  0
  -30.4556  -21.5820   22.2453 H   0  0  0  0  0  0
  -28.0999  -25.5805   18.3862 H   0  0  0  0  0  0
  -29.7156  -25.5794   18.9608 H   0  0  0  0  0  0
  -28.8779  -15.2230   21.2710 H   0  0  0  0  0  0
  -28.2113  -22.0992   21.2808 H   0  0  0  0  0  0
  1 25  1  0  0  0
  1 30  2  0  0  0
  1 83  1  0  0  0
  2  3  1  0  0  0
  2 25  1  0  0  0
  2 86  1  0  0  0
  2 87  1  0  0  0
  3  4  1  0  0  0
  3 88  1  0  0  0
  3 89  1  0  0  0
  4  5  1  0  0  0
  4 90  1  0  0  0
  4 91  1  0  0  0
  5  6  1  0  0  0
  5 26  1  0  0  0
  5 92  1  0  0  0
  6 25  1  0  0  0
  6 93  1  0  0  0
  6 94  1  0  0  0
  7  8  2  0  0  0
  7 26  1  0  0  0
  7 29  1  0  0  0
  8  9  1  0  0  0
  8 22  1  0  0  0
  9 10  1  0  0  0
  9 27  2  0  0  0
 10 11  2  0  0  0
 10 15  1  0  0  0
 11 12  1  0  0  0
 11 95  1  0  0  0
 12 13  2  0  0  0
 12 96  1  0  0  0
 13 14  1  0  0  0
 13 31  1  0  0  0
 14 15  2  0  0  0
 14 97  1  0  0  0
 15 98  1  0  0  0
 16 17  2  0  0  0
 16 21  1  0  0  0
 16 31  1  0  0  0
 17 18  1  0  0  0
 17 99  1  0  0  0
 18 19  2  0  0  0
 18100  1  0  0  0
 19 20  1  0  0  0
 19 24  1  0  0  0
 20 21  2  0  0  0
 20101  1  0  0  0
 21 23  1  0  0  0
 22 28  1  0  0  0
 22 32  2  0  0  0
 26 27  1  0  0  0
 28102  1  0  0  0
 28103  1  0  0  0
 29104  1  0  0  0
 29105  1  0  0  0
 33 34  1  0  0  0
 33 66  1  0  0  0
 33 70  2  0  0  0
 34 36  1  0  0  0
 34 59  1  0  0  0
 34106  1  0  0  0
 35 44  2  0  0  0
 35 45  1  0  0  0
 35 68  1  0  0  0
 36 56  1  0  0  0
 36107  1  0  0  0
 37 39  1  0  0  0
 37 47  1  0  0  0
 37 66  1  0  0  0
 37108  1  0  0  0
 38 43  2  0  0  0
 38 46  1  0  0  0
 38 47  1  0  0  0
 39 64  1  0  0  0
 39 67  2  0  0  0
 40 52  1  0  0  0
 40 53  2  0  0  0
 40 58  1  0  0  0
 41109  1  0  0  0
 41110  1  0  0  0
 41111  1  0  0  0
 41 48  1  0  0  0
 42 43  1  0  0  0
 42 66  1  0  0  0
 42112  1  0  0  0
 42113  1  0  0  0
 43 44  1  0  0  0
 44114  1  0  0  0
 45 46  2  0  0  0
 45115  1  0  0  0
 46116  1  0  0  0
 47117  1  0  0  0
 47118  1  0  0  0
 48 56  1  0  0  0
 48 65  1  0  0  0
 48119  1  0  0  0
 49 50  1  0  0  0
 49 53  1  0  0  0
 49 64  1  0  0  0
 49120  1  0  0  0
 50 51  1  0  0  0
 50121  1  0  0  0
 50122  1  0  0  0
 51 52  1  0  0  0
 51123  1  0  0  0
 51124  1  0  0  0
 52125  1  0  0  0
 52126  1  0  0  0
 53 54  1  0  0  0
 54 55  2  0  0  0
 54127  1  0  0  0
 55 57  1  0  0  0
 55128  1  0  0  0
 56 69  2  0  0  0
 57 58  2  0  0  0
 57129  1  0  0  0
 58130  1  0  0  0
 59 60  1  0  0  0
 59 61  1  0  0  0
 59 62  1  0  0  0
 60131  1  0  0  0
 60132  1  0  0  0
 60133  1  0  0  0
 61134  1  0  0  0
 61135  1  0  0  0
 61136  1  0  0  0
 62137  1  0  0  0
 62138  1  0  0  0
 62139  1  0  0  0
 63 65  1  0  0  0
 63140  1  0  0  0
 63141  1  0  0  0
 63142  1  0  0  0
 64143  1  0  0  0
 65144  1  0  0  0
 68 82  1  0  0  0
 71 72  2  0  0  0
 71 73  1  0  0  0
 71145  1  0  0  0
 72 75  1  0  0  0
 72146  1  0  0  0
 73 74  2  0  0  0
 73 81  1  0  0  0
 74 76  1  0  0  0
 74 80  1  0  0  0
 75 76  2  0  0  0
 75 83  1  0  0  0
 76 85  1  0  0  0
 77 79  1  0  0  0
 77 84  1  0  0  0
 77147  1  0  0  0
 77148  1  0  0  0
 78 79  1  0  0  0
 78 84  1  0  0  0
 78149  1  0  0  0
 78150  1  0  0  0
 79 82  1  0  0  0
 79151  1  0  0  0
 80152  1  0  0  0
 80153  1  0  0  0
 80154  1  0  0  0
 81155  1  0  0  0
 81156  1  0  0  0
 81 84  1  0  0  0
 82157  1  0  0  0
 82158  1  0  0  0
 83159  1  0  0  0
 84160  1  0  0  0
M  CHG  1  84   1
M  ISO  4   1 100  68 101  82 101  83 100
M  END
> <chiral flag>
0

> <version>
0

> <s_m_source_file>
/data/baiqing/PycharmProjects/Reinvent-master-3.2/result/LINK_invent/BTK/process_docking_weight1_custom_product_contain_oxygen_bond_distance_aromatic_linkinvent_7_9_3/rearranged_h_0023.sdf

> <i_m_source_file_index>
63

> <r_mmod_Potential_Energy-OPLS-2005>
-176.458877563477

> <r_mmod_Stretch_Energy-OPLS-2005>
52.2692337036133

> <r_mmod_Bend_Energy-OPLS-2005>
150.611694335938

> <r_mmod_Torsional_Energy-OPLS-2005>
218.970550537109

> <r_mmod_Improper_Torsional_Energy-OPLS-2005>
4.96894121170044

> <r_mmod_Van_der_Waal_Energy-OPLS-2005>
148.603866577148

> <r_mmod_Electrostatic_Energy-OPLS-2005>
-312.356353759766

> <r_mmod_Solvation_Energy-OPLS-2005>
-460.428649902344

> <b_mmod_Minimization_Converged-OPLS-2005>
0

> <r_mmod_RMS_Derivative-OPLS-2005>
7.4448676109314

$$$$
63
                    3D
 Structure written by MMmdl.
157166  0  0  1  0            999 V2000
  -30.6044  -14.6533   20.5266 C   0  0  0  0  0  0
  -30.4476  -12.4089   19.4556 C   0  0  0  0  0  0
  -29.5148  -12.5230   18.2273 C   0  0  0  0  0  0
  -28.0357  -12.3586   18.6343 C   0  0  0  0  0  0
  -27.6579  -13.2174   19.8706 C   0  0  2  0  0  0
  -28.7007  -13.0507   20.9998 C   0  0  0  0  0  0
  -25.2574  -13.8175   20.5699 C   0  0  0  0  0  0
  -24.1831  -13.0447   20.9184 C   0  0  0  0  0  0
  -24.6397  -11.6917   20.8729 C   0  0  0  0  0  0
  -23.9065  -10.4299   21.0403 C   0  0  0  0  0  0
  -24.3615   -9.4217   21.9182 C   0  0  0  0  0  0
  -23.6298   -8.2251   22.0753 C   0  0  0  0  0  0
  -22.4273   -8.0289   21.3549 C   0  0  0  0  0  0
  -21.9909   -9.0260   20.4653 C   0  0  0  0  0  0
  -22.7235  -10.2141   20.3061 C   0  0  0  0  0  0
  -21.6853   -6.0747   22.5278 C   0  0  0  0  0  0
  -21.4014   -6.5649   23.8212 C   0  0  0  0  0  0
  -21.3658   -5.6795   24.9172 C   0  0  0  0  0  0
  -21.6041   -4.3056   24.7218 C   0  0  0  0  0  0
  -21.8819   -3.8159   23.4337 C   0  0  0  0  0  0
  -21.9190   -4.6977   22.3396 C   0  0  0  0  0  0
  -22.7854  -13.5252   21.1838 C   0  0  0  0  0  0
  -22.1662   -4.2170   21.0974 F   0  0  0  0  0  0
  -21.5628   -3.4538   25.7729 F   0  0  0  0  0  0
  -30.0168  -13.4149   20.4482 N   0  0  0  0  0  0
  -26.3008  -12.9357   20.3336 N   0  0  0  0  0  0
  -25.9325  -11.6510   20.5743 N   0  0  0  0  0  0
  -22.0476  -12.8259   22.0393 N   0  0  0  0  0  0
  -25.4306  -15.1894   20.4131 N   0  0  0  0  0  0
  -31.7371  -14.8551   20.0764 O   0  0  0  0  0  0
  -21.6641   -6.8885   21.4238 O   0  0  0  0  0  0
  -22.3540  -14.5555   20.6681 O   0  0  0  0  0  0
  -24.6268  -31.8584   23.2027 C   0  0  0  0  0  0
  -25.9102  -32.4780   23.8371 C   0  0  1  0  0  0
  -27.2309  -27.3098   20.1174 C   0  0  0  0  0  0
  -25.5907  -33.8581   24.2293 N   0  0  0  0  0  0
  -23.4227  -30.4824   21.5445 C   0  0  2  0  0  0
  -24.8718  -28.9381   20.1121 C   0  0  0  0  0  0
  -22.7480  -29.4615   22.4918 C   0  0  0  0  0  0
  -18.0280  -28.1380   22.8478 C   0  0  0  0  0  0
  -24.1480  -36.7295   23.2641 C   0  0  0  0  0  0
  -25.9650  -30.7875   21.3759 C   0  0  0  0  0  0
  -26.0409  -29.4135   20.7191 C   0  0  0  0  0  0
  -27.2219  -28.6105   20.7140 C   0  0  0  0  0  0
  -26.0364  -26.8951   19.4809 C   0  0  0  0  0  0
  -24.8717  -27.6838   19.4858 C   0  0  0  0  0  0
  -23.6405  -29.8188   20.1596 C   0  0  0  0  0  0
  -25.4102  -36.3089   24.0338 C   0  0  1  0  0  0
  -20.5884  -28.3685   23.1265 C   0  0  2  0  0  0
  -20.6764  -26.9402   22.5401 C   0  0  0  0  0  0
  -19.5746  -26.6374   21.5196 C   0  0  0  0  0  0
  -18.1927  -26.7920   22.1615 C   0  0  0  0  0  0
  -19.1536  -28.8847   23.2870 C   0  0  0  0  0  0
  -18.9461  -30.1443   23.8897 C   0  0  0  0  0  0
  -17.6465  -30.6585   24.0551 C   0  0  0  0  0  0
  -25.9038  -34.9453   23.5119 C   0  0  0  0  0  0
  -16.5353  -29.9087   23.6323 C   0  0  0  0  0  0
  -16.7269  -28.6502   23.0349 C   0  0  0  0  0  0
  -26.4483  -31.6596   25.0745 C   0  0  0  0  0  0
  -25.3720  -31.3725   26.1477 C   0  0  0  0  0  0
  -27.0332  -30.3028   24.6195 C   0  0  0  0  0  0
  -27.6054  -32.4323   25.7508 C   0  0  0  0  0  0
  -27.5576  -37.1798   24.8463 C   0  0  0  0  0  0
  -21.4190  -29.3048   22.3669 N   0  0  0  0  0  0
  -26.4281  -37.3782   23.9418 N   0  0  0  0  0  0
  -24.6906  -31.0592   22.0985 N   0  0  0  0  0  0
  -23.4193  -28.8138   23.2995 O   0  0  0  0  0  0
  -28.3465  -26.4509   20.1790 O   0  0  0  0  0  0
  -26.5612  -34.8922   22.4689 O   0  0  0  0  0  0
  -23.5427  -32.1376   23.7346 O   0  0  0  0  0  0
  -30.1720  -19.3239   19.8325 C   0  0  0  0  0  0
  -30.3371  -17.8986   19.8773 C   0  0  0  0  0  0
  -29.5168  -20.0609   20.8627 C   0  0  0  0  0  0
  -29.8298  -17.1186   20.9542 C   0  0  0  0  0  0
  -29.0263  -19.2678   21.9415 C   0  0  0  0  0  0
  -29.1669  -17.8486   21.9745 C   0  0  0  0  0  0
  -29.0171  -22.4258   19.8548 C   0  0  0  0  0  0
  -28.5022  -22.0782   18.6642 C   0  0  0  0  0  0
  -29.4093  -23.7020   21.8424 C   0  0  0  0  0  0
  -29.8810  -22.2408   22.0228 C   0  0  0  0  0  0
  -29.2281  -23.9012   20.3303 C   0  0  2  0  0  0
  -28.1386  -25.0022   19.9189 C   0  0  0  0  0  0
  -29.3893  -21.5052   20.8601 N   0  0  0  0  0  0
  -29.8248  -15.6534   21.0450 N   0  0  0  0  0  0
  -28.3590  -19.8635   22.9612 F   0  0  0  0  0  0
  -28.6350  -17.1648   23.0181 F   0  0  0  0  0  0
  -31.4874  -12.5497   19.1553 H   0  0  0  0  0  0
  -30.3973  -11.4090   19.8874 H   0  0  0  0  0  0
  -29.7827  -11.7750   17.4806 H   0  0  0  0  0  0
  -29.6577  -13.4936   17.7491 H   0  0  0  0  0  0
  -27.8653  -11.3035   18.8514 H   0  0  0  0  0  0
  -27.3856  -12.6053   17.7940 H   0  0  0  0  0  0
  -27.6843  -14.2576   19.5452 H   0  0  0  0  0  0
  -28.7145  -12.0183   21.3540 H   0  0  0  0  0  0
  -28.4368  -13.6509   21.8708 H   0  0  0  0  0  0
  -25.2761   -9.5712   22.4756 H   0  0  0  0  0  0
  -24.0020   -7.4642   22.7465 H   0  0  0  0  0  0
  -21.0844   -8.8777   19.8957 H   0  0  0  0  0  0
  -22.3686  -10.9681   19.6177 H   0  0  0  0  0  0
  -21.2010   -7.6155   23.9729 H   0  0  0  0  0  0
  -21.1476   -6.0518   25.9074 H   0  0  0  0  0  0
  -22.0599   -2.7625   23.2822 H   0  0  0  0  0  0
  -22.4079  -11.9941   22.4826 H   0  0  0  0  0  0
  -21.1097  -13.1306   22.2567 H   0  0  0  0  0  0
  -24.6681  -15.8482   20.5319 H   0  0  0  0  0  0
  -26.2848  -15.6270   20.0931 H   0  0  0  0  0  0
  -26.7171  -32.5453   23.1126 H   0  0  0  0  0  0
  -25.0036  -33.9718   25.0429 H   0  0  0  0  0  0
  -22.7177  -31.3035   21.4001 H   0  0  0  0  0  0
  -23.3749  -35.9618   23.3293 H   0  0  0  0  0  0
  -24.3576  -36.8924   22.2058 H   0  0  0  0  0  0
  -23.7223  -37.6493   23.6665 H   0  0  0  0  0  0
  -26.0941  -31.5492   20.6057 H   0  0  0  0  0  0
  -26.8462  -30.8407   22.0037 H   0  0  0  0  0  0
  -28.1173  -28.9685   21.2031 H   0  0  0  0  0  0
  -25.9678  -25.9412   18.9801 H   0  0  0  0  0  0
  -23.9773  -27.3129   19.0043 H   0  0  0  0  0  0
  -23.7633  -30.5958   19.4044 H   0  0  0  0  0  0
  -22.7614  -29.2493   19.8533 H   0  0  0  0  0  0
  -25.1276  -36.1946   25.0830 H   0  0  0  0  0  0
  -20.9975  -28.3258   24.1384 H   0  0  0  0  0  0
  -20.5630  -26.2295   23.3602 H   0  0  0  0  0  0
  -21.6638  -26.7405   22.1219 H   0  0  0  0  0  0
  -19.6903  -25.6279   21.1237 H   0  0  0  0  0  0
  -19.6688  -27.3169   20.6712 H   0  0  0  0  0  0
  -17.4185  -26.6645   21.4032 H   0  0  0  0  0  0
  -18.0346  -26.0067   22.9021 H   0  0  0  0  0  0
  -19.7937  -30.7247   24.2288 H   0  0  0  0  0  0
  -17.5022  -31.6268   24.5142 H   0  0  0  0  0  0
  -15.5355  -30.2993   23.7642 H   0  0  0  0  0  0
  -15.8665  -28.0815   22.7081 H   0  0  0  0  0  0
  -24.5893  -30.7073   25.7811 H   0  0  0  0  0  0
  -24.8903  -32.2882   26.4917 H   0  0  0  0  0  0
  -25.8047  -30.8899   27.0250 H   0  0  0  0  0  0
  -26.2910  -29.6785   24.1205 H   0  0  0  0  0  0
  -27.4027  -29.7278   25.4697 H   0  0  0  0  0  0
  -27.8778  -30.4338   23.9427 H   0  0  0  0  0  0
  -27.2685  -33.3628   26.2089 H   0  0  0  0  0  0
  -28.3858  -32.6870   25.0325 H   0  0  0  0  0  0
  -28.0727  -31.8441   26.5418 H   0  0  0  0  0  0
  -28.2585  -38.0105   24.7523 H   0  0  0  0  0  0
  -28.1080  -36.2637   24.6263 H   0  0  0  0  0  0
  -27.2300  -37.1421   25.8867 H   0  0  0  0  0  0
  -20.9356  -29.8810   21.6921 H   0  0  0  0  0  0
  -26.0166  -38.2856   24.1435 H   0  0  0  0  0  0
  -30.5723  -19.8626   18.9861 H   0  0  0  0  0  0
  -30.8348  -17.4075   19.0533 H   0  0  0  0  0  0
  -28.2187  -22.8199   17.9315 H   0  0  0  0  0  0
  -28.3521  -21.0431   18.3929 H   0  0  0  0  0  0
  -30.1019  -24.4208   22.2819 H   0  0  0  0  0  0
  -28.4495  -23.8275   22.3452 H   0  0  0  0  0  0
  -29.5393  -21.8391   22.9763 H   0  0  0  0  0  0
  -30.9717  -22.1978   22.0227 H   0  0  0  0  0  0
  -30.1823  -24.2133   19.9013 H   0  0  0  0  0  0
  -27.2044  -24.6902   20.3887 H   0  0  0  0  0  0
  -27.9820  -24.9164   18.8438 H   0  0  0  0  0  0
  -29.0324  -15.2906   21.5537 H   0  0  0  0  0  0
  1 25  1  0  0  0
  1 30  2  0  0  0
  1 84  1  0  0  0
  2  3  1  0  0  0
  2 25  1  0  0  0
  2 87  1  0  0  0
  2 88  1  0  0  0
  3  4  1  0  0  0
  3 89  1  0  0  0
  3 90  1  0  0  0
  4  5  1  0  0  0
  4 91  1  0  0  0
  4 92  1  0  0  0
  5  6  1  0  0  0
  5 26  1  0  0  0
  5 93  1  0  0  0
  6 25  1  0  0  0
  6 94  1  0  0  0
  6 95  1  0  0  0
  7  8  2  0  0  0
  7 26  1  0  0  0
  7 29  1  0  0  0
  8  9  1  0  0  0
  8 22  1  0  0  0
  9 10  1  0  0  0
  9 27  2  0  0  0
 10 11  2  0  0  0
 10 15  1  0  0  0
 11 12  1  0  0  0
 11 96  1  0  0  0
 12 13  2  0  0  0
 12 97  1  0  0  0
 13 14  1  0  0  0
 13 31  1  0  0  0
 14 15  2  0  0  0
 14 98  1  0  0  0
 15 99  1  0  0  0
 16 17  2  0  0  0
 16 21  1  0  0  0
 16 31  1  0  0  0
 17 18  1  0  0  0
 17100  1  0  0  0
 18 19  2  0  0  0
 18101  1  0  0  0
 19 20  1  0  0  0
 19 24  1  0  0  0
 20 21  2  0  0  0
 20102  1  0  0  0
 21 23  1  0  0  0
 22 28  1  0  0  0
 22 32  2  0  0  0
 26 27  1  0  0  0
 28103  1  0  0  0
 28104  1  0  0  0
 29105  1  0  0  0
 29106  1  0  0  0
 33 34  1  0  0  0
 33 66  1  0  0  0
 33 70  2  0  0  0
 34 36  1  0  0  0
 34 59  1  0  0  0
 34107  1  0  0  0
 35 44  2  0  0  0
 35 45  1  0  0  0
 35 68  1  0  0  0
 36 56  1  0  0  0
 36108  1  0  0  0
 37 39  1  0  0  0
 37 47  1  0  0  0
 37 66  1  0  0  0
 37109  1  0  0  0
 38 43  2  0  0  0
 38 46  1  0  0  0
 38 47  1  0  0  0
 39 64  1  0  0  0
 39 67  2  0  0  0
 40 52  1  0  0  0
 40 53  2  0  0  0
 40 58  1  0  0  0
 41110  1  0  0  0
 41111  1  0  0  0
 41112  1  0  0  0
 41 48  1  0  0  0
 42 43  1  0  0  0
 42 66  1  0  0  0
 42113  1  0  0  0
 42114  1  0  0  0
 43 44  1  0  0  0
 44115  1  0  0  0
 45 46  2  0  0  0
 45116  1  0  0  0
 46117  1  0  0  0
 47118  1  0  0  0
 47119  1  0  0  0
 48 56  1  0  0  0
 48 65  1  0  0  0
 48120  1  0  0  0
 49 50  1  0  0  0
 49 53  1  0  0  0
 49 64  1  0  0  0
 49121  1  0  0  0
 50 51  1  0  0  0
 50122  1  0  0  0
 50123  1  0  0  0
 51 52  1  0  0  0
 51124  1  0  0  0
 51125  1  0  0  0
 52126  1  0  0  0
 52127  1  0  0  0
 53 54  1  0  0  0
 54 55  2  0  0  0
 54128  1  0  0  0
 55 57  1  0  0  0
 55129  1  0  0  0
 56 69  2  0  0  0
 57 58  2  0  0  0
 57130  1  0  0  0
 58131  1  0  0  0
 59 60  1  0  0  0
 59 61  1  0  0  0
 59 62  1  0  0  0
 60132  1  0  0  0
 60133  1  0  0  0
 60134  1  0  0  0
 61135  1  0  0  0
 61136  1  0  0  0
 61137  1  0  0  0
 62138  1  0  0  0
 62139  1  0  0  0
 62140  1  0  0  0
 63 65  1  0  0  0
 63141  1  0  0  0
 63142  1  0  0  0
 63143  1  0  0  0
 64144  1  0  0  0
 65145  1  0  0  0
 68 82  1  0  0  0
 71 72  2  0  0  0
 71 73  1  0  0  0
 71146  1  0  0  0
 72 74  1  0  0  0
 72147  1  0  0  0
 73 75  2  0  0  0
 73 83  1  0  0  0
 74 76  2  0  0  0
 74 84  1  0  0  0
 75 76  1  0  0  0
 75 85  1  0  0  0
 76 86  1  0  0  0
 77 78  2  0  0  0
 77 81  1  0  0  0
 77 83  1  0  0  0
 78148  1  0  0  0
 78149  1  0  0  0
 79 80  1  0  0  0
 79 81  1  0  0  0
 79150  1  0  0  0
 79151  1  0  0  0
 80 83  1  0  0  0
 80152  1  0  0  0
 80153  1  0  0  0
 81 82  1  0  0  0
 81154  1  0  0  0
 82155  1  0  0  0
 82156  1  0  0  0
 84157  1  0  0  0
M  ISO  4   1 100  68 101  82 101  84 100
M  END
> <chiral flag>
0

> <version>
0

> <s_m_source_file>
/data/baiqing/PycharmProjects/Reinvent-master-3.2/result/LINK_invent/BTK/process_docking_weight1_custom_product_contain_oxygen_bond_distance_aromatic_linkinvent_7_9_3/rearranged_h_0023.sdf

> <i_m_source_file_index>
64

> <r_mmod_Potential_Energy-OPLS-2005>
141.02180480957

> <r_mmod_Stretch_Energy-OPLS-2005>
83.6479339599609

> <r_mmod_Bend_Energy-OPLS-2005>
179.748931884766

> <r_mmod_Torsional_Energy-OPLS-2005>
251.620407104492

> <r_mmod_Improper_Torsional_Energy-OPLS-2005>
3.32312536239624

> <r_mmod_Van_der_Waal_Energy-OPLS-2005>
142.548736572266

> <r_mmod_Electrostatic_Energy-OPLS-2005>
-372.439086914062

> <r_mmod_Solvation_Energy-OPLS-2005>
-200.456024169922

> <b_mmod_Minimization_Converged-OPLS-2005>
0

> <r_mmod_RMS_Derivative-OPLS-2005>
1.32208001613617

$$$$
64
                    3D
 Structure written by MMmdl.
158167  0  0  1  0            999 V2000
  -30.6383  -14.6267   20.4946 C   0  0  0  0  0  0
  -30.4388  -12.3874   19.4460 C   0  0  0  0  0  0
  -29.5023  -12.5127   18.2227 C   0  0  0  0  0  0
  -28.0288  -12.3503   18.6384 C   0  0  0  0  0  0
  -27.6567  -13.2191   19.8647 C   0  0  2  0  0  0
  -28.7031  -13.0676   20.9919 C   0  0  0  0  0  0
  -25.2566  -13.8161   20.5708 C   0  0  0  0  0  0
  -24.1823  -13.0442   20.9205 C   0  0  0  0  0  0
  -24.6390  -11.6929   20.8719 C   0  0  0  0  0  0
  -23.9083  -10.4290   21.0385 C   0  0  0  0  0  0
  -24.3620   -9.4216   21.9190 C   0  0  0  0  0  0
  -23.6281   -8.2252   22.0741 C   0  0  0  0  0  0
  -22.4248   -8.0283   21.3553 C   0  0  0  0  0  0
  -21.9897   -9.0260   20.4660 C   0  0  0  0  0  0
  -22.7236  -10.2132   20.3075 C   0  0  0  0  0  0
  -21.6867   -6.0710   22.5278 C   0  0  0  0  0  0
  -21.3999   -6.5605   23.8207 C   0  0  0  0  0  0
  -21.3671   -5.6769   24.9193 C   0  0  0  0  0  0
  -21.6052   -4.3032   24.7233 C   0  0  0  0  0  0
  -21.8817   -3.8128   23.4360 C   0  0  0  0  0  0
  -21.9192   -4.6946   22.3411 C   0  0  0  0  0  0
  -22.7835  -13.5265   21.1844 C   0  0  0  0  0  0
  -22.1682   -4.2135   21.0992 F   0  0  0  0  0  0
  -21.5660   -3.4516   25.7752 F   0  0  0  0  0  0
  -30.0276  -13.4018   20.4385 N   0  0  0  0  0  0
  -26.3007  -12.9365   20.3332 N   0  0  0  0  0  0
  -25.9318  -11.6536   20.5727 N   0  0  0  0  0  0
  -22.0444  -12.8298   22.0400 N   0  0  0  0  0  0
  -25.4290  -15.1857   20.4157 N   0  0  0  0  0  0
  -31.7786  -14.8009   20.0531 O   0  0  0  0  0  0
  -21.6657   -6.8851   21.4230 O   0  0  0  0  0  0
  -22.3539  -14.5571   20.6702 O   0  0  0  0  0  0
  -24.6274  -31.8597   23.2032 C   0  0  0  0  0  0
  -25.9145  -32.4769   23.8340 C   0  0  1  0  0  0
  -27.2053  -27.2947   20.1083 C   0  0  0  0  0  0
  -25.5952  -33.8571   24.2271 N   0  0  0  0  0  0
  -23.4200  -30.4851   21.5449 C   0  0  2  0  0  0
  -24.8666  -28.9376   20.1164 C   0  0  0  0  0  0
  -22.7470  -29.4620   22.4903 C   0  0  0  0  0  0
  -18.0304  -28.1361   22.8479 C   0  0  0  0  0  0
  -24.1504  -36.7279   23.2617 C   0  0  0  0  0  0
  -25.9670  -30.7746   21.3874 C   0  0  0  0  0  0
  -26.0369  -29.3994   20.7327 C   0  0  0  0  0  0
  -27.2135  -28.5851   20.7289 C   0  0  0  0  0  0
  -26.0256  -26.9112   19.4469 C   0  0  0  0  0  0
  -24.8632  -27.6963   19.4639 C   0  0  0  0  0  0
  -23.6380  -29.8227   20.1609 C   0  0  0  0  0  0
  -25.4122  -36.3079   24.0328 C   0  0  1  0  0  0
  -20.5895  -28.3666   23.1274 C   0  0  2  0  0  0
  -20.6796  -26.9371   22.5416 C   0  0  0  0  0  0
  -19.5768  -26.6323   21.5215 C   0  0  0  0  0  0
  -18.1946  -26.7887   22.1614 C   0  0  0  0  0  0
  -19.1554  -28.8828   23.2876 C   0  0  0  0  0  0
  -18.9457  -30.1438   23.8878 C   0  0  0  0  0  0
  -17.6452  -30.6559   24.0571 C   0  0  0  0  0  0
  -25.9062  -34.9453   23.5106 C   0  0  0  0  0  0
  -16.5350  -29.9057   23.6319 C   0  0  0  0  0  0
  -16.7291  -28.6476   23.0337 C   0  0  0  0  0  0
  -26.4511  -31.6567   25.0714 C   0  0  0  0  0  0
  -25.3737  -31.3768   26.1441 C   0  0  0  0  0  0
  -27.0282  -30.2943   24.6211 C   0  0  0  0  0  0
  -27.6082  -32.4253   25.7481 C   0  0  0  0  0  0
  -27.5597  -37.1791   24.8471 C   0  0  0  0  0  0
  -21.4180  -29.3046   22.3677 N   0  0  0  0  0  0
  -26.4301  -37.3772   23.9419 N   0  0  0  0  0  0
  -24.6897  -31.0581   22.0998 N   0  0  0  0  0  0
  -23.4214  -28.8152   23.2958 O   0  0  0  0  0  0
  -28.2939  -26.4092   20.0624 O   0  0  0  0  0  0
  -26.5608  -34.8926   22.4666 O   0  0  0  0  0  0
  -23.5414  -32.1415   23.7326 O   0  0  0  0  0  0
  -29.2571  -19.4017   21.3232 C   0  0  0  0  0  0
  -29.5466  -18.0410   21.6411 C   0  0  0  0  0  0
  -29.5710  -18.8928   18.9947 C   0  0  0  0  0  0
  -29.2220  -19.8729   19.9797 C   0  0  0  0  0  0
  -29.8297  -17.0646   20.6489 C   0  0  0  0  0  0
  -29.8560  -17.5292   19.3066 C   0  0  0  0  0  0
  -28.8580  -22.3913   20.3506 C   0  0  0  0  0  0
  -26.7735  -22.1715   18.3395 C   0  0  0  0  0  0
  -27.0605  -23.5880   18.8411 C   0  0  0  0  0  0
  -28.0462  -21.3267   18.2947 C   0  0  0  0  0  0
  -27.8588  -23.6268   20.1604 C   0  0  2  0  0  0
  -28.2015  -25.0960   20.7725 C   0  0  0  0  0  0
  -28.7225  -21.2232   19.6071 N   0  0  0  0  0  0
  -29.8978  -15.6510   21.0101 N   0  0  0  0  0  0
  -29.7210  -22.4859   21.2281 O   0  0  0  0  0  0
  -30.0808  -16.6564   18.2934 F   0  0  0  0  0  0
  -31.4759  -12.5077   19.1312 H   0  0  0  0  0  0
  -30.3791  -11.3890   19.8833 H   0  0  0  0  0  0
  -29.7564  -11.7714   17.4654 H   0  0  0  0  0  0
  -29.6409  -13.4854   17.7506 H   0  0  0  0  0  0
  -27.8583  -11.2972   18.8687 H   0  0  0  0  0  0
  -27.3765  -12.5915   17.7994 H   0  0  0  0  0  0
  -27.6803  -14.2519   19.5179 H   0  0  0  0  0  0
  -28.7000  -12.0451   21.3711 H   0  0  0  0  0  0
  -28.4358  -13.6994   21.8403 H   0  0  0  0  0  0
  -25.2729   -9.5721   22.4825 H   0  0  0  0  0  0
  -23.9963   -7.4641   22.7457 H   0  0  0  0  0  0
  -21.0821   -8.8814   19.8977 H   0  0  0  0  0  0
  -22.3656  -10.9699   19.6232 H   0  0  0  0  0  0
  -21.1961   -7.6105   23.9702 H   0  0  0  0  0  0
  -21.1511   -6.0508   25.9097 H   0  0  0  0  0  0
  -22.0579   -2.7591   23.2887 H   0  0  0  0  0  0
  -22.4017  -11.9978   22.4868 H   0  0  0  0  0  0
  -21.1102  -13.1445   22.2592 H   0  0  0  0  0  0
  -24.6688  -15.8448   20.5285 H   0  0  0  0  0  0
  -26.2878  -15.6166   20.0968 H   0  0  0  0  0  0
  -26.7201  -32.5449   23.1060 H   0  0  0  0  0  0
  -25.0176  -33.9716   25.0458 H   0  0  0  0  0  0
  -22.7127  -31.3048   21.4012 H   0  0  0  0  0  0
  -23.3759  -35.9619   23.3291 H   0  0  0  0  0  0
  -24.3595  -36.8871   22.2028 H   0  0  0  0  0  0
  -23.7256  -37.6486   23.6619 H   0  0  0  0  0  0
  -26.1142  -31.5344   20.6189 H   0  0  0  0  0  0
  -26.8393  -30.8135   22.0246 H   0  0  0  0  0  0
  -28.1144  -28.9311   21.2152 H   0  0  0  0  0  0
  -26.0016  -26.0081   18.8756 H   0  0  0  0  0  0
  -23.9814  -27.3449   18.9505 H   0  0  0  0  0  0
  -23.7744  -30.6009   19.4094 H   0  0  0  0  0  0
  -22.7544  -29.2619   19.8466 H   0  0  0  0  0  0
  -25.1288  -36.1929   25.0810 H   0  0  0  0  0  0
  -20.9985  -28.3282   24.1399 H   0  0  0  0  0  0
  -20.5653  -26.2267   23.3626 H   0  0  0  0  0  0
  -21.6682  -26.7404   22.1246 H   0  0  0  0  0  0
  -19.6921  -25.6199   21.1310 H   0  0  0  0  0  0
  -19.6719  -27.3075   20.6702 H   0  0  0  0  0  0
  -17.4205  -26.6607   21.4048 H   0  0  0  0  0  0
  -18.0400  -26.0017   22.9005 H   0  0  0  0  0  0
  -19.7953  -30.7277   24.2201 H   0  0  0  0  0  0
  -17.5014  -31.6234   24.5174 H   0  0  0  0  0  0
  -15.5345  -30.2958   23.7597 H   0  0  0  0  0  0
  -15.8705  -28.0794   22.7044 H   0  0  0  0  0  0
  -24.5970  -30.7018   25.7851 H   0  0  0  0  0  0
  -24.8856  -32.2945   26.4744 H   0  0  0  0  0  0
  -25.8065  -30.9102   27.0308 H   0  0  0  0  0  0
  -26.2852  -29.6724   24.1202 H   0  0  0  0  0  0
  -27.3869  -29.7181   25.4760 H   0  0  0  0  0  0
  -27.8812  -30.4126   23.9504 H   0  0  0  0  0  0
  -27.2723  -33.3557   26.2089 H   0  0  0  0  0  0
  -28.3894  -32.6791   25.0294 H   0  0  0  0  0  0
  -28.0764  -31.8355   26.5378 H   0  0  0  0  0  0
  -28.2614  -38.0083   24.7489 H   0  0  0  0  0  0
  -28.1068  -36.2609   24.6296 H   0  0  0  0  0  0
  -27.2329  -37.1479   25.8876 H   0  0  0  0  0  0
  -20.9294  -29.8802   21.6958 H   0  0  0  0  0  0
  -26.0183  -38.2853   24.1382 H   0  0  0  0  0  0
  -28.9968  -20.0680   22.1361 H   0  0  0  0  0  0
  -29.5087  -17.7385   22.6801 H   0  0  0  0  0  0
  -29.5829  -19.1617   17.9479 H   0  0  0  0  0  0
  -26.3112  -22.2121   17.3527 H   0  0  0  0  0  0
  -26.0439  -21.6830   18.9919 H   0  0  0  0  0  0
  -26.0768  -24.0179   19.0132 H   0  0  0  0  0  0
  -27.5522  -24.1831   18.0722 H   0  0  0  0  0  0
  -28.7421  -21.7361   17.5572 H   0  0  0  0  0  0
  -27.7440  -20.3488   17.9182 H   0  0  0  0  0  0
  -27.1121  -23.2829   20.8789 H   0  0  0  0  0  0
  -29.1659  -25.0152   21.2758 H   0  0  0  0  0  0
  -27.5091  -25.2506   21.6025 H   0  0  0  0  0  0
  -29.1219  -15.3359   21.5705 H   0  0  0  0  0  0
  1 25  1  0  0  0
  1 30  2  0  0  0
  1 84  1  0  0  0
  2  3  1  0  0  0
  2 25  1  0  0  0
  2 87  1  0  0  0
  2 88  1  0  0  0
  3  4  1  0  0  0
  3 89  1  0  0  0
  3 90  1  0  0  0
  4  5  1  0  0  0
  4 91  1  0  0  0
  4 92  1  0  0  0
  5  6  1  0  0  0
  5 26  1  0  0  0
  5 93  1  0  0  0
  6 25  1  0  0  0
  6 94  1  0  0  0
  6 95  1  0  0  0
  7  8  2  0  0  0
  7 26  1  0  0  0
  7 29  1  0  0  0
  8  9  1  0  0  0
  8 22  1  0  0  0
  9 10  1  0  0  0
  9 27  2  0  0  0
 10 11  2  0  0  0
 10 15  1  0  0  0
 11 12  1  0  0  0
 11 96  1  0  0  0
 12 13  2  0  0  0
 12 97  1  0  0  0
 13 14  1  0  0  0
 13 31  1  0  0  0
 14 15  2  0  0  0
 14 98  1  0  0  0
 15 99  1  0  0  0
 16 17  2  0  0  0
 16 21  1  0  0  0
 16 31  1  0  0  0
 17 18  1  0  0  0
 17100  1  0  0  0
 18 19  2  0  0  0
 18101  1  0  0  0
 19 20  1  0  0  0
 19 24  1  0  0  0
 20 21  2  0  0  0
 20102  1  0  0  0
 21 23  1  0  0  0
 22 28  1  0  0  0
 22 32  2  0  0  0
 26 27  1  0  0  0
 28103  1  0  0  0
 28104  1  0  0  0
 29105  1  0  0  0
 29106  1  0  0  0
 33 34  1  0  0  0
 33 66  1  0  0  0
 33 70  2  0  0  0
 34 36  1  0  0  0
 34 59  1  0  0  0
 34107  1  0  0  0
 35 44  2  0  0  0
 35 45  1  0  0  0
 35 68  1  0  0  0
 36 56  1  0  0  0
 36108  1  0  0  0
 37 39  1  0  0  0
 37 47  1  0  0  0
 37 66  1  0  0  0
 37109  1  0  0  0
 38 43  2  0  0  0
 38 46  1  0  0  0
 38 47  1  0  0  0
 39 64  1  0  0  0
 39 67  2  0  0  0
 40 52  1  0  0  0
 40 53  2  0  0  0
 40 58  1  0  0  0
 41110  1  0  0  0
 41111  1  0  0  0
 41112  1  0  0  0
 41 48  1  0  0  0
 42 43  1  0  0  0
 42 66  1  0  0  0
 42113  1  0  0  0
 42114  1  0  0  0
 43 44  1  0  0  0
 44115  1  0  0  0
 45 46  2  0  0  0
 45116  1  0  0  0
 46117  1  0  0  0
 47118  1  0  0  0
 47119  1  0  0  0
 48 56  1  0  0  0
 48 65  1  0  0  0
 48120  1  0  0  0
 49 50  1  0  0  0
 49 53  1  0  0  0
 49 64  1  0  0  0
 49121  1  0  0  0
 50 51  1  0  0  0
 50122  1  0  0  0
 50123  1  0  0  0
 51 52  1  0  0  0
 51124  1  0  0  0
 51125  1  0  0  0
 52126  1  0  0  0
 52127  1  0  0  0
 53 54  1  0  0  0
 54 55  2  0  0  0
 54128  1  0  0  0
 55 57  1  0  0  0
 55129  1  0  0  0
 56 69  2  0  0  0
 57 58  2  0  0  0
 57130  1  0  0  0
 58131  1  0  0  0
 59 60  1  0  0  0
 59 61  1  0  0  0
 59 62  1  0  0  0
 60132  1  0  0  0
 60133  1  0  0  0
 60134  1  0  0  0
 61135  1  0  0  0
 61136  1  0  0  0
 61137  1  0  0  0
 62138  1  0  0  0
 62139  1  0  0  0
 62140  1  0  0  0
 63 65  1  0  0  0
 63141  1  0  0  0
 63142  1  0  0  0
 63143  1  0  0  0
 64144  1  0  0  0
 65145  1  0  0  0
 68 82  1  0  0  0
 71 72  2  0  0  0
 71 74  1  0  0  0
 71146  1  0  0  0
 72 75  1  0  0  0
 72147  1  0  0  0
 73 74  2  0  0  0
 73 76  1  0  0  0
 73148  1  0  0  0
 74 83  1  0  0  0
 75 76  2  0  0  0
 75 84  1  0  0  0
 76 86  1  0  0  0
 77 81  1  0  0  0
 77 83  1  0  0  0
 77 85  2  0  0  0
 78 79  1  0  0  0
 78 80  1  0  0  0
 78149  1  0  0  0
 78150  1  0  0  0
 79 81  1  0  0  0
 79151  1  0  0  0
 79152  1  0  0  0
 80 83  1  0  0  0
 80153  1  0  0  0
 80154  1  0  0  0
 81 82  1  0  0  0
 81155  1  0  0  0
 82156  1  0  0  0
 82157  1  0  0  0
 84158  1  0  0  0
M  ISO  4   1 100  68 101  82 101  84 100
M  END
> <chiral flag>
0

> <version>
0

> <s_m_source_file>
/data/baiqing/PycharmProjects/Reinvent-master-3.2/result/LINK_invent/BTK/process_docking_weight1_custom_product_contain_oxygen_bond_distance_aromatic_linkinvent_7_9_3/rearranged_h_0023.sdf

> <i_m_source_file_index>
65

> <r_mmod_Potential_Energy-OPLS-2005>
230.10237121582

> <r_mmod_Stretch_Energy-OPLS-2005>
100.41813659668

> <r_mmod_Bend_Energy-OPLS-2005>
179.377517700195

> <r_mmod_Torsional_Energy-OPLS-2005>
321.13427734375

> <r_mmod_Improper_Torsional_Energy-OPLS-2005>
4.94948530197144

> <r_mmod_Van_der_Waal_Energy-OPLS-2005>
153.889846801758

> <r_mmod_Electrostatic_Energy-OPLS-2005>
-357.914794921875

> <r_mmod_Solvation_Energy-OPLS-2005>
-224.07112121582

> <b_mmod_Minimization_Converged-OPLS-2005>
0

> <r_mmod_RMS_Derivative-OPLS-2005>
5.46569585800171

$$$$
65
                    3D
 Structure written by MMmdl.
182192  0  0  1  0            999 V2000
  -30.5294  -15.1614   20.3580 C   0  0  0  0  0  0
  -30.4121  -12.7447   19.4952 C   0  0  0  0  0  0
  -29.5005  -12.5636   18.2608 C   0  0  0  0  0  0
  -28.0477  -12.3133   18.6987 C   0  0  0  0  0  0
  -27.6085  -13.2716   19.8373 C   0  0  2  0  0  0
  -28.6610  -13.3884   20.9587 C   0  0  0  0  0  0
  -25.2343  -13.8240   20.5777 C   0  0  0  0  0  0
  -24.1697  -13.0429   20.9233 C   0  0  0  0  0  0
  -24.6369  -11.6934   20.8783 C   0  0  0  0  0  0
  -23.9079  -10.4296   21.0410 C   0  0  0  0  0  0
  -24.3630   -9.4204   21.9180 C   0  0  0  0  0  0
  -23.6311   -8.2230   22.0720 C   0  0  0  0  0  0
  -22.4287   -8.0278   21.3516 C   0  0  0  0  0  0
  -21.9917   -9.0252   20.4615 C   0  0  0  0  0  0
  -22.7247  -10.2141   20.3045 C   0  0  0  0  0  0
  -21.6860   -6.0748   22.5282 C   0  0  0  0  0  0
  -21.4023   -6.5645   23.8223 C   0  0  0  0  0  0
  -21.3661   -5.6791   24.9185 C   0  0  0  0  0  0
  -21.6046   -4.3054   24.7226 C   0  0  0  0  0  0
  -21.8822   -3.8150   23.4348 C   0  0  0  0  0  0
  -21.9190   -4.6971   22.3410 C   0  0  0  0  0  0
  -22.7728  -13.5163   21.1910 C   0  0  0  0  0  0
  -22.1640   -4.2159   21.0984 F   0  0  0  0  0  0
  -21.5639   -3.4532   25.7735 F   0  0  0  0  0  0
  -29.8781  -13.9006   20.3065 N   0  0  0  0  0  0
  -26.2810  -12.9530   20.3393 N   0  0  0  0  0  0
  -25.9324  -11.6630   20.5838 N   0  0  0  0  0  0
  -22.0433  -12.8136   22.0499 N   0  0  0  0  0  0
  -25.4001  -15.1970   20.4253 N   0  0  0  0  0  0
  -31.7570  -15.0203   20.2656 O   0  0  0  0  0  0
  -21.6635   -6.8885   21.4237 O   0  0  0  0  0  0
  -22.3400  -14.5457   20.6744 O   0  0  0  0  0  0
  -24.6569  -31.8335   23.1785 C   0  0  0  0  0  0
  -25.9290  -32.4631   23.8234 C   0  0  1  0  0  0
  -27.2119  -27.0142   20.1761 C   0  0  0  0  0  0
  -25.5985  -33.8439   24.2156 N   0  0  0  0  0  0
  -23.4671  -30.4485   21.5266 C   0  0  2  0  0  0
  -24.9155  -28.8526   20.1078 C   0  0  0  0  0  0
  -22.7637  -29.4522   22.4839 C   0  0  0  0  0  0
  -18.0310  -28.1435   22.8439 C   0  0  0  0  0  0
  -24.1489  -36.7225   23.2661 C   0  0  0  0  0  0
  -26.0309  -30.6639   21.3983 C   0  0  0  0  0  0
  -26.0944  -29.2631   20.7430 C   0  0  0  0  0  0
  -27.2368  -28.3598   20.7634 C   0  0  0  0  0  0
  -26.0162  -26.7417   19.4781 C   0  0  0  0  0  0
  -24.8969  -27.6074   19.4591 C   0  0  0  0  0  0
  -23.6978  -29.7696   20.1485 C   0  0  0  0  0  0
  -25.4125  -36.3007   24.0332 C   0  0  1  0  0  0
  -20.5936  -28.3777   23.1197 C   0  0  2  0  0  0
  -20.6813  -26.9464   22.5415 C   0  0  0  0  0  0
  -19.5801  -26.6393   21.5222 C   0  0  0  0  0  0
  -18.1959  -26.7969   22.1592 C   0  0  0  0  0  0
  -19.1567  -28.8923   23.2796 C   0  0  0  0  0  0
  -18.9487  -30.1509   23.8838 C   0  0  0  0  0  0
  -17.6481  -30.6609   24.0567 C   0  0  0  0  0  0
  -25.9084  -34.9376   23.5062 C   0  0  0  0  0  0
  -16.5369  -29.9104   23.6351 C   0  0  0  0  0  0
  -16.7291  -28.6537   23.0337 C   0  0  0  0  0  0
  -26.4549  -31.6543   25.0728 C   0  0  0  0  0  0
  -25.3702  -31.3746   26.1406 C   0  0  0  0  0  0
  -27.0459  -30.2924   24.6416 C   0  0  0  0  0  0
  -27.6075  -32.4329   25.7490 C   0  0  0  0  0  0
  -27.5581  -37.1767   24.8470 C   0  0  0  0  0  0
  -21.4320  -29.3066   22.3558 N   0  0  0  0  0  0
  -26.4284  -37.3731   23.9419 N   0  0  0  0  0  0
  -24.7391  -31.0089   22.0872 N   0  0  0  0  0  0
  -23.4203  -28.8115   23.3086 O   0  0  0  0  0  0
  -28.2212  -25.9516   20.2880 O   0  0  0  0  0  0
  -26.5678  -34.8908   22.4643 O   0  0  0  0  0  0
  -23.5660  -32.1271   23.6921 O   0  0  0  0  0  0
  -31.5236  -17.2336   18.4963 C   0  0  0  0  0  0
  -32.4183  -18.0792   17.8554 C   0  0  0  0  0  0
  -31.5648  -19.9698   19.1455 C   0  0  0  0  0  0
  -30.6496  -17.6703   19.5211 C   0  0  0  0  0  0
  -30.4830  -19.1645   19.6732 C   0  0  0  0  0  0
  -32.5079  -19.4200   18.2300 C   0  0  0  0  0  0
  -28.8533  -17.0951   20.8499 C   0  0  0  0  0  0
  -28.4595  -18.6820   20.7271 C   0  0  0  0  0  0
  -32.9758  -22.6659   23.6131 C   0  0  0  0  0  0
  -33.7841  -23.1514   22.4051 C   0  0  0  0  0  0
  -32.5400  -21.2160   23.3857 C   0  0  0  0  0  0
  -32.9938  -22.9757   21.0951 C   0  0  0  0  0  0
  -31.7554  -21.0710   22.0696 C   0  0  0  0  0  0
  -31.8144  -21.4259   19.5835 C   0  0  0  0  0  0
  -28.7549  -22.9075   20.5360 C   0  0  0  0  0  0
  -28.6878  -21.2674   19.8735 C   0  0  0  0  0  0
  -34.8941  -19.6689   17.9055 C   0  0  0  0  0  0
  -28.0184  -24.3888   19.9440 C   0  0  0  0  0  0
  -35.9409  -20.7343   17.5751 C   0  0  0  0  0  0
  -29.9724  -16.5454   20.2603 N   0  0  0  0  0  0
  -29.3569  -19.8499   20.3334 N   0  0  0  0  0  0
  -33.5478  -20.1662   17.6530 N   0  0  0  0  0  0
  -32.5194  -21.5762   20.8919 N   0  3  0  0  0  0
  -28.0678  -16.4094   21.5013 O   0  0  0  0  0  0
  -37.1574  -20.2660   17.8483 F   0  0  0  0  0  0
  -35.7219  -21.8366   18.2952 F   0  0  0  0  0  0
  -31.4371  -12.9021   19.1557 H   0  0  0  0  0  0
  -30.4473  -11.8251   20.0819 H   0  0  0  0  0  0
  -29.8514  -11.7338   17.6466 H   0  0  0  0  0  0
  -29.5486  -13.4547   17.6333 H   0  0  0  0  0  0
  -27.9865  -11.2813   19.0465 H   0  0  0  0  0  0
  -27.3676  -12.3870   17.8490 H   0  0  0  0  0  0
  -27.5381  -14.2565   19.3730 H   0  0  0  0  0  0
  -28.8301  -12.4228   21.4384 H   0  0  0  0  0  0
  -28.3309  -14.0454   21.7594 H   0  0  0  0  0  0
  -25.2769   -9.5688   22.4779 H   0  0  0  0  0  0
  -24.0035   -7.4604   22.7422 H   0  0  0  0  0  0
  -21.0850   -8.8786   19.8904 H   0  0  0  0  0  0
  -22.3693  -10.9694   19.6169 H   0  0  0  0  0  0
  -21.2014   -7.6151   23.9743 H   0  0  0  0  0  0
  -21.1476   -6.0512   25.9096 H   0  0  0  0  0  0
  -22.0592   -2.7610   23.2848 H   0  0  0  0  0  0
  -22.4126  -11.9801   22.4844 H   0  0  0  0  0  0
  -21.1033  -13.1065   22.2736 H   0  0  0  0  0  0
  -24.6440  -15.8472   20.6097 H   0  0  0  0  0  0
  -26.3162  -15.6319   20.4428 H   0  0  0  0  0  0
  -26.7387  -32.5184   23.0982 H   0  0  0  0  0  0
  -25.0135  -33.9530   25.0312 H   0  0  0  0  0  0
  -22.7777  -31.2784   21.3623 H   0  0  0  0  0  0
  -23.3770  -35.9533   23.3279 H   0  0  0  0  0  0
  -24.3605  -36.8885   22.2090 H   0  0  0  0  0  0
  -23.7197  -37.6392   23.6714 H   0  0  0  0  0  0
  -26.2106  -31.4040   20.6172 H   0  0  0  0  0  0
  -26.8938  -30.7155   22.0520 H   0  0  0  0  0  0
  -28.1220  -28.6611   21.3054 H   0  0  0  0  0  0
  -25.9079  -25.7961   18.9685 H   0  0  0  0  0  0
  -24.0029  -27.2803   18.9463 H   0  0  0  0  0  0
  -23.8460  -30.5401   19.3913 H   0  0  0  0  0  0
  -22.8059  -29.2224   19.8374 H   0  0  0  0  0  0
  -25.1309  -36.1847   25.0826 H   0  0  0  0  0  0
  -20.9996  -28.3390   24.1337 H   0  0  0  0  0  0
  -20.5741  -26.2393   23.3657 H   0  0  0  0  0  0
  -21.6676  -26.7505   22.1205 H   0  0  0  0  0  0
  -19.6980  -25.6296   21.1277 H   0  0  0  0  0  0
  -19.6748  -27.3181   20.6742 H   0  0  0  0  0  0
  -17.4255  -26.6700   21.3971 H   0  0  0  0  0  0
  -18.0333  -26.0128   22.9007 H   0  0  0  0  0  0
  -19.7965  -30.7328   24.2176 H   0  0  0  0  0  0
  -17.5045  -31.6283   24.5194 H   0  0  0  0  0  0
  -15.5371  -30.2994   23.7743 H   0  0  0  0  0  0
  -15.8684  -28.0868   22.7072 H   0  0  0  0  0  0
  -24.5960  -30.6993   25.7753 H   0  0  0  0  0  0
  -24.8796  -32.2905   26.4704 H   0  0  0  0  0  0
  -25.7994  -30.9051   27.0268 H   0  0  0  0  0  0
  -26.3145  -29.6582   24.1402 H   0  0  0  0  0  0
  -27.4007  -29.7302   25.5066 H   0  0  0  0  0  0
  -27.9065  -30.4141   23.9833 H   0  0  0  0  0  0
  -27.2698  -33.3695   26.1936 H   0  0  0  0  0  0
  -28.3927  -32.6764   25.0321 H   0  0  0  0  0  0
  -28.0691  -31.8523   26.5485 H   0  0  0  0  0  0
  -28.2580  -38.0087   24.7540 H   0  0  0  0  0  0
  -28.1082  -36.2611   24.6244 H   0  0  0  0  0  0
  -27.2310  -37.1366   25.8878 H   0  0  0  0  0  0
  -20.9604  -29.8685   21.6615 H   0  0  0  0  0  0
  -26.0141  -38.2803   24.1387 H   0  0  0  0  0  0
  -31.5706  -16.2025   18.1813 H   0  0  0  0  0  0
  -33.0834  -17.6598   17.1138 H   0  0  0  0  0  0
  -28.0320  -18.9563   21.6932 H   0  0  0  0  0  0
  -27.6121  -18.7036   20.0411 H   0  0  0  0  0  0
  -32.0996  -23.3000   23.7530 H   0  0  0  0  0  0
  -33.5660  -22.7467   24.5281 H   0  0  0  0  0  0
  -34.7284  -22.6081   22.3494 H   0  0  0  0  0  0
  -34.0426  -24.2031   22.5333 H   0  0  0  0  0  0
  -31.9219  -20.8783   24.2189 H   0  0  0  0  0  0
  -33.4169  -20.5667   23.3707 H   0  0  0  0  0  0
  -33.6268  -23.2787   20.2597 H   0  0  0  0  0  0
  -32.1403  -23.6549   21.0964 H   0  0  0  0  0  0
  -30.8065  -21.6002   22.1533 H   0  0  0  0  0  0
  -31.5162  -20.0171   21.9456 H   0  0  0  0  0  0
  -30.9366  -22.0293   19.5166 H   0  0  0  0  0  0
  -32.4158  -21.9361   18.8361 H   0  0  0  0  0  0
  -29.7881  -23.1938   20.6962 H   0  0  0  0  0  0
  -28.3910  -22.8066   21.5582 H   0  0  0  0  0  0
  -28.9316  -21.3628   18.8136 H   0  0  0  0  0  0
  -27.6189  -21.0509   19.8420 H   0  0  0  0  0  0
  -34.9828  -19.3843   18.9555 H   0  0  0  0  0  0
  -35.0846  -18.7747   17.3106 H   0  0  0  0  0  0
  -26.9495  -24.2048   20.0499 H   0  0  0  0  0  0
  -28.1909  -24.3604   18.8680 H   0  0  0  0  0  0
  -35.9221  -21.0079   16.5183 H   0  0  0  0  0  0
  -33.4894  -21.1785   17.6516 H   0  0  0  0  0  0
  -33.3477  -21.0053   20.8224 H   0  0  0  0  0  0
  1 25  1  0  0  0
  1 30  2  0  0  0
  1 90  1  0  0  0
  2  3  1  0  0  0
  2 25  1  0  0  0
  2 97  1  0  0  0
  2 98  1  0  0  0
  3  4  1  0  0  0
  3 99  1  0  0  0
  3100  1  0  0  0
  4  5  1  0  0  0
  4101  1  0  0  0
  4102  1  0  0  0
  5  6  1  0  0  0
  5 26  1  0  0  0
  5103  1  0  0  0
  6 25  1  0  0  0
  6104  1  0  0  0
  6105  1  0  0  0
  7  8  2  0  0  0
  7 26  1  0  0  0
  7 29  1  0  0  0
  8  9  1  0  0  0
  8 22  1  0  0  0
  9 10  1  0  0  0
  9 27  2  0  0  0
 10 11  2  0  0  0
 10 15  1  0  0  0
 11 12  1  0  0  0
 11106  1  0  0  0
 12 13  2  0  0  0
 12107  1  0  0  0
 13 14  1  0  0  0
 13 31  1  0  0  0
 14 15  2  0  0  0
 14108  1  0  0  0
 15109  1  0  0  0
 16 17  2  0  0  0
 16 21  1  0  0  0
 16 31  1  0  0  0
 17 18  1  0  0  0
 17110  1  0  0  0
 18 19  2  0  0  0
 18111  1  0  0  0
 19 20  1  0  0  0
 19 24  1  0  0  0
 20 21  2  0  0  0
 20112  1  0  0  0
 21 23  1  0  0  0
 22 28  1  0  0  0
 22 32  2  0  0  0
 26 27  1  0  0  0
 28113  1  0  0  0
 28114  1  0  0  0
 29115  1  0  0  0
 29116  1  0  0  0
 33 34  1  0  0  0
 33 66  1  0  0  0
 33 70  2  0  0  0
 34 36  1  0  0  0
 34 59  1  0  0  0
 34117  1  0  0  0
 35 44  2  0  0  0
 35 45  1  0  0  0
 35 68  1  0  0  0
 36 56  1  0  0  0
 36118  1  0  0  0
 37 39  1  0  0  0
 37 47  1  0  0  0
 37 66  1  0  0  0
 37119  1  0  0  0
 38 43  2  0  0  0
 38 46  1  0  0  0
 38 47  1  0  0  0
 39 64  1  0  0  0
 39 67  2  0  0  0
 40 52  1  0  0  0
 40 53  2  0  0  0
 40 58  1  0  0  0
 41120  1  0  0  0
 41121  1  0  0  0
 41122  1  0  0  0
 41 48  1  0  0  0
 42 43  1  0  0  0
 42 66  1  0  0  0
 42123  1  0  0  0
 42124  1  0  0  0
 43 44  1  0  0  0
 44125  1  0  0  0
 45 46  2  0  0  0
 45126  1  0  0  0
 46127  1  0  0  0
 47128  1  0  0  0
 47129  1  0  0  0
 48 56  1  0  0  0
 48 65  1  0  0  0
 48130  1  0  0  0
 49 50  1  0  0  0
 49 53  1  0  0  0
 49 64  1  0  0  0
 49131  1  0  0  0
 50 51  1  0  0  0
 50132  1  0  0  0
 50133  1  0  0  0
 51 52  1  0  0  0
 51134  1  0  0  0
 51135  1  0  0  0
 52136  1  0  0  0
 52137  1  0  0  0
 53 54  1  0  0  0
 54 55  2  0  0  0
 54138  1  0  0  0
 55 57  1  0  0  0
 55139  1  0  0  0
 56 69  2  0  0  0
 57 58  2  0  0  0
 57140  1  0  0  0
 58141  1  0  0  0
 59 60  1  0  0  0
 59 61  1  0  0  0
 59 62  1  0  0  0
 60142  1  0  0  0
 60143  1  0  0  0
 60144  1  0  0  0
 61145  1  0  0  0
 61146  1  0  0  0
 61147  1  0  0  0
 62148  1  0  0  0
 62149  1  0  0  0
 62150  1  0  0  0
 63 65  1  0  0  0
 63151  1  0  0  0
 63152  1  0  0  0
 63153  1  0  0  0
 64154  1  0  0  0
 65155  1  0  0  0
 68 88  1  0  0  0
 71 72  2  0  0  0
 71 74  1  0  0  0
 71156  1  0  0  0
 72 76  1  0  0  0
 72157  1  0  0  0
 73 75  1  0  0  0
 73 76  2  0  0  0
 73 84  1  0  0  0
 74 75  2  0  0  0
 74 90  1  0  0  0
 75 91  1  0  0  0
 76 92  1  0  0  0
 77 78  1  0  0  0
 77 90  1  0  0  0
 77 94  2  0  0  0
 78 91  1  0  0  0
 78158  1  0  0  0
 78159  1  0  0  0
 79 80  1  0  0  0
 79 81  1  0  0  0
 79160  1  0  0  0
 79161  1  0  0  0
 80 82  1  0  0  0
 80162  1  0  0  0
 80163  1  0  0  0
 81 83  1  0  0  0
 81164  1  0  0  0
 81165  1  0  0  0
 82 93  1  0  0  0
 82166  1  0  0  0
 82167  1  0  0  0
 83 93  1  0  0  0
 83168  1  0  0  0
 83169  1  0  0  0
 84170  1  0  0  0
 84171  1  0  0  0
 84 93  1  0  0  0
 85 86  1  0  0  0
 85 88  1  0  0  0
 85172  1  0  0  0
 85173  1  0  0  0
 86 91  1  0  0  0
 86174  1  0  0  0
 86175  1  0  0  0
 87 89  1  0  0  0
 87 92  1  0  0  0
 87176  1  0  0  0
 87177  1  0  0  0
 88178  1  0  0  0
 88179  1  0  0  0
 89 95  1  0  0  0
 89 96  1  0  0  0
 89180  1  0  0  0
 92181  1  0  0  0
 93182  1  0  0  0
M  CHG  1  93   1
M  ISO  4   1 100  68 101  88 101  90 100
M  END
> <chiral flag>
0

> <version>
0

> <s_m_source_file>
/data/baiqing/PycharmProjects/Reinvent-master-3.2/result/LINK_invent/BTK/process_docking_weight1_custom_product_contain_oxygen_bond_distance_aromatic_linkinvent_7_9_3/rearranged_h_0023.sdf

> <i_m_source_file_index>
66

> <r_mmod_Potential_Energy-OPLS-2005>
1135.04418945312

> <r_mmod_Stretch_Energy-OPLS-2005>
472.894775390625

> <r_mmod_Bend_Energy-OPLS-2005>
438.357147216797

> <r_mmod_Torsional_Energy-OPLS-2005>
331.399200439453

> <r_mmod_Improper_Torsional_Energy-OPLS-2005>
13.7216663360596

> <r_mmod_Van_der_Waal_Energy-OPLS-2005>
182.576812744141

> <r_mmod_Electrostatic_Energy-OPLS-2005>
-220.46875

> <r_mmod_Solvation_Energy-OPLS-2005>
-428.044219970703

> <b_mmod_Minimization_Converged-OPLS-2005>
0

> <r_mmod_RMS_Derivative-OPLS-2005>
2.94450974464417

$$$$
66
                    3D
 Structure written by MMmdl.
162171  0  0  1  0            999 V2000
  -29.3362  -15.9187   20.4960 C   0  0  0  0  0  0
  -30.2454  -13.4163   19.6406 C   0  0  0  0  0  0
  -29.5138  -12.7555   18.4192 C   0  0  0  0  0  0
  -28.1170  -12.2523   18.8113 C   0  0  0  0  0  0
  -27.4884  -13.2406   19.8079 C   0  0  2  0  0  0
  -28.3744  -13.5405   21.0089 C   0  0  0  0  0  0
  -25.1812  -13.8035   20.5626 C   0  0  0  0  0  0
  -24.1313  -13.0271   20.9414 C   0  0  0  0  0  0
  -24.5967  -11.6760   20.8884 C   0  0  0  0  0  0
  -23.8790  -10.4170   21.0536 C   0  0  0  0  0  0
  -24.3458   -9.4111   21.9263 C   0  0  0  0  0  0
  -23.6201   -8.2120   22.0772 C   0  0  0  0  0  0
  -22.4187   -8.0173   21.3548 C   0  0  0  0  0  0
  -21.9773   -9.0119   20.4652 C   0  0  0  0  0  0
  -22.7032  -10.2023   20.3108 C   0  0  0  0  0  0
  -21.6809   -6.0680   22.5289 C   0  0  0  0  0  0
  -21.3984   -6.5610   23.8216 C   0  0  0  0  0  0
  -21.3638   -5.6777   24.9187 C   0  0  0  0  0  0
  -21.6031   -4.3037   24.7249 C   0  0  0  0  0  0
  -21.8821   -3.8115   23.4377 C   0  0  0  0  0  0
  -21.9177   -4.6919   22.3425 C   0  0  0  0  0  0
  -22.7423  -13.5122   21.2085 C   0  0  0  0  0  0
  -22.1656   -4.2112   21.1002 F   0  0  0  0  0  0
  -21.5625   -3.4524   25.7765 F   0  0  0  0  0  0
  -29.3385  -14.4322   20.4141 N   0  0  0  0  0  0
  -26.1883  -12.9101   20.2741 N   0  0  0  0  0  0
  -25.8753  -11.6295   20.5535 N   0  0  0  0  0  0
  -22.0040  -12.8180   22.0644 N   0  0  0  0  0  0
  -25.3527  -15.1771   20.3913 N   0  0  0  0  0  0
  -30.5770  -16.1241   20.2835 O   0  0  0  0  0  0
  -21.6566   -6.8783   21.4237 O   0  0  0  0  0  0
  -22.3248  -14.5467   20.6892 O   0  0  0  0  0  0
  -24.6564  -31.9490   23.2447 C   0  0  0  0  0  0
  -25.9554  -32.5141   23.8626 C   0  0  1  0  0  0
  -25.4203  -27.2734   20.6263 C   0  0  0  0  0  0
  -25.6436  -33.8890   24.2581 N   0  0  0  0  0  0
  -23.4498  -30.5002   21.7290 C   0  0  2  0  0  0
  -24.7697  -29.4405   19.7185 C   0  0  0  0  0  0
  -23.2767  -29.3525   22.8216 C   0  0  0  0  0  0
  -18.9948  -27.3676   22.0766 C   0  0  0  0  0  0
  -24.1521  -36.7355   23.2587 C   0  0  0  0  0  0
  -25.9553  -30.8336   21.4215 C   0  0  0  0  0  0
  -25.8338  -29.5535   20.6215 C   0  0  0  0  0  0
  -26.3640  -28.3118   21.0088 C   0  0  0  0  0  0
  -25.4613  -27.1474   19.2616 C   0  0  0  0  0  0
  -24.7040  -28.2679   18.8910 C   0  0  0  0  0  0
  -23.5331  -30.1910   20.1626 C   0  0  0  0  0  0
  -25.4148  -36.3237   24.0319 C   0  0  1  0  0  0
  -21.6199  -27.5563   23.7916 C   0  0  2  0  0  0
  -21.8290  -25.5365   23.6457 C   0  0  0  0  0  0
  -20.2633  -24.5319   22.4737 C   0  0  0  0  0  0
  -18.9014  -25.6881   21.7736 C   0  0  0  0  0  0
  -20.2726  -28.2413   23.2705 C   0  0  0  0  0  0
  -19.9450  -29.8769   23.5398 C   0  0  0  0  0  0
  -18.6884  -30.5832   22.9286 C   0  0  0  0  0  0
  -25.9184  -34.9649   23.5145 C   0  0  0  0  0  0
  -17.6782  -29.8674   22.0069 C   0  0  0  0  0  0
  -17.7898  -28.3551   21.5649 C   0  0  0  0  0  0
  -26.4724  -31.6780   25.0959 C   0  0  0  0  0  0
  -25.3830  -31.3731   26.1516 C   0  0  0  0  0  0
  -27.0881  -30.3334   24.6463 C   0  0  0  0  0  0
  -27.6149  -32.4526   25.7907 C   0  0  0  0  0  0
  -27.5621  -37.1873   24.8453 C   0  0  0  0  0  0
  -22.1409  -28.7968   23.1201 N   0  0  0  0  0  0
  -26.4309  -37.3930   23.9443 N   0  0  0  0  0  0
  -24.6979  -31.1872   22.1260 N   0  0  0  0  0  0
  -24.1898  -28.8753   23.4500 O   0  0  0  0  0  0
  -23.9647  -27.3983   21.1435 O   0  0  0  0  0  0
  -26.5534  -34.9031   22.4585 O   0  0  0  0  0  0
  -23.5800  -32.2169   23.7998 O   0  0  0  0  0  0
  -25.7712  -20.8951   22.0588 C   0  0  0  0  0  0
  -26.7177  -19.6178   21.9165 C   0  0  0  0  0  0
  -25.2704  -20.7771   20.0243 C   0  0  0  0  0  0
  -24.8453  -21.7498   21.1586 C   0  0  0  0  0  0
  -27.1490  -18.6505   20.7934 C   0  0  0  0  0  0
  -26.2120  -19.4790   19.8669 C   0  0  0  0  0  0
  -18.2988  -26.9300   24.4676 C   0  0  0  0  0  0
  -18.1432  -28.4313   23.8718 C   0  0  0  0  0  0
  -19.6654  -26.1209   23.9957 C   0  0  0  0  0  0
  -20.1842  -29.0782   21.2541 C   0  0  0  0  0  0
  -21.3662  -26.2977   21.6050 C   0  0  1  0  0  0
  -21.9736  -27.7133   20.9076 C   0  0  2  0  0  0
  -22.7379  -24.6320   21.0367 C   0  0  0  0  0  0
  -28.0507  -16.9909   20.6792 N   0  0  0  0  0  0
  -23.8084  -23.1352   21.4912 N   0  0  0  0  0  0
  -26.1575  -18.8115   18.2753 Cl  0  0  0  0  0  0
  -31.1303  -13.9287   19.2618 H   0  0  0  0  0  0
  -30.6409  -12.6585   20.3177 H   0  0  0  0  0  0
  -30.1125  -11.9507   17.9896 H   0  0  0  0  0  0
  -29.3996  -13.5083   17.6394 H   0  0  0  0  0  0
  -28.2184  -11.2766   19.2888 H   0  0  0  0  0  0
  -27.4834  -12.1098   17.9358 H   0  0  0  0  0  0
  -27.3474  -14.1471   19.2159 H   0  0  0  0  0  0
  -28.7891  -12.6387   21.4639 H   0  0  0  0  0  0
  -27.8344  -14.0698   21.7971 H   0  0  0  0  0  0
  -25.2583   -9.5627   22.4855 H   0  0  0  0  0  0
  -23.9919   -7.4498   22.7469 H   0  0  0  0  0  0
  -21.0707   -8.8595   19.8966 H   0  0  0  0  0  0
  -22.3465  -10.9576   19.6241 H   0  0  0  0  0  0
  -21.1976   -7.6115   23.9720 H   0  0  0  0  0  0
  -21.1460   -6.0505   25.9093 H   0  0  0  0  0  0
  -22.0627   -2.7578   23.2882 H   0  0  0  0  0  0
  -22.3576  -11.9824   22.5061 H   0  0  0  0  0  0
  -21.0687  -13.1302   22.2856 H   0  0  0  0  0  0
  -24.4638  -15.6598   20.4703 H   0  0  0  0  0  0
  -25.7875  -15.4132   19.5078 H   0  0  0  0  0  0
  -26.7587  -32.5553   23.1287 H   0  0  0  0  0  0
  -25.0772  -34.0055   25.0854 H   0  0  0  0  0  0
  -22.5983  -31.1741   21.8381 H   0  0  0  0  0  0
  -23.3848  -35.9618   23.3201 H   0  0  0  0  0  0
  -24.3643  -36.9011   22.2016 H   0  0  0  0  0  0
  -23.7176  -37.6511   23.6609 H   0  0  0  0  0  0
  -26.2153  -31.6457   20.7409 H   0  0  0  0  0  0
  -26.8041  -30.7037   22.0825 H   0  0  0  0  0  0
  -26.8811  -28.2719   21.9572 H   0  0  0  0  0  0
  -25.1510  -26.2332   18.7756 H   0  0  0  0  0  0
  -23.9323  -28.1566   18.1419 H   0  0  0  0  0  0
  -23.5816  -31.1534   19.6522 H   0  0  0  0  0  0
  -22.6249  -29.7595   19.7581 H   0  0  0  0  0  0
  -25.1283  -36.2099   25.0800 H   0  0  0  0  0  0
  -21.7372  -27.7906   24.8508 H   0  0  0  0  0  0
  -21.8457  -25.0935   24.6449 H   0  0  0  0  0  0
  -22.8534  -25.3012   23.3575 H   0  0  0  0  0  0
  -19.8137  -23.7231   23.0557 H   0  0  0  0  0  0
  -20.5992  -23.8797   21.6745 H   0  0  0  0  0  0
  -18.7830  -25.5313   20.7006 H   0  0  0  0  0  0
  -17.9389  -25.3419   22.1527 H   0  0  0  0  0  0
  -20.5904  -30.4680   24.1774 H   0  0  0  0  0  0
  -18.5166  -31.6245   23.1639 H   0  0  0  0  0  0
  -16.8378  -30.4389   21.6400 H   0  0  0  0  0  0
  -17.0116  -27.9427   20.9376 H   0  0  0  0  0  0
  -24.6124  -30.7035   25.7674 H   0  0  0  0  0  0
  -24.8880  -32.2823   26.4947 H   0  0  0  0  0  0
  -25.8062  -30.8871   27.0316 H   0  0  0  0  0  0
  -26.3788  -29.6977   24.1269 H   0  0  0  0  0  0
  -27.4467  -29.7592   25.5015 H   0  0  0  0  0  0
  -27.9477  -30.4824   23.9924 H   0  0  0  0  0  0
  -27.2644  -33.3735   26.2585 H   0  0  0  0  0  0
  -28.3995  -32.7262   25.0839 H   0  0  0  0  0  0
  -28.0819  -31.8614   26.5795 H   0  0  0  0  0  0
  -28.2552  -38.0258   24.7671 H   0  0  0  0  0  0
  -28.1211  -36.2810   24.6076 H   0  0  0  0  0  0
  -27.2356  -37.1261   25.8847 H   0  0  0  0  0  0
  -21.3538  -29.2656   22.6849 H   0  0  0  0  0  0
  -26.0195  -38.2987   24.1530 H   0  0  0  0  0  0
  -25.7682  -21.2542   23.0774 H   0  0  0  0  0  0
  -27.1552  -19.3384   22.8635 H   0  0  0  0  0  0
  -24.7738  -21.0180   19.0958 H   0  0  0  0  0  0
  -17.4280  -26.3563   24.1483 H   0  0  0  0  0  0
  -18.2172  -26.9496   25.5563 H   0  0  0  0  0  0
  -18.2576  -29.0084   24.8033 H   0  0  0  0  0  0
  -17.0485  -28.5362   23.8035 H   0  0  0  0  0  0
  -19.2868  -25.1537   24.3488 H   0  0  0  0  0  0
  -20.1384  -26.2854   24.9757 H   0  0  0  0  0  0
  -20.5270  -30.1137   21.1814 H   0  0  0  0  0  0
  -19.6750  -29.0253   20.2864 H   0  0  0  0  0  0
  -20.7910  -26.1736   20.6881 H   0  0  0  0  0  0
  -21.9388  -27.5960   19.8224 H   0  0  0  0  0  0
  -23.4761  -25.1750   20.4498 H   0  0  0  0  0  0
  -22.1541  -24.1702   20.2375 H   0  0  0  0  0  0
  -27.2960  -16.3189   20.7740 H   0  0  0  0  0  0
  -23.8154  -23.1908   22.5073 H   0  0  0  0  0  0
  1 25  1  0  0  0
  1 30  2  0  0  0
  1 84  1  0  0  0
  2  3  1  0  0  0
  2 25  1  0  0  0
  2 87  1  0  0  0
  2 88  1  0  0  0
  3  4  1  0  0  0
  3 89  1  0  0  0
  3 90  1  0  0  0
  4  5  1  0  0  0
  4 91  1  0  0  0
  4 92  1  0  0  0
  5  6  1  0  0  0
  5 26  1  0  0  0
  5 93  1  0  0  0
  6 25  1  0  0  0
  6 94  1  0  0  0
  6 95  1  0  0  0
  7  8  2  0  0  0
  7 26  1  0  0  0
  7 29  1  0  0  0
  8  9  1  0  0  0
  8 22  1  0  0  0
  9 10  1  0  0  0
  9 27  2  0  0  0
 10 11  2  0  0  0
 10 15  1  0  0  0
 11 12  1  0  0  0
 11 96  1  0  0  0
 12 13  2  0  0  0
 12 97  1  0  0  0
 13 14  1  0  0  0
 13 31  1  0  0  0
 14 15  2  0  0  0
 14 98  1  0  0  0
 15 99  1  0  0  0
 16 17  2  0  0  0
 16 21  1  0  0  0
 16 31  1  0  0  0
 17 18  1  0  0  0
 17100  1  0  0  0
 18 19  2  0  0  0
 18101  1  0  0  0
 19 20  1  0  0  0
 19 24  1  0  0  0
 20 21  2  0  0  0
 20102  1  0  0  0
 21 23  1  0  0  0
 22 28  1  0  0  0
 22 32  2  0  0  0
 26 27  1  0  0  0
 28103  1  0  0  0
 28104  1  0  0  0
 29105  1  0  0  0
 29106  1  0  0  0
 33 34  1  0  0  0
 33 66  1  0  0  0
 33 70  2  0  0  0
 34 36  1  0  0  0
 34 59  1  0  0  0
 34107  1  0  0  0
 35 44  2  0  0  0
 35 45  1  0  0  0
 35 68  1  0  0  0
 36 56  1  0  0  0
 36108  1  0  0  0
 37 39  1  0  0  0
 37 47  1  0  0  0
 37 66  1  0  0  0
 37109  1  0  0  0
 38 43  2  0  0  0
 38 46  1  0  0  0
 38 47  1  0  0  0
 39 64  1  0  0  0
 39 67  2  0  0  0
 40 52  1  0  0  0
 40 53  2  0  0  0
 40 58  1  0  0  0
 41110  1  0  0  0
 41111  1  0  0  0
 41112  1  0  0  0
 41 48  1  0  0  0
 42 43  1  0  0  0
 42 66  1  0  0  0
 42113  1  0  0  0
 42114  1  0  0  0
 43 44  1  0  0  0
 44115  1  0  0  0
 45 46  2  0  0  0
 45116  1  0  0  0
 46117  1  0  0  0
 47118  1  0  0  0
 47119  1  0  0  0
 48 56  1  0  0  0
 48 65  1  0  0  0
 48120  1  0  0  0
 49 50  1  0  0  0
 49 53  1  0  0  0
 49 64  1  0  0  0
 49121  1  0  0  0
 50 51  1  0  0  0
 50122  1  0  0  0
 50123  1  0  0  0
 51 52  1  0  0  0
 51124  1  0  0  0
 51125  1  0  0  0
 52126  1  0  0  0
 52127  1  0  0  0
 53 54  1  0  0  0
 54 55  2  0  0  0
 54128  1  0  0  0
 55 57  1  0  0  0
 55129  1  0  0  0
 56 69  2  0  0  0
 57 58  2  0  0  0
 57130  1  0  0  0
 58131  1  0  0  0
 59 60  1  0  0  0
 59 61  1  0  0  0
 59 62  1  0  0  0
 60132  1  0  0  0
 60133  1  0  0  0
 60134  1  0  0  0
 61135  1  0  0  0
 61136  1  0  0  0
 61137  1  0  0  0
 62138  1  0  0  0
 62139  1  0  0  0
 62140  1  0  0  0
 63 65  1  0  0  0
 63141  1  0  0  0
 63142  1  0  0  0
 63143  1  0  0  0
 64144  1  0  0  0
 65145  1  0  0  0
 68 82  1  0  0  0
 71 72  2  0  0  0
 71 74  1  0  0  0
 71146  1  0  0  0
 72 75  1  0  0  0
 72147  1  0  0  0
 73 74  2  0  0  0
 73 76  1  0  0  0
 73148  1  0  0  0
 74 85  1  0  0  0
 75 76  2  0  0  0
 75 84  1  0  0  0
 76 86  1  0  0  0
 77 78  1  0  0  0
 77 79  1  0  0  0
 77149  1  0  0  0
 77150  1  0  0  0
 78 80  1  0  0  0
 78151  1  0  0  0
 78152  1  0  0  0
 79 81  1  0  0  0
 79153  1  0  0  0
 79154  1  0  0  0
 80 82  1  0  0  0
 80155  1  0  0  0
 80156  1  0  0  0
 81 82  1  0  0  0
 81 83  1  0  0  0
 81157  1  0  0  0
 82158  1  0  0  0
 83 85  1  0  0  0
 83159  1  0  0  0
 83160  1  0  0  0
 84161  1  0  0  0
 85162  1  0  0  0
M  ISO  4   1 100  68 101  82 101  84 100
M  END
> <chiral flag>
0

> <version>
0

> <s_m_source_file>
/data/baiqing/PycharmProjects/Reinvent-master-3.2/result/LINK_invent/BTK/process_docking_weight1_custom_product_contain_oxygen_bond_distance_aromatic_linkinvent_7_9_3/rearranged_h_0023.sdf

> <i_m_source_file_index>
67

> <r_mmod_Potential_Energy-OPLS-2005>
24666.509765625

> <r_mmod_Stretch_Energy-OPLS-2005>
11624.9658203125

> <r_mmod_Bend_Energy-OPLS-2005>
1948.33654785156

> <r_mmod_Torsional_Energy-OPLS-2005>
665.991760253906

> <r_mmod_Improper_Torsional_Energy-OPLS-2005>
61.4133949279785

> <r_mmod_Van_der_Waal_Energy-OPLS-2005>
3765.21411132812

> <r_mmod_Electrostatic_Energy-OPLS-2005>
-396.840118408203

> <r_mmod_Solvation_Energy-OPLS-2005>
-200.56462097168

> <b_mmod_Minimization_Converged-OPLS-2005>
0

> <r_mmod_RMS_Derivative-OPLS-2005>
3.66582703590393

$$$$
67
                    3D
 Structure written by MMmdl.
158167  0  0  1  0            999 V2000
  -30.6108  -14.6404   20.4991 C   0  0  0  0  0  0
  -30.4410  -12.3914   19.4517 C   0  0  0  0  0  0
  -29.5091  -12.5064   18.2242 C   0  0  0  0  0  0
  -28.0313  -12.3435   18.6349 C   0  0  0  0  0  0
  -27.6537  -13.2128   19.8635 C   0  0  2  0  0  0
  -28.6979  -13.0620   20.9931 C   0  0  0  0  0  0
  -25.2565  -13.8158   20.5672 C   0  0  0  0  0  0
  -24.1832  -13.0433   20.9198 C   0  0  0  0  0  0
  -24.6394  -11.6903   20.8745 C   0  0  0  0  0  0
  -23.9060  -10.4290   21.0411 C   0  0  0  0  0  0
  -24.3613   -9.4205   21.9187 C   0  0  0  0  0  0
  -23.6289   -8.2240   22.0754 C   0  0  0  0  0  0
  -22.4272   -8.0279   21.3544 C   0  0  0  0  0  0
  -21.9907   -9.0253   20.4648 C   0  0  0  0  0  0
  -22.7234  -10.2134   20.3059 C   0  0  0  0  0  0
  -21.6852   -6.0734   22.5279 C   0  0  0  0  0  0
  -21.4013   -6.5639   23.8212 C   0  0  0  0  0  0
  -21.3659   -5.6791   24.9175 C   0  0  0  0  0  0
  -21.6044   -4.3054   24.7226 C   0  0  0  0  0  0
  -21.8819   -3.8146   23.4347 C   0  0  0  0  0  0
  -21.9192   -4.6962   22.3403 C   0  0  0  0  0  0
  -22.7855  -13.5233   21.1857 C   0  0  0  0  0  0
  -22.1661   -4.2148   21.0981 F   0  0  0  0  0  0
  -21.5629   -3.4538   25.7738 F   0  0  0  0  0  0
  -30.0136  -13.4087   20.4321 N   0  0  0  0  0  0
  -26.2988  -12.9331   20.3308 N   0  0  0  0  0  0
  -25.9319  -11.6492   20.5754 N   0  0  0  0  0  0
  -22.0492  -12.8230   22.0413 N   0  0  0  0  0  0
  -25.4275  -15.1874   20.4044 N   0  0  0  0  0  0
  -31.7758  -14.8089   20.1253 O   0  0  0  0  0  0
  -21.6636   -6.8876   21.4240 O   0  0  0  0  0  0
  -22.3546  -14.5540   20.6701 O   0  0  0  0  0  0
  -24.6241  -31.8601   23.2020 C   0  0  0  0  0  0
  -25.9093  -32.4781   23.8349 C   0  0  1  0  0  0
  -27.2298  -27.3340   20.1264 C   0  0  0  0  0  0
  -25.5913  -33.8581   24.2280 N   0  0  0  0  0  0
  -23.4177  -30.4813   21.5441 C   0  0  2  0  0  0
  -24.8660  -28.9317   20.1154 C   0  0  0  0  0  0
  -22.7463  -29.4622   22.4947 C   0  0  0  0  0  0
  -18.0282  -28.1382   22.8488 C   0  0  0  0  0  0
  -24.1489  -36.7297   23.2640 C   0  0  0  0  0  0
  -25.9557  -30.7967   21.3688 C   0  0  0  0  0  0
  -26.0325  -29.4228   20.7158 C   0  0  0  0  0  0
  -27.2200  -28.6366   20.7070 C   0  0  0  0  0  0
  -26.0446  -26.8848   19.5070 C   0  0  0  0  0  0
  -24.8725  -27.6673   19.5020 C   0  0  0  0  0  0
  -23.6325  -29.8103   20.1612 C   0  0  0  0  0  0
  -25.4113  -36.3086   24.0331 C   0  0  1  0  0  0
  -20.5880  -28.3683   23.1292 C   0  0  2  0  0  0
  -20.6771  -26.9409   22.5414 C   0  0  0  0  0  0
  -19.5750  -26.6384   21.5213 C   0  0  0  0  0  0
  -18.1929  -26.7926   22.1624 C   0  0  0  0  0  0
  -19.1534  -28.8850   23.2885 C   0  0  0  0  0  0
  -18.9458  -30.1453   23.8899 C   0  0  0  0  0  0
  -17.6458  -30.6587   24.0562 C   0  0  0  0  0  0
  -25.9046  -34.9454   23.5107 C   0  0  0  0  0  0
  -16.5349  -29.9085   23.6329 C   0  0  0  0  0  0
  -16.7270  -28.6502   23.0351 C   0  0  0  0  0  0
  -26.4488  -31.6586   25.0713 C   0  0  0  0  0  0
  -25.3730  -31.3717   26.1446 C   0  0  0  0  0  0
  -27.0328  -30.3015   24.6150 C   0  0  0  0  0  0
  -27.6051  -32.4318   25.7483 C   0  0  0  0  0  0
  -27.5580  -37.1804   24.8466 C   0  0  0  0  0  0
  -21.4178  -29.3037   22.3688 N   0  0  0  0  0  0
  -26.4294  -37.3778   23.9406 N   0  0  0  0  0  0
  -24.6845  -31.0625   22.0958 N   0  0  0  0  0  0
  -23.4192  -28.8170   23.3029 O   0  0  0  0  0  0
  -28.3623  -26.5155   20.1268 O   0  0  0  0  0  0
  -26.5617  -34.8920   22.4675 O   0  0  0  0  0  0
  -23.5409  -32.1389   23.7359 O   0  0  0  0  0  0
  -28.6288  -19.3067   20.4592 C   0  0  0  0  0  0
  -31.0186  -19.2871   20.2928 C   0  0  0  0  0  0
  -28.6498  -17.8916   20.6531 C   0  0  0  0  0  0
  -31.0406  -17.8717   20.4695 C   0  0  0  0  0  0
  -29.8163  -20.0649   20.2582 C   0  0  0  0  0  0
  -29.8488  -17.1262   20.6419 C   0  0  0  0  0  0
  -28.9029  -22.4759   20.3384 C   0  0  0  0  0  0
  -30.9722  -23.3041   18.4877 C   0  0  0  0  0  0
  -30.3523  -24.3801   19.3676 C   0  0  0  0  0  0
  -31.0673  -21.9781   19.2527 C   0  0  0  0  0  0
  -28.9318  -23.9656   19.7614 C   0  0  2  0  0  0
  -28.2337  -25.1205   20.6069 C   0  0  0  0  0  0
  -29.8411  -21.5218   19.9491 N   0  0  0  0  0  0
  -29.7768  -15.6766   20.8331 N   0  0  0  0  0  0
  -27.9960  -22.2018   21.1307 O   0  0  0  0  0  0
  -31.4816  -12.5224   19.1497 H   0  0  0  0  0  0
  -30.3803  -11.3944   19.8909 H   0  0  0  0  0  0
  -29.7742  -11.7559   17.4783 H   0  0  0  0  0  0
  -29.6507  -13.4763   17.7445 H   0  0  0  0  0  0
  -27.8675  -11.2900   18.8649 H   0  0  0  0  0  0
  -27.3774  -12.5748   17.7933 H   0  0  0  0  0  0
  -27.6728  -14.2482   19.5232 H   0  0  0  0  0  0
  -28.7099  -12.0381   21.3698 H   0  0  0  0  0  0
  -28.4427  -13.6883   21.8494 H   0  0  0  0  0  0
  -25.2759   -9.5681   22.4760 H   0  0  0  0  0  0
  -24.0000   -7.4630   22.7472 H   0  0  0  0  0  0
  -21.0838   -8.8772   19.8954 H   0  0  0  0  0  0
  -22.3693  -10.9673   19.6168 H   0  0  0  0  0  0
  -21.2004   -7.6147   23.9715 H   0  0  0  0  0  0
  -21.1482   -6.0522   25.9078 H   0  0  0  0  0  0
  -22.0599   -2.7608   23.2846 H   0  0  0  0  0  0
  -22.4101  -11.9890   22.4805 H   0  0  0  0  0  0
  -21.1111  -13.1261   22.2616 H   0  0  0  0  0  0
  -24.6531  -15.8361   20.4957 H   0  0  0  0  0  0
  -26.2573  -15.6155   20.0156 H   0  0  0  0  0  0
  -26.7162  -32.5460   23.1101 H   0  0  0  0  0  0
  -25.0057  -33.9726   25.0422 H   0  0  0  0  0  0
  -22.7109  -31.3008   21.3988 H   0  0  0  0  0  0
  -23.3747  -35.9634   23.3310 H   0  0  0  0  0  0
  -24.3579  -36.8909   22.2053 H   0  0  0  0  0  0
  -23.7248  -37.6505   23.6656 H   0  0  0  0  0  0
  -26.0815  -31.5590   20.5987 H   0  0  0  0  0  0
  -26.8380  -30.8494   21.9951 H   0  0  0  0  0  0
  -28.1199  -29.0126   21.1732 H   0  0  0  0  0  0
  -26.0220  -25.9168   19.0267 H   0  0  0  0  0  0
  -23.9786  -27.2858   19.0279 H   0  0  0  0  0  0
  -23.7498  -30.5837   19.4011 H   0  0  0  0  0  0
  -22.7536  -29.2365   19.8618 H   0  0  0  0  0  0
  -25.1295  -36.1941   25.0824 H   0  0  0  0  0  0
  -20.9972  -28.3255   24.1413 H   0  0  0  0  0  0
  -20.5673  -26.2291   23.3609 H   0  0  0  0  0  0
  -21.6641  -26.7441   22.1208 H   0  0  0  0  0  0
  -19.6912  -25.6295   21.1241 H   0  0  0  0  0  0
  -19.6689  -27.3195   20.6744 H   0  0  0  0  0  0
  -17.4199  -26.6672   21.4025 H   0  0  0  0  0  0
  -18.0330  -26.0067   22.9020 H   0  0  0  0  0  0
  -19.7934  -30.7266   24.2272 H   0  0  0  0  0  0
  -17.5013  -31.6268   24.5161 H   0  0  0  0  0  0
  -15.5350  -30.2988   23.7652 H   0  0  0  0  0  0
  -15.8670  -28.0822   22.7065 H   0  0  0  0  0  0
  -24.5902  -30.7069   25.7776 H   0  0  0  0  0  0
  -24.8923  -32.2880   26.4882 H   0  0  0  0  0  0
  -25.8062  -30.8887   27.0214 H   0  0  0  0  0  0
  -26.2894  -29.6766   24.1187 H   0  0  0  0  0  0
  -27.4049  -29.7268   25.4642 H   0  0  0  0  0  0
  -27.8752  -30.4308   23.9350 H   0  0  0  0  0  0
  -27.2663  -33.3615   26.2068 H   0  0  0  0  0  0
  -28.3857  -32.6886   25.0308 H   0  0  0  0  0  0
  -28.0725  -31.8439   26.5392 H   0  0  0  0  0  0
  -28.2604  -38.0095   24.7504 H   0  0  0  0  0  0
  -28.1069  -36.2625   24.6303 H   0  0  0  0  0  0
  -27.2296  -37.1469   25.8869 H   0  0  0  0  0  0
  -20.9356  -29.8753   21.6893 H   0  0  0  0  0  0
  -26.0178  -38.2856   24.1398 H   0  0  0  0  0  0
  -27.6666  -19.7978   20.4407 H   0  0  0  0  0  0
  -31.9801  -19.7634   20.1708 H   0  0  0  0  0  0
  -27.7038  -17.3882   20.7940 H   0  0  0  0  0  0
  -31.9970  -17.3683   20.4723 H   0  0  0  0  0  0
  -31.9652  -23.6133   18.1580 H   0  0  0  0  0  0
  -30.3774  -23.1716   17.5822 H   0  0  0  0  0  0
  -30.3291  -25.3240   18.8217 H   0  0  0  0  0  0
  -30.9615  -24.5484   20.2571 H   0  0  0  0  0  0
  -31.8591  -22.0642   19.9985 H   0  0  0  0  0  0
  -31.3900  -21.2222   18.5353 H   0  0  0  0  0  0
  -28.3600  -23.8998   18.8352 H   0  0  0  0  0  0
  -28.6661  -25.1093   21.6079 H   0  0  0  0  0  0
  -27.1870  -24.8554   20.7593 H   0  0  0  0  0  0
  -28.8676  -15.3435   21.1138 H   0  0  0  0  0  0
  1 25  1  0  0  0
  1 30  2  0  0  0
  1 84  1  0  0  0
  2  3  1  0  0  0
  2 25  1  0  0  0
  2 86  1  0  0  0
  2 87  1  0  0  0
  3  4  1  0  0  0
  3 88  1  0  0  0
  3 89  1  0  0  0
  4  5  1  0  0  0
  4 90  1  0  0  0
  4 91  1  0  0  0
  5  6  1  0  0  0
  5 26  1  0  0  0
  5 92  1  0  0  0
  6 25  1  0  0  0
  6 93  1  0  0  0
  6 94  1  0  0  0
  7  8  2  0  0  0
  7 26  1  0  0  0
  7 29  1  0  0  0
  8  9  1  0  0  0
  8 22  1  0  0  0
  9 10  1  0  0  0
  9 27  2  0  0  0
 10 11  2  0  0  0
 10 15  1  0  0  0
 11 12  1  0  0  0
 11 95  1  0  0  0
 12 13  2  0  0  0
 12 96  1  0  0  0
 13 14  1  0  0  0
 13 31  1  0  0  0
 14 15  2  0  0  0
 14 97  1  0  0  0
 15 98  1  0  0  0
 16 17  2  0  0  0
 16 21  1  0  0  0
 16 31  1  0  0  0
 17 18  1  0  0  0
 17 99  1  0  0  0
 18 19  2  0  0  0
 18100  1  0  0  0
 19 20  1  0  0  0
 19 24  1  0  0  0
 20 21  2  0  0  0
 20101  1  0  0  0
 21 23  1  0  0  0
 22 28  1  0  0  0
 22 32  2  0  0  0
 26 27  1  0  0  0
 28102  1  0  0  0
 28103  1  0  0  0
 29104  1  0  0  0
 29105  1  0  0  0
 33 34  1  0  0  0
 33 66  1  0  0  0
 33 70  2  0  0  0
 34 36  1  0  0  0
 34 59  1  0  0  0
 34106  1  0  0  0
 35 44  2  0  0  0
 35 45  1  0  0  0
 35 68  1  0  0  0
 36 56  1  0  0  0
 36107  1  0  0  0
 37 39  1  0  0  0
 37 47  1  0  0  0
 37 66  1  0  0  0
 37108  1  0  0  0
 38 43  2  0  0  0
 38 46  1  0  0  0
 38 47  1  0  0  0
 39 64  1  0  0  0
 39 67  2  0  0  0
 40 52  1  0  0  0
 40 53  2  0  0  0
 40 58  1  0  0  0
 41109  1  0  0  0
 41110  1  0  0  0
 41111  1  0  0  0
 41 48  1  0  0  0
 42 43  1  0  0  0
 42 66  1  0  0  0
 42112  1  0  0  0
 42113  1  0  0  0
 43 44  1  0  0  0
 44114  1  0  0  0
 45 46  2  0  0  0
 45115  1  0  0  0
 46116  1  0  0  0
 47117  1  0  0  0
 47118  1  0  0  0
 48 56  1  0  0  0
 48 65  1  0  0  0
 48119  1  0  0  0
 49 50  1  0  0  0
 49 53  1  0  0  0
 49 64  1  0  0  0
 49120  1  0  0  0
 50 51  1  0  0  0
 50121  1  0  0  0
 50122  1  0  0  0
 51 52  1  0  0  0
 51123  1  0  0  0
 51124  1  0  0  0
 52125  1  0  0  0
 52126  1  0  0  0
 53 54  1  0  0  0
 54 55  2  0  0  0
 54127  1  0  0  0
 55 57  1  0  0  0
 55128  1  0  0  0
 56 69  2  0  0  0
 57 58  2  0  0  0
 57129  1  0  0  0
 58130  1  0  0  0
 59 60  1  0  0  0
 59 61  1  0  0  0
 59 62  1  0  0  0
 60131  1  0  0  0
 60132  1  0  0  0
 60133  1  0  0  0
 61134  1  0  0  0
 61135  1  0  0  0
 61136  1  0  0  0
 62137  1  0  0  0
 62138  1  0  0  0
 62139  1  0  0  0
 63 65  1  0  0  0
 63140  1  0  0  0
 63141  1  0  0  0
 63142  1  0  0  0
 64143  1  0  0  0
 65144  1  0  0  0
 68 82  1  0  0  0
 71 73  2  0  0  0
 71 75  1  0  0  0
 71145  1  0  0  0
 72 74  1  0  0  0
 72 75  2  0  0  0
 72146  1  0  0  0
 73 76  1  0  0  0
 73147  1  0  0  0
 74 76  2  0  0  0
 74148  1  0  0  0
 75 83  1  0  0  0
 76 84  1  0  0  0
 77 81  1  0  0  0
 77 83  1  0  0  0
 77 85  2  0  0  0
 78 79  1  0  0  0
 78 80  1  0  0  0
 78149  1  0  0  0
 78150  1  0  0  0
 79 81  1  0  0  0
 79151  1  0  0  0
 79152  1  0  0  0
 80 83  1  0  0  0
 80153  1  0  0  0
 80154  1  0  0  0
 81 82  1  0  0  0
 81155  1  0  0  0
 82156  1  0  0  0
 82157  1  0  0  0
 84158  1  0  0  0
M  ISO  4   1 100  68 101  82 101  84 100
M  END
> <chiral flag>
0

> <version>
0

> <s_m_source_file>
/data/baiqing/PycharmProjects/Reinvent-master-3.2/result/LINK_invent/BTK/process_docking_weight1_custom_product_contain_oxygen_bond_distance_aromatic_linkinvent_7_9_3/rearranged_h_0023.sdf

> <i_m_source_file_index>
68

> <r_mmod_Potential_Energy-OPLS-2005>
166.408767700195

> <r_mmod_Stretch_Energy-OPLS-2005>
90.0758514404297

> <r_mmod_Bend_Energy-OPLS-2005>
144.212921142578

> <r_mmod_Torsional_Energy-OPLS-2005>
276.462493896484

> <r_mmod_Improper_Torsional_Energy-OPLS-2005>
5.00267171859741

> <r_mmod_Van_der_Waal_Energy-OPLS-2005>
157.895492553711

> <r_mmod_Electrostatic_Energy-OPLS-2005>
-336.432037353516

> <r_mmod_Solvation_Energy-OPLS-2005>
-214.719909667969

> <b_mmod_Minimization_Converged-OPLS-2005>
0

> <r_mmod_RMS_Derivative-OPLS-2005>
0.142533451318741

$$$$
68
                    3D
 Structure written by MMmdl.
159168  0  0  1  0            999 V2000
  -30.6255  -14.6514   20.4825 C   0  0  0  0  0  0
  -30.4408  -12.3972   19.4480 C   0  0  0  0  0  0
  -29.5076  -12.5005   18.2209 C   0  0  0  0  0  0
  -28.0301  -12.3399   18.6346 C   0  0  0  0  0  0
  -27.6490  -13.2166   19.8574 C   0  0  2  0  0  0
  -28.6993  -13.0893   20.9848 C   0  0  0  0  0  0
  -25.2510  -13.8103   20.5726 C   0  0  0  0  0  0
  -24.1797  -13.0369   20.9215 C   0  0  0  0  0  0
  -24.6394  -11.6860   20.8744 C   0  0  0  0  0  0
  -23.9066  -10.4256   21.0406 C   0  0  0  0  0  0
  -24.3613   -9.4178   21.9189 C   0  0  0  0  0  0
  -23.6283   -8.2222   22.0759 C   0  0  0  0  0  0
  -22.4266   -8.0267   21.3545 C   0  0  0  0  0  0
  -21.9901   -9.0241   20.4648 C   0  0  0  0  0  0
  -22.7238  -10.2115   20.3056 C   0  0  0  0  0  0
  -21.6849   -6.0723   22.5278 C   0  0  0  0  0  0
  -21.4012   -6.5630   23.8209 C   0  0  0  0  0  0
  -21.3655   -5.6786   24.9172 C   0  0  0  0  0  0
  -21.6046   -4.3050   24.7225 C   0  0  0  0  0  0
  -21.8821   -3.8137   23.4348 C   0  0  0  0  0  0
  -21.9190   -4.6951   22.3403 C   0  0  0  0  0  0
  -22.7821  -13.5177   21.1868 C   0  0  0  0  0  0
  -22.1656   -4.2135   21.0980 F   0  0  0  0  0  0
  -21.5631   -3.4536   25.7740 F   0  0  0  0  0  0
  -30.0131  -13.4272   20.4126 N   0  0  0  0  0  0
  -26.2966  -12.9327   20.3312 N   0  0  0  0  0  0
  -25.9326  -11.6475   20.5752 N   0  0  0  0  0  0
  -22.0459  -12.8184   22.0430 N   0  0  0  0  0  0
  -25.4064  -15.1810   20.4207 N   0  0  0  0  0  0
  -31.8083  -14.8029   20.1644 O   0  0  0  0  0  0
  -21.6632   -6.8864   21.4239 O   0  0  0  0  0  0
  -22.3509  -14.5485   20.6713 O   0  0  0  0  0  0
  -24.6251  -31.8600   23.2034 C   0  0  0  0  0  0
  -25.9102  -32.4779   23.8360 C   0  0  1  0  0  0
  -27.2321  -27.3299   20.1139 C   0  0  0  0  0  0
  -25.5922  -33.8580   24.2282 N   0  0  0  0  0  0
  -23.4191  -30.4834   21.5455 C   0  0  2  0  0  0
  -24.8672  -28.9401   20.1120 C   0  0  0  0  0  0
  -22.7472  -29.4620   22.4938 C   0  0  0  0  0  0
  -18.0288  -28.1381   22.8486 C   0  0  0  0  0  0
  -24.1489  -36.7296   23.2638 C   0  0  0  0  0  0
  -25.9599  -30.7936   21.3746 C   0  0  0  0  0  0
  -26.0355  -29.4225   20.7152 C   0  0  0  0  0  0
  -27.2200  -28.6293   20.7062 C   0  0  0  0  0  0
  -26.0388  -26.8983   19.4873 C   0  0  0  0  0  0
  -24.8701  -27.6823   19.4905 C   0  0  0  0  0  0
  -23.6344  -29.8184   20.1609 C   0  0  0  0  0  0
  -25.4115  -36.3083   24.0326 C   0  0  1  0  0  0
  -20.5886  -28.3685   23.1285 C   0  0  2  0  0  0
  -20.6775  -26.9408   22.5413 C   0  0  0  0  0  0
  -19.5753  -26.6380   21.5212 C   0  0  0  0  0  0
  -18.1933  -26.7924   22.1624 C   0  0  0  0  0  0
  -19.1539  -28.8851   23.2880 C   0  0  0  0  0  0
  -18.9463  -30.1453   23.8894 C   0  0  0  0  0  0
  -17.6462  -30.6584   24.0565 C   0  0  0  0  0  0
  -25.9049  -34.9450   23.5102 C   0  0  0  0  0  0
  -16.5354  -29.9083   23.6329 C   0  0  0  0  0  0
  -16.7275  -28.6501   23.0348 C   0  0  0  0  0  0
  -26.4491  -31.6591   25.0727 C   0  0  0  0  0  0
  -25.3732  -31.3743   26.1465 C   0  0  0  0  0  0
  -27.0329  -30.3010   24.6186 C   0  0  0  0  0  0
  -27.6052  -32.4328   25.7492 C   0  0  0  0  0  0
  -27.5580  -37.1805   24.8463 C   0  0  0  0  0  0
  -21.4187  -29.3038   22.3680 N   0  0  0  0  0  0
  -26.4295  -37.3776   23.9401 N   0  0  0  0  0  0
  -24.6864  -31.0620   22.0980 N   0  0  0  0  0  0
  -23.4197  -28.8161   23.3017 O   0  0  0  0  0  0
  -28.3594  -26.4941   20.1643 O   0  0  0  0  0  0
  -26.5616  -34.8913   22.4667 O   0  0  0  0  0  0
  -23.5415  -32.1394   23.7363 O   0  0  0  0  0  0
  -31.0976  -19.2873   21.1886 C   0  0  0  0  0  0
  -31.0760  -17.8608   21.1292 C   0  0  0  0  0  0
  -28.9193  -19.4000   20.1991 C   0  0  0  0  0  0
  -30.0065  -20.1097   20.7693 C   0  0  0  0  0  0
  -29.9534  -17.1618   20.6227 C   0  0  0  0  0  0
  -28.8950  -17.9751   20.1260 C   0  0  0  0  0  0
  -30.8507  -23.4056   22.3864 C   0  0  0  0  0  0
  -29.7318  -24.3502   21.9292 C   0  0  0  0  0  0
  -30.4088  -21.9364   22.3151 C   0  0  0  0  0  0
  -28.9895  -22.4665   20.3622 C   0  0  0  0  0  0
  -29.3057  -24.0349   20.4867 C   0  0  1  0  0  0
  -28.1517  -25.0341   20.0381 C   0  0  0  0  0  0
  -30.0181  -21.5452   20.9535 N   0  0  0  0  0  0
  -29.7830  -15.7095   20.6848 N   0  0  0  0  0  0
  -27.5227  -17.2273   19.3976 Cl  0  0  0  0  0  0
  -31.4810  -12.5264   19.1437 H   0  0  0  0  0  0
  -30.3794  -11.4059   19.9000 H   0  0  0  0  0  0
  -29.7716  -11.7425   17.4824 H   0  0  0  0  0  0
  -29.6478  -13.4652   17.7302 H   0  0  0  0  0  0
  -27.8688  -11.2875   18.8702 H   0  0  0  0  0  0
  -27.3758  -12.5637   17.7912 H   0  0  0  0  0  0
  -27.6549  -14.2473   19.5044 H   0  0  0  0  0  0
  -28.7136  -12.0742   21.3846 H   0  0  0  0  0  0
  -28.4498  -13.7385   21.8259 H   0  0  0  0  0  0
  -25.2762   -9.5652   22.4761 H   0  0  0  0  0  0
  -23.9988   -7.4613   22.7481 H   0  0  0  0  0  0
  -21.0830   -8.8760   19.8959 H   0  0  0  0  0  0
  -22.3701  -10.9657   19.6162 H   0  0  0  0  0  0
  -21.2008   -7.6140   23.9708 H   0  0  0  0  0  0
  -21.1476   -6.0518   25.9073 H   0  0  0  0  0  0
  -22.0606   -2.7600   23.2855 H   0  0  0  0  0  0
  -22.4074  -11.9852   22.4832 H   0  0  0  0  0  0
  -21.1085  -13.1228   22.2638 H   0  0  0  0  0  0
  -24.6232  -15.8156   20.5248 H   0  0  0  0  0  0
  -26.2312  -15.6419   20.0540 H   0  0  0  0  0  0
  -26.7171  -32.5452   23.1110 H   0  0  0  0  0  0
  -25.0073  -33.9729   25.0428 H   0  0  0  0  0  0
  -22.7122  -31.3032   21.4023 H   0  0  0  0  0  0
  -23.3738  -35.9644   23.3320 H   0  0  0  0  0  0
  -24.3578  -36.8896   22.2049 H   0  0  0  0  0  0
  -23.7257  -37.6510   23.6648 H   0  0  0  0  0  0
  -26.0931  -31.5594   20.6091 H   0  0  0  0  0  0
  -26.8390  -30.8392   22.0057 H   0  0  0  0  0  0
  -28.1159  -28.9961   21.1872 H   0  0  0  0  0  0
  -25.9816  -25.9393   18.9947 H   0  0  0  0  0  0
  -23.9748  -27.3065   19.0144 H   0  0  0  0  0  0
  -23.7543  -30.5952   19.4048 H   0  0  0  0  0  0
  -22.7551  -29.2475   19.8571 H   0  0  0  0  0  0
  -25.1295  -36.1941   25.0820 H   0  0  0  0  0  0
  -20.9976  -28.3261   24.1406 H   0  0  0  0  0  0
  -20.5676  -26.2295   23.3612 H   0  0  0  0  0  0
  -21.6645  -26.7437   22.1210 H   0  0  0  0  0  0
  -19.6917  -25.6292   21.1239 H   0  0  0  0  0  0
  -19.6691  -27.3193   20.6744 H   0  0  0  0  0  0
  -17.4204  -26.6671   21.4025 H   0  0  0  0  0  0
  -18.0334  -26.0065   22.9021 H   0  0  0  0  0  0
  -19.7940  -30.7271   24.2259 H   0  0  0  0  0  0
  -17.5017  -31.6260   24.5170 H   0  0  0  0  0  0
  -15.5354  -30.2986   23.7650 H   0  0  0  0  0  0
  -15.8677  -28.0821   22.7057 H   0  0  0  0  0  0
  -24.5893  -30.7103   25.7807 H   0  0  0  0  0  0
  -24.8944  -32.2921   26.4891 H   0  0  0  0  0  0
  -25.8062  -30.8923   27.0239 H   0  0  0  0  0  0
  -26.2906  -29.6765   24.1201 H   0  0  0  0  0  0
  -27.4012  -29.7262   25.4694 H   0  0  0  0  0  0
  -27.8783  -30.4289   23.9420 H   0  0  0  0  0  0
  -27.2653  -33.3616   26.2088 H   0  0  0  0  0  0
  -28.3849  -32.6914   25.0314 H   0  0  0  0  0  0
  -28.0737  -31.8449   26.5394 H   0  0  0  0  0  0
  -28.2610  -38.0089   24.7488 H   0  0  0  0  0  0
  -28.1061  -36.2619   24.6313 H   0  0  0  0  0  0
  -27.2296  -37.1482   25.8867 H   0  0  0  0  0  0
  -20.9364  -29.8767   21.6897 H   0  0  0  0  0  0
  -26.0175  -38.2852   24.1396 H   0  0  0  0  0  0
  -31.9905  -19.7436   21.5902 H   0  0  0  0  0  0
  -31.9214  -17.3085   21.5130 H   0  0  0  0  0  0
  -28.0605  -19.9405   19.8315 H   0  0  0  0  0  0
  -31.1365  -23.6498   23.4106 H   0  0  0  0  0  0
  -31.7432  -23.5568   21.7773 H   0  0  0  0  0  0
  -30.0713  -25.3841   22.0013 H   0  0  0  0  0  0
  -28.8754  -24.2571   22.5984 H   0  0  0  0  0  0
  -29.5603  -21.7769   22.9832 H   0  0  0  0  0  0
  -31.2183  -21.3270   22.7131 H   0  0  0  0  0  0
  -28.8527  -22.2149   19.3094 H   0  0  0  0  0  0
  -28.0346  -22.2609   20.8491 H   0  0  0  0  0  0
  -30.1633  -24.2384   19.8438 H   0  0  0  0  0  0
  -27.2624  -24.7654   20.6110 H   0  0  0  0  0  0
  -27.9213  -24.8187   18.9943 H   0  0  0  0  0  0
  -28.8196  -15.4219   20.7581 H   0  0  0  0  0  0
  1 25  1  0  0  0
  1 30  2  0  0  0
  1 84  1  0  0  0
  2  3  1  0  0  0
  2 25  1  0  0  0
  2 86  1  0  0  0
  2 87  1  0  0  0
  3  4  1  0  0  0
  3 88  1  0  0  0
  3 89  1  0  0  0
  4  5  1  0  0  0
  4 90  1  0  0  0
  4 91  1  0  0  0
  5  6  1  0  0  0
  5 26  1  0  0  0
  5 92  1  0  0  0
  6 25  1  0  0  0
  6 93  1  0  0  0
  6 94  1  0  0  0
  7  8  2  0  0  0
  7 26  1  0  0  0
  7 29  1  0  0  0
  8  9  1  0  0  0
  8 22  1  0  0  0
  9 10  1  0  0  0
  9 27  2  0  0  0
 10 11  2  0  0  0
 10 15  1  0  0  0
 11 12  1  0  0  0
 11 95  1  0  0  0
 12 13  2  0  0  0
 12 96  1  0  0  0
 13 14  1  0  0  0
 13 31  1  0  0  0
 14 15  2  0  0  0
 14 97  1  0  0  0
 15 98  1  0  0  0
 16 17  2  0  0  0
 16 21  1  0  0  0
 16 31  1  0  0  0
 17 18  1  0  0  0
 17 99  1  0  0  0
 18 19  2  0  0  0
 18100  1  0  0  0
 19 20  1  0  0  0
 19 24  1  0  0  0
 20 21  2  0  0  0
 20101  1  0  0  0
 21 23  1  0  0  0
 22 28  1  0  0  0
 22 32  2  0  0  0
 26 27  1  0  0  0
 28102  1  0  0  0
 28103  1  0  0  0
 29104  1  0  0  0
 29105  1  0  0  0
 33 34  1  0  0  0
 33 66  1  0  0  0
 33 70  2  0  0  0
 34 36  1  0  0  0
 34 59  1  0  0  0
 34106  1  0  0  0
 35 44  2  0  0  0
 35 45  1  0  0  0
 35 68  1  0  0  0
 36 56  1  0  0  0
 36107  1  0  0  0
 37 39  1  0  0  0
 37 47  1  0  0  0
 37 66  1  0  0  0
 37108  1  0  0  0
 38 43  2  0  0  0
 38 46  1  0  0  0
 38 47  1  0  0  0
 39 64  1  0  0  0
 39 67  2  0  0  0
 40 52  1  0  0  0
 40 53  2  0  0  0
 40 58  1  0  0  0
 41109  1  0  0  0
 41110  1  0  0  0
 41111  1  0  0  0
 41 48  1  0  0  0
 42 43  1  0  0  0
 42 66  1  0  0  0
 42112  1  0  0  0
 42113  1  0  0  0
 43 44  1  0  0  0
 44114  1  0  0  0
 45 46  2  0  0  0
 45115  1  0  0  0
 46116  1  0  0  0
 47117  1  0  0  0
 47118  1  0  0  0
 48 56  1  0  0  0
 48 65  1  0  0  0
 48119  1  0  0  0
 49 50  1  0  0  0
 49 53  1  0  0  0
 49 64  1  0  0  0
 49120  1  0  0  0
 50 51  1  0  0  0
 50121  1  0  0  0
 50122  1  0  0  0
 51 52  1  0  0  0
 51123  1  0  0  0
 51124  1  0  0  0
 52125  1  0  0  0
 52126  1  0  0  0
 53 54  1  0  0  0
 54 55  2  0  0  0
 54127  1  0  0  0
 55 57  1  0  0  0
 55128  1  0  0  0
 56 69  2  0  0  0
 57 58  2  0  0  0
 57129  1  0  0  0
 58130  1  0  0  0
 59 60  1  0  0  0
 59 61  1  0  0  0
 59 62  1  0  0  0
 60131  1  0  0  0
 60132  1  0  0  0
 60133  1  0  0  0
 61134  1  0  0  0
 61135  1  0  0  0
 61136  1  0  0  0
 62137  1  0  0  0
 62138  1  0  0  0
 62139  1  0  0  0
 63 65  1  0  0  0
 63140  1  0  0  0
 63141  1  0  0  0
 63142  1  0  0  0
 64143  1  0  0  0
 65144  1  0  0  0
 68 82  1  0  0  0
 71 72  2  0  0  0
 71 74  1  0  0  0
 71145  1  0  0  0
 72 75  1  0  0  0
 72146  1  0  0  0
 73 74  2  0  0  0
 73 76  1  0  0  0
 73147  1  0  0  0
 74 83  1  0  0  0
 75 76  2  0  0  0
 75 84  1  0  0  0
 76 85  1  0  0  0
 77 78  1  0  0  0
 77 79  1  0  0  0
 77148  1  0  0  0
 77149  1  0  0  0
 78 81  1  0  0  0
 78150  1  0  0  0
 78151  1  0  0  0
 79 83  1  0  0  0
 79152  1  0  0  0
 79153  1  0  0  0
 80 81  1  0  0  0
 80 83  1  0  0  0
 80154  1  0  0  0
 80155  1  0  0  0
 81 82  1  0  0  0
 81156  1  0  0  0
 82157  1  0  0  0
 82158  1  0  0  0
 84159  1  0  0  0
M  ISO  4   1 100  68 101  82 101  84 100
M  END
> <chiral flag>
0

> <version>
0

> <s_m_source_file>
/data/baiqing/PycharmProjects/Reinvent-master-3.2/result/LINK_invent/BTK/process_docking_weight1_custom_product_contain_oxygen_bond_distance_aromatic_linkinvent_7_9_3/rearranged_h_0023.sdf

> <i_m_source_file_index>
69

> <r_mmod_Potential_Energy-OPLS-2005>
59.9495582580566

> <r_mmod_Stretch_Energy-OPLS-2005>
80.1710815429688

> <r_mmod_Bend_Energy-OPLS-2005>
138.877822875977

> <r_mmod_Torsional_Energy-OPLS-2005>
252.828125

> <r_mmod_Improper_Torsional_Energy-OPLS-2005>
9.6303186416626

> <r_mmod_Van_der_Waal_Energy-OPLS-2005>
152.212921142578

> <r_mmod_Electrostatic_Energy-OPLS-2005>
-407.362884521484

> <r_mmod_Solvation_Energy-OPLS-2005>
-216.114883422852

> <b_mmod_Minimization_Converged-OPLS-2005>
0

> <r_mmod_RMS_Derivative-OPLS-2005>
0.69834965467453

$$$$
69
                    3D
 Structure written by MMmdl.
165174  0  0  1  0            999 V2000
  -30.6919  -14.6479   20.4470 C   0  0  0  0  0  0
  -30.4216  -12.3872   19.4581 C   0  0  0  0  0  0
  -29.4985  -12.4482   18.2241 C   0  0  0  0  0  0
  -28.0235  -12.2946   18.6463 C   0  0  0  0  0  0
  -27.6353  -13.2021   19.8435 C   0  0  2  0  0  0
  -28.6913  -13.1631   20.9713 C   0  0  0  0  0  0
  -25.2529  -13.8115   20.5735 C   0  0  0  0  0  0
  -24.1785  -13.0403   20.9232 C   0  0  0  0  0  0
  -24.6347  -11.6872   20.8783 C   0  0  0  0  0  0
  -23.9029  -10.4264   21.0435 C   0  0  0  0  0  0
  -24.3593   -9.4178   21.9203 C   0  0  0  0  0  0
  -23.6275   -8.2211   22.0760 C   0  0  0  0  0  0
  -22.4260   -8.0260   21.3545 C   0  0  0  0  0  0
  -21.9894   -9.0234   20.4649 C   0  0  0  0  0  0
  -22.7215  -10.2113   20.3069 C   0  0  0  0  0  0
  -21.6838   -6.0725   22.5283 C   0  0  0  0  0  0
  -21.4002   -6.5632   23.8216 C   0  0  0  0  0  0
  -21.3657   -5.6787   24.9182 C   0  0  0  0  0  0
  -21.6043   -4.3051   24.7233 C   0  0  0  0  0  0
  -21.8814   -3.8141   23.4354 C   0  0  0  0  0  0
  -21.9182   -4.6954   22.3408 C   0  0  0  0  0  0
  -22.7812  -13.5218   21.1877 C   0  0  0  0  0  0
  -22.1654   -4.2139   21.0984 F   0  0  0  0  0  0
  -21.5635   -3.4539   25.7750 F   0  0  0  0  0  0
  -29.9998  -13.4636   20.3763 N   0  0  0  0  0  0
  -26.2911  -12.9250   20.3319 N   0  0  0  0  0  0
  -25.9262  -11.6433   20.5804 N   0  0  0  0  0  0
  -22.0436  -12.8230   22.0433 N   0  0  0  0  0  0
  -25.4278  -15.1834   20.4161 N   0  0  0  0  0  0
  -31.9044  -14.6698   20.2209 O   0  0  0  0  0  0
  -21.6621   -6.8862   21.4243 O   0  0  0  0  0  0
  -22.3517  -14.5523   20.6705 O   0  0  0  0  0  0
  -24.6252  -31.8621   23.2068 C   0  0  0  0  0  0
  -25.9108  -32.4789   23.8381 C   0  0  1  0  0  0
  -27.2177  -27.3262   20.1124 C   0  0  0  0  0  0
  -25.5935  -33.8590   24.2303 N   0  0  0  0  0  0
  -23.4180  -30.4898   21.5491 C   0  0  2  0  0  0
  -24.8638  -28.9555   20.1085 C   0  0  0  0  0  0
  -22.7471  -29.4641   22.4939 C   0  0  0  0  0  0
  -18.0285  -28.1379   22.8484 C   0  0  0  0  0  0
  -24.1491  -36.7296   23.2639 C   0  0  0  0  0  0
  -25.9612  -30.7944   21.3806 C   0  0  0  0  0  0
  -26.0341  -29.4251   20.7183 C   0  0  0  0  0  0
  -27.2139  -28.6219   20.7144 C   0  0  0  0  0  0
  -26.0243  -26.9246   19.4601 C   0  0  0  0  0  0
  -24.8612  -27.7099   19.4702 C   0  0  0  0  0  0
  -23.6321  -29.8336   20.1615 C   0  0  0  0  0  0
  -25.4115  -36.3090   24.0333 C   0  0  1  0  0  0
  -20.5884  -28.3689   23.1278 C   0  0  2  0  0  0
  -20.6774  -26.9414   22.5405 C   0  0  0  0  0  0
  -19.5752  -26.6383   21.5204 C   0  0  0  0  0  0
  -18.1932  -26.7924   22.1618 C   0  0  0  0  0  0
  -19.1536  -28.8850   23.2877 C   0  0  0  0  0  0
  -18.9460  -30.1451   23.8896 C   0  0  0  0  0  0
  -17.6461  -30.6586   24.0558 C   0  0  0  0  0  0
  -25.9052  -34.9457   23.5114 C   0  0  0  0  0  0
  -16.5351  -29.9083   23.6328 C   0  0  0  0  0  0
  -16.7272  -28.6497   23.0356 C   0  0  0  0  0  0
  -26.4499  -31.6589   25.0741 C   0  0  0  0  0  0
  -25.3737  -31.3724   26.1471 C   0  0  0  0  0  0
  -27.0337  -30.3009   24.6196 C   0  0  0  0  0  0
  -27.6063  -32.4324   25.7504 C   0  0  0  0  0  0
  -27.5583  -37.1802   24.8465 C   0  0  0  0  0  0
  -21.4185  -29.3048   22.3676 N   0  0  0  0  0  0
  -26.4294  -37.3782   23.9411 N   0  0  0  0  0  0
  -24.6868  -31.0642   22.1018 N   0  0  0  0  0  0
  -23.4199  -28.8167   23.3004 O   0  0  0  0  0  0
  -28.3158  -26.4490   20.1876 O   0  0  0  0  0  0
  -26.5612  -34.8918   22.4675 O   0  0  0  0  0  0
  -23.5418  -32.1417   23.7397 O   0  0  0  0  0  0
  -28.7052  -18.8636   20.8902 C   0  0  0  0  0  0
  -28.2406  -20.1977   20.7288 C   0  0  0  0  0  0
  -30.5027  -21.0058   20.7425 C   0  0  0  0  0  0
  -30.0861  -18.5449   20.9423 C   0  0  0  0  0  0
  -30.9835  -19.6651   20.8966 C   0  0  0  0  0  0
  -29.1213  -21.3056   20.6419 C   0  0  0  0  0  0
  -31.8130  -17.1734   23.4090 C   0  0  0  0  0  0
  -30.7306  -16.8582   22.6780 C   0  0  0  0  0  0
  -29.0299  -23.9099   20.4140 C   0  0  0  0  0  0
  -32.4996  -19.4856   21.0059 C   0  0  0  0  0  0
  -33.1132  -17.7389   22.8662 C   0  0  0  0  0  0
  -33.0277  -19.2186   22.4353 C   0  0  0  0  0  0
  -30.6055  -17.0680   21.1813 C   0  0  1  0  0  0
  -29.2077  -16.1894   19.3358 C   0  0  0  0  0  0
  -28.0040  -25.0173   19.9654 C   0  0  0  0  0  0
  -28.5453  -22.6279   20.4203 N   0  0  0  0  0  0
  -29.9910  -15.8411   20.5318 N   0  0  0  0  0  0
  -30.1856  -24.2068   20.7294 O   0  0  0  0  0  0
  -31.4647  -12.4790   19.1504 H   0  0  0  0  0  0
  -30.3412  -11.4175   19.9519 H   0  0  0  0  0  0
  -29.7654  -11.6567   17.5225 H   0  0  0  0  0  0
  -29.6439  -13.3837   17.6848 H   0  0  0  0  0  0
  -27.8732  -11.2496   18.9187 H   0  0  0  0  0  0
  -27.3634  -12.4827   17.7985 H   0  0  0  0  0  0
  -27.5968  -14.2041   19.4371 H   0  0  0  0  0  0
  -28.7096  -12.1831   21.4510 H   0  0  0  0  0  0
  -28.4447  -13.8869   21.7497 H   0  0  0  0  0  0
  -25.2738   -9.5648   22.4780 H   0  0  0  0  0  0
  -23.9978   -7.4596   22.7474 H   0  0  0  0  0  0
  -21.0826   -8.8757   19.8957 H   0  0  0  0  0  0
  -22.3685  -10.9659   19.6181 H   0  0  0  0  0  0
  -21.1992   -7.6140   23.9721 H   0  0  0  0  0  0
  -21.1488   -6.0520   25.9084 H   0  0  0  0  0  0
  -22.0596   -2.7605   23.2860 H   0  0  0  0  0  0
  -22.4036  -11.9892   22.4837 H   0  0  0  0  0  0
  -21.1058  -13.1270   22.2633 H   0  0  0  0  0  0
  -24.6697  -15.8455   20.5373 H   0  0  0  0  0  0
  -26.2934  -15.6180   20.1251 H   0  0  0  0  0  0
  -26.7172  -32.5465   23.1127 H   0  0  0  0  0  0
  -25.0084  -33.9741   25.0447 H   0  0  0  0  0  0
  -22.7110  -31.3108   21.4113 H   0  0  0  0  0  0
  -23.3754  -35.9628   23.3302 H   0  0  0  0  0  0
  -24.3586  -36.8912   22.2054 H   0  0  0  0  0  0
  -23.7241  -37.6498   23.6654 H   0  0  0  0  0  0
  -26.0976  -31.5622   20.6177 H   0  0  0  0  0  0
  -26.8394  -30.8361   22.0129 H   0  0  0  0  0  0
  -28.1071  -28.9745   21.2109 H   0  0  0  0  0  0
  -25.9439  -25.9825   18.9400 H   0  0  0  0  0  0
  -23.9676  -27.3483   18.9801 H   0  0  0  0  0  0
  -23.7508  -30.6144   19.4095 H   0  0  0  0  0  0
  -22.7516  -29.2654   19.8567 H   0  0  0  0  0  0
  -25.1291  -36.1948   25.0824 H   0  0  0  0  0  0
  -20.9975  -28.3262   24.1398 H   0  0  0  0  0  0
  -20.5671  -26.2300   23.3602 H   0  0  0  0  0  0
  -21.6645  -26.7445   22.1202 H   0  0  0  0  0  0
  -19.6918  -25.6294   21.1237 H   0  0  0  0  0  0
  -19.6688  -27.3187   20.6727 H   0  0  0  0  0  0
  -17.4200  -26.6665   21.4023 H   0  0  0  0  0  0
  -18.0342  -26.0066   22.9016 H   0  0  0  0  0  0
  -19.7938  -30.7263   24.2272 H   0  0  0  0  0  0
  -17.5018  -31.6267   24.5157 H   0  0  0  0  0  0
  -15.5351  -30.2985   23.7658 H   0  0  0  0  0  0
  -15.8671  -28.0815   22.7079 H   0  0  0  0  0  0
  -24.5905  -30.7083   25.7796 H   0  0  0  0  0  0
  -24.8938  -32.2889   26.4912 H   0  0  0  0  0  0
  -25.8066  -30.8885   27.0235 H   0  0  0  0  0  0
  -26.2906  -29.6765   24.1220 H   0  0  0  0  0  0
  -27.4026  -29.7264   25.4703 H   0  0  0  0  0  0
  -27.8786  -30.4288   23.9427 H   0  0  0  0  0  0
  -27.2673  -33.3619   26.2092 H   0  0  0  0  0  0
  -28.3862  -32.6895   25.0324 H   0  0  0  0  0  0
  -28.0744  -31.8445   26.5411 H   0  0  0  0  0  0
  -28.2599  -38.0102   24.7516 H   0  0  0  0  0  0
  -28.1081  -36.2634   24.6281 H   0  0  0  0  0  0
  -27.2304  -37.1442   25.8869 H   0  0  0  0  0  0
  -20.9357  -29.8782   21.6900 H   0  0  0  0  0  0
  -26.0179  -38.2859   24.1408 H   0  0  0  0  0  0
  -27.9732  -18.0759   20.9884 H   0  0  0  0  0  0
  -27.1729  -20.3607   20.6797 H   0  0  0  0  0  0
  -31.2148  -21.8171   20.6918 H   0  0  0  0  0  0
  -31.7734  -17.0283   24.4802 H   0  0  0  0  0  0
  -29.8509  -16.4828   23.1820 H   0  0  0  0  0  0
  -32.9658  -20.4081   20.6571 H   0  0  0  0  0  0
  -32.8582  -18.7375   20.2994 H   0  0  0  0  0  0
  -33.4888  -17.1157   22.0536 H   0  0  0  0  0  0
  -33.8504  -17.6450   23.6653 H   0  0  0  0  0  0
  -32.4973  -19.8221   23.1727 H   0  0  0  0  0  0
  -34.0543  -19.5872   22.4528 H   0  0  0  0  0  0
  -31.6111  -17.0676   20.7727 H   0  0  0  0  0  0
  -29.5955  -17.0785   18.8393 H   0  0  0  0  0  0
  -28.1685  -16.3725   19.6000 H   0  0  0  0  0  0
  -29.2215  -15.4175   18.5675 H   0  0  0  0  0  0
  -27.0751  -24.7689   20.4818 H   0  0  0  0  0  0
  -27.8390  -24.8621   18.8984 H   0  0  0  0  0  0
  -27.5595  -22.6021   20.2002 H   0  0  0  0  0  0
  1 25  1  0  0  0
  1 30  2  0  0  0
  1 87  1  0  0  0
  2  3  1  0  0  0
  2 25  1  0  0  0
  2 89  1  0  0  0
  2 90  1  0  0  0
  3  4  1  0  0  0
  3 91  1  0  0  0
  3 92  1  0  0  0
  4  5  1  0  0  0
  4 93  1  0  0  0
  4 94  1  0  0  0
  5  6  1  0  0  0
  5 26  1  0  0  0
  5 95  1  0  0  0
  6 25  1  0  0  0
  6 96  1  0  0  0
  6 97  1  0  0  0
  7  8  2  0  0  0
  7 26  1  0  0  0
  7 29  1  0  0  0
  8  9  1  0  0  0
  8 22  1  0  0  0
  9 10  1  0  0  0
  9 27  2  0  0  0
 10 11  2  0  0  0
 10 15  1  0  0  0
 11 12  1  0  0  0
 11 98  1  0  0  0
 12 13  2  0  0  0
 12 99  1  0  0  0
 13 14  1  0  0  0
 13 31  1  0  0  0
 14 15  2  0  0  0
 14100  1  0  0  0
 15101  1  0  0  0
 16 17  2  0  0  0
 16 21  1  0  0  0
 16 31  1  0  0  0
 17 18  1  0  0  0
 17102  1  0  0  0
 18 19  2  0  0  0
 18103  1  0  0  0
 19 20  1  0  0  0
 19 24  1  0  0  0
 20 21  2  0  0  0
 20104  1  0  0  0
 21 23  1  0  0  0
 22 28  1  0  0  0
 22 32  2  0  0  0
 26 27  1  0  0  0
 28105  1  0  0  0
 28106  1  0  0  0
 29107  1  0  0  0
 29108  1  0  0  0
 33 34  1  0  0  0
 33 66  1  0  0  0
 33 70  2  0  0  0
 34 36  1  0  0  0
 34 59  1  0  0  0
 34109  1  0  0  0
 35 44  2  0  0  0
 35 45  1  0  0  0
 35 68  1  0  0  0
 36 56  1  0  0  0
 36110  1  0  0  0
 37 39  1  0  0  0
 37 47  1  0  0  0
 37 66  1  0  0  0
 37111  1  0  0  0
 38 43  2  0  0  0
 38 46  1  0  0  0
 38 47  1  0  0  0
 39 64  1  0  0  0
 39 67  2  0  0  0
 40 52  1  0  0  0
 40 53  2  0  0  0
 40 58  1  0  0  0
 41112  1  0  0  0
 41113  1  0  0  0
 41114  1  0  0  0
 41 48  1  0  0  0
 42 43  1  0  0  0
 42 66  1  0  0  0
 42115  1  0  0  0
 42116  1  0  0  0
 43 44  1  0  0  0
 44117  1  0  0  0
 45 46  2  0  0  0
 45118  1  0  0  0
 46119  1  0  0  0
 47120  1  0  0  0
 47121  1  0  0  0
 48 56  1  0  0  0
 48 65  1  0  0  0
 48122  1  0  0  0
 49 50  1  0  0  0
 49 53  1  0  0  0
 49 64  1  0  0  0
 49123  1  0  0  0
 50 51  1  0  0  0
 50124  1  0  0  0
 50125  1  0  0  0
 51 52  1  0  0  0
 51126  1  0  0  0
 51127  1  0  0  0
 52128  1  0  0  0
 52129  1  0  0  0
 53 54  1  0  0  0
 54 55  2  0  0  0
 54130  1  0  0  0
 55 57  1  0  0  0
 55131  1  0  0  0
 56 69  2  0  0  0
 57 58  2  0  0  0
 57132  1  0  0  0
 58133  1  0  0  0
 59 60  1  0  0  0
 59 61  1  0  0  0
 59 62  1  0  0  0
 60134  1  0  0  0
 60135  1  0  0  0
 60136  1  0  0  0
 61137  1  0  0  0
 61138  1  0  0  0
 61139  1  0  0  0
 62140  1  0  0  0
 62141  1  0  0  0
 62142  1  0  0  0
 63 65  1  0  0  0
 63143  1  0  0  0
 63144  1  0  0  0
 63145  1  0  0  0
 64146  1  0  0  0
 65147  1  0  0  0
 68 85  1  0  0  0
 71 72  2  0  0  0
 71 74  1  0  0  0
 71148  1  0  0  0
 72 76  1  0  0  0
 72149  1  0  0  0
 73 75  1  0  0  0
 73 76  2  0  0  0
 73150  1  0  0  0
 74 75  2  0  0  0
 74 83  1  0  0  0
 75 80  1  0  0  0
 76 86  1  0  0  0
 77 78  2  0  0  0
 77 81  1  0  0  0
 77151  1  0  0  0
 78 83  1  0  0  0
 78152  1  0  0  0
 79 85  1  0  0  0
 79 86  1  0  0  0
 79 88  2  0  0  0
 80 82  1  0  0  0
 80153  1  0  0  0
 80154  1  0  0  0
 81 82  1  0  0  0
 81155  1  0  0  0
 81156  1  0  0  0
 82157  1  0  0  0
 82158  1  0  0  0
 83 87  1  0  0  0
 83159  1  0  0  0
 84 87  1  0  0  0
 84160  1  0  0  0
 84161  1  0  0  0
 84162  1  0  0  0
 85163  1  0  0  0
 85164  1  0  0  0
 86165  1  0  0  0
M  ISO  4   1 100  68 101  85 101  87 100
M  END
> <chiral flag>
0

> <version>
0

> <s_m_source_file>
/data/baiqing/PycharmProjects/Reinvent-master-3.2/result/LINK_invent/BTK/process_docking_weight1_custom_product_contain_oxygen_bond_distance_aromatic_linkinvent_7_9_3/rearranged_h_0023.sdf

> <i_m_source_file_index>
70

> <r_mmod_Potential_Energy-OPLS-2005>
255.360565185547

> <r_mmod_Stretch_Energy-OPLS-2005>
84.3445434570312

> <r_mmod_Bend_Energy-OPLS-2005>
170.673568725586

> <r_mmod_Torsional_Energy-OPLS-2005>
304.586944580078

> <r_mmod_Improper_Torsional_Energy-OPLS-2005>
9.03028964996338

> <r_mmod_Van_der_Waal_Energy-OPLS-2005>
164.16667175293

> <r_mmod_Electrostatic_Energy-OPLS-2005>
-308.930358886719

> <r_mmod_Solvation_Energy-OPLS-2005>
-229.856292724609

> <b_mmod_Minimization_Converged-OPLS-2005>
0

> <r_mmod_RMS_Derivative-OPLS-2005>
1.0388662815094

$$$$
70
                    3D
 Structure written by MMmdl.
162171  0  0  1  0            999 V2000
  -30.7931  -14.6060   20.5215 C   0  0  0  0  0  0
  -30.4180  -12.3803   19.4691 C   0  0  0  0  0  0
  -29.5053  -12.4954   18.2351 C   0  0  0  0  0  0
  -28.0363  -12.3376   18.6627 C   0  0  0  0  0  0
  -27.6639  -13.2379   19.8704 C   0  0  2  0  0  0
  -28.7240  -13.1756   20.9995 C   0  0  0  0  0  0
  -25.2620  -13.8251   20.5781 C   0  0  0  0  0  0
  -24.1924  -13.0520   20.9209 C   0  0  0  0  0  0
  -24.6507  -11.6970   20.8777 C   0  0  0  0  0  0
  -23.9141  -10.4359   21.0403 C   0  0  0  0  0  0
  -24.3674   -9.4245   21.9164 C   0  0  0  0  0  0
  -23.6310   -8.2307   22.0763 C   0  0  0  0  0  0
  -22.4270   -8.0351   21.3584 C   0  0  0  0  0  0
  -21.9948   -9.0320   20.4657 C   0  0  0  0  0  0
  -22.7309  -10.2182   20.3044 C   0  0  0  0  0  0
  -21.6865   -6.0774   22.5292 C   0  0  0  0  0  0
  -21.4033   -6.5663   23.8224 C   0  0  0  0  0  0
  -21.3625   -5.6792   24.9175 C   0  0  0  0  0  0
  -21.6034   -4.3054   24.7209 C   0  0  0  0  0  0
  -21.8815   -3.8174   23.4323 C   0  0  0  0  0  0
  -21.9202   -4.7006   22.3398 C   0  0  0  0  0  0
  -22.7912  -13.5260   21.1803 C   0  0  0  0  0  0
  -22.1658   -4.2195   21.0961 F   0  0  0  0  0  0
  -21.5607   -3.4535   25.7719 F   0  0  0  0  0  0
  -30.0406  -13.4595   20.4151 N   0  0  0  0  0  0
  -26.3113  -12.9495   20.3467 N   0  0  0  0  0  0
  -25.9476  -11.6630   20.5930 N   0  0  0  0  0  0
  -22.0543  -12.8283   22.0319 N   0  0  0  0  0  0
  -25.4347  -15.2015   20.4206 N   0  0  0  0  0  0
  -31.9341  -14.6300   20.0537 O   0  0  0  0  0  0
  -21.6629   -6.8946   21.4269 O   0  0  0  0  0  0
  -22.3606  -14.5569   20.6588 O   0  0  0  0  0  0
  -24.6269  -31.8584   23.2070 C   0  0  0  0  0  0
  -25.9119  -32.4787   23.8376 C   0  0  1  0  0  0
  -27.1892  -27.2503   20.1012 C   0  0  0  0  0  0
  -25.5975  -33.8622   24.2306 N   0  0  0  0  0  0
  -23.4178  -30.4810   21.5585 C   0  0  2  0  0  0
  -24.8576  -28.9363   20.0971 C   0  0  0  0  0  0
  -22.7484  -29.4559   22.5032 C   0  0  0  0  0  0
  -18.0264  -28.1361   22.8520 C   0  0  0  0  0  0
  -24.1487  -36.7255   23.2629 C   0  0  0  0  0  0
  -25.9676  -30.7536   21.3936 C   0  0  0  0  0  0
  -26.0310  -29.3834   20.7149 C   0  0  0  0  0  0
  -27.1978  -28.5507   20.7088 C   0  0  0  0  0  0
  -25.9745  -26.8356   19.5090 C   0  0  0  0  0  0
  -24.8388  -27.6723   19.4848 C   0  0  0  0  0  0
  -23.6250  -29.8318   20.1651 C   0  0  0  0  0  0
  -25.4126  -36.3088   24.0316 C   0  0  1  0  0  0
  -20.5876  -28.3659   23.1369 C   0  0  2  0  0  0
  -20.6839  -26.9459   22.5327 C   0  0  0  0  0  0
  -19.5787  -26.6516   21.5133 C   0  0  0  0  0  0
  -18.1954  -26.7974   22.1525 C   0  0  0  0  0  0
  -19.1521  -28.8810   23.2959 C   0  0  0  0  0  0
  -18.9449  -30.1362   23.9063 C   0  0  0  0  0  0
  -17.6465  -30.6555   24.0613 C   0  0  0  0  0  0
  -25.9107  -34.9459   23.5116 C   0  0  0  0  0  0
  -16.5345  -29.9091   23.6353 C   0  0  0  0  0  0
  -16.7255  -28.6466   23.0431 C   0  0  0  0  0  0
  -26.4481  -31.6651   25.0807 C   0  0  0  0  0  0
  -25.3670  -31.3832   26.1519 C   0  0  0  0  0  0
  -27.0335  -30.3055   24.6365 C   0  0  0  0  0  0
  -27.6105  -32.4337   25.7562 C   0  0  0  0  0  0
  -27.5588  -37.1804   24.8484 C   0  0  0  0  0  0
  -21.4190  -29.3036   22.3802 N   0  0  0  0  0  0
  -26.4304  -37.3782   23.9424 N   0  0  0  0  0  0
  -24.6908  -31.0484   22.1079 N   0  0  0  0  0  0
  -23.4227  -28.8075   23.3068 O   0  0  0  0  0  0
  -28.3225  -26.4089   20.1288 O   0  0  0  0  0  0
  -26.5676  -34.8906   22.4698 O   0  0  0  0  0  0
  -23.5436  -32.1516   23.7330 O   0  0  0  0  0  0
  -29.1247  -18.7442   19.3986 C   0  0  0  0  0  0
  -29.0175  -20.5234   21.5514 C   0  0  0  0  0  0
  -29.2802  -18.1761   20.6848 C   0  0  0  0  0  0
  -28.7328  -21.0713   20.2657 C   0  0  0  0  0  0
  -28.8359  -20.1283   19.1953 C   0  0  0  0  0  0
  -29.2722  -19.1206   21.7564 C   0  0  0  0  0  0
  -26.2296  -23.2040   21.2157 C   0  0  0  0  0  0
  -27.4934  -23.8924   21.7282 C   0  0  0  0  0  0
  -26.6916  -22.2746   20.0849 C   0  0  0  0  0  0
  -28.4809  -23.7500   20.5752 C   0  0  2  0  0  0
  -31.3157  -16.3094   22.1727 C   0  0  0  0  0  0
  -29.1868  -16.5977   20.8778 C   0  0  0  0  0  0
  -28.3501  -25.0145   19.5769 C   0  0  0  0  0  0
  -28.1539  -22.3878   20.0056 N   0  0  0  0  0  0
  -30.3561  -15.7102   21.2285 N   0  0  0  0  0  0
  -28.5470  -20.5217   17.9319 F   0  0  0  0  0  0
  -29.4438  -18.6723   23.0224 F   0  0  0  0  0  0
  -31.4642  -12.4117   19.1649 H   0  0  0  0  0  0
  -30.2921  -11.4074   19.9454 H   0  0  0  0  0  0
  -29.7620  -11.7333   17.4976 H   0  0  0  0  0  0
  -29.6600  -13.4588   17.7494 H   0  0  0  0  0  0
  -27.8868  -11.2920   18.9315 H   0  0  0  0  0  0
  -27.3673  -12.5340   17.8252 H   0  0  0  0  0  0
  -27.6620  -14.2564   19.4838 H   0  0  0  0  0  0
  -28.7423  -12.1913   21.4675 H   0  0  0  0  0  0
  -28.4996  -13.8924   21.7923 H   0  0  0  0  0  0
  -25.2836   -9.5715   22.4711 H   0  0  0  0  0  0
  -24.0025   -7.4710   22.7501 H   0  0  0  0  0  0
  -21.0860   -8.8839   19.8974 H   0  0  0  0  0  0
  -22.3763  -10.9712   19.6135 H   0  0  0  0  0  0
  -21.2040   -7.6173   23.9743 H   0  0  0  0  0  0
  -21.1419   -6.0517   25.9064 H   0  0  0  0  0  0
  -22.0613   -2.7638   23.2805 H   0  0  0  0  0  0
  -22.4129  -11.9916   22.4723 H   0  0  0  0  0  0
  -21.1178  -13.1378   22.2521 H   0  0  0  0  0  0
  -24.6745  -15.8620   20.5382 H   0  0  0  0  0  0
  -26.2918  -15.6339   20.1056 H   0  0  0  0  0  0
  -26.7186  -32.5370   23.1104 H   0  0  0  0  0  0
  -25.0096  -33.9831   25.0422 H   0  0  0  0  0  0
  -22.7088  -31.3030   21.4426 H   0  0  0  0  0  0
  -23.3785  -35.9561   23.3318 H   0  0  0  0  0  0
  -24.3560  -36.8860   22.2049 H   0  0  0  0  0  0
  -23.7216  -37.6448   23.6632 H   0  0  0  0  0  0
  -26.1292  -31.5307   20.6443 H   0  0  0  0  0  0
  -26.8329  -30.7777   22.0450 H   0  0  0  0  0  0
  -28.0957  -28.8821   21.2126 H   0  0  0  0  0  0
  -25.8383  -25.8453   19.0919 H   0  0  0  0  0  0
  -23.9292  -27.3276   19.0128 H   0  0  0  0  0  0
  -23.7323  -30.6380   19.4397 H   0  0  0  0  0  0
  -22.7334  -29.2819   19.8464 H   0  0  0  0  0  0
  -25.1294  -36.1948   25.0803 H   0  0  0  0  0  0
  -20.9908  -28.3142   24.1513 H   0  0  0  0  0  0
  -20.5882  -26.2177   23.3401 H   0  0  0  0  0  0
  -21.6693  -26.7701   22.1046 H   0  0  0  0  0  0
  -19.7002  -25.6487   21.1010 H   0  0  0  0  0  0
  -19.6715  -27.3429   20.6747 H   0  0  0  0  0  0
  -17.4279  -26.6880   21.3850 H   0  0  0  0  0  0
  -18.0232  -26.0007   22.8772 H   0  0  0  0  0  0
  -19.7921  -30.7103   24.2568 H   0  0  0  0  0  0
  -17.5048  -31.6233   24.5186 H   0  0  0  0  0  0
  -15.5348  -30.3059   23.7593 H   0  0  0  0  0  0
  -15.8632  -28.0771   22.7188 H   0  0  0  0  0  0
  -24.5896  -30.7133   25.7826 H   0  0  0  0  0  0
  -24.8785  -32.2998   26.4838 H   0  0  0  0  0  0
  -25.7933  -30.9093   27.0379 H   0  0  0  0  0  0
  -26.2940  -29.6846   24.1304 H   0  0  0  0  0  0
  -27.3889  -29.7313   25.4942 H   0  0  0  0  0  0
  -27.8880  -30.4335   23.9720 H   0  0  0  0  0  0
  -27.2826  -33.3674   26.2145 H   0  0  0  0  0  0
  -28.3910  -32.6839   25.0361 H   0  0  0  0  0  0
  -28.0786  -31.8444   26.5470 H   0  0  0  0  0  0
  -28.2634  -38.0072   24.7514 H   0  0  0  0  0  0
  -28.1041  -36.2618   24.6296 H   0  0  0  0  0  0
  -27.2321  -37.1446   25.8890 H   0  0  0  0  0  0
  -20.9348  -29.8675   21.6972 H   0  0  0  0  0  0
  -26.0185  -38.2863   24.1405 H   0  0  0  0  0  0
  -29.1107  -18.0888   18.5386 H   0  0  0  0  0  0
  -28.9534  -21.1513   22.4259 H   0  0  0  0  0  0
  -25.5441  -23.9408   20.7888 H   0  0  0  0  0  0
  -25.7140  -22.6921   22.0322 H   0  0  0  0  0  0
  -27.8709  -23.4023   22.6308 H   0  0  0  0  0  0
  -27.3091  -24.9333   21.9809 H   0  0  0  0  0  0
  -26.2296  -22.6275   19.1625 H   0  0  0  0  0  0
  -26.3364  -21.2491   20.2311 H   0  0  0  0  0  0
  -29.4940  -23.7961   20.9739 H   0  0  0  0  0  0
  -31.7004  -17.2677   21.8230 H   0  0  0  0  0  0
  -32.1860  -15.6745   22.3759 H   0  0  0  0  0  0
  -30.8248  -16.4590   23.1328 H   0  0  0  0  0  0
  -28.7360  -16.1947   19.9694 H   0  0  0  0  0  0
  -28.4212  -16.4166   21.6389 H   0  0  0  0  0  0
  -27.6230  -24.8298   18.7832 H   0  0  0  0  0  0
  -29.2804  -24.9862   19.0055 H   0  0  0  0  0  0
  1 25  1  0  0  0
  1 30  2  0  0  0
  1 85  1  0  0  0
  2  3  1  0  0  0
  2 25  1  0  0  0
  2 88  1  0  0  0
  2 89  1  0  0  0
  3  4  1  0  0  0
  3 90  1  0  0  0
  3 91  1  0  0  0
  4  5  1  0  0  0
  4 92  1  0  0  0
  4 93  1  0  0  0
  5  6  1  0  0  0
  5 26  1  0  0  0
  5 94  1  0  0  0
  6 25  1  0  0  0
  6 95  1  0  0  0
  6 96  1  0  0  0
  7  8  2  0  0  0
  7 26  1  0  0  0
  7 29  1  0  0  0
  8  9  1  0  0  0
  8 22  1  0  0  0
  9 10  1  0  0  0
  9 27  2  0  0  0
 10 11  2  0  0  0
 10 15  1  0  0  0
 11 12  1  0  0  0
 11 97  1  0  0  0
 12 13  2  0  0  0
 12 98  1  0  0  0
 13 14  1  0  0  0
 13 31  1  0  0  0
 14 15  2  0  0  0
 14 99  1  0  0  0
 15100  1  0  0  0
 16 17  2  0  0  0
 16 21  1  0  0  0
 16 31  1  0  0  0
 17 18  1  0  0  0
 17101  1  0  0  0
 18 19  2  0  0  0
 18102  1  0  0  0
 19 20  1  0  0  0
 19 24  1  0  0  0
 20 21  2  0  0  0
 20103  1  0  0  0
 21 23  1  0  0  0
 22 28  1  0  0  0
 22 32  2  0  0  0
 26 27  1  0  0  0
 28104  1  0  0  0
 28105  1  0  0  0
 29106  1  0  0  0
 29107  1  0  0  0
 33 34  1  0  0  0
 33 66  1  0  0  0
 33 70  2  0  0  0
 34 36  1  0  0  0
 34 59  1  0  0  0
 34108  1  0  0  0
 35 44  2  0  0  0
 35 45  1  0  0  0
 35 68  1  0  0  0
 36 56  1  0  0  0
 36109  1  0  0  0
 37 39  1  0  0  0
 37 47  1  0  0  0
 37 66  1  0  0  0
 37110  1  0  0  0
 38 43  2  0  0  0
 38 46  1  0  0  0
 38 47  1  0  0  0
 39 64  1  0  0  0
 39 67  2  0  0  0
 40 52  1  0  0  0
 40 53  2  0  0  0
 40 58  1  0  0  0
 41111  1  0  0  0
 41112  1  0  0  0
 41113  1  0  0  0
 41 48  1  0  0  0
 42 43  1  0  0  0
 42 66  1  0  0  0
 42114  1  0  0  0
 42115  1  0  0  0
 43 44  1  0  0  0
 44116  1  0  0  0
 45 46  2  0  0  0
 45117  1  0  0  0
 46118  1  0  0  0
 47119  1  0  0  0
 47120  1  0  0  0
 48 56  1  0  0  0
 48 65  1  0  0  0
 48121  1  0  0  0
 49 50  1  0  0  0
 49 53  1  0  0  0
 49 64  1  0  0  0
 49122  1  0  0  0
 50 51  1  0  0  0
 50123  1  0  0  0
 50124  1  0  0  0
 51 52  1  0  0  0
 51125  1  0  0  0
 51126  1  0  0  0
 52127  1  0  0  0
 52128  1  0  0  0
 53 54  1  0  0  0
 54 55  2  0  0  0
 54129  1  0  0  0
 55 57  1  0  0  0
 55130  1  0  0  0
 56 69  2  0  0  0
 57 58  2  0  0  0
 57131  1  0  0  0
 58132  1  0  0  0
 59 60  1  0  0  0
 59 61  1  0  0  0
 59 62  1  0  0  0
 60133  1  0  0  0
 60134  1  0  0  0
 60135  1  0  0  0
 61136  1  0  0  0
 61137  1  0  0  0
 61138  1  0  0  0
 62139  1  0  0  0
 62140  1  0  0  0
 62141  1  0  0  0
 63 65  1  0  0  0
 63142  1  0  0  0
 63143  1  0  0  0
 63144  1  0  0  0
 64145  1  0  0  0
 65146  1  0  0  0
 68 83  1  0  0  0
 71 73  2  0  0  0
 71 75  1  0  0  0
 71147  1  0  0  0
 72 74  1  0  0  0
 72 76  2  0  0  0
 72148  1  0  0  0
 73 76  1  0  0  0
 73 82  1  0  0  0
 74 75  2  0  0  0
 74 84  1  0  0  0
 75 86  1  0  0  0
 76 87  1  0  0  0
 77 78  1  0  0  0
 77 79  1  0  0  0
 77149  1  0  0  0
 77150  1  0  0  0
 78 80  1  0  0  0
 78151  1  0  0  0
 78152  1  0  0  0
 79 84  1  0  0  0
 79153  1  0  0  0
 79154  1  0  0  0
 80 83  1  0  0  0
 80 84  1  0  0  0
 80155  1  0  0  0
 81 85  1  0  0  0
 81156  1  0  0  0
 81157  1  0  0  0
 81158  1  0  0  0
 82 85  1  0  0  0
 82159  1  0  0  0
 82160  1  0  0  0
 83161  1  0  0  0
 83162  1  0  0  0
M  ISO  4   1 100  68 101  83 101  85 100
M  END
> <chiral flag>
0

> <version>
0

> <s_m_source_file>
/data/baiqing/PycharmProjects/Reinvent-master-3.2/result/LINK_invent/BTK/process_docking_weight1_custom_product_contain_oxygen_bond_distance_aromatic_linkinvent_7_9_3/rearranged_h_0023.sdf

> <i_m_source_file_index>
71

> <r_mmod_Potential_Energy-OPLS-2005>
442.469635009766

> <r_mmod_Stretch_Energy-OPLS-2005>
109.564231872559

> <r_mmod_Bend_Energy-OPLS-2005>
225.748870849609

> <r_mmod_Torsional_Energy-OPLS-2005>
368.572937011719

> <r_mmod_Improper_Torsional_Energy-OPLS-2005>
11.1546669006348

> <r_mmod_Van_der_Waal_Energy-OPLS-2005>
131.931091308594

> <r_mmod_Electrostatic_Energy-OPLS-2005>
-267.163330078125

> <r_mmod_Solvation_Energy-OPLS-2005>
-201.905090332031

> <b_mmod_Minimization_Converged-OPLS-2005>
0

> <r_mmod_RMS_Derivative-OPLS-2005>
10.7401847839355

$$$$
71
                    3D
 Structure written by MMmdl.
159168  0  0  1  0            999 V2000
  -30.4823  -15.0630   20.4043 C   0  0  0  0  0  0
  -30.4468  -12.6756   19.4789 C   0  0  0  0  0  0
  -29.5226  -12.5473   18.2457 C   0  0  0  0  0  0
  -28.0616  -12.3021   18.6780 C   0  0  0  0  0  0
  -27.6193  -13.2503   19.8227 C   0  0  2  0  0  0
  -28.6667  -13.3327   20.9499 C   0  0  0  0  0  0
  -25.2440  -13.8191   20.5715 C   0  0  0  0  0  0
  -24.1763  -13.0417   20.9211 C   0  0  0  0  0  0
  -24.6381  -11.6911   20.8732 C   0  0  0  0  0  0
  -23.9053  -10.4286   21.0392 C   0  0  0  0  0  0
  -24.3605   -9.4203   21.9167 C   0  0  0  0  0  0
  -23.6289   -8.2236   22.0744 C   0  0  0  0  0  0
  -22.4269   -8.0260   21.3538 C   0  0  0  0  0  0
  -21.9895   -9.0232   20.4638 C   0  0  0  0  0  0
  -22.7221  -10.2117   20.3048 C   0  0  0  0  0  0
  -21.6858   -6.0711   22.5267 C   0  0  0  0  0  0
  -21.4018   -6.5619   23.8193 C   0  0  0  0  0  0
  -21.3670   -5.6779   24.9162 C   0  0  0  0  0  0
  -21.6045   -4.3038   24.7219 C   0  0  0  0  0  0
  -21.8819   -3.8127   23.4339 C   0  0  0  0  0  0
  -21.9187   -4.6940   22.3391 C   0  0  0  0  0  0
  -22.7788  -13.5197   21.1861 C   0  0  0  0  0  0
  -22.1667   -4.2118   21.0976 F   0  0  0  0  0  0
  -21.5629   -3.4530   25.7739 F   0  0  0  0  0  0
  -29.9130  -13.7864   20.3199 N   0  0  0  0  0  0
  -26.2846  -12.9428   20.3207 N   0  0  0  0  0  0
  -25.9308  -11.6546   20.5695 N   0  0  0  0  0  0
  -22.0438  -12.8208   22.0434 N   0  0  0  0  0  0
  -25.4068  -15.1931   20.4182 N   0  0  0  0  0  0
  -31.7125  -15.1111   20.2905 O   0  0  0  0  0  0
  -21.6645   -6.8855   21.4228 O   0  0  0  0  0  0
  -22.3474  -14.5492   20.6676 O   0  0  0  0  0  0
  -24.6496  -31.8384   23.1804 C   0  0  0  0  0  0
  -25.9237  -32.4668   23.8221 C   0  0  1  0  0  0
  -27.2233  -27.0685   20.1770 C   0  0  0  0  0  0
  -25.5960  -33.8473   24.2140 N   0  0  0  0  0  0
  -23.4564  -30.4519   21.5284 C   0  0  2  0  0  0
  -24.9041  -28.8517   20.1248 C   0  0  0  0  0  0
  -22.7597  -29.4527   22.4859 C   0  0  0  0  0  0
  -18.0312  -28.1391   22.8481 C   0  0  0  0  0  0
  -24.1493  -36.7229   23.2642 C   0  0  0  0  0  0
  -26.0150  -30.6925   21.3840 C   0  0  0  0  0  0
  -26.0856  -29.2912   20.7365 C   0  0  0  0  0  0
  -27.2461  -28.4205   20.7319 C   0  0  0  0  0  0
  -26.0115  -26.7324   19.5415 C   0  0  0  0  0  0
  -24.8828  -27.5873   19.5128 C   0  0  0  0  0  0
  -23.6856  -29.7658   20.1549 C   0  0  0  0  0  0
  -25.4127  -36.3008   24.0311 C   0  0  1  0  0  0
  -20.5931  -28.3728   23.1230 C   0  0  2  0  0  0
  -20.6789  -26.9424   22.5413 C   0  0  0  0  0  0
  -19.5758  -26.6375   21.5225 C   0  0  0  0  0  0
  -18.1943  -26.7929   22.1632 C   0  0  0  0  0  0
  -19.1571  -28.8877   23.2845 C   0  0  0  0  0  0
  -18.9483  -30.1474   23.8864 C   0  0  0  0  0  0
  -17.6474  -30.6585   24.0556 C   0  0  0  0  0  0
  -25.9089  -34.9393   23.5045 C   0  0  0  0  0  0
  -16.5368  -29.9079   23.6328 C   0  0  0  0  0  0
  -16.7298  -28.6501   23.0352 C   0  0  0  0  0  0
  -26.4527  -31.6561   25.0700 C   0  0  0  0  0  0
  -25.3687  -31.3768   26.1385 C   0  0  0  0  0  0
  -27.0397  -30.2946   24.6331 C   0  0  0  0  0  0
  -27.6039  -32.4339   25.7487 C   0  0  0  0  0  0
  -27.5566  -37.1779   24.8459 C   0  0  0  0  0  0
  -21.4279  -29.3049   22.3597 N   0  0  0  0  0  0
  -26.4274  -37.3734   23.9413 N   0  0  0  0  0  0
  -24.7276  -31.0185   22.0862 N   0  0  0  0  0  0
  -23.4216  -28.8100   23.3045 O   0  0  0  0  0  0
  -28.3156  -26.1137   20.1029 O   0  0  0  0  0  0
  -26.5683  -34.8915   22.4628 O   0  0  0  0  0  0
  -23.5600  -32.1285   23.6997 O   0  0  0  0  0  0
  -29.0903  -20.3034   22.0449 C   0  0  0  0  0  0
  -29.2847  -19.0930   22.7518 C   0  0  0  0  0  0
  -29.4160  -19.0302   20.0013 C   0  0  0  0  0  0
  -29.1802  -20.3865   20.6407 C   0  0  0  0  0  0
  -29.6256  -17.7177   20.7258 C   0  0  0  0  0  0
  -29.5575  -17.8529   22.1286 C   0  0  0  0  0  0
  -29.5224  -22.7565   17.9365 C   0  0  0  0  0  0
  -28.1361  -23.1764   18.4543 C   0  0  0  0  0  0
  -30.2284  -22.0728   19.1160 C   0  0  0  0  0  0
  -28.2072  -23.0409   19.9789 C   0  0  2  0  0  0
  -29.4182  -18.9587   18.4863 C   0  0  0  0  0  0
  -28.4214  -24.6213   20.6425 C   0  0  0  0  0  0
  -29.1920  -21.8001   20.0981 N   0  0  0  0  0  0
  -29.6734  -16.2437   20.2130 N   0  0  0  0  0  0
  -29.6939  -16.7515   22.9069 F   0  0  0  0  0  0
  -31.4712  -12.8724   19.1596 H   0  0  0  0  0  0
  -30.4796  -11.7427   20.0425 H   0  0  0  0  0  0
  -29.8683  -11.7443   17.5936 H   0  0  0  0  0  0
  -29.5771  -13.4637   17.6547 H   0  0  0  0  0  0
  -27.9872  -11.2668   19.0127 H   0  0  0  0  0  0
  -27.3905  -12.3957   17.8230 H   0  0  0  0  0  0
  -27.5598  -14.2383   19.3668 H   0  0  0  0  0  0
  -28.7940  -12.3734   21.4531 H   0  0  0  0  0  0
  -28.3529  -14.0478   21.7116 H   0  0  0  0  0  0
  -25.2742   -9.5690   22.4737 H   0  0  0  0  0  0
  -23.9985   -7.4633   22.7475 H   0  0  0  0  0  0
  -21.0810   -8.8747   19.8965 H   0  0  0  0  0  0
  -22.3656  -10.9644   19.6156 H   0  0  0  0  0  0
  -21.2034   -7.6129   23.9696 H   0  0  0  0  0  0
  -21.1497   -6.0511   25.9065 H   0  0  0  0  0  0
  -22.0599   -2.7586   23.2850 H   0  0  0  0  0  0
  -22.4074  -11.9900   22.4860 H   0  0  0  0  0  0
  -21.1047  -13.1238   22.2608 H   0  0  0  0  0  0
  -24.6338  -15.8403   20.5316 H   0  0  0  0  0  0
  -26.2556  -15.6453   20.1071 H   0  0  0  0  0  0
  -26.7310  -32.5264   23.0948 H   0  0  0  0  0  0
  -25.0073  -33.9564   25.0269 H   0  0  0  0  0  0
  -22.7630  -31.2793   21.3646 H   0  0  0  0  0  0
  -23.3767  -35.9548   23.3287 H   0  0  0  0  0  0
  -24.3569  -36.8882   22.2059 H   0  0  0  0  0  0
  -23.7251  -37.6418   23.6696 H   0  0  0  0  0  0
  -26.1764  -31.4387   20.6041 H   0  0  0  0  0  0
  -26.8827  -30.7471   22.0308 H   0  0  0  0  0  0
  -28.1597  -28.7674   21.1933 H   0  0  0  0  0  0
  -25.9333  -25.7673   19.0613 H   0  0  0  0  0  0
  -23.9807  -27.2430   19.0265 H   0  0  0  0  0  0
  -23.8335  -30.5319   19.3928 H   0  0  0  0  0  0
  -22.7965  -29.2128   19.8444 H   0  0  0  0  0  0
  -25.1333  -36.1793   25.0801 H   0  0  0  0  0  0
  -21.0042  -28.3310   24.1342 H   0  0  0  0  0  0
  -20.5674  -26.2346   23.3643 H   0  0  0  0  0  0
  -21.6652  -26.7417   22.1210 H   0  0  0  0  0  0
  -19.6923  -25.6286   21.1251 H   0  0  0  0  0  0
  -19.6679  -27.3181   20.6750 H   0  0  0  0  0  0
  -17.4220  -26.6694   21.4024 H   0  0  0  0  0  0
  -18.0319  -26.0074   22.9026 H   0  0  0  0  0  0
  -19.7958  -30.7305   24.2214 H   0  0  0  0  0  0
  -17.5026  -31.6257   24.5171 H   0  0  0  0  0  0
  -15.5366  -30.2967   23.7670 H   0  0  0  0  0  0
  -15.8704  -28.0812   22.7073 H   0  0  0  0  0  0
  -24.5866  -30.7127   25.7696 H   0  0  0  0  0  0
  -24.8887  -32.2964   26.4738 H   0  0  0  0  0  0
  -25.7948  -30.8976   27.0210 H   0  0  0  0  0  0
  -26.3036  -29.6659   24.1319 H   0  0  0  0  0  0
  -27.3958  -29.7262   25.4933 H   0  0  0  0  0  0
  -27.8961  -30.4164   23.9697 H   0  0  0  0  0  0
  -27.2612  -33.3655   26.1999 H   0  0  0  0  0  0
  -28.3873  -32.6877   25.0335 H   0  0  0  0  0  0
  -28.0686  -31.8519   26.5457 H   0  0  0  0  0  0
  -28.2577  -38.0078   24.7505 H   0  0  0  0  0  0
  -28.1064  -36.2614   24.6278 H   0  0  0  0  0  0
  -27.2285  -37.1413   25.8860 H   0  0  0  0  0  0
  -20.9509  -29.8750   21.6752 H   0  0  0  0  0  0
  -26.0122  -38.2794   24.1410 H   0  0  0  0  0  0
  -28.9264  -21.2043   22.6200 H   0  0  0  0  0  0
  -29.2232  -19.1161   23.8297 H   0  0  0  0  0  0
  -30.1006  -23.6182   17.5982 H   0  0  0  0  0  0
  -29.4234  -22.0789   17.0854 H   0  0  0  0  0  0
  -27.3855  -22.4833   18.0703 H   0  0  0  0  0  0
  -27.8481  -24.1754   18.1234 H   0  0  0  0  0  0
  -30.9547  -22.7553   19.5627 H   0  0  0  0  0  0
  -30.7842  -21.1885   18.8065 H   0  0  0  0  0  0
  -27.2290  -22.6998   20.3230 H   0  0  0  0  0  0
  -28.7956  -19.7457   18.0591 H   0  0  0  0  0  0
  -29.0203  -18.0051   18.1408 H   0  0  0  0  0  0
  -30.4304  -19.0628   18.0957 H   0  0  0  0  0  0
  -29.4567  -24.6028   20.9852 H   0  0  0  0  0  0
  -27.8565  -24.6252   21.5743 H   0  0  0  0  0  0
  -28.7731  -15.9695   19.8546 H   0  0  0  0  0  0
  1 25  1  0  0  0
  1 30  2  0  0  0
  1 84  1  0  0  0
  2  3  1  0  0  0
  2 25  1  0  0  0
  2 86  1  0  0  0
  2 87  1  0  0  0
  3  4  1  0  0  0
  3 88  1  0  0  0
  3 89  1  0  0  0
  4  5  1  0  0  0
  4 90  1  0  0  0
  4 91  1  0  0  0
  5  6  1  0  0  0
  5 26  1  0  0  0
  5 92  1  0  0  0
  6 25  1  0  0  0
  6 93  1  0  0  0
  6 94  1  0  0  0
  7  8  2  0  0  0
  7 26  1  0  0  0
  7 29  1  0  0  0
  8  9  1  0  0  0
  8 22  1  0  0  0
  9 10  1  0  0  0
  9 27  2  0  0  0
 10 11  2  0  0  0
 10 15  1  0  0  0
 11 12  1  0  0  0
 11 95  1  0  0  0
 12 13  2  0  0  0
 12 96  1  0  0  0
 13 14  1  0  0  0
 13 31  1  0  0  0
 14 15  2  0  0  0
 14 97  1  0  0  0
 15 98  1  0  0  0
 16 17  2  0  0  0
 16 21  1  0  0  0
 16 31  1  0  0  0
 17 18  1  0  0  0
 17 99  1  0  0  0
 18 19  2  0  0  0
 18100  1  0  0  0
 19 20  1  0  0  0
 19 24  1  0  0  0
 20 21  2  0  0  0
 20101  1  0  0  0
 21 23  1  0  0  0
 22 28  1  0  0  0
 22 32  2  0  0  0
 26 27  1  0  0  0
 28102  1  0  0  0
 28103  1  0  0  0
 29104  1  0  0  0
 29105  1  0  0  0
 33 34  1  0  0  0
 33 66  1  0  0  0
 33 70  2  0  0  0
 34 36  1  0  0  0
 34 59  1  0  0  0
 34106  1  0  0  0
 35 44  2  0  0  0
 35 45  1  0  0  0
 35 68  1  0  0  0
 36 56  1  0  0  0
 36107  1  0  0  0
 37 39  1  0  0  0
 37 47  1  0  0  0
 37 66  1  0  0  0
 37108  1  0  0  0
 38 43  2  0  0  0
 38 46  1  0  0  0
 38 47  1  0  0  0
 39 64  1  0  0  0
 39 67  2  0  0  0
 40 52  1  0  0  0
 40 53  2  0  0  0
 40 58  1  0  0  0
 41109  1  0  0  0
 41110  1  0  0  0
 41111  1  0  0  0
 41 48  1  0  0  0
 42 43  1  0  0  0
 42 66  1  0  0  0
 42112  1  0  0  0
 42113  1  0  0  0
 43 44  1  0  0  0
 44114  1  0  0  0
 45 46  2  0  0  0
 45115  1  0  0  0
 46116  1  0  0  0
 47117  1  0  0  0
 47118  1  0  0  0
 48 56  1  0  0  0
 48 65  1  0  0  0
 48119  1  0  0  0
 49 50  1  0  0  0
 49 53  1  0  0  0
 49 64  1  0  0  0
 49120  1  0  0  0
 50 51  1  0  0  0
 50121  1  0  0  0
 50122  1  0  0  0
 51 52  1  0  0  0
 51123  1  0  0  0
 51124  1  0  0  0
 52125  1  0  0  0
 52126  1  0  0  0
 53 54  1  0  0  0
 54 55  2  0  0  0
 54127  1  0  0  0
 55 57  1  0  0  0
 55128  1  0  0  0
 56 69  2  0  0  0
 57 58  2  0  0  0
 57129  1  0  0  0
 58130  1  0  0  0
 59 60  1  0  0  0
 59 61  1  0  0  0
 59 62  1  0  0  0
 60131  1  0  0  0
 60132  1  0  0  0
 60133  1  0  0  0
 61134  1  0  0  0
 61135  1  0  0  0
 61136  1  0  0  0
 62137  1  0  0  0
 62138  1  0  0  0
 62139  1  0  0  0
 63 65  1  0  0  0
 63140  1  0  0  0
 63141  1  0  0  0
 63142  1  0  0  0
 64143  1  0  0  0
 65144  1  0  0  0
 68 82  1  0  0  0
 71 72  2  0  0  0
 71 74  1  0  0  0
 71145  1  0  0  0
 72 76  1  0  0  0
 72146  1  0  0  0
 73 74  2  0  0  0
 73 75  1  0  0  0
 73 81  1  0  0  0
 74 83  1  0  0  0
 75 76  2  0  0  0
 75 84  1  0  0  0
 76 85  1  0  0  0
 77 78  1  0  0  0
 77 79  1  0  0  0
 77147  1  0  0  0
 77148  1  0  0  0
 78 80  1  0  0  0
 78149  1  0  0  0
 78150  1  0  0  0
 79 83  1  0  0  0
 79151  1  0  0  0
 79152  1  0  0  0
 80 82  1  0  0  0
 80 83  1  0  0  0
 80153  1  0  0  0
 81154  1  0  0  0
 81155  1  0  0  0
 81156  1  0  0  0
 82157  1  0  0  0
 82158  1  0  0  0
 84159  1  0  0  0
M  ISO  4   1 100  68 101  82 101  84 100
M  END
> <chiral flag>
0

> <version>
0

> <s_m_source_file>
/data/baiqing/PycharmProjects/Reinvent-master-3.2/result/LINK_invent/BTK/process_docking_weight1_custom_product_contain_oxygen_bond_distance_aromatic_linkinvent_7_9_3/rearranged_h_0023.sdf

> <i_m_source_file_index>
72

> <r_mmod_Potential_Energy-OPLS-2005>
870.180725097656

> <r_mmod_Stretch_Energy-OPLS-2005>
335.51611328125

> <r_mmod_Bend_Energy-OPLS-2005>
399.451904296875

> <r_mmod_Torsional_Energy-OPLS-2005>
372.250335693359

> <r_mmod_Improper_Torsional_Energy-OPLS-2005>
15.6751012802124

> <r_mmod_Van_der_Waal_Energy-OPLS-2005>
114.572975158691

> <r_mmod_Electrostatic_Energy-OPLS-2005>
-416.333557128906

> <r_mmod_Solvation_Energy-OPLS-2005>
-215.754592895508

> <b_mmod_Minimization_Converged-OPLS-2005>
0

> <r_mmod_RMS_Derivative-OPLS-2005>
2.19725584983826

$$$$
72
                    3D
 Structure written by MMmdl.
151159  0  0  1  0            999 V2000
  -30.6187  -14.6492   20.4963 C   0  0  0  0  0  0
  -30.4388  -12.3971   19.4558 C   0  0  0  0  0  0
  -29.5091  -12.5078   18.2265 C   0  0  0  0  0  0
  -28.0321  -12.3427   18.6377 C   0  0  0  0  0  0
  -27.6527  -13.2166   19.8626 C   0  0  2  0  0  0
  -28.6968  -13.0772   20.9938 C   0  0  0  0  0  0
  -25.2557  -13.8172   20.5682 C   0  0  0  0  0  0
  -24.1828  -13.0438   20.9196 C   0  0  0  0  0  0
  -24.6396  -11.6909   20.8742 C   0  0  0  0  0  0
  -23.9066  -10.4292   21.0408 C   0  0  0  0  0  0
  -24.3616   -9.4206   21.9185 C   0  0  0  0  0  0
  -23.6290   -8.2242   22.0754 C   0  0  0  0  0  0
  -22.4273   -8.0282   21.3545 C   0  0  0  0  0  0
  -21.9909   -9.0257   20.4648 C   0  0  0  0  0  0
  -22.7238  -10.2135   20.3057 C   0  0  0  0  0  0
  -21.6852   -6.0736   22.5279 C   0  0  0  0  0  0
  -21.4016   -6.5639   23.8214 C   0  0  0  0  0  0
  -21.3658   -5.6791   24.9176 C   0  0  0  0  0  0
  -21.6042   -4.3054   24.7225 C   0  0  0  0  0  0
  -21.8819   -3.8146   23.4346 C   0  0  0  0  0  0
  -21.9193   -4.6963   22.3403 C   0  0  0  0  0  0
  -22.7848  -13.5230   21.1855 C   0  0  0  0  0  0
  -22.1660   -4.2149   21.0980 F   0  0  0  0  0  0
  -21.5627   -3.4538   25.7737 F   0  0  0  0  0  0
  -30.0121  -13.4208   20.4308 N   0  0  0  0  0  0
  -26.2983  -12.9352   20.3310 N   0  0  0  0  0  0
  -25.9324  -11.6507   20.5757 N   0  0  0  0  0  0
  -22.0487  -12.8229   22.0412 N   0  0  0  0  0  0
  -25.4267  -15.1894   20.4076 N   0  0  0  0  0  0
  -31.7841  -14.8026   20.1193 O   0  0  0  0  0  0
  -21.6637   -6.8879   21.4242 O   0  0  0  0  0  0
  -22.3535  -14.5535   20.6697 O   0  0  0  0  0  0
  -24.6261  -31.8601   23.2026 C   0  0  0  0  0  0
  -25.9109  -32.4783   23.8353 C   0  0  1  0  0  0
  -27.2239  -27.3194   20.1158 C   0  0  0  0  0  0
  -25.5925  -33.8583   24.2282 N   0  0  0  0  0  0
  -23.4192  -30.4843   21.5452 C   0  0  2  0  0  0
  -24.8651  -28.9391   20.1113 C   0  0  0  0  0  0
  -22.7471  -29.4631   22.4937 C   0  0  0  0  0  0
  -18.0286  -28.1388   22.8486 C   0  0  0  0  0  0
  -24.1487  -36.7295   23.2639 C   0  0  0  0  0  0
  -25.9604  -30.7917   21.3727 C   0  0  0  0  0  0
  -26.0346  -29.4192   20.7140 C   0  0  0  0  0  0
  -27.2172  -28.6217   20.7046 C   0  0  0  0  0  0
  -26.0293  -26.8916   19.4910 C   0  0  0  0  0  0
  -24.8645  -27.6809   19.4910 C   0  0  0  0  0  0
  -23.6336  -29.8195   20.1603 C   0  0  0  0  0  0
  -25.4113  -36.3088   24.0331 C   0  0  1  0  0  0
  -20.5886  -28.3695   23.1284 C   0  0  2  0  0  0
  -20.6777  -26.9420   22.5408 C   0  0  0  0  0  0
  -19.5754  -26.6390   21.5211 C   0  0  0  0  0  0
  -18.1934  -26.7931   22.1623 C   0  0  0  0  0  0
  -19.1538  -28.8857   23.2880 C   0  0  0  0  0  0
  -18.9463  -30.1458   23.8900 C   0  0  0  0  0  0
  -17.6463  -30.6592   24.0566 C   0  0  0  0  0  0
  -25.9049  -34.9457   23.5107 C   0  0  0  0  0  0
  -16.5355  -29.9092   23.6330 C   0  0  0  0  0  0
  -16.7274  -28.6508   23.0354 C   0  0  0  0  0  0
  -26.4492  -31.6591   25.0723 C   0  0  0  0  0  0
  -25.3726  -31.3730   26.1450 C   0  0  0  0  0  0
  -27.0338  -30.3018   24.6176 C   0  0  0  0  0  0
  -27.6049  -32.4326   25.7496 C   0  0  0  0  0  0
  -27.5580  -37.1806   24.8466 C   0  0  0  0  0  0
  -21.4186  -29.3048   22.3677 N   0  0  0  0  0  0
  -26.4293  -37.3782   23.9408 N   0  0  0  0  0  0
  -24.6875  -31.0617   22.0972 N   0  0  0  0  0  0
  -23.4195  -28.8173   23.3019 O   0  0  0  0  0  0
  -28.3450  -26.4748   20.1661 O   0  0  0  0  0  0
  -26.5617  -34.8923   22.4673 O   0  0  0  0  0  0
  -23.5425  -32.1398   23.7357 O   0  0  0  0  0  0
  -31.0832  -19.2733   20.1180 C   0  0  0  0  0  0
  -31.0547  -17.8500   20.2111 C   0  0  0  0  0  0
  -28.8082  -17.9908   21.0445 C   0  0  0  0  0  0
  -29.9881  -20.1093   20.4899 C   0  0  0  0  0  0
  -29.9127  -17.1594   20.6913 C   0  0  0  0  0  0
  -28.8358  -19.4200   20.9543 C   0  0  0  0  0  0
  -30.1688  -21.6482   20.5007 C   0  0  0  0  0  0
  -29.3409  -24.0537   20.4339 C   0  0  0  0  0  0
  -28.1371  -25.0112   20.0428 C   0  0  0  0  0  0
  -29.8038  -15.7006   20.8398 N   0  0  0  0  0  0
  -29.1469  -22.5514   20.3734 N   0  0  0  0  0  0
  -31.3229  -22.0750   20.5990 O   0  0  0  0  0  0
  -27.7420  -20.1203   21.3431 F   0  0  0  0  0  0
  -31.4801  -12.5230   19.1542 H   0  0  0  0  0  0
  -30.3756  -11.4025   19.8998 H   0  0  0  0  0  0
  -29.7766  -11.7565   17.4821 H   0  0  0  0  0  0
  -29.6487  -13.4774   17.7455 H   0  0  0  0  0  0
  -27.8725  -11.2900   18.8737 H   0  0  0  0  0  0
  -27.3773  -12.5678   17.7952 H   0  0  0  0  0  0
  -27.6697  -14.2503   19.5172 H   0  0  0  0  0  0
  -28.7094  -12.0571   21.3806 H   0  0  0  0  0  0
  -28.4403  -13.7125   21.8429 H   0  0  0  0  0  0
  -25.2763   -9.5679   22.4757 H   0  0  0  0  0  0
  -24.0000   -7.4631   22.7471 H   0  0  0  0  0  0
  -21.0840   -8.8778   19.8953 H   0  0  0  0  0  0
  -22.3701  -10.9674   19.6164 H   0  0  0  0  0  0
  -21.2011   -7.6147   23.9719 H   0  0  0  0  0  0
  -21.1479   -6.0520   25.9079 H   0  0  0  0  0  0
  -22.0600   -2.7609   23.2846 H   0  0  0  0  0  0
  -22.4096  -11.9894   22.4811 H   0  0  0  0  0  0
  -21.1104  -13.1259   22.2609 H   0  0  0  0  0  0
  -24.6534  -15.8391   20.5028 H   0  0  0  0  0  0
  -26.2640  -15.6243   20.0421 H   0  0  0  0  0  0
  -26.7176  -32.5454   23.1102 H   0  0  0  0  0  0
  -25.0072  -33.9724   25.0428 H   0  0  0  0  0  0
  -22.7130  -31.3049   21.4029 H   0  0  0  0  0  0
  -23.3750  -35.9628   23.3306 H   0  0  0  0  0  0
  -24.3575  -36.8909   22.2052 H   0  0  0  0  0  0
  -23.7240  -37.6500   23.6655 H   0  0  0  0  0  0
  -26.0918  -31.5561   20.6054 H   0  0  0  0  0  0
  -26.8407  -30.8398   22.0021 H   0  0  0  0  0  0
  -28.1148  -28.9868   21.1838 H   0  0  0  0  0  0
  -25.9664  -25.9310   19.0026 H   0  0  0  0  0  0
  -23.9681  -27.3077   19.0151 H   0  0  0  0  0  0
  -23.7536  -30.5963   19.4042 H   0  0  0  0  0  0
  -22.7531  -29.2500   19.8575 H   0  0  0  0  0  0
  -25.1294  -36.1944   25.0824 H   0  0  0  0  0  0
  -20.9978  -28.3271   24.1405 H   0  0  0  0  0  0
  -20.5682  -26.2308   23.3607 H   0  0  0  0  0  0
  -21.6647  -26.7455   22.1202 H   0  0  0  0  0  0
  -19.6917  -25.6299   21.1244 H   0  0  0  0  0  0
  -19.6690  -27.3196   20.6737 H   0  0  0  0  0  0
  -17.4203  -26.6677   21.4026 H   0  0  0  0  0  0
  -18.0339  -26.0073   22.9020 H   0  0  0  0  0  0
  -19.7939  -30.7272   24.2272 H   0  0  0  0  0  0
  -17.5021  -31.6270   24.5169 H   0  0  0  0  0  0
  -15.5357  -30.2999   23.7650 H   0  0  0  0  0  0
  -15.8672  -28.0826   22.7074 H   0  0  0  0  0  0
  -24.5901  -30.7077   25.7780 H   0  0  0  0  0  0
  -24.8916  -32.2897   26.4870 H   0  0  0  0  0  0
  -25.8052  -30.8912   27.0227 H   0  0  0  0  0  0
  -26.2917  -29.6767   24.1196 H   0  0  0  0  0  0
  -27.4036  -29.7273   25.4679 H   0  0  0  0  0  0
  -27.8783  -30.4307   23.9402 H   0  0  0  0  0  0
  -27.2656  -33.3620   26.2079 H   0  0  0  0  0  0
  -28.3859  -32.6895   25.0327 H   0  0  0  0  0  0
  -28.0719  -31.8448   26.5409 H   0  0  0  0  0  0
  -28.2605  -38.0097   24.7511 H   0  0  0  0  0  0
  -28.1071  -36.2630   24.6298 H   0  0  0  0  0  0
  -27.2297  -37.1461   25.8869 H   0  0  0  0  0  0
  -20.9364  -29.8768   21.6885 H   0  0  0  0  0  0
  -26.0177  -38.2859   24.1404 H   0  0  0  0  0  0
  -31.9967  -19.7364   19.7717 H   0  0  0  0  0  0
  -31.9398  -17.3027   19.9203 H   0  0  0  0  0  0
  -27.9028  -17.5328   21.4149 H   0  0  0  0  0  0
  -29.6511  -24.2990   21.4503 H   0  0  0  0  0  0
  -30.1875  -24.3155   19.7973 H   0  0  0  0  0  0
  -27.2797  -24.7307   20.6572 H   0  0  0  0  0  0
  -27.8679  -24.7911   19.0094 H   0  0  0  0  0  0
  -28.9039  -15.3833   21.1656 H   0  0  0  0  0  0
  -28.2048  -22.1897   20.3007 H   0  0  0  0  0  0
  1 25  1  0  0  0
  1 30  2  0  0  0
  1 80  1  0  0  0
  2  3  1  0  0  0
  2 25  1  0  0  0
  2 84  1  0  0  0
  2 85  1  0  0  0
  3  4  1  0  0  0
  3 86  1  0  0  0
  3 87  1  0  0  0
  4  5  1  0  0  0
  4 88  1  0  0  0
  4 89  1  0  0  0
  5  6  1  0  0  0
  5 26  1  0  0  0
  5 90  1  0  0  0
  6 25  1  0  0  0
  6 91  1  0  0  0
  6 92  1  0  0  0
  7  8  2  0  0  0
  7 26  1  0  0  0
  7 29  1  0  0  0
  8  9  1  0  0  0
  8 22  1  0  0  0
  9 10  1  0  0  0
  9 27  2  0  0  0
 10 11  2  0  0  0
 10 15  1  0  0  0
 11 12  1  0  0  0
 11 93  1  0  0  0
 12 13  2  0  0  0
 12 94  1  0  0  0
 13 14  1  0  0  0
 13 31  1  0  0  0
 14 15  2  0  0  0
 14 95  1  0  0  0
 15 96  1  0  0  0
 16 17  2  0  0  0
 16 21  1  0  0  0
 16 31  1  0  0  0
 17 18  1  0  0  0
 17 97  1  0  0  0
 18 19  2  0  0  0
 18 98  1  0  0  0
 19 20  1  0  0  0
 19 24  1  0  0  0
 20 21  2  0  0  0
 20 99  1  0  0  0
 21 23  1  0  0  0
 22 28  1  0  0  0
 22 32  2  0  0  0
 26 27  1  0  0  0
 28100  1  0  0  0
 28101  1  0  0  0
 29102  1  0  0  0
 29103  1  0  0  0
 33 34  1  0  0  0
 33 66  1  0  0  0
 33 70  2  0  0  0
 34 36  1  0  0  0
 34 59  1  0  0  0
 34104  1  0  0  0
 35 44  2  0  0  0
 35 45  1  0  0  0
 35 68  1  0  0  0
 36 56  1  0  0  0
 36105  1  0  0  0
 37 39  1  0  0  0
 37 47  1  0  0  0
 37 66  1  0  0  0
 37106  1  0  0  0
 38 43  2  0  0  0
 38 46  1  0  0  0
 38 47  1  0  0  0
 39 64  1  0  0  0
 39 67  2  0  0  0
 40 52  1  0  0  0
 40 53  2  0  0  0
 40 58  1  0  0  0
 41107  1  0  0  0
 41108  1  0  0  0
 41109  1  0  0  0
 41 48  1  0  0  0
 42 43  1  0  0  0
 42 66  1  0  0  0
 42110  1  0  0  0
 42111  1  0  0  0
 43 44  1  0  0  0
 44112  1  0  0  0
 45 46  2  0  0  0
 45113  1  0  0  0
 46114  1  0  0  0
 47115  1  0  0  0
 47116  1  0  0  0
 48 56  1  0  0  0
 48 65  1  0  0  0
 48117  1  0  0  0
 49 50  1  0  0  0
 49 53  1  0  0  0
 49 64  1  0  0  0
 49118  1  0  0  0
 50 51  1  0  0  0
 50119  1  0  0  0
 50120  1  0  0  0
 51 52  1  0  0  0
 51121  1  0  0  0
 51122  1  0  0  0
 52123  1  0  0  0
 52124  1  0  0  0
 53 54  1  0  0  0
 54 55  2  0  0  0
 54125  1  0  0  0
 55 57  1  0  0  0
 55126  1  0  0  0
 56 69  2  0  0  0
 57 58  2  0  0  0
 57127  1  0  0  0
 58128  1  0  0  0
 59 60  1  0  0  0
 59 61  1  0  0  0
 59 62  1  0  0  0
 60129  1  0  0  0
 60130  1  0  0  0
 60131  1  0  0  0
 61132  1  0  0  0
 61133  1  0  0  0
 61134  1  0  0  0
 62135  1  0  0  0
 62136  1  0  0  0
 62137  1  0  0  0
 63 65  1  0  0  0
 63138  1  0  0  0
 63139  1  0  0  0
 63140  1  0  0  0
 64141  1  0  0  0
 65142  1  0  0  0
 68 79  1  0  0  0
 71 72  2  0  0  0
 71 74  1  0  0  0
 71143  1  0  0  0
 72 75  1  0  0  0
 72144  1  0  0  0
 73 75  2  0  0  0
 73 76  1  0  0  0
 73145  1  0  0  0
 74 76  2  0  0  0
 74 77  1  0  0  0
 75 80  1  0  0  0
 76 83  1  0  0  0
 77 81  1  0  0  0
 77 82  2  0  0  0
 78 79  1  0  0  0
 78 81  1  0  0  0
 78146  1  0  0  0
 78147  1  0  0  0
 79148  1  0  0  0
 79149  1  0  0  0
 80150  1  0  0  0
 81151  1  0  0  0
M  ISO  4   1 100  68 101  79 101  80 100
M  END
> <chiral flag>
0

> <version>
0

> <s_m_source_file>
/data/baiqing/PycharmProjects/Reinvent-master-3.2/result/LINK_invent/BTK/process_docking_weight1_custom_product_contain_oxygen_bond_distance_aromatic_linkinvent_7_9_3/rearranged_h_0023.sdf

> <i_m_source_file_index>
73

> <r_mmod_Potential_Energy-OPLS-2005>
16.510835647583

> <r_mmod_Stretch_Energy-OPLS-2005>
80.9093017578125

> <r_mmod_Bend_Energy-OPLS-2005>
141.168273925781

> <r_mmod_Torsional_Energy-OPLS-2005>
217.246307373047

> <r_mmod_Improper_Torsional_Energy-OPLS-2005>
4.68743324279785

> <r_mmod_Van_der_Waal_Energy-OPLS-2005>
149.326095581055

> <r_mmod_Electrostatic_Energy-OPLS-2005>
-399.823760986328

> <r_mmod_Solvation_Energy-OPLS-2005>
-226.79606628418

> <b_mmod_Minimization_Converged-OPLS-2005>
0

> <r_mmod_RMS_Derivative-OPLS-2005>
0.423974633216858

$$$$
73
                    3D
 Structure written by MMmdl.
169179  0  0  1  0            999 V2000
  -30.6219  -14.7401   20.3949 C   0  0  0  0  0  0
  -30.4255  -12.4388   19.4717 C   0  0  0  0  0  0
  -29.5070  -12.4907   18.2308 C   0  0  0  0  0  0
  -28.0322  -12.3240   18.6458 C   0  0  0  0  0  0
  -27.6375  -13.2325   19.8405 C   0  0  2  0  0  0
  -28.6849  -13.1904   20.9744 C   0  0  0  0  0  0
  -25.2502  -13.8201   20.5685 C   0  0  0  0  0  0
  -24.1792  -13.0454   20.9210 C   0  0  0  0  0  0
  -24.6380  -11.6935   20.8753 C   0  0  0  0  0  0
  -23.9056  -10.4305   21.0409 C   0  0  0  0  0  0
  -24.3616   -9.4221   21.9178 C   0  0  0  0  0  0
  -23.6293   -8.2246   22.0748 C   0  0  0  0  0  0
  -22.4277   -8.0278   21.3543 C   0  0  0  0  0  0
  -21.9907   -9.0251   20.4653 C   0  0  0  0  0  0
  -22.7230  -10.2130   20.3065 C   0  0  0  0  0  0
  -21.6852   -6.0733   22.5275 C   0  0  0  0  0  0
  -21.4011   -6.5636   23.8204 C   0  0  0  0  0  0
  -21.3667   -5.6784   24.9168 C   0  0  0  0  0  0
  -21.6048   -4.3048   24.7218 C   0  0  0  0  0  0
  -21.8810   -3.8149   23.4336 C   0  0  0  0  0  0
  -21.9186   -4.6964   22.3397 C   0  0  0  0  0  0
  -22.7809  -13.5241   21.1862 C   0  0  0  0  0  0
  -22.1654   -4.2156   21.0971 F   0  0  0  0  0  0
  -21.5637   -3.4535   25.7735 F   0  0  0  0  0  0
  -29.9840  -13.5215   20.3791 N   0  0  0  0  0  0
  -26.2914  -12.9409   20.3241 N   0  0  0  0  0  0
  -25.9312  -11.6559   20.5756 N   0  0  0  0  0  0
  -22.0444  -12.8247   22.0427 N   0  0  0  0  0  0
  -25.4198  -15.1922   20.4069 N   0  0  0  0  0  0
  -31.8426  -14.7806   20.2367 O   0  0  0  0  0  0
  -21.6642   -6.8871   21.4233 O   0  0  0  0  0  0
  -22.3490  -14.5541   20.6698 O   0  0  0  0  0  0
  -24.6346  -31.8553   23.1958 C   0  0  0  0  0  0
  -25.9168  -32.4745   23.8312 C   0  0  1  0  0  0
  -27.2175  -27.2489   20.1034 C   0  0  0  0  0  0
  -25.5959  -33.8550   24.2238 N   0  0  0  0  0  0
  -23.4305  -30.4803   21.5405 C   0  0  2  0  0  0
  -24.8728  -28.9267   20.1078 C   0  0  0  0  0  0
  -22.7524  -29.4614   22.4891 C   0  0  0  0  0  0
  -18.0305  -28.1388   22.8480 C   0  0  0  0  0  0
  -24.1502  -36.7281   23.2636 C   0  0  0  0  0  0
  -25.9803  -30.7615   21.3792 C   0  0  0  0  0  0
  -26.0487  -29.3858   20.7135 C   0  0  0  0  0  0
  -27.2206  -28.5616   20.6967 C   0  0  0  0  0  0
  -26.0066  -26.8585   19.4868 C   0  0  0  0  0  0
  -24.8586  -27.6718   19.4869 C   0  0  0  0  0  0
  -23.6482  -29.8190   20.1553 C   0  0  0  0  0  0
  -25.4125  -36.3060   24.0319 C   0  0  1  0  0  0
  -20.5914  -28.3709   23.1252 C   0  0  2  0  0  0
  -20.6792  -26.9423   22.5402 C   0  0  0  0  0  0
  -19.5766  -26.6382   21.5211 C   0  0  0  0  0  0
  -18.1943  -26.7928   22.1618 C   0  0  0  0  0  0
  -19.1556  -28.8857   23.2864 C   0  0  0  0  0  0
  -18.9479  -30.1455   23.8891 C   0  0  0  0  0  0
  -17.6475  -30.6585   24.0559 C   0  0  0  0  0  0
  -25.9070  -34.9436   23.5078 C   0  0  0  0  0  0
  -16.5366  -29.9088   23.6326 C   0  0  0  0  0  0
  -16.7283  -28.6505   23.0346 C   0  0  0  0  0  0
  -26.4509  -31.6576   25.0721 C   0  0  0  0  0  0
  -25.3712  -31.3780   26.1439 C   0  0  0  0  0  0
  -27.0341  -30.2969   24.6252 C   0  0  0  0  0  0
  -27.6057  -32.4319   25.7493 C   0  0  0  0  0  0
  -27.5586  -37.1790   24.8452 C   0  0  0  0  0  0
  -21.4219  -29.3063   22.3634 N   0  0  0  0  0  0
  -26.4290  -37.3762   23.9408 N   0  0  0  0  0  0
  -24.7013  -31.0510   22.0943 N   0  0  0  0  0  0
  -23.4219  -28.8147   23.2982 O   0  0  0  0  0  0
  -28.3385  -26.3796   20.1552 O   0  0  0  0  0  0
  -26.5641  -34.8910   22.4646 O   0  0  0  0  0  0
  -23.5490  -32.1387   23.7244 O   0  0  0  0  0  0
  -29.6161  -18.5155   20.4032 C   0  0  0  0  0  0
  -31.6188  -18.7281   18.5149 C   0  0  0  0  0  0
  -30.0571  -19.8642   20.0357 C   0  0  0  0  0  0
  -31.2081  -19.8960   19.1956 C   0  0  0  0  0  0
  -30.1935  -17.2752   19.8824 C   0  0  0  0  0  0
  -31.0853  -17.4570   18.7893 C   0  0  0  0  0  0
  -34.1200  -21.9503   18.3861 C   0  0  0  0  0  0
  -33.9758  -22.1548   19.8914 C   0  0  0  0  0  0
  -29.5733  -24.6577   18.7964 C   0  0  0  0  0  0
  -32.7464  -21.4369   17.9318 C   0  0  0  0  0  0
  -32.9577  -21.0883   20.2705 C   0  0  0  0  0  0
  -30.0378  -23.2014   19.0755 C   0  0  0  0  0  0
  -28.3721  -23.6647   20.6181 C   0  0  0  0  0  0
  -28.3396  -24.9464   19.6631 C   0  0  1  0  0  0
  -29.4569  -21.2245   20.6800 C   0  0  0  0  0  0
  -32.0261  -21.0401   19.1496 N   0  0  0  0  0  0
  -29.8503  -15.9026   20.3669 N   0  0  0  0  0  0
  -29.0173  -22.4909   19.8805 N   0  3  2  0  0  0
  -31.5514  -16.1885   17.7016 Cl  0  0  0  0  0  0
  -31.4699  -12.5498   19.1754 H   0  0  0  0  0  0
  -30.3517  -11.4694   19.9675 H   0  0  0  0  0  0
  -29.7849  -11.7114   17.5210 H   0  0  0  0  0  0
  -29.6373  -13.4415   17.7118 H   0  0  0  0  0  0
  -27.8822  -11.2765   18.9115 H   0  0  0  0  0  0
  -27.3754  -12.5159   17.7952 H   0  0  0  0  0  0
  -27.6277  -14.2491   19.4482 H   0  0  0  0  0  0
  -28.7154  -12.2080   21.4475 H   0  0  0  0  0  0
  -28.4294  -13.9022   21.7604 H   0  0  0  0  0  0
  -25.2747   -9.5711   22.4752 H   0  0  0  0  0  0
  -24.0014   -7.4634   22.7466 H   0  0  0  0  0  0
  -21.0837   -8.8774   19.8958 H   0  0  0  0  0  0
  -22.3683  -10.9666   19.6189 H   0  0  0  0  0  0
  -21.2014   -7.6146   23.9713 H   0  0  0  0  0  0
  -21.1497   -6.0516   25.9064 H   0  0  0  0  0  0
  -22.0594   -2.7618   23.2827 H   0  0  0  0  0  0
  -22.4066  -11.9929   22.4840 H   0  0  0  0  0  0
  -21.1069  -13.1287   22.2635 H   0  0  0  0  0  0
  -24.6541  -15.8484   20.5171 H   0  0  0  0  0  0
  -26.2612  -15.6254   20.0482 H   0  0  0  0  0  0
  -26.7237  -32.5370   23.1046 H   0  0  0  0  0  0
  -25.0095  -33.9678   25.0378 H   0  0  0  0  0  0
  -22.7276  -31.3042   21.3972 H   0  0  0  0  0  0
  -23.3767  -35.9607   23.3265 H   0  0  0  0  0  0
  -24.3603  -36.8949   22.2060 H   0  0  0  0  0  0
  -23.7249  -37.6466   23.6690 H   0  0  0  0  0  0
  -26.1338  -31.5266   20.6167 H   0  0  0  0  0  0
  -26.8516  -30.7981   22.0215 H   0  0  0  0  0  0
  -28.1245  -28.9170   21.1714 H   0  0  0  0  0  0
  -25.8782  -25.9040   19.0073 H   0  0  0  0  0  0
  -23.9569  -27.3117   19.0113 H   0  0  0  0  0  0
  -23.7807  -30.5999   19.4056 H   0  0  0  0  0  0
  -22.7623  -29.2632   19.8435 H   0  0  0  0  0  0
  -25.1305  -36.1891   25.0807 H   0  0  0  0  0  0
  -21.0009  -28.3297   24.1373 H   0  0  0  0  0  0
  -20.5706  -26.2321   23.3616 H   0  0  0  0  0  0
  -21.6659  -26.7456   22.1194 H   0  0  0  0  0  0
  -19.6936  -25.6289   21.1249 H   0  0  0  0  0  0
  -19.6696  -27.3182   20.6731 H   0  0  0  0  0  0
  -17.4219  -26.6677   21.4015 H   0  0  0  0  0  0
  -18.0340  -26.0072   22.9017 H   0  0  0  0  0  0
  -19.7947  -30.7266   24.2268 H   0  0  0  0  0  0
  -17.5028  -31.6263   24.5167 H   0  0  0  0  0  0
  -15.5361  -30.2986   23.7647 H   0  0  0  0  0  0
  -15.8690  -28.0814   22.7068 H   0  0  0  0  0  0
  -24.5839  -30.7189   25.7766 H   0  0  0  0  0  0
  -24.8969  -32.2987   26.4849 H   0  0  0  0  0  0
  -25.8001  -30.8942   27.0221 H   0  0  0  0  0  0
  -26.2933  -29.6716   24.1260 H   0  0  0  0  0  0
  -27.3966  -29.7246   25.4799 H   0  0  0  0  0  0
  -27.8841  -30.4200   23.9538 H   0  0  0  0  0  0
  -27.2652  -33.3616   26.2056 H   0  0  0  0  0  0
  -28.3869  -32.6883   25.0327 H   0  0  0  0  0  0
  -28.0719  -31.8457   26.5420 H   0  0  0  0  0  0
  -28.2575  -38.0114   24.7524 H   0  0  0  0  0  0
  -28.1113  -36.2645   24.6234 H   0  0  0  0  0  0
  -27.2315  -37.1390   25.8857 H   0  0  0  0  0  0
  -20.9404  -29.8791   21.6845 H   0  0  0  0  0  0
  -26.0165  -38.2832   24.1409 H   0  0  0  0  0  0
  -28.8389  -18.4282   21.1482 H   0  0  0  0  0  0
  -32.4139  -18.7609   17.7878 H   0  0  0  0  0  0
  -34.8805  -21.1940   18.1892 H   0  0  0  0  0  0
  -34.4194  -22.8630   17.8688 H   0  0  0  0  0  0
  -33.5740  -23.1476   20.1013 H   0  0  0  0  0  0
  -34.9177  -22.0539   20.4329 H   0  0  0  0  0  0
  -29.3265  -24.7768   17.7404 H   0  0  0  0  0  0
  -30.3815  -25.3564   19.0080 H   0  0  0  0  0  0
  -32.8520  -20.6598   17.1769 H   0  0  0  0  0  0
  -32.2148  -22.2553   17.4472 H   0  0  0  0  0  0
  -32.4660  -21.3175   21.2170 H   0  0  0  0  0  0
  -33.4540  -20.1216   20.3827 H   0  0  0  0  0  0
  -30.9632  -23.2598   19.6489 H   0  0  0  0  0  0
  -30.2219  -22.6710   18.1446 H   0  0  0  0  0  0
  -27.3709  -23.4049   20.9629 H   0  0  0  0  0  0
  -28.9690  -23.8917   21.5017 H   0  0  0  0  0  0
  -27.5158  -24.7782   18.9779 H   0  0  0  0  0  0
  -30.1621  -21.5526   21.4413 H   0  0  0  0  0  0
  -28.5741  -20.9163   21.2398 H   0  0  0  0  0  0
  -28.8901  -15.7728   20.6445 H   0  0  0  0  0  0
  -28.3348  -22.1575   19.2148 H   0  0  0  0  0  0
  1 25  1  0  0  0
  1 30  2  0  0  0
  1 87  1  0  0  0
  2  3  1  0  0  0
  2 25  1  0  0  0
  2 90  1  0  0  0
  2 91  1  0  0  0
  3  4  1  0  0  0
  3 92  1  0  0  0
  3 93  1  0  0  0
  4  5  1  0  0  0
  4 94  1  0  0  0
  4 95  1  0  0  0
  5  6  1  0  0  0
  5 26  1  0  0  0
  5 96  1  0  0  0
  6 25  1  0  0  0
  6 97  1  0  0  0
  6 98  1  0  0  0
  7  8  2  0  0  0
  7 26  1  0  0  0
  7 29  1  0  0  0
  8  9  1  0  0  0
  8 22  1  0  0  0
  9 10  1  0  0  0
  9 27  2  0  0  0
 10 11  2  0  0  0
 10 15  1  0  0  0
 11 12  1  0  0  0
 11 99  1  0  0  0
 12 13  2  0  0  0
 12100  1  0  0  0
 13 14  1  0  0  0
 13 31  1  0  0  0
 14 15  2  0  0  0
 14101  1  0  0  0
 15102  1  0  0  0
 16 17  2  0  0  0
 16 21  1  0  0  0
 16 31  1  0  0  0
 17 18  1  0  0  0
 17103  1  0  0  0
 18 19  2  0  0  0
 18104  1  0  0  0
 19 20  1  0  0  0
 19 24  1  0  0  0
 20 21  2  0  0  0
 20105  1  0  0  0
 21 23  1  0  0  0
 22 28  1  0  0  0
 22 32  2  0  0  0
 26 27  1  0  0  0
 28106  1  0  0  0
 28107  1  0  0  0
 29108  1  0  0  0
 29109  1  0  0  0
 33 34  1  0  0  0
 33 66  1  0  0  0
 33 70  2  0  0  0
 34 36  1  0  0  0
 34 59  1  0  0  0
 34110  1  0  0  0
 35 44  2  0  0  0
 35 45  1  0  0  0
 35 68  1  0  0  0
 36 56  1  0  0  0
 36111  1  0  0  0
 37 39  1  0  0  0
 37 47  1  0  0  0
 37 66  1  0  0  0
 37112  1  0  0  0
 38 43  2  0  0  0
 38 46  1  0  0  0
 38 47  1  0  0  0
 39 64  1  0  0  0
 39 67  2  0  0  0
 40 52  1  0  0  0
 40 53  2  0  0  0
 40 58  1  0  0  0
 41113  1  0  0  0
 41114  1  0  0  0
 41115  1  0  0  0
 41 48  1  0  0  0
 42 43  1  0  0  0
 42 66  1  0  0  0
 42116  1  0  0  0
 42117  1  0  0  0
 43 44  1  0  0  0
 44118  1  0  0  0
 45 46  2  0  0  0
 45119  1  0  0  0
 46120  1  0  0  0
 47121  1  0  0  0
 47122  1  0  0  0
 48 56  1  0  0  0
 48 65  1  0  0  0
 48123  1  0  0  0
 49 50  1  0  0  0
 49 53  1  0  0  0
 49 64  1  0  0  0
 49124  1  0  0  0
 50 51  1  0  0  0
 50125  1  0  0  0
 50126  1  0  0  0
 51 52  1  0  0  0
 51127  1  0  0  0
 51128  1  0  0  0
 52129  1  0  0  0
 52130  1  0  0  0
 53 54  1  0  0  0
 54 55  2  0  0  0
 54131  1  0  0  0
 55 57  1  0  0  0
 55132  1  0  0  0
 56 69  2  0  0  0
 57 58  2  0  0  0
 57133  1  0  0  0
 58134  1  0  0  0
 59 60  1  0  0  0
 59 61  1  0  0  0
 59 62  1  0  0  0
 60135  1  0  0  0
 60136  1  0  0  0
 60137  1  0  0  0
 61138  1  0  0  0
 61139  1  0  0  0
 61140  1  0  0  0
 62141  1  0  0  0
 62142  1  0  0  0
 62143  1  0  0  0
 63 65  1  0  0  0
 63144  1  0  0  0
 63145  1  0  0  0
 63146  1  0  0  0
 64147  1  0  0  0
 65148  1  0  0  0
 68 84  1  0  0  0
 71 73  2  0  0  0
 71 75  1  0  0  0
 71149  1  0  0  0
 72 74  2  0  0  0
 72 76  1  0  0  0
 72150  1  0  0  0
 73 74  1  0  0  0
 73 85  1  0  0  0
 74 86  1  0  0  0
 75 76  2  0  0  0
 75 87  1  0  0  0
 76 89  1  0  0  0
 77 78  1  0  0  0
 77 80  1  0  0  0
 77151  1  0  0  0
 77152  1  0  0  0
 78 81  1  0  0  0
 78153  1  0  0  0
 78154  1  0  0  0
 79 82  1  0  0  0
 79 84  1  0  0  0
 79155  1  0  0  0
 79156  1  0  0  0
 80 86  1  0  0  0
 80157  1  0  0  0
 80158  1  0  0  0
 81 86  1  0  0  0
 81159  1  0  0  0
 81160  1  0  0  0
 82 88  1  0  0  0
 82161  1  0  0  0
 82162  1  0  0  0
 83 84  1  0  0  0
 83 88  1  0  0  0
 83163  1  0  0  0
 83164  1  0  0  0
 84165  1  0  0  0
 85166  1  0  0  0
 85167  1  0  0  0
 85 88  1  0  0  0
 87168  1  0  0  0
 88169  1  0  0  0
M  CHG  1  88   1
M  ISO  4   1 100  68 101  84 101  87 100
M  END
> <chiral flag>
0

> <version>
0

> <s_m_source_file>
/data/baiqing/PycharmProjects/Reinvent-master-3.2/result/LINK_invent/BTK/process_docking_weight1_custom_product_contain_oxygen_bond_distance_aromatic_linkinvent_7_9_3/rearranged_h_0023.sdf

> <i_m_source_file_index>
74

> <r_mmod_Potential_Energy-OPLS-2005>
250.458694458008

> <r_mmod_Stretch_Energy-OPLS-2005>
139.918182373047

> <r_mmod_Bend_Energy-OPLS-2005>
247.287384033203

> <r_mmod_Torsional_Energy-OPLS-2005>
389.901733398438

> <r_mmod_Improper_Torsional_Energy-OPLS-2005>
11.3456106185913

> <r_mmod_Van_der_Waal_Energy-OPLS-2005>
151.315490722656

> <r_mmod_Electrostatic_Energy-OPLS-2005>
-342.029449462891

> <r_mmod_Solvation_Energy-OPLS-2005>
-437.834167480469

> <b_mmod_Minimization_Converged-OPLS-2005>
0

> <r_mmod_RMS_Derivative-OPLS-2005>
2.65232729911804

$$$$
74
                    3D
 Structure written by MMmdl.
163172  0  0  1  0            999 V2000
  -30.6069  -14.6714   20.4824 C   0  0  0  0  0  0
  -30.4485  -12.4012   19.4675 C   0  0  0  0  0  0
  -29.5173  -12.4902   18.2366 C   0  0  0  0  0  0
  -28.0448  -12.3070   18.6546 C   0  0  0  0  0  0
  -27.6536  -13.2071   19.8564 C   0  0  2  0  0  0
  -28.6981  -13.0899   20.9922 C   0  0  0  0  0  0
  -25.2582  -13.8110   20.5641 C   0  0  0  0  0  0
  -24.1856  -13.0403   20.9175 C   0  0  0  0  0  0
  -24.6417  -11.6869   20.8747 C   0  0  0  0  0  0
  -23.9089  -10.4261   21.0394 C   0  0  0  0  0  0
  -24.3629   -9.4184   21.9193 C   0  0  0  0  0  0
  -23.6282   -8.2237   22.0777 C   0  0  0  0  0  0
  -22.4272   -8.0276   21.3552 C   0  0  0  0  0  0
  -21.9913   -9.0250   20.4661 C   0  0  0  0  0  0
  -22.7255  -10.2115   20.3056 C   0  0  0  0  0  0
  -21.6849   -6.0736   22.5280 C   0  0  0  0  0  0
  -21.4015   -6.5642   23.8210 C   0  0  0  0  0  0
  -21.3666   -5.6795   24.9171 C   0  0  0  0  0  0
  -21.6022   -4.3058   24.7219 C   0  0  0  0  0  0
  -21.8830   -3.8151   23.4345 C   0  0  0  0  0  0
  -21.9183   -4.6960   22.3397 C   0  0  0  0  0  0
  -22.7879  -13.5215   21.1795 C   0  0  0  0  0  0
  -22.1652   -4.2153   21.0971 F   0  0  0  0  0  0
  -21.5626   -3.4538   25.7733 F   0  0  0  0  0  0
  -30.0150  -13.4351   20.4285 N   0  0  0  0  0  0
  -26.3004  -12.9290   20.3271 N   0  0  0  0  0  0
  -25.9346  -11.6462   20.5757 N   0  0  0  0  0  0
  -22.0515  -12.8244   22.0359 N   0  0  0  0  0  0
  -25.4263  -15.1833   20.4012 N   0  0  0  0  0  0
  -31.7759  -14.8427   20.1201 O   0  0  0  0  0  0
  -21.6632   -6.8882   21.4248 O   0  0  0  0  0  0
  -22.3578  -14.5507   20.6594 O   0  0  0  0  0  0
  -24.6247  -31.8600   23.1991 C   0  0  0  0  0  0
  -25.9089  -32.4790   23.8341 C   0  0  1  0  0  0
  -27.2313  -27.3131   20.1259 C   0  0  0  0  0  0
  -25.5882  -33.8588   24.2274 N   0  0  0  0  0  0
  -23.4235  -30.4807   21.5404 C   0  0  2  0  0  0
  -24.8716  -28.9318   20.1095 C   0  0  0  0  0  0
  -22.7480  -29.4612   22.4883 C   0  0  0  0  0  0
  -18.0271  -28.1388   22.8470 C   0  0  0  0  0  0
  -24.1476  -36.7278   23.2658 C   0  0  0  0  0  0
  -25.9622  -30.7885   21.3708 C   0  0  0  0  0  0
  -26.0368  -29.4127   20.7182 C   0  0  0  0  0  0
  -27.2179  -28.6135   20.7175 C   0  0  0  0  0  0
  -26.0451  -26.8894   19.4817 C   0  0  0  0  0  0
  -24.8763  -27.6764   19.4827 C   0  0  0  0  0  0
  -23.6405  -29.8130   20.1571 C   0  0  0  0  0  0
  -25.4104  -36.3085   24.0348 C   0  0  1  0  0  0
  -20.5896  -28.3691   23.1248 C   0  0  2  0  0  0
  -20.6770  -26.9408   22.5391 C   0  0  0  0  0  0
  -19.5736  -26.6381   21.5193 C   0  0  0  0  0  0
  -18.1912  -26.7923   22.1614 C   0  0  0  0  0  0
  -19.1543  -28.8848   23.2869 C   0  0  0  0  0  0
  -18.9490  -30.1447   23.8893 C   0  0  0  0  0  0
  -17.6497  -30.6597   24.0561 C   0  0  0  0  0  0
  -25.9045  -34.9457   23.5127 C   0  0  0  0  0  0
  -16.5370  -29.9119   23.6325 C   0  0  0  0  0  0
  -16.7266  -28.6536   23.0342 C   0  0  0  0  0  0
  -26.4457  -31.6609   25.0714 C   0  0  0  0  0  0
  -25.3685  -31.3755   26.1440 C   0  0  0  0  0  0
  -27.0334  -30.3034   24.6170 C   0  0  0  0  0  0
  -27.6014  -32.4357   25.7475 C   0  0  0  0  0  0
  -27.5565  -37.1790   24.8476 C   0  0  0  0  0  0
  -21.4187  -29.3068   22.3655 N   0  0  0  0  0  0
  -26.4267  -37.3781   23.9443 N   0  0  0  0  0  0
  -24.6892  -31.0612   22.0931 N   0  0  0  0  0  0
  -23.4202  -28.8144   23.2958 O   0  0  0  0  0  0
  -28.3565  -26.4729   20.1936 O   0  0  0  0  0  0
  -26.5624  -34.8921   22.4703 O   0  0  0  0  0  0
  -23.5417  -32.1410   23.7311 O   0  0  0  0  0  0
  -28.3734  -19.1884   20.1317 C   0  0  0  0  0  0
  -28.5089  -17.7865   20.3376 C   0  0  0  0  0  0
  -30.8854  -18.0286   20.5533 C   0  0  0  0  0  0
  -29.4819  -20.0725   20.1456 C   0  0  0  0  0  0
  -30.7591  -19.4540   20.3740 C   0  0  0  0  0  0
  -29.7615  -17.1545   20.5399 C   0  0  0  0  0  0
  -28.0910  -23.4655   22.9258 C   0  0  0  0  0  0
  -29.1547  -24.4342   22.3705 C   0  0  0  0  0  0
  -27.9798  -22.3356   21.8869 C   0  0  0  0  0  0
  -29.2592  -24.0968   20.8718 C   0  0  2  0  0  0
  -29.2634  -21.6097   19.8071 C   0  0  0  0  0  0
  -28.1874  -24.9969   20.0908 C   0  0  0  0  0  0
  -32.0142  -20.3206   20.4270 C   0  0  0  0  0  0
  -29.7596  -15.7061   20.7897 N   0  0  0  0  0  0
  -29.1001  -22.5769   20.9620 N   0  3  1  0  0  0
  -33.0974  -19.6317   20.7864 F   0  0  0  0  0  0
  -32.2429  -20.8586   19.2304 F   0  0  0  0  0  0
  -31.8314  -21.3079   21.3080 F   0  0  0  0  0  0
  -31.4902  -12.5290   19.1678 H   0  0  0  0  0  0
  -30.3899  -11.4129   19.9268 H   0  0  0  0  0  0
  -29.7935  -11.7348   17.5006 H   0  0  0  0  0  0
  -29.6429  -13.4573   17.7481 H   0  0  0  0  0  0
  -27.9163  -11.2583   18.9321 H   0  0  0  0  0  0
  -27.3809  -12.4778   17.8079 H   0  0  0  0  0  0
  -27.6617  -14.2305   19.4838 H   0  0  0  0  0  0
  -28.7178  -12.0765   21.3938 H   0  0  0  0  0  0
  -28.4360  -13.7346   21.8330 H   0  0  0  0  0  0
  -25.2785   -9.5636   22.4769 H   0  0  0  0  0  0
  -23.9967   -7.4634   22.7530 H   0  0  0  0  0  0
  -21.0837   -8.8777   19.8983 H   0  0  0  0  0  0
  -22.3732  -10.9651   19.6157 H   0  0  0  0  0  0
  -21.2034   -7.6155   23.9707 H   0  0  0  0  0  0
  -21.1469   -6.0531   25.9066 H   0  0  0  0  0  0
  -22.0606   -2.7616   23.2834 H   0  0  0  0  0  0
  -22.4114  -11.9910   22.4786 H   0  0  0  0  0  0
  -21.1138  -13.1307   22.2543 H   0  0  0  0  0  0
  -24.6459  -15.8254   20.4887 H   0  0  0  0  0  0
  -26.2448  -15.6102   19.9912 H   0  0  0  0  0  0
  -26.7160  -32.5423   23.1100 H   0  0  0  0  0  0
  -24.9989  -33.9731   25.0385 H   0  0  0  0  0  0
  -22.7201  -31.3040   21.3958 H   0  0  0  0  0  0
  -23.3755  -35.9596   23.3323 H   0  0  0  0  0  0
  -24.3566  -36.8886   22.2071 H   0  0  0  0  0  0
  -23.7193  -37.6465   23.6667 H   0  0  0  0  0  0
  -26.0979  -31.5507   20.6029 H   0  0  0  0  0  0
  -26.8430  -30.8391   22.0006 H   0  0  0  0  0  0
  -28.1084  -28.9795   21.2074 H   0  0  0  0  0  0
  -25.9979  -25.9371   18.9759 H   0  0  0  0  0  0
  -23.9816  -27.3079   18.9982 H   0  0  0  0  0  0
  -23.7690  -30.5907   19.4042 H   0  0  0  0  0  0
  -22.7606  -29.2440   19.8519 H   0  0  0  0  0  0
  -25.1292  -36.1950   25.0836 H   0  0  0  0  0  0
  -21.0007  -28.3274   24.1363 H   0  0  0  0  0  0
  -20.5657  -26.2311   23.3612 H   0  0  0  0  0  0
  -21.6633  -26.7400   22.1195 H   0  0  0  0  0  0
  -19.6894  -25.6289   21.1218 H   0  0  0  0  0  0
  -19.6665  -27.3196   20.6726 H   0  0  0  0  0  0
  -17.4185  -26.6671   21.4008 H   0  0  0  0  0  0
  -18.0315  -26.0058   22.9015 H   0  0  0  0  0  0
  -19.7984  -30.7249   24.2261 H   0  0  0  0  0  0
  -17.5072  -31.6279   24.5169 H   0  0  0  0  0  0
  -15.5385  -30.3057   23.7642 H   0  0  0  0  0  0
  -15.8646  -28.0883   22.7048 H   0  0  0  0  0  0
  -24.5846  -30.7128   25.7745 H   0  0  0  0  0  0
  -24.8898  -32.2929   26.4838 H   0  0  0  0  0  0
  -25.7983  -30.8916   27.0218 H   0  0  0  0  0  0
  -26.2902  -29.6761   24.1212 H   0  0  0  0  0  0
  -27.4068  -29.7317   25.4673 H   0  0  0  0  0  0
  -27.8757  -30.4378   23.9389 H   0  0  0  0  0  0
  -27.2615  -33.3663   26.2029 H   0  0  0  0  0  0
  -28.3804  -32.6896   25.0278 H   0  0  0  0  0  0
  -28.0709  -31.8509   26.5401 H   0  0  0  0  0  0
  -28.2600  -38.0073   24.7526 H   0  0  0  0  0  0
  -28.1038  -36.2597   24.6301 H   0  0  0  0  0  0
  -27.2284  -37.1439   25.8879 H   0  0  0  0  0  0
  -20.9347  -29.8792   21.6865 H   0  0  0  0  0  0
  -26.0161  -38.2861   24.1450 H   0  0  0  0  0  0
  -27.3882  -19.5891   19.9382 H   0  0  0  0  0  0
  -27.6127  -17.1859   20.3226 H   0  0  0  0  0  0
  -31.8639  -17.6053   20.7221 H   0  0  0  0  0  0
  -27.1268  -23.9615   23.0525 H   0  0  0  0  0  0
  -28.3881  -23.0866   23.9048 H   0  0  0  0  0  0
  -30.1117  -24.2226   22.8500 H   0  0  0  0  0  0
  -28.9149  -25.4771   22.5818 H   0  0  0  0  0  0
  -28.0233  -21.3453   22.3421 H   0  0  0  0  0  0
  -27.0388  -22.4097   21.3399 H   0  0  0  0  0  0
  -30.2530  -24.3413   20.4958 H   0  0  0  0  0  0
  -30.0816  -21.9554   19.1740 H   0  0  0  0  0  0
  -28.3751  -21.6901   19.1769 H   0  0  0  0  0  0
  -28.1826  -24.7250   19.0349 H   0  0  0  0  0  0
  -27.2044  -24.7306   20.4828 H   0  0  0  0  0  0
  -28.8533  -15.3462   21.0504 H   0  0  0  0  0  0
  -29.9063  -22.3257   21.5184 H   0  0  0  0  0  0
  1 25  1  0  0  0
  1 30  2  0  0  0
  1 84  1  0  0  0
  2  3  1  0  0  0
  2 25  1  0  0  0
  2 89  1  0  0  0
  2 90  1  0  0  0
  3  4  1  0  0  0
  3 91  1  0  0  0
  3 92  1  0  0  0
  4  5  1  0  0  0
  4 93  1  0  0  0
  4 94  1  0  0  0
  5  6  1  0  0  0
  5 26  1  0  0  0
  5 95  1  0  0  0
  6 25  1  0  0  0
  6 96  1  0  0  0
  6 97  1  0  0  0
  7  8  2  0  0  0
  7 26  1  0  0  0
  7 29  1  0  0  0
  8  9  1  0  0  0
  8 22  1  0  0  0
  9 10  1  0  0  0
  9 27  2  0  0  0
 10 11  2  0  0  0
 10 15  1  0  0  0
 11 12  1  0  0  0
 11 98  1  0  0  0
 12 13  2  0  0  0
 12 99  1  0  0  0
 13 14  1  0  0  0
 13 31  1  0  0  0
 14 15  2  0  0  0
 14100  1  0  0  0
 15101  1  0  0  0
 16 17  2  0  0  0
 16 21  1  0  0  0
 16 31  1  0  0  0
 17 18  1  0  0  0
 17102  1  0  0  0
 18 19  2  0  0  0
 18103  1  0  0  0
 19 20  1  0  0  0
 19 24  1  0  0  0
 20 21  2  0  0  0
 20104  1  0  0  0
 21 23  1  0  0  0
 22 28  1  0  0  0
 22 32  2  0  0  0
 26 27  1  0  0  0
 28105  1  0  0  0
 28106  1  0  0  0
 29107  1  0  0  0
 29108  1  0  0  0
 33 34  1  0  0  0
 33 66  1  0  0  0
 33 70  2  0  0  0
 34 36  1  0  0  0
 34 59  1  0  0  0
 34109  1  0  0  0
 35 44  2  0  0  0
 35 45  1  0  0  0
 35 68  1  0  0  0
 36 56  1  0  0  0
 36110  1  0  0  0
 37 39  1  0  0  0
 37 47  1  0  0  0
 37 66  1  0  0  0
 37111  1  0  0  0
 38 43  2  0  0  0
 38 46  1  0  0  0
 38 47  1  0  0  0
 39 64  1  0  0  0
 39 67  2  0  0  0
 40 52  1  0  0  0
 40 53  2  0  0  0
 40 58  1  0  0  0
 41112  1  0  0  0
 41113  1  0  0  0
 41114  1  0  0  0
 41 48  1  0  0  0
 42 43  1  0  0  0
 42 66  1  0  0  0
 42115  1  0  0  0
 42116  1  0  0  0
 43 44  1  0  0  0
 44117  1  0  0  0
 45 46  2  0  0  0
 45118  1  0  0  0
 46119  1  0  0  0
 47120  1  0  0  0
 47121  1  0  0  0
 48 56  1  0  0  0
 48 65  1  0  0  0
 48122  1  0  0  0
 49 50  1  0  0  0
 49 53  1  0  0  0
 49 64  1  0  0  0
 49123  1  0  0  0
 50 51  1  0  0  0
 50124  1  0  0  0
 50125  1  0  0  0
 51 52  1  0  0  0
 51126  1  0  0  0
 51127  1  0  0  0
 52128  1  0  0  0
 52129  1  0  0  0
 53 54  1  0  0  0
 54 55  2  0  0  0
 54130  1  0  0  0
 55 57  1  0  0  0
 55131  1  0  0  0
 56 69  2  0  0  0
 57 58  2  0  0  0
 57132  1  0  0  0
 58133  1  0  0  0
 59 60  1  0  0  0
 59 61  1  0  0  0
 59 62  1  0  0  0
 60134  1  0  0  0
 60135  1  0  0  0
 60136  1  0  0  0
 61137  1  0  0  0
 61138  1  0  0  0
 61139  1  0  0  0
 62140  1  0  0  0
 62141  1  0  0  0
 62142  1  0  0  0
 63 65  1  0  0  0
 63143  1  0  0  0
 63144  1  0  0  0
 63145  1  0  0  0
 64146  1  0  0  0
 65147  1  0  0  0
 68 82  1  0  0  0
 71 72  2  0  0  0
 71 74  1  0  0  0
 71148  1  0  0  0
 72 76  1  0  0  0
 72149  1  0  0  0
 73 75  1  0  0  0
 73 76  2  0  0  0
 73150  1  0  0  0
 74 75  2  0  0  0
 74 81  1  0  0  0
 75 83  1  0  0  0
 76 84  1  0  0  0
 77 78  1  0  0  0
 77 79  1  0  0  0
 77151  1  0  0  0
 77152  1  0  0  0
 78 80  1  0  0  0
 78153  1  0  0  0
 78154  1  0  0  0
 79 85  1  0  0  0
 79155  1  0  0  0
 79156  1  0  0  0
 80 82  1  0  0  0
 80 85  1  0  0  0
 80157  1  0  0  0
 81158  1  0  0  0
 81159  1  0  0  0
 81 85  1  0  0  0
 82160  1  0  0  0
 82161  1  0  0  0
 83 86  1  0  0  0
 83 87  1  0  0  0
 83 88  1  0  0  0
 84162  1  0  0  0
 85163  1  0  0  0
M  CHG  1  85   1
M  ISO  4   1 100  68 101  82 101  84 100
M  END
> <chiral flag>
0

> <version>
0

> <s_m_source_file>
/data/baiqing/PycharmProjects/Reinvent-master-3.2/result/LINK_invent/BTK/process_docking_weight1_custom_product_contain_oxygen_bond_distance_aromatic_linkinvent_7_9_3/rearranged_h_0023.sdf

> <i_m_source_file_index>
75

> <r_mmod_Potential_Energy-OPLS-2005>
104.281059265137

> <r_mmod_Stretch_Energy-OPLS-2005>
89.1438674926758

> <r_mmod_Bend_Energy-OPLS-2005>
201.278823852539

> <r_mmod_Torsional_Energy-OPLS-2005>
277.778411865234

> <r_mmod_Improper_Torsional_Energy-OPLS-2005>
5.52166509628296

> <r_mmod_Van_der_Waal_Energy-OPLS-2005>
133.592926025391

> <r_mmod_Electrostatic_Energy-OPLS-2005>
-235.343048095703

> <r_mmod_Solvation_Energy-OPLS-2005>
-424.970184326172

> <b_mmod_Minimization_Converged-OPLS-2005>
0

> <r_mmod_RMS_Derivative-OPLS-2005>
3.48201036453247

$$$$
75
                    3D
 Structure written by MMmdl.
155164  0  0  1  0            999 V2000
  -30.6267  -14.6392   20.5050 C   0  0  0  0  0  0
  -30.4428  -12.3931   19.4555 C   0  0  0  0  0  0
  -29.5088  -12.5032   18.2295 C   0  0  0  0  0  0
  -28.0339  -12.3357   18.6467 C   0  0  0  0  0  0
  -27.6555  -13.2151   19.8681 C   0  0  2  0  0  0
  -28.7011  -13.0714   20.9976 C   0  0  0  0  0  0
  -25.2560  -13.8163   20.5698 C   0  0  0  0  0  0
  -24.1817  -13.0426   20.9165 C   0  0  0  0  0  0
  -24.6392  -11.6900   20.8740 C   0  0  0  0  0  0
  -23.9064  -10.4284   21.0403 C   0  0  0  0  0  0
  -24.3618   -9.4202   21.9187 C   0  0  0  0  0  0
  -23.6289   -8.2241   22.0760 C   0  0  0  0  0  0
  -22.4274   -8.0276   21.3547 C   0  0  0  0  0  0
  -21.9909   -9.0249   20.4652 C   0  0  0  0  0  0
  -22.7237  -10.2125   20.3054 C   0  0  0  0  0  0
  -21.6847   -6.0729   22.5281 C   0  0  0  0  0  0
  -21.4002   -6.5636   23.8213 C   0  0  0  0  0  0
  -21.3663   -5.6790   24.9177 C   0  0  0  0  0  0
  -21.6045   -4.3050   24.7226 C   0  0  0  0  0  0
  -21.8817   -3.8143   23.4348 C   0  0  0  0  0  0
  -21.9191   -4.6959   22.3405 C   0  0  0  0  0  0
  -22.7841  -13.5227   21.1839 C   0  0  0  0  0  0
  -22.1659   -4.2145   21.0979 F   0  0  0  0  0  0
  -21.5640   -3.4535   25.7741 F   0  0  0  0  0  0
  -30.0186  -13.4130   20.4349 N   0  0  0  0  0  0
  -26.3004  -12.9348   20.3371 N   0  0  0  0  0  0
  -25.9326  -11.6499   20.5790 N   0  0  0  0  0  0
  -22.0487  -12.8228   22.0401 N   0  0  0  0  0  0
  -25.4255  -15.1890   20.4174 N   0  0  0  0  0  0
  -31.7851  -14.8053   20.1122 O   0  0  0  0  0  0
  -21.6637   -6.8874   21.4242 O   0  0  0  0  0  0
  -22.3529  -14.5545   20.6710 O   0  0  0  0  0  0
  -24.6254  -31.8592   23.2010 C   0  0  0  0  0  0
  -25.9109  -32.4782   23.8329 C   0  0  1  0  0  0
  -27.2325  -27.3239   20.1132 C   0  0  0  0  0  0
  -25.5930  -33.8580   24.2253 N   0  0  0  0  0  0
  -23.4196  -30.4833   21.5436 C   0  0  2  0  0  0
  -24.8670  -28.9380   20.1102 C   0  0  0  0  0  0
  -22.7474  -29.4628   22.4932 C   0  0  0  0  0  0
  -18.0292  -28.1391   22.8490 C   0  0  0  0  0  0
  -24.1481  -36.7274   23.2637 C   0  0  0  0  0  0
  -25.9593  -30.7920   21.3703 C   0  0  0  0  0  0
  -26.0356  -29.4191   20.7141 C   0  0  0  0  0  0
  -27.2204  -28.6245   20.7052 C   0  0  0  0  0  0
  -26.0378  -26.8980   19.4840 C   0  0  0  0  0  0
  -24.8700  -27.6825   19.4861 C   0  0  0  0  0  0
  -23.6343  -29.8168   20.1597 C   0  0  0  0  0  0
  -25.4111  -36.3075   24.0328 C   0  0  1  0  0  0
  -20.5896  -28.3692   23.1275 C   0  0  2  0  0  0
  -20.6779  -26.9419   22.5394 C   0  0  0  0  0  0
  -19.5755  -26.6393   21.5203 C   0  0  0  0  0  0
  -18.1936  -26.7935   22.1621 C   0  0  0  0  0  0
  -19.1547  -28.8858   23.2881 C   0  0  0  0  0  0
  -18.9482  -30.1467   23.8885 C   0  0  0  0  0  0
  -17.6483  -30.6591   24.0582 C   0  0  0  0  0  0
  -25.9057  -34.9456   23.5085 C   0  0  0  0  0  0
  -16.5371  -29.9099   23.6343 C   0  0  0  0  0  0
  -16.7282  -28.6520   23.0350 C   0  0  0  0  0  0
  -26.4494  -31.6595   25.0695 C   0  0  0  0  0  0
  -25.3727  -31.3742   26.1425 C   0  0  0  0  0  0
  -27.0345  -30.3030   24.6122 C   0  0  0  0  0  0
  -27.6042  -32.4347   25.7473 C   0  0  0  0  0  0
  -27.5576  -37.1796   24.8482 C   0  0  0  0  0  0
  -21.4188  -29.3050   22.3674 N   0  0  0  0  0  0
  -26.4278  -37.3782   23.9430 N   0  0  0  0  0  0
  -24.6868  -31.0612   22.0959 N   0  0  0  0  0  0
  -23.4199  -28.8171   23.3010 O   0  0  0  0  0  0
  -28.3540  -26.4773   20.1669 O   0  0  0  0  0  0
  -26.5632  -34.8936   22.4660 O   0  0  0  0  0  0
  -23.5419  -32.1385   23.7344 O   0  0  0  0  0  0
  -28.6925  -19.3057   20.8797 C   0  0  0  0  0  0
  -31.0273  -17.8800   20.3039 C   0  0  0  0  0  0
  -29.8120  -20.0787   20.4536 C   0  0  0  0  0  0
  -29.8974  -17.1298   20.7194 C   0  0  0  0  0  0
  -28.7353  -17.8870   21.0074 C   0  0  0  0  0  0
  -30.9883  -19.3036   20.1781 C   0  0  0  0  0  0
  -28.8130  -22.4681   20.6729 C   0  0  0  0  0  0
  -30.4092  -23.7754   19.5097 C   0  0  0  0  0  0
  -30.8848  -22.3203   19.7200 C   0  0  0  0  0  0
  -29.2361  -23.9644   20.4702 C   0  0  1  0  0  0
  -28.1271  -25.0186   20.0196 C   0  0  0  0  0  0
  -29.7726  -21.5594   20.3035 N   0  0  0  0  0  0
  -29.8191  -15.6767   20.8792 N   0  0  0  0  0  0
  -27.7069  -22.1870   21.1411 O   0  0  0  0  0  0
  -27.6215  -17.2302   21.4119 F   0  0  0  0  0  0
  -32.1346  -19.9099   19.7899 F   0  0  0  0  0  0
  -31.4836  -12.5215   19.1521 H   0  0  0  0  0  0
  -30.3826  -11.3978   19.8995 H   0  0  0  0  0  0
  -29.7744  -11.7478   17.4881 H   0  0  0  0  0  0
  -29.6453  -13.4707   17.7432 H   0  0  0  0  0  0
  -27.8840  -11.2836   18.8940 H   0  0  0  0  0  0
  -27.3718  -12.5454   17.8062 H   0  0  0  0  0  0
  -27.6720  -14.2498   19.5234 H   0  0  0  0  0  0
  -28.7126  -12.0502   21.3819 H   0  0  0  0  0  0
  -28.4450  -13.7023   21.8498 H   0  0  0  0  0  0
  -25.2760   -9.5678   22.4766 H   0  0  0  0  0  0
  -23.9994   -7.4632   22.7476 H   0  0  0  0  0  0
  -21.0842   -8.8762   19.8956 H   0  0  0  0  0  0
  -22.3696  -10.9663   19.6163 H   0  0  0  0  0  0
  -21.1978   -7.6143   23.9714 H   0  0  0  0  0  0
  -21.1492   -6.0521   25.9082 H   0  0  0  0  0  0
  -22.0595   -2.7602   23.2846 H   0  0  0  0  0  0
  -22.4085  -11.9867   22.4764 H   0  0  0  0  0  0
  -21.1122  -13.1280   22.2640 H   0  0  0  0  0  0
  -24.6643  -15.8419   20.5664 H   0  0  0  0  0  0
  -26.3039  -15.6516   20.2213 H   0  0  0  0  0  0
  -26.7168  -32.5451   23.1068 H   0  0  0  0  0  0
  -25.0128  -33.9734   25.0430 H   0  0  0  0  0  0
  -22.7139  -31.3040   21.4000 H   0  0  0  0  0  0
  -23.3763  -35.9589   23.3294 H   0  0  0  0  0  0
  -24.3567  -36.8889   22.2052 H   0  0  0  0  0  0
  -23.7205  -37.6461   23.6658 H   0  0  0  0  0  0
  -26.0864  -31.5536   20.5997 H   0  0  0  0  0  0
  -26.8402  -30.8430   21.9974 H   0  0  0  0  0  0
  -28.1165  -28.9909   21.1870 H   0  0  0  0  0  0
  -25.9761  -25.9411   18.9885 H   0  0  0  0  0  0
  -23.9762  -27.3072   19.0057 H   0  0  0  0  0  0
  -23.7544  -30.5925   19.4025 H   0  0  0  0  0  0
  -22.7545  -29.2458   19.8574 H   0  0  0  0  0  0
  -25.1287  -36.1899   25.0815 H   0  0  0  0  0  0
  -20.9997  -28.3247   24.1394 H   0  0  0  0  0  0
  -20.5675  -26.2309   23.3593 H   0  0  0  0  0  0
  -21.6648  -26.7447   22.1188 H   0  0  0  0  0  0
  -19.6923  -25.6304   21.1235 H   0  0  0  0  0  0
  -19.6687  -27.3205   20.6731 H   0  0  0  0  0  0
  -17.4208  -26.6696   21.4023 H   0  0  0  0  0  0
  -18.0341  -26.0058   22.8998 H   0  0  0  0  0  0
  -19.7964  -30.7301   24.2216 H   0  0  0  0  0  0
  -17.5047  -31.6271   24.5194 H   0  0  0  0  0  0
  -15.5372  -30.3018   23.7672 H   0  0  0  0  0  0
  -15.8678  -28.0858   22.7052 H   0  0  0  0  0  0
  -24.5905  -30.7088   25.7758 H   0  0  0  0  0  0
  -24.8936  -32.2925   26.4832 H   0  0  0  0  0  0
  -25.8050  -30.8935   27.0210 H   0  0  0  0  0  0
  -26.2914  -29.6778   24.1163 H   0  0  0  0  0  0
  -27.4100  -29.7271   25.4590 H   0  0  0  0  0  0
  -27.8746  -30.4346   23.9298 H   0  0  0  0  0  0
  -27.2632  -33.3662   26.2001 H   0  0  0  0  0  0
  -28.3871  -32.6882   25.0314 H   0  0  0  0  0  0
  -28.0679  -31.8508   26.5427 H   0  0  0  0  0  0
  -28.2591  -38.0101   24.7544 H   0  0  0  0  0  0
  -28.1068  -36.2634   24.6268 H   0  0  0  0  0  0
  -27.2310  -37.1386   25.8890 H   0  0  0  0  0  0
  -20.9355  -29.8791   21.6907 H   0  0  0  0  0  0
  -26.0146  -38.2843   24.1464 H   0  0  0  0  0  0
  -27.7556  -19.7816   21.1178 H   0  0  0  0  0  0
  -31.9536  -17.3751   20.0760 H   0  0  0  0  0  0
  -30.0786  -23.9088   18.4785 H   0  0  0  0  0  0
  -31.2086  -24.4947   19.6897 H   0  0  0  0  0  0
  -31.7300  -22.2991   20.4097 H   0  0  0  0  0  0
  -31.2091  -21.8885   18.7724 H   0  0  0  0  0  0
  -29.6209  -24.2802   21.4401 H   0  0  0  0  0  0
  -27.2268  -24.7763   20.5869 H   0  0  0  0  0  0
  -27.8904  -24.8197   18.9739 H   0  0  0  0  0  0
  -28.9146  -15.3675   21.2042 H   0  0  0  0  0  0
  1 25  1  0  0  0
  1 30  2  0  0  0
  1 83  1  0  0  0
  2  3  1  0  0  0
  2 25  1  0  0  0
  2 87  1  0  0  0
  2 88  1  0  0  0
  3  4  1  0  0  0
  3 89  1  0  0  0
  3 90  1  0  0  0
  4  5  1  0  0  0
  4 91  1  0  0  0
  4 92  1  0  0  0
  5  6  1  0  0  0
  5 26  1  0  0  0
  5 93  1  0  0  0
  6 25  1  0  0  0
  6 94  1  0  0  0
  6 95  1  0  0  0
  7  8  2  0  0  0
  7 26  1  0  0  0
  7 29  1  0  0  0
  8  9  1  0  0  0
  8 22  1  0  0  0
  9 10  1  0  0  0
  9 27  2  0  0  0
 10 11  2  0  0  0
 10 15  1  0  0  0
 11 12  1  0  0  0
 11 96  1  0  0  0
 12 13  2  0  0  0
 12 97  1  0  0  0
 13 14  1  0  0  0
 13 31  1  0  0  0
 14 15  2  0  0  0
 14 98  1  0  0  0
 15 99  1  0  0  0
 16 17  2  0  0  0
 16 21  1  0  0  0
 16 31  1  0  0  0
 17 18  1  0  0  0
 17100  1  0  0  0
 18 19  2  0  0  0
 18101  1  0  0  0
 19 20  1  0  0  0
 19 24  1  0  0  0
 20 21  2  0  0  0
 20102  1  0  0  0
 21 23  1  0  0  0
 22 28  1  0  0  0
 22 32  2  0  0  0
 26 27  1  0  0  0
 28103  1  0  0  0
 28104  1  0  0  0
 29105  1  0  0  0
 29106  1  0  0  0
 33 34  1  0  0  0
 33 66  1  0  0  0
 33 70  2  0  0  0
 34 36  1  0  0  0
 34 59  1  0  0  0
 34107  1  0  0  0
 35 44  2  0  0  0
 35 45  1  0  0  0
 35 68  1  0  0  0
 36 56  1  0  0  0
 36108  1  0  0  0
 37 39  1  0  0  0
 37 47  1  0  0  0
 37 66  1  0  0  0
 37109  1  0  0  0
 38 43  2  0  0  0
 38 46  1  0  0  0
 38 47  1  0  0  0
 39 64  1  0  0  0
 39 67  2  0  0  0
 40 52  1  0  0  0
 40 53  2  0  0  0
 40 58  1  0  0  0
 41110  1  0  0  0
 41111  1  0  0  0
 41112  1  0  0  0
 41 48  1  0  0  0
 42 43  1  0  0  0
 42 66  1  0  0  0
 42113  1  0  0  0
 42114  1  0  0  0
 43 44  1  0  0  0
 44115  1  0  0  0
 45 46  2  0  0  0
 45116  1  0  0  0
 46117  1  0  0  0
 47118  1  0  0  0
 47119  1  0  0  0
 48 56  1  0  0  0
 48 65  1  0  0  0
 48120  1  0  0  0
 49 50  1  0  0  0
 49 53  1  0  0  0
 49 64  1  0  0  0
 49121  1  0  0  0
 50 51  1  0  0  0
 50122  1  0  0  0
 50123  1  0  0  0
 51 52  1  0  0  0
 51124  1  0  0  0
 51125  1  0  0  0
 52126  1  0  0  0
 52127  1  0  0  0
 53 54  1  0  0  0
 54 55  2  0  0  0
 54128  1  0  0  0
 55 57  1  0  0  0
 55129  1  0  0  0
 56 69  2  0  0  0
 57 58  2  0  0  0
 57130  1  0  0  0
 58131  1  0  0  0
 59 60  1  0  0  0
 59 61  1  0  0  0
 59 62  1  0  0  0
 60132  1  0  0  0
 60133  1  0  0  0
 60134  1  0  0  0
 61135  1  0  0  0
 61136  1  0  0  0
 61137  1  0  0  0
 62138  1  0  0  0
 62139  1  0  0  0
 62140  1  0  0  0
 63 65  1  0  0  0
 63141  1  0  0  0
 63142  1  0  0  0
 63143  1  0  0  0
 64144  1  0  0  0
 65145  1  0  0  0
 68 81  1  0  0  0
 71 73  2  0  0  0
 71 75  1  0  0  0
 71146  1  0  0  0
 72 74  1  0  0  0
 72 76  2  0  0  0
 72147  1  0  0  0
 73 76  1  0  0  0
 73 82  1  0  0  0
 74 75  2  0  0  0
 74 83  1  0  0  0
 75 85  1  0  0  0
 76 86  1  0  0  0
 77 80  1  0  0  0
 77 82  1  0  0  0
 77 84  2  0  0  0
 78 79  1  0  0  0
 78 80  1  0  0  0
 78148  1  0  0  0
 78149  1  0  0  0
 79 82  1  0  0  0
 79150  1  0  0  0
 79151  1  0  0  0
 80 81  1  0  0  0
 80152  1  0  0  0
 81153  1  0  0  0
 81154  1  0  0  0
 83155  1  0  0  0
M  ISO  4   1 100  68 101  81 101  83 100
M  END
> <chiral flag>
0

> <version>
0

> <s_m_source_file>
/data/baiqing/PycharmProjects/Reinvent-master-3.2/result/LINK_invent/BTK/process_docking_weight1_custom_product_contain_oxygen_bond_distance_aromatic_linkinvent_7_9_3/rearranged_h_0023.sdf

> <i_m_source_file_index>
76

> <r_mmod_Potential_Energy-OPLS-2005>
87.1417617797852

> <r_mmod_Stretch_Energy-OPLS-2005>
82.6937789916992

> <r_mmod_Bend_Energy-OPLS-2005>
170.257904052734

> <r_mmod_Torsional_Energy-OPLS-2005>
252.325698852539

> <r_mmod_Improper_Torsional_Energy-OPLS-2005>
3.86073160171509

> <r_mmod_Van_der_Waal_Energy-OPLS-2005>
152.293182373047

> <r_mmod_Electrostatic_Energy-OPLS-2005>
-416.605163574219

> <r_mmod_Solvation_Energy-OPLS-2005>
-205.30500793457

> <b_mmod_Minimization_Converged-OPLS-2005>
0

> <r_mmod_RMS_Derivative-OPLS-2005>
1.43809568881989

$$$$
76
                    3D
 Structure written by MMmdl.
161170  0  0  1  0            999 V2000
  -30.7430  -14.4592   20.5971 C   0  0  0  0  0  0
  -30.4157  -12.3170   19.4110 C   0  0  0  0  0  0
  -29.4861  -12.5091   18.1974 C   0  0  0  0  0  0
  -28.0111  -12.3521   18.6150 C   0  0  0  0  0  0
  -27.6532  -13.1985   19.8639 C   0  0  2  0  0  0
  -28.7008  -13.0088   20.9853 C   0  0  0  0  0  0
  -25.2573  -13.8129   20.5679 C   0  0  0  0  0  0
  -24.1828  -13.0419   20.9201 C   0  0  0  0  0  0
  -24.6375  -11.6886   20.8753 C   0  0  0  0  0  0
  -23.9044  -10.4277   21.0413 C   0  0  0  0  0  0
  -24.3600   -9.4197   21.9189 C   0  0  0  0  0  0
  -23.6283   -8.2235   22.0754 C   0  0  0  0  0  0
  -22.4270   -8.0271   21.3540 C   0  0  0  0  0  0
  -21.9900   -9.0244   20.4643 C   0  0  0  0  0  0
  -22.7223  -10.2125   20.3055 C   0  0  0  0  0  0
  -21.6846   -6.0731   22.5281 C   0  0  0  0  0  0
  -21.4002   -6.5638   23.8215 C   0  0  0  0  0  0
  -21.3652   -5.6789   24.9179 C   0  0  0  0  0  0
  -21.6043   -4.3052   24.7227 C   0  0  0  0  0  0
  -21.8821   -3.8143   23.4351 C   0  0  0  0  0  0
  -21.9192   -4.6958   22.3408 C   0  0  0  0  0  0
  -22.7855  -13.5235   21.1860 C   0  0  0  0  0  0
  -22.1665   -4.2146   21.0985 F   0  0  0  0  0  0
  -21.5631   -3.4529   25.7736 F   0  0  0  0  0  0
  -30.0306  -13.3090   20.4276 N   0  0  0  0  0  0
  -26.2984  -12.9272   20.3334 N   0  0  0  0  0  0
  -25.9294  -11.6447   20.5763 N   0  0  0  0  0  0
  -22.0475  -12.8233   22.0401 N   0  0  0  0  0  0
  -25.4298  -15.1845   20.4043 N   0  0  0  0  0  0
  -31.8729  -14.6105   20.1239 O   0  0  0  0  0  0
  -21.6633   -6.8871   21.4239 O   0  0  0  0  0  0
  -22.3553  -14.5550   20.6709 O   0  0  0  0  0  0
  -24.6141  -31.8688   23.2119 C   0  0  0  0  0  0
  -25.9041  -32.4824   23.8406 C   0  0  1  0  0  0
  -27.2252  -27.4368   20.0926 C   0  0  0  0  0  0
  -25.5919  -33.8623   24.2336 N   0  0  0  0  0  0
  -23.4004  -30.4950   21.5530 C   0  0  2  0  0  0
  -24.8444  -28.9679   20.1115 C   0  0  0  0  0  0
  -22.7411  -29.4660   22.4996 C   0  0  0  0  0  0
  -18.0269  -28.1373   22.8494 C   0  0  0  0  0  0
  -24.1478  -36.7295   23.2638 C   0  0  0  0  0  0
  -25.9303  -30.8364   21.3639 C   0  0  0  0  0  0
  -26.0068  -29.4739   20.7064 C   0  0  0  0  0  0
  -27.2019  -28.7180   20.6904 C   0  0  0  0  0  0
  -26.0432  -26.9524   19.4831 C   0  0  0  0  0  0
  -24.8581  -27.7072   19.4946 C   0  0  0  0  0  0
  -23.6062  -29.8323   20.1656 C   0  0  0  0  0  0
  -25.4099  -36.3107   24.0347 C   0  0  1  0  0  0
  -20.5858  -28.3653   23.1321 C   0  0  2  0  0  0
  -20.6759  -26.9393   22.5413 C   0  0  0  0  0  0
  -19.5740  -26.6376   21.5209 C   0  0  0  0  0  0
  -18.1914  -26.7926   22.1615 C   0  0  0  0  0  0
  -19.1517  -28.8831   23.2903 C   0  0  0  0  0  0
  -18.9449  -30.1441   23.8903 C   0  0  0  0  0  0
  -17.6456  -30.6583   24.0562 C   0  0  0  0  0  0
  -25.9037  -34.9477   23.5130 C   0  0  0  0  0  0
  -16.5342  -29.9085   23.6338 C   0  0  0  0  0  0
  -16.7258  -28.6501   23.0354 C   0  0  0  0  0  0
  -26.4482  -31.6600   25.0725 C   0  0  0  0  0  0
  -25.3766  -31.3691   26.1484 C   0  0  0  0  0  0
  -27.0322  -30.3052   24.6082 C   0  0  0  0  0  0
  -27.6054  -32.4325   25.7492 C   0  0  0  0  0  0
  -27.5575  -37.1792   24.8461 C   0  0  0  0  0  0
  -21.4137  -29.3023   22.3737 N   0  0  0  0  0  0
  -26.4272  -37.3803   23.9433 N   0  0  0  0  0  0
  -24.6668  -31.0804   22.1014 N   0  0  0  0  0  0
  -23.4196  -28.8191   23.3023 O   0  0  0  0  0  0
  -28.3818  -26.6805   20.1263 O   0  0  0  0  0  0
  -26.5585  -34.8933   22.4682 O   0  0  0  0  0  0
  -23.5340  -32.1430   23.7532 O   0  0  0  0  0  0
  -28.7011  -18.6365   21.6604 C   0  0  0  0  0  0
  -28.8281  -20.0414   21.6127 C   0  0  0  0  0  0
  -30.3142  -19.8345   19.7155 C   0  0  0  0  0  0
  -29.3648  -17.8131   20.7277 C   0  0  0  0  0  0
  -29.6278  -20.6790   20.6265 C   0  0  0  0  0  0
  -30.1844  -18.4296   19.7542 C   0  0  0  0  0  0
  -29.1198  -23.0884   21.2071 C   0  0  0  0  0  0
  -30.4408  -24.2475   19.5670 C   0  0  0  0  0  0
  -30.5888  -22.7236   19.4623 C   0  0  0  0  0  0
  -29.4452  -24.4980   20.7004 C   0  0  1  0  0  0
  -30.9602  -16.0604   22.4081 C   0  0  0  0  0  0
  -29.1218  -16.2965   20.7485 C   0  0  0  0  0  0
  -28.1767  -25.2630   20.2592 C   0  0  0  0  0  0
  -29.7511  -22.1200   20.5013 N   0  0  0  0  0  0
  -30.1723  -15.4382   21.3407 N   0  0  0  0  0  0
  -28.3684  -22.9306   22.1737 O   0  0  0  0  0  0
  -31.0143  -17.4926   18.5641 Cl  0  0  0  0  0  0
  -31.4593  -12.4088   19.1048 H   0  0  0  0  0  0
  -30.3161  -11.3087   19.8159 H   0  0  0  0  0  0
  -29.7326  -11.7901   17.4149 H   0  0  0  0  0  0
  -29.6422  -13.4983   17.7636 H   0  0  0  0  0  0
  -27.8335  -11.2956   18.8190 H   0  0  0  0  0  0
  -27.3555  -12.6139   17.7837 H   0  0  0  0  0  0
  -27.6740  -14.2342   19.5373 H   0  0  0  0  0  0
  -28.6844  -11.9811   21.3498 H   0  0  0  0  0  0
  -28.4577  -13.6262   21.8502 H   0  0  0  0  0  0
  -25.2745   -9.5671   22.4766 H   0  0  0  0  0  0
  -23.9986   -7.4619   22.7468 H   0  0  0  0  0  0
  -21.0838   -8.8755   19.8949 H   0  0  0  0  0  0
  -22.3686  -10.9661   19.6160 H   0  0  0  0  0  0
  -21.1984   -7.6146   23.9715 H   0  0  0  0  0  0
  -21.1474   -6.0521   25.9081 H   0  0  0  0  0  0
  -22.0608   -2.7606   23.2843 H   0  0  0  0  0  0
  -22.4063  -11.9875   22.4782 H   0  0  0  0  0  0
  -21.1093  -13.1266   22.2595 H   0  0  0  0  0  0
  -24.6595  -15.8357   20.5065 H   0  0  0  0  0  0
  -26.2702  -15.6194   20.0477 H   0  0  0  0  0  0
  -26.7109  -32.5533   23.1170 H   0  0  0  0  0  0
  -25.0138  -33.9787   25.0528 H   0  0  0  0  0  0
  -22.6877  -31.3111   21.4178 H   0  0  0  0  0  0
  -23.3762  -35.9603   23.3283 H   0  0  0  0  0  0
  -24.3580  -36.8917   22.2053 H   0  0  0  0  0  0
  -23.7199  -37.6484   23.6660 H   0  0  0  0  0  0
  -26.0437  -31.6044   20.5980 H   0  0  0  0  0  0
  -26.8179  -30.8847   21.9831 H   0  0  0  0  0  0
  -28.0977  -29.1038   21.1577 H   0  0  0  0  0  0
  -26.0122  -25.9920   18.9901 H   0  0  0  0  0  0
  -23.9673  -27.3147   19.0243 H   0  0  0  0  0  0
  -23.7095  -30.6085   19.4064 H   0  0  0  0  0  0
  -22.7307  -29.2498   19.8727 H   0  0  0  0  0  0
  -25.1272  -36.1962   25.0840 H   0  0  0  0  0  0
  -20.9943  -28.3203   24.1443 H   0  0  0  0  0  0
  -20.5653  -26.2265   23.3596 H   0  0  0  0  0  0
  -21.6628  -26.7437   22.1200 H   0  0  0  0  0  0
  -19.6898  -25.6291   21.1224 H   0  0  0  0  0  0
  -19.6689  -27.3198   20.6752 H   0  0  0  0  0  0
  -17.4194  -26.6694   21.4002 H   0  0  0  0  0  0
  -18.0301  -26.0052   22.8990 H   0  0  0  0  0  0
  -19.7929  -30.7257   24.2262 H   0  0  0  0  0  0
  -17.5016  -31.6269   24.5154 H   0  0  0  0  0  0
  -15.5346  -30.2990   23.7668 H   0  0  0  0  0  0
  -15.8653  -28.0833   22.7062 H   0  0  0  0  0  0
  -24.5954  -30.7015   25.7830 H   0  0  0  0  0  0
  -24.8947  -32.2839   26.4944 H   0  0  0  0  0  0
  -25.8140  -30.8867   27.0234 H   0  0  0  0  0  0
  -26.2861  -29.6793   24.1172 H   0  0  0  0  0  0
  -27.4149  -29.7299   25.4520 H   0  0  0  0  0  0
  -27.8670  -30.4382   23.9197 H   0  0  0  0  0  0
  -27.2677  -33.3627   26.2074 H   0  0  0  0  0  0
  -28.3877  -32.6875   25.0331 H   0  0  0  0  0  0
  -28.0715  -31.8449   26.5410 H   0  0  0  0  0  0
  -28.2568  -38.0115   24.7567 H   0  0  0  0  0  0
  -28.1095  -36.2653   24.6214 H   0  0  0  0  0  0
  -27.2314  -37.1340   25.8866 H   0  0  0  0  0  0
  -20.9292  -29.8772   21.6985 H   0  0  0  0  0  0
  -26.0154  -38.2869   24.1482 H   0  0  0  0  0  0
  -28.0639  -18.1917   22.4117 H   0  0  0  0  0  0
  -28.2726  -20.5990   22.3496 H   0  0  0  0  0  0
  -30.9432  -20.2450   18.9403 H   0  0  0  0  0  0
  -30.0936  -24.6666   18.6217 H   0  0  0  0  0  0
  -31.3998  -24.7182   19.7876 H   0  0  0  0  0  0
  -31.6310  -22.4299   19.5968 H   0  0  0  0  0  0
  -30.2653  -22.3854   18.4768 H   0  0  0  0  0  0
  -29.9292  -25.0330   21.5183 H   0  0  0  0  0  0
  -30.3152  -16.5791   23.1175 H   0  0  0  0  0  0
  -31.6711  -16.7790   21.9979 H   0  0  0  0  0  0
  -31.5250  -15.3130   22.9684 H   0  0  0  0  0  0
  -28.9318  -16.0079   19.7138 H   0  0  0  0  0  0
  -28.1917  -16.0953   21.2807 H   0  0  0  0  0  0
  -27.3879  -25.0935   20.9960 H   0  0  0  0  0  0
  -27.8231  -24.8433   19.3167 H   0  0  0  0  0  0
  1 25  1  0  0  0
  1 30  2  0  0  0
  1 85  1  0  0  0
  2  3  1  0  0  0
  2 25  1  0  0  0
  2 88  1  0  0  0
  2 89  1  0  0  0
  3  4  1  0  0  0
  3 90  1  0  0  0
  3 91  1  0  0  0
  4  5  1  0  0  0
  4 92  1  0  0  0
  4 93  1  0  0  0
  5  6  1  0  0  0
  5 26  1  0  0  0
  5 94  1  0  0  0
  6 25  1  0  0  0
  6 95  1  0  0  0
  6 96  1  0  0  0
  7  8  2  0  0  0
  7 26  1  0  0  0
  7 29  1  0  0  0
  8  9  1  0  0  0
  8 22  1  0  0  0
  9 10  1  0  0  0
  9 27  2  0  0  0
 10 11  2  0  0  0
 10 15  1  0  0  0
 11 12  1  0  0  0
 11 97  1  0  0  0
 12 13  2  0  0  0
 12 98  1  0  0  0
 13 14  1  0  0  0
 13 31  1  0  0  0
 14 15  2  0  0  0
 14 99  1  0  0  0
 15100  1  0  0  0
 16 17  2  0  0  0
 16 21  1  0  0  0
 16 31  1  0  0  0
 17 18  1  0  0  0
 17101  1  0  0  0
 18 19  2  0  0  0
 18102  1  0  0  0
 19 20  1  0  0  0
 19 24  1  0  0  0
 20 21  2  0  0  0
 20103  1  0  0  0
 21 23  1  0  0  0
 22 28  1  0  0  0
 22 32  2  0  0  0
 26 27  1  0  0  0
 28104  1  0  0  0
 28105  1  0  0  0
 29106  1  0  0  0
 29107  1  0  0  0
 33 34  1  0  0  0
 33 66  1  0  0  0
 33 70  2  0  0  0
 34 36  1  0  0  0
 34 59  1  0  0  0
 34108  1  0  0  0
 35 44  2  0  0  0
 35 45  1  0  0  0
 35 68  1  0  0  0
 36 56  1  0  0  0
 36109  1  0  0  0
 37 39  1  0  0  0
 37 47  1  0  0  0
 37 66  1  0  0  0
 37110  1  0  0  0
 38 43  2  0  0  0
 38 46  1  0  0  0
 38 47  1  0  0  0
 39 64  1  0  0  0
 39 67  2  0  0  0
 40 52  1  0  0  0
 40 53  2  0  0  0
 40 58  1  0  0  0
 41111  1  0  0  0
 41112  1  0  0  0
 41113  1  0  0  0
 41 48  1  0  0  0
 42 43  1  0  0  0
 42 66  1  0  0  0
 42114  1  0  0  0
 42115  1  0  0  0
 43 44  1  0  0  0
 44116  1  0  0  0
 45 46  2  0  0  0
 45117  1  0  0  0
 46118  1  0  0  0
 47119  1  0  0  0
 47120  1  0  0  0
 48 56  1  0  0  0
 48 65  1  0  0  0
 48121  1  0  0  0
 49 50  1  0  0  0
 49 53  1  0  0  0
 49 64  1  0  0  0
 49122  1  0  0  0
 50 51  1  0  0  0
 50123  1  0  0  0
 50124  1  0  0  0
 51 52  1  0  0  0
 51125  1  0  0  0
 51126  1  0  0  0
 52127  1  0  0  0
 52128  1  0  0  0
 53 54  1  0  0  0
 54 55  2  0  0  0
 54129  1  0  0  0
 55 57  1  0  0  0
 55130  1  0  0  0
 56 69  2  0  0  0
 57 58  2  0  0  0
 57131  1  0  0  0
 58132  1  0  0  0
 59 60  1  0  0  0
 59 61  1  0  0  0
 59 62  1  0  0  0
 60133  1  0  0  0
 60134  1  0  0  0
 60135  1  0  0  0
 61136  1  0  0  0
 61137  1  0  0  0
 61138  1  0  0  0
 62139  1  0  0  0
 62140  1  0  0  0
 62141  1  0  0  0
 63 65  1  0  0  0
 63142  1  0  0  0
 63143  1  0  0  0
 63144  1  0  0  0
 64145  1  0  0  0
 65146  1  0  0  0
 68 83  1  0  0  0
 71 72  2  0  0  0
 71 74  1  0  0  0
 71147  1  0  0  0
 72 75  1  0  0  0
 72148  1  0  0  0
 73 75  2  0  0  0
 73 76  1  0  0  0
 73149  1  0  0  0
 74 76  2  0  0  0
 74 82  1  0  0  0
 75 84  1  0  0  0
 76 87  1  0  0  0
 77 80  1  0  0  0
 77 84  1  0  0  0
 77 86  2  0  0  0
 78 79  1  0  0  0
 78 80  1  0  0  0
 78150  1  0  0  0
 78151  1  0  0  0
 79 84  1  0  0  0
 79152  1  0  0  0
 79153  1  0  0  0
 80 83  1  0  0  0
 80154  1  0  0  0
 81 85  1  0  0  0
 81155  1  0  0  0
 81156  1  0  0  0
 81157  1  0  0  0
 82 85  1  0  0  0
 82158  1  0  0  0
 82159  1  0  0  0
 83160  1  0  0  0
 83161  1  0  0  0
M  ISO  4   1 100  68 101  83 101  85 100
M  END
> <chiral flag>
0

> <version>
0

> <s_m_source_file>
/data/baiqing/PycharmProjects/Reinvent-master-3.2/result/LINK_invent/BTK/process_docking_weight1_custom_product_contain_oxygen_bond_distance_aromatic_linkinvent_7_9_3/rearranged_h_0023.sdf

> <i_m_source_file_index>
77

> <r_mmod_Potential_Energy-OPLS-2005>
182.084396362305

> <r_mmod_Stretch_Energy-OPLS-2005>
42.154182434082

> <r_mmod_Bend_Energy-OPLS-2005>
118.979957580566

> <r_mmod_Torsional_Energy-OPLS-2005>
327.677215576172

> <r_mmod_Improper_Torsional_Energy-OPLS-2005>
3.96244549751282

> <r_mmod_Van_der_Waal_Energy-OPLS-2005>
161.254318237305

> <r_mmod_Electrostatic_Energy-OPLS-2005>
-277.669799804688

> <r_mmod_Solvation_Energy-OPLS-2005>
-208.637283325195

> <b_mmod_Minimization_Converged-OPLS-2005>
0

> <r_mmod_RMS_Derivative-OPLS-2005>
1.2113196849823

$$$$
77
                    3D
 Structure written by MMmdl.
164173  0  0  1  0            999 V2000
  -30.6833  -14.4351   20.6282 C   0  0  0  0  0  0
  -30.4258  -12.2946   19.4247 C   0  0  0  0  0  0
  -29.5008  -12.5337   18.2134 C   0  0  0  0  0  0
  -28.0220  -12.3765   18.6199 C   0  0  0  0  0  0
  -27.6645  -13.2003   19.8862 C   0  0  2  0  0  0
  -28.6963  -12.9366   21.0060 C   0  0  0  0  0  0
  -25.2607  -13.8139   20.5707 C   0  0  0  0  0  0
  -24.1832  -13.0431   20.9152 C   0  0  0  0  0  0
  -24.6352  -11.6888   20.8696 C   0  0  0  0  0  0
  -23.9004  -10.4292   21.0388 C   0  0  0  0  0  0
  -24.3572   -9.4227   21.9181 C   0  0  0  0  0  0
  -23.6270   -8.2248   22.0751 C   0  0  0  0  0  0
  -22.4250   -8.0265   21.3546 C   0  0  0  0  0  0
  -21.9873   -9.0222   20.4645 C   0  0  0  0  0  0
  -22.7166  -10.2122   20.3044 C   0  0  0  0  0  0
  -21.6855   -6.0710   22.5265 C   0  0  0  0  0  0
  -21.4019   -6.5619   23.8194 C   0  0  0  0  0  0
  -21.3670   -5.6780   24.9162 C   0  0  0  0  0  0
  -21.6060   -4.3042   24.7220 C   0  0  0  0  0  0
  -21.8817   -3.8126   23.4343 C   0  0  0  0  0  0
  -21.9203   -4.6942   22.3399 C   0  0  0  0  0  0
  -22.7861  -13.5245   21.1835 C   0  0  0  0  0  0
  -22.1664   -4.2123   21.0978 F   0  0  0  0  0  0
  -21.5645   -3.4525   25.7744 F   0  0  0  0  0  0
  -30.0403  -13.2461   20.4779 N   0  0  0  0  0  0
  -26.3021  -12.9295   20.3395 N   0  0  0  0  0  0
  -25.9272  -11.6453   20.5727 N   0  0  0  0  0  0
  -22.0483  -12.8251   22.0390 N   0  0  0  0  0  0
  -25.4399  -15.1862   20.4173 N   0  0  0  0  0  0
  -31.7555  -14.6990   20.0699 O   0  0  0  0  0  0
  -21.6646   -6.8840   21.4223 O   0  0  0  0  0  0
  -22.3544  -14.5542   20.6662 O   0  0  0  0  0  0
  -24.6128  -31.8700   23.2083 C   0  0  0  0  0  0
  -25.9017  -32.4835   23.8357 C   0  0  1  0  0  0
  -27.2227  -27.4354   20.1063 C   0  0  0  0  0  0
  -25.5854  -33.8632   24.2285 N   0  0  0  0  0  0
  -23.3993  -30.4912   21.5549 C   0  0  2  0  0  0
  -24.8446  -28.9597   20.1153 C   0  0  0  0  0  0
  -22.7403  -29.4642   22.5041 C   0  0  0  0  0  0
  -18.0257  -28.1372   22.8521 C   0  0  0  0  0  0
  -24.1494  -36.7321   23.2637 C   0  0  0  0  0  0
  -25.9280  -30.8376   21.3603 C   0  0  0  0  0  0
  -26.0075  -29.4716   20.7081 C   0  0  0  0  0  0
  -27.2044  -28.7190   20.6981 C   0  0  0  0  0  0
  -26.0478  -26.9336   19.5120 C   0  0  0  0  0  0
  -24.8592  -27.6890   19.5116 C   0  0  0  0  0  0
  -23.6077  -29.8287   20.1683 C   0  0  0  0  0  0
  -25.4119  -36.3120   24.0329 C   0  0  1  0  0  0
  -20.5858  -28.3629   23.1368 C   0  0  2  0  0  0
  -20.6769  -26.9377   22.5446 C   0  0  0  0  0  0
  -19.5733  -26.6375   21.5262 C   0  0  0  0  0  0
  -18.1902  -26.7919   22.1655 C   0  0  0  0  0  0
  -19.1515  -28.8821   23.2937 C   0  0  0  0  0  0
  -18.9442  -30.1440   23.8927 C   0  0  0  0  0  0
  -17.6448  -30.6594   24.0553 C   0  0  0  0  0  0
  -25.9044  -34.9486   23.5118 C   0  0  0  0  0  0
  -16.5335  -29.9095   23.6321 C   0  0  0  0  0  0
  -16.7245  -28.6506   23.0352 C   0  0  0  0  0  0
  -26.4425  -31.6588   25.0676 C   0  0  0  0  0  0
  -25.3648  -31.3718   26.1386 C   0  0  0  0  0  0
  -27.0236  -30.3017   24.6048 C   0  0  0  0  0  0
  -27.6011  -32.4280   25.7440 C   0  0  0  0  0  0
  -27.5590  -37.1806   24.8458 C   0  0  0  0  0  0
  -21.4141  -29.2985   22.3769 N   0  0  0  0  0  0
  -26.4304  -37.3804   23.9398 N   0  0  0  0  0  0
  -24.6653  -31.0793   22.0992 N   0  0  0  0  0  0
  -23.4181  -28.8217   23.3104 O   0  0  0  0  0  0
  -28.3485  -26.6461   20.1280 O   0  0  0  0  0  0
  -26.5657  -34.8938   22.4714 O   0  0  0  0  0  0
  -23.5327  -32.1442   23.7484 O   0  0  0  0  0  0
  -29.5150  -18.5944   19.6469 C   0  0  0  0  0  0
  -30.0162  -17.3092   19.9383 C   0  0  0  0  0  0
  -28.3621  -18.6327   21.7863 C   0  0  0  0  0  0
  -28.6775  -19.2633   20.5635 C   0  0  0  0  0  0
  -28.8616  -17.3442   22.0833 C   0  0  0  0  0  0
  -29.6764  -16.6559   21.1478 C   0  0  0  0  0  0
  -28.2331  -23.0610   20.5128 C   0  0  0  0  0  0
  -30.9957  -22.7600   21.5118 C   0  0  0  0  0  0
  -30.1381  -23.9920   21.8572 C   0  0  0  0  0  0
  -30.3221  -21.7648   20.5431 C   0  0  0  0  0  0
  -29.0962  -24.3267   20.7729 C   0  0  2  0  0  0
  -28.5012  -16.7053   23.4134 C   0  0  0  0  0  0
  -28.0707  -20.6240   20.2082 C   0  0  0  0  0  0
  -28.2962  -25.6206   21.1387 C   0  0  0  0  0  0
  -28.8504  -21.8467   20.5168 N   0  0  0  0  0  0
  -30.0538  -15.3073   21.4335 N   0  0  0  0  0  0
  -27.0205  -23.1770   20.3080 O   0  0  0  0  0  0
  -31.4713  -12.3980   19.1342 H   0  0  0  0  0  0
  -30.3180  -11.2727   19.7893 H   0  0  0  0  0  0
  -29.7430  -11.8401   17.4080 H   0  0  0  0  0  0
  -29.6694  -13.5361   17.8148 H   0  0  0  0  0  0
  -27.8447  -11.3171   18.8108 H   0  0  0  0  0  0
  -27.3717  -12.6544   17.7902 H   0  0  0  0  0  0
  -27.7225  -14.2543   19.6163 H   0  0  0  0  0  0
  -28.6637  -11.8896   21.3095 H   0  0  0  0  0  0
  -28.4309  -13.4963   21.9033 H   0  0  0  0  0  0
  -25.2714   -9.5733   22.4765 H   0  0  0  0  0  0
  -24.0006   -7.4637   22.7459 H   0  0  0  0  0  0
  -21.0820   -8.8688   19.8942 H   0  0  0  0  0  0
  -22.3592  -10.9641   19.6158 H   0  0  0  0  0  0
  -21.1990   -7.6121   23.9686 H   0  0  0  0  0  0
  -21.1513   -6.0518   25.9070 H   0  0  0  0  0  0
  -22.0598   -2.7581   23.2849 H   0  0  0  0  0  0
  -22.4040  -11.9920   22.4839 H   0  0  0  0  0  0
  -21.1094  -13.1303   22.2528 H   0  0  0  0  0  0
  -24.6887  -15.8559   20.5405 H   0  0  0  0  0  0
  -26.3190  -15.6222   20.1642 H   0  0  0  0  0  0
  -26.7099  -32.5551   23.1132 H   0  0  0  0  0  0
  -24.9833  -33.9793   25.0302 H   0  0  0  0  0  0
  -22.6840  -31.3055   21.4216 H   0  0  0  0  0  0
  -23.3759  -35.9653   23.3311 H   0  0  0  0  0  0
  -24.3586  -36.8932   22.2049 H   0  0  0  0  0  0
  -23.7246  -37.6522   23.6659 H   0  0  0  0  0  0
  -26.0340  -31.6057   20.5923 H   0  0  0  0  0  0
  -26.8159  -30.8936   21.9772 H   0  0  0  0  0  0
  -28.1013  -29.1041   21.1623 H   0  0  0  0  0  0
  -26.0453  -25.9451   19.0741 H   0  0  0  0  0  0
  -23.9653  -27.2827   19.0580 H   0  0  0  0  0  0
  -23.7203  -30.6091   19.4156 H   0  0  0  0  0  0
  -22.7277  -29.2591   19.8658 H   0  0  0  0  0  0
  -25.1316  -36.1981   25.0828 H   0  0  0  0  0  0
  -20.9934  -28.3185   24.1496 H   0  0  0  0  0  0
  -20.5749  -26.2220   23.3618 H   0  0  0  0  0  0
  -21.6625  -26.7481   22.1181 H   0  0  0  0  0  0
  -19.6891  -25.6300   21.1254 H   0  0  0  0  0  0
  -19.6672  -27.3227   20.6829 H   0  0  0  0  0  0
  -17.4192  -26.6702   21.4027 H   0  0  0  0  0  0
  -18.0251  -26.0051   22.9034 H   0  0  0  0  0  0
  -19.7919  -30.7251   24.2299 H   0  0  0  0  0  0
  -17.5000  -31.6283   24.5127 H   0  0  0  0  0  0
  -15.5334  -30.3008   23.7620 H   0  0  0  0  0  0
  -15.8644  -28.0834   22.7049 H   0  0  0  0  0  0
  -24.5845  -30.7062   25.7681 H   0  0  0  0  0  0
  -24.8796  -32.2886   26.4746 H   0  0  0  0  0  0
  -25.7925  -30.8911   27.0186 H   0  0  0  0  0  0
  -26.2790  -29.6823   24.1031 H   0  0  0  0  0  0
  -27.3913  -29.7215   25.4517 H   0  0  0  0  0  0
  -27.8664  -30.4316   23.9256 H   0  0  0  0  0  0
  -27.2643  -33.3579   26.2036 H   0  0  0  0  0  0
  -28.3798  -32.6828   25.0240 H   0  0  0  0  0  0
  -28.0685  -31.8363   26.5317 H   0  0  0  0  0  0
  -28.2617  -38.0094   24.7523 H   0  0  0  0  0  0
  -28.1077  -36.2629   24.6281 H   0  0  0  0  0  0
  -27.2301  -37.1451   25.8857 H   0  0  0  0  0  0
  -20.9305  -29.8622   21.6928 H   0  0  0  0  0  0
  -26.0201  -38.2890   24.1387 H   0  0  0  0  0  0
  -29.7611  -19.0590   18.7021 H   0  0  0  0  0  0
  -30.6366  -16.8265   19.1986 H   0  0  0  0  0  0
  -27.7139  -19.1348   22.4905 H   0  0  0  0  0  0
  -31.2550  -22.2457   22.4385 H   0  0  0  0  0  0
  -31.9447  -23.0795   21.0803 H   0  0  0  0  0  0
  -30.7860  -24.8515   22.0363 H   0  0  0  0  0  0
  -29.6228  -23.8061   22.8013 H   0  0  0  0  0  0
  -30.6930  -20.7681   20.7793 H   0  0  0  0  0  0
  -30.6640  -21.9695   19.5264 H   0  0  0  0  0  0
  -29.6340  -24.5294   19.8468 H   0  0  0  0  0  0
  -27.9135  -17.3802   24.0370 H   0  0  0  0  0  0
  -29.4081  -16.4491   23.9622 H   0  0  0  0  0  0
  -27.9127  -15.8002   23.2638 H   0  0  0  0  0  0
  -27.0960  -20.6757   20.6972 H   0  0  0  0  0  0
  -27.8596  -20.6234   19.1369 H   0  0  0  0  0  0
  -28.7107  -26.0592   22.0470 H   0  0  0  0  0  0
  -27.2659  -25.3850   21.4131 H   0  0  0  0  0  0
  -29.4309  -14.8495   22.0814 H   0  0  0  0  0  0
  1 25  1  0  0  0
  1 30  2  0  0  0
  1 86  1  0  0  0
  2  3  1  0  0  0
  2 25  1  0  0  0
  2 88  1  0  0  0
  2 89  1  0  0  0
  3  4  1  0  0  0
  3 90  1  0  0  0
  3 91  1  0  0  0
  4  5  1  0  0  0
  4 92  1  0  0  0
  4 93  1  0  0  0
  5  6  1  0  0  0
  5 26  1  0  0  0
  5 94  1  0  0  0
  6 25  1  0  0  0
  6 95  1  0  0  0
  6 96  1  0  0  0
  7  8  2  0  0  0
  7 26  1  0  0  0
  7 29  1  0  0  0
  8  9  1  0  0  0
  8 22  1  0  0  0
  9 10  1  0  0  0
  9 27  2  0  0  0
 10 11  2  0  0  0
 10 15  1  0  0  0
 11 12  1  0  0  0
 11 97  1  0  0  0
 12 13  2  0  0  0
 12 98  1  0  0  0
 13 14  1  0  0  0
 13 31  1  0  0  0
 14 15  2  0  0  0
 14 99  1  0  0  0
 15100  1  0  0  0
 16 17  2  0  0  0
 16 21  1  0  0  0
 16 31  1  0  0  0
 17 18  1  0  0  0
 17101  1  0  0  0
 18 19  2  0  0  0
 18102  1  0  0  0
 19 20  1  0  0  0
 19 24  1  0  0  0
 20 21  2  0  0  0
 20103  1  0  0  0
 21 23  1  0  0  0
 22 28  1  0  0  0
 22 32  2  0  0  0
 26 27  1  0  0  0
 28104  1  0  0  0
 28105  1  0  0  0
 29106  1  0  0  0
 29107  1  0  0  0
 33 34  1  0  0  0
 33 66  1  0  0  0
 33 70  2  0  0  0
 34 36  1  0  0  0
 34 59  1  0  0  0
 34108  1  0  0  0
 35 44  2  0  0  0
 35 45  1  0  0  0
 35 68  1  0  0  0
 36 56  1  0  0  0
 36109  1  0  0  0
 37 39  1  0  0  0
 37 47  1  0  0  0
 37 66  1  0  0  0
 37110  1  0  0  0
 38 43  2  0  0  0
 38 46  1  0  0  0
 38 47  1  0  0  0
 39 64  1  0  0  0
 39 67  2  0  0  0
 40 52  1  0  0  0
 40 53  2  0  0  0
 40 58  1  0  0  0
 41111  1  0  0  0
 41112  1  0  0  0
 41113  1  0  0  0
 41 48  1  0  0  0
 42 43  1  0  0  0
 42 66  1  0  0  0
 42114  1  0  0  0
 42115  1  0  0  0
 43 44  1  0  0  0
 44116  1  0  0  0
 45 46  2  0  0  0
 45117  1  0  0  0
 46118  1  0  0  0
 47119  1  0  0  0
 47120  1  0  0  0
 48 56  1  0  0  0
 48 65  1  0  0  0
 48121  1  0  0  0
 49 50  1  0  0  0
 49 53  1  0  0  0
 49 64  1  0  0  0
 49122  1  0  0  0
 50 51  1  0  0  0
 50123  1  0  0  0
 50124  1  0  0  0
 51 52  1  0  0  0
 51125  1  0  0  0
 51126  1  0  0  0
 52127  1  0  0  0
 52128  1  0  0  0
 53 54  1  0  0  0
 54 55  2  0  0  0
 54129  1  0  0  0
 55 57  1  0  0  0
 55130  1  0  0  0
 56 69  2  0  0  0
 57 58  2  0  0  0
 57131  1  0  0  0
 58132  1  0  0  0
 59 60  1  0  0  0
 59 61  1  0  0  0
 59 62  1  0  0  0
 60133  1  0  0  0
 60134  1  0  0  0
 60135  1  0  0  0
 61136  1  0  0  0
 61137  1  0  0  0
 61138  1  0  0  0
 62139  1  0  0  0
 62140  1  0  0  0
 62141  1  0  0  0
 63 65  1  0  0  0
 63142  1  0  0  0
 63143  1  0  0  0
 63144  1  0  0  0
 64145  1  0  0  0
 65146  1  0  0  0
 68 84  1  0  0  0
 71 72  2  0  0  0
 71 74  1  0  0  0
 71147  1  0  0  0
 72 76  1  0  0  0
 72148  1  0  0  0
 73 74  2  0  0  0
 73 75  1  0  0  0
 73149  1  0  0  0
 74 83  1  0  0  0
 75 76  2  0  0  0
 75 82  1  0  0  0
 76 86  1  0  0  0
 77 81  1  0  0  0
 77 85  1  0  0  0
 77 87  2  0  0  0
 78 79  1  0  0  0
 78 80  1  0  0  0
 78150  1  0  0  0
 78151  1  0  0  0
 79 81  1  0  0  0
 79152  1  0  0  0
 79153  1  0  0  0
 80 85  1  0  0  0
 80154  1  0  0  0
 80155  1  0  0  0
 81 84  1  0  0  0
 81156  1  0  0  0
 82157  1  0  0  0
 82158  1  0  0  0
 82159  1  0  0  0
 83 85  1  0  0  0
 83160  1  0  0  0
 83161  1  0  0  0
 84162  1  0  0  0
 84163  1  0  0  0
 86164  1  0  0  0
M  ISO  4   1 100  68 101  84 101  86 100
M  END
> <chiral flag>
0

> <version>
0

> <s_m_source_file>
/data/baiqing/PycharmProjects/Reinvent-master-3.2/result/LINK_invent/BTK/process_docking_weight1_custom_product_contain_oxygen_bond_distance_aromatic_linkinvent_7_9_3/rearranged_h_0023.sdf

> <i_m_source_file_index>
78

> <r_mmod_Potential_Energy-OPLS-2005>
13.0743999481201

> <r_mmod_Stretch_Energy-OPLS-2005>
41.9727210998535

> <r_mmod_Bend_Energy-OPLS-2005>
101.360275268555

> <r_mmod_Torsional_Energy-OPLS-2005>
291.720825195312

> <r_mmod_Improper_Torsional_Energy-OPLS-2005>
4.85962629318237

> <r_mmod_Van_der_Waal_Energy-OPLS-2005>
170.019271850586

> <r_mmod_Electrostatic_Energy-OPLS-2005>
-389.989562988281

> <r_mmod_Solvation_Energy-OPLS-2005>
-218.687026977539

> <b_mmod_Minimization_Converged-OPLS-2005>
0

> <r_mmod_RMS_Derivative-OPLS-2005>
3.34039330482483

$$$$
78
                    3D
 Structure written by MMmdl.
160169  0  0  1  0            999 V2000
  -30.5621  -14.7492   20.4684 C   0  0  0  0  0  0
  -30.4493  -12.4568   19.4665 C   0  0  0  0  0  0
  -29.5161  -12.5105   18.2342 C   0  0  0  0  0  0
  -28.0413  -12.3289   18.6482 C   0  0  0  0  0  0
  -27.6480  -13.2186   19.8566 C   0  0  2  0  0  0
  -28.6927  -13.1167   20.9900 C   0  0  0  0  0  0
  -25.2542  -13.8169   20.5646 C   0  0  0  0  0  0
  -24.1829  -13.0437   20.9207 C   0  0  0  0  0  0
  -24.6402  -11.6907   20.8759 C   0  0  0  0  0  0
  -23.9071  -10.4290   21.0422 C   0  0  0  0  0  0
  -24.3622   -9.4198   21.9196 C   0  0  0  0  0  0
  -23.6287   -8.2239   22.0756 C   0  0  0  0  0  0
  -22.4273   -8.0284   21.3541 C   0  0  0  0  0  0
  -21.9908   -9.0266   20.4649 C   0  0  0  0  0  0
  -22.7243  -10.2143   20.3067 C   0  0  0  0  0  0
  -21.6854   -6.0736   22.5277 C   0  0  0  0  0  0
  -21.4016   -6.5644   23.8209 C   0  0  0  0  0  0
  -21.3655   -5.6790   24.9168 C   0  0  0  0  0  0
  -21.6042   -4.3051   24.7222 C   0  0  0  0  0  0
  -21.8824   -3.8142   23.4341 C   0  0  0  0  0  0
  -21.9192   -4.6963   22.3400 C   0  0  0  0  0  0
  -22.7850  -13.5232   21.1862 C   0  0  0  0  0  0
  -22.1662   -4.2150   21.0979 F   0  0  0  0  0  0
  -21.5622   -3.4538   25.7730 F   0  0  0  0  0  0
  -29.9957  -13.4942   20.4206 N   0  0  0  0  0  0
  -26.2964  -12.9345   20.3279 N   0  0  0  0  0  0
  -25.9327  -11.6505   20.5766 N   0  0  0  0  0  0
  -22.0483  -12.8233   22.0417 N   0  0  0  0  0  0
  -25.4229  -15.1886   20.3960 N   0  0  0  0  0  0
  -31.7369  -14.9149   20.1227 O   0  0  0  0  0  0
  -21.6635   -6.8882   21.4239 O   0  0  0  0  0  0
  -22.3539  -14.5530   20.6690 O   0  0  0  0  0  0
  -24.6304  -31.8552   23.1964 C   0  0  0  0  0  0
  -25.9132  -32.4752   23.8313 C   0  0  1  0  0  0
  -27.2238  -27.2644   20.1356 C   0  0  0  0  0  0
  -25.5937  -33.8553   24.2247 N   0  0  0  0  0  0
  -23.4274  -30.4766   21.5397 C   0  0  2  0  0  0
  -24.8750  -28.9188   20.1121 C   0  0  0  0  0  0
  -22.7498  -29.4606   22.4901 C   0  0  0  0  0  0
  -18.0300  -28.1384   22.8481 C   0  0  0  0  0  0
  -24.1492  -36.7279   23.2631 C   0  0  0  0  0  0
  -25.9718  -30.7707   21.3740 C   0  0  0  0  0  0
  -26.0459  -29.3922   20.7172 C   0  0  0  0  0  0
  -27.2240  -28.5797   20.7111 C   0  0  0  0  0  0
  -26.0283  -26.8502   19.5109 C   0  0  0  0  0  0
  -24.8708  -27.6559   19.4977 C   0  0  0  0  0  0
  -23.6458  -29.8074   20.1569 C   0  0  0  0  0  0
  -25.4114  -36.3066   24.0325 C   0  0  1  0  0  0
  -20.5902  -28.3703   23.1264 C   0  0  2  0  0  0
  -20.6791  -26.9419   22.5407 C   0  0  0  0  0  0
  -19.5767  -26.6381   21.5211 C   0  0  0  0  0  0
  -18.1946  -26.7925   22.1621 C   0  0  0  0  0  0
  -19.1551  -28.8858   23.2869 C   0  0  0  0  0  0
  -18.9473  -30.1457   23.8892 C   0  0  0  0  0  0
  -17.6470  -30.6583   24.0565 C   0  0  0  0  0  0
  -25.9061  -34.9437   23.5090 C   0  0  0  0  0  0
  -16.5364  -29.9083   23.6326 C   0  0  0  0  0  0
  -16.7287  -28.6503   23.0346 C   0  0  0  0  0  0
  -26.4505  -31.6571   25.0696 C   0  0  0  0  0  0
  -25.3730  -31.3729   26.1420 C   0  0  0  0  0  0
  -27.0351  -30.2987   24.6175 C   0  0  0  0  0  0
  -27.6057  -32.4313   25.7470 C   0  0  0  0  0  0
  -27.5599  -37.1767   24.8441 C   0  0  0  0  0  0
  -21.4205  -29.3045   22.3643 N   0  0  0  0  0  0
  -26.4279  -37.3776   23.9434 N   0  0  0  0  0  0
  -24.6957  -31.0521   22.0933 N   0  0  0  0  0  0
  -23.4193  -28.8158   23.3012 O   0  0  0  0  0  0
  -28.3391  -26.3979   20.1715 O   0  0  0  0  0  0
  -26.5634  -34.8916   22.4659 O   0  0  0  0  0  0
  -23.5456  -32.1373   23.7264 O   0  0  0  0  0  0
  -28.3722  -19.4254   20.6355 C   0  0  0  0  0  0
  -28.4799  -17.9999   20.7588 C   0  0  0  0  0  0
  -30.8187  -18.1114   20.3160 C   0  0  0  0  0  0
  -29.4828  -20.2681   20.3514 C   0  0  0  0  0  0
  -30.7222  -19.5489   20.2074 C   0  0  0  0  0  0
  -29.7001  -17.2775   20.5958 C   0  0  0  0  0  0
  -29.2312  -22.7174   21.5027 C   0  0  0  0  0  0
  -28.2216  -22.4433   19.2756 C   0  0  0  0  0  0
  -29.2597  -24.2920   21.2967 C   0  0  0  0  0  0
  -28.2593  -24.0192   19.0534 C   0  0  0  0  0  0
  -29.3519  -21.8697   20.1954 C   0  0  2  0  0  0
  -28.1775  -24.9086   20.3444 C   0  0  2  0  0  0
  -32.0089  -20.3105   19.9330 C   0  0  0  0  0  0
  -29.6950  -15.7963   20.7475 N   0  0  0  0  0  0
  -31.4849  -12.6123   19.1591 H   0  0  0  0  0  0
  -30.4198  -11.4706   19.9332 H   0  0  0  0  0  0
  -29.7975  -11.7405   17.5142 H   0  0  0  0  0  0
  -29.6383  -13.4665   17.7224 H   0  0  0  0  0  0
  -27.8997  -11.2777   18.9035 H   0  0  0  0  0  0
  -27.3836  -12.5260   17.8011 H   0  0  0  0  0  0
  -27.6510  -14.2449   19.4899 H   0  0  0  0  0  0
  -28.7317  -12.1016   21.3886 H   0  0  0  0  0  0
  -28.4226  -13.7575   21.8305 H   0  0  0  0  0  0
  -25.2775   -9.5661   22.4763 H   0  0  0  0  0  0
  -23.9991   -7.4628   22.7477 H   0  0  0  0  0  0
  -21.0835   -8.8798   19.8961 H   0  0  0  0  0  0
  -22.3714  -10.9688   19.6177 H   0  0  0  0  0  0
  -21.2018   -7.6153   23.9717 H   0  0  0  0  0  0
  -21.1469   -6.0517   25.9069 H   0  0  0  0  0  0
  -22.0605   -2.7605   23.2844 H   0  0  0  0  0  0
  -22.4096  -11.9909   22.4829 H   0  0  0  0  0  0
  -21.1104  -13.1278   22.2615 H   0  0  0  0  0  0
  -24.6384  -15.8273   20.4616 H   0  0  0  0  0  0
  -26.2336  -15.6062   19.9570 H   0  0  0  0  0  0
  -26.7194  -32.5409   23.1053 H   0  0  0  0  0  0
  -25.0084  -33.9687   25.0394 H   0  0  0  0  0  0
  -22.7240  -31.2985   21.3925 H   0  0  0  0  0  0
  -23.3768  -35.9596   23.3246 H   0  0  0  0  0  0
  -24.3603  -36.8946   22.2057 H   0  0  0  0  0  0
  -23.7215  -37.6453   23.6684 H   0  0  0  0  0  0
  -26.1099  -31.5327   20.6055 H   0  0  0  0  0  0
  -26.8488  -30.8194   22.0079 H   0  0  0  0  0  0
  -28.1235  -28.9405   21.1901 H   0  0  0  0  0  0
  -25.9723  -25.8823   19.0370 H   0  0  0  0  0  0
  -23.9731  -27.2876   19.0205 H   0  0  0  0  0  0
  -23.7717  -30.5832   19.4007 H   0  0  0  0  0  0
  -22.7633  -29.2426   19.8514 H   0  0  0  0  0  0
  -25.1280  -36.1903   25.0812 H   0  0  0  0  0  0
  -21.0001  -28.3295   24.1382 H   0  0  0  0  0  0
  -20.5699  -26.2314   23.3614 H   0  0  0  0  0  0
  -21.6660  -26.7448   22.1203 H   0  0  0  0  0  0
  -19.6937  -25.6292   21.1240 H   0  0  0  0  0  0
  -19.6703  -27.3192   20.6741 H   0  0  0  0  0  0
  -17.4216  -26.6669   21.4024 H   0  0  0  0  0  0
  -18.0353  -26.0069   22.9020 H   0  0  0  0  0  0
  -19.7945  -30.7276   24.2259 H   0  0  0  0  0  0
  -17.5022  -31.6257   24.5177 H   0  0  0  0  0  0
  -15.5364  -30.2988   23.7644 H   0  0  0  0  0  0
  -15.8689  -28.0822   22.7056 H   0  0  0  0  0  0
  -24.5911  -30.7069   25.7749 H   0  0  0  0  0  0
  -24.8923  -32.2906   26.4817 H   0  0  0  0  0  0
  -25.8049  -30.8924   27.0209 H   0  0  0  0  0  0
  -26.2931  -29.6721   24.1212 H   0  0  0  0  0  0
  -27.4053  -29.7255   25.4685 H   0  0  0  0  0  0
  -27.8798  -30.4257   23.9399 H   0  0  0  0  0  0
  -27.2656  -33.3604   26.2053 H   0  0  0  0  0  0
  -28.3866  -32.6886   25.0301 H   0  0  0  0  0  0
  -28.0731  -31.8438   26.5382 H   0  0  0  0  0  0
  -28.2528  -38.0152   24.7623 H   0  0  0  0  0  0
  -28.1185  -36.2695   24.6087 H   0  0  0  0  0  0
  -27.2344  -37.1186   25.8841 H   0  0  0  0  0  0
  -20.9389  -29.8751   21.6833 H   0  0  0  0  0  0
  -26.0149  -38.2828   24.1518 H   0  0  0  0  0  0
  -27.3988  -19.8780   20.7653 H   0  0  0  0  0  0
  -27.5764  -17.4499   20.9843 H   0  0  0  0  0  0
  -31.7843  -17.6424   20.1895 H   0  0  0  0  0  0
  -28.3130  -22.4415   22.0231 H   0  0  0  0  0  0
  -30.0466  -22.4424   22.1729 H   0  0  0  0  0  0
  -28.2827  -21.9546   18.3027 H   0  0  0  0  0  0
  -27.2492  -22.1671   19.6848 H   0  0  0  0  0  0
  -30.2442  -24.5673   20.9172 H   0  0  0  0  0  0
  -29.1787  -24.7743   22.2712 H   0  0  0  0  0  0
  -27.4526  -24.2937   18.3744 H   0  0  0  0  0  0
  -29.1797  -24.2675   18.5241 H   0  0  0  0  0  0
  -30.2745  -22.1945   19.7177 H   0  0  0  0  0  0
  -27.2086  -24.7303   20.8136 H   0  0  0  0  0  0
  -32.8832  -19.6620   19.9967 H   0  0  0  0  0  0
  -32.1462  -21.1114   20.6604 H   0  0  0  0  0  0
  -31.9935  -20.7463   18.9335 H   0  0  0  0  0  0
  -28.7952  -15.4350   21.0249 H   0  0  0  0  0  0
  1 25  1  0  0  0
  1 30  2  0  0  0
  1 84  1  0  0  0
  2  3  1  0  0  0
  2 25  1  0  0  0
  2 85  1  0  0  0
  2 86  1  0  0  0
  3  4  1  0  0  0
  3 87  1  0  0  0
  3 88  1  0  0  0
  4  5  1  0  0  0
  4 89  1  0  0  0
  4 90  1  0  0  0
  5  6  1  0  0  0
  5 26  1  0  0  0
  5 91  1  0  0  0
  6 25  1  0  0  0
  6 92  1  0  0  0
  6 93  1  0  0  0
  7  8  2  0  0  0
  7 26  1  0  0  0
  7 29  1  0  0  0
  8  9  1  0  0  0
  8 22  1  0  0  0
  9 10  1  0  0  0
  9 27  2  0  0  0
 10 11  2  0  0  0
 10 15  1  0  0  0
 11 12  1  0  0  0
 11 94  1  0  0  0
 12 13  2  0  0  0
 12 95  1  0  0  0
 13 14  1  0  0  0
 13 31  1  0  0  0
 14 15  2  0  0  0
 14 96  1  0  0  0
 15 97  1  0  0  0
 16 17  2  0  0  0
 16 21  1  0  0  0
 16 31  1  0  0  0
 17 18  1  0  0  0
 17 98  1  0  0  0
 18 19  2  0  0  0
 18 99  1  0  0  0
 19 20  1  0  0  0
 19 24  1  0  0  0
 20 21  2  0  0  0
 20100  1  0  0  0
 21 23  1  0  0  0
 22 28  1  0  0  0
 22 32  2  0  0  0
 26 27  1  0  0  0
 28101  1  0  0  0
 28102  1  0  0  0
 29103  1  0  0  0
 29104  1  0  0  0
 33 34  1  0  0  0
 33 66  1  0  0  0
 33 70  2  0  0  0
 34 36  1  0  0  0
 34 59  1  0  0  0
 34105  1  0  0  0
 35 44  2  0  0  0
 35 45  1  0  0  0
 35 68  1  0  0  0
 36 56  1  0  0  0
 36106  1  0  0  0
 37 39  1  0  0  0
 37 47  1  0  0  0
 37 66  1  0  0  0
 37107  1  0  0  0
 38 43  2  0  0  0
 38 46  1  0  0  0
 38 47  1  0  0  0
 39 64  1  0  0  0
 39 67  2  0  0  0
 40 52  1  0  0  0
 40 53  2  0  0  0
 40 58  1  0  0  0
 41108  1  0  0  0
 41109  1  0  0  0
 41110  1  0  0  0
 41 48  1  0  0  0
 42 43  1  0  0  0
 42 66  1  0  0  0
 42111  1  0  0  0
 42112  1  0  0  0
 43 44  1  0  0  0
 44113  1  0  0  0
 45 46  2  0  0  0
 45114  1  0  0  0
 46115  1  0  0  0
 47116  1  0  0  0
 47117  1  0  0  0
 48 56  1  0  0  0
 48 65  1  0  0  0
 48118  1  0  0  0
 49 50  1  0  0  0
 49 53  1  0  0  0
 49 64  1  0  0  0
 49119  1  0  0  0
 50 51  1  0  0  0
 50120  1  0  0  0
 50121  1  0  0  0
 51 52  1  0  0  0
 51122  1  0  0  0
 51123  1  0  0  0
 52124  1  0  0  0
 52125  1  0  0  0
 53 54  1  0  0  0
 54 55  2  0  0  0
 54126  1  0  0  0
 55 57  1  0  0  0
 55127  1  0  0  0
 56 69  2  0  0  0
 57 58  2  0  0  0
 57128  1  0  0  0
 58129  1  0  0  0
 59 60  1  0  0  0
 59 61  1  0  0  0
 59 62  1  0  0  0
 60130  1  0  0  0
 60131  1  0  0  0
 60132  1  0  0  0
 61133  1  0  0  0
 61134  1  0  0  0
 61135  1  0  0  0
 62136  1  0  0  0
 62137  1  0  0  0
 62138  1  0  0  0
 63 65  1  0  0  0
 63139  1  0  0  0
 63140  1  0  0  0
 63141  1  0  0  0
 64142  1  0  0  0
 65143  1  0  0  0
 68 82  1  0  0  0
 71 72  2  0  0  0
 71 74  1  0  0  0
 71144  1  0  0  0
 72 76  1  0  0  0
 72145  1  0  0  0
 73 75  1  0  0  0
 73 76  2  0  0  0
 73146  1  0  0  0
 74 75  2  0  0  0
 74 81  1  0  0  0
 75 83  1  0  0  0
 76 84  1  0  0  0
 77 79  1  0  0  0
 77 81  1  0  0  0
 77147  1  0  0  0
 77148  1  0  0  0
 78 80  1  0  0  0
 78 81  1  0  0  0
 78149  1  0  0  0
 78150  1  0  0  0
 79 82  1  0  0  0
 79151  1  0  0  0
 79152  1  0  0  0
 80 82  1  0  0  0
 80153  1  0  0  0
 80154  1  0  0  0
 81155  1  0  0  0
 82156  1  0  0  0
 83157  1  0  0  0
 83158  1  0  0  0
 83159  1  0  0  0
 84160  1  0  0  0
M  ISO  4   1 100  68 101  82 101  84 100
M  END
> <chiral flag>
0

> <version>
0

> <s_m_source_file>
/data/baiqing/PycharmProjects/Reinvent-master-3.2/result/LINK_invent/BTK/process_docking_weight1_custom_product_contain_oxygen_bond_distance_aromatic_linkinvent_7_9_3/rearranged_h_0023.sdf

> <i_m_source_file_index>
79

> <r_mmod_Potential_Energy-OPLS-2005>
161.526702880859

> <r_mmod_Stretch_Energy-OPLS-2005>
114.29940032959

> <r_mmod_Bend_Energy-OPLS-2005>
171.055633544922

> <r_mmod_Torsional_Energy-OPLS-2005>
236.233795166016

> <r_mmod_Improper_Torsional_Energy-OPLS-2005>
4.78095960617065

> <r_mmod_Van_der_Waal_Energy-OPLS-2005>
134.669097900391

> <r_mmod_Electrostatic_Energy-OPLS-2005>
-384.03515625

> <r_mmod_Solvation_Energy-OPLS-2005>
-198.804580688477

> <b_mmod_Minimization_Converged-OPLS-2005>
0

> <r_mmod_RMS_Derivative-OPLS-2005>
1.11969602108002

$$$$
79
                    3D
 Structure written by MMmdl.
161169  0  0  1  0            999 V2000
  -30.6185  -14.6269   20.5146 C   0  0  0  0  0  0
  -30.4413  -12.3852   19.4521 C   0  0  0  0  0  0
  -29.5115  -12.5088   18.2235 C   0  0  0  0  0  0
  -28.0323  -12.3504   18.6323 C   0  0  0  0  0  0
  -27.6565  -13.2147   19.8649 C   0  0  2  0  0  0
  -28.6992  -13.0518   20.9946 C   0  0  0  0  0  0
  -25.2579  -13.8162   20.5694 C   0  0  0  0  0  0
  -24.1836  -13.0435   20.9194 C   0  0  0  0  0  0
  -24.6398  -11.6903   20.8734 C   0  0  0  0  0  0
  -23.9061  -10.4288   21.0405 C   0  0  0  0  0  0
  -24.3621   -9.4205   21.9178 C   0  0  0  0  0  0
  -23.6294   -8.2241   22.0751 C   0  0  0  0  0  0
  -22.4271   -8.0289   21.3551 C   0  0  0  0  0  0
  -21.9903   -9.0256   20.4652 C   0  0  0  0  0  0
  -22.7232  -10.2132   20.3055 C   0  0  0  0  0  0
  -21.6844   -6.0737   22.5278 C   0  0  0  0  0  0
  -21.4010   -6.5641   23.8216 C   0  0  0  0  0  0
  -21.3660   -5.6793   24.9175 C   0  0  0  0  0  0
  -21.6043   -4.3054   24.7226 C   0  0  0  0  0  0
  -21.8818   -3.8150   23.4347 C   0  0  0  0  0  0
  -21.9187   -4.6964   22.3404 C   0  0  0  0  0  0
  -22.7859  -13.5234   21.1850 C   0  0  0  0  0  0
  -22.1659   -4.2154   21.0980 F   0  0  0  0  0  0
  -21.5631   -3.4539   25.7742 F   0  0  0  0  0  0
  -30.0175  -13.3978   20.4387 N   0  0  0  0  0  0
  -26.3002  -12.9342   20.3310 N   0  0  0  0  0  0
  -25.9326  -11.6497   20.5728 N   0  0  0  0  0  0
  -22.0490  -12.8243   22.0411 N   0  0  0  0  0  0
  -25.4299  -15.1888   20.4149 N   0  0  0  0  0  0
  -31.7741  -14.8034   20.1151 O   0  0  0  0  0  0
  -21.6638   -6.8885   21.4247 O   0  0  0  0  0  0
  -22.3547  -14.5538   20.6693 O   0  0  0  0  0  0
  -24.6253  -31.8608   23.2028 C   0  0  0  0  0  0
  -25.9105  -32.4785   23.8353 C   0  0  1  0  0  0
  -27.2239  -27.3259   20.1239 C   0  0  0  0  0  0
  -25.5924  -33.8585   24.2281 N   0  0  0  0  0  0
  -23.4191  -30.4845   21.5445 C   0  0  2  0  0  0
  -24.8666  -28.9375   20.1129 C   0  0  0  0  0  0
  -22.7470  -29.4631   22.4933 C   0  0  0  0  0  0
  -18.0289  -28.1377   22.8485 C   0  0  0  0  0  0
  -24.1487  -36.7293   23.2636 C   0  0  0  0  0  0
  -25.9595  -30.7941   21.3735 C   0  0  0  0  0  0
  -26.0348  -29.4216   20.7162 C   0  0  0  0  0  0
  -27.2193  -28.6284   20.7083 C   0  0  0  0  0  0
  -26.0380  -26.8928   19.4928 C   0  0  0  0  0  0
  -24.8693  -27.6779   19.4924 C   0  0  0  0  0  0
  -23.6349  -29.8186   20.1598 C   0  0  0  0  0  0
  -25.4110  -36.3086   24.0329 C   0  0  1  0  0  0
  -20.5887  -28.3683   23.1278 C   0  0  2  0  0  0
  -20.6774  -26.9404   22.5411 C   0  0  0  0  0  0
  -19.5753  -26.6377   21.5209 C   0  0  0  0  0  0
  -18.1932  -26.7922   22.1621 C   0  0  0  0  0  0
  -19.1542  -28.8848   23.2879 C   0  0  0  0  0  0
  -18.9467  -30.1449   23.8896 C   0  0  0  0  0  0
  -17.6470  -30.6583   24.0558 C   0  0  0  0  0  0
  -25.9053  -34.9459   23.5105 C   0  0  0  0  0  0
  -16.5361  -29.9084   23.6324 C   0  0  0  0  0  0
  -16.7277  -28.6499   23.0350 C   0  0  0  0  0  0
  -26.4489  -31.6600   25.0727 C   0  0  0  0  0  0
  -25.3729  -31.3745   26.1461 C   0  0  0  0  0  0
  -27.0339  -30.3027   24.6189 C   0  0  0  0  0  0
  -27.6048  -32.4338   25.7496 C   0  0  0  0  0  0
  -27.5587  -37.1786   24.8453 C   0  0  0  0  0  0
  -21.4186  -29.3040   22.3669 N   0  0  0  0  0  0
  -26.4280  -37.3790   23.9425 N   0  0  0  0  0  0
  -24.6864  -31.0628   22.0972 N   0  0  0  0  0  0
  -23.4199  -28.8170   23.3007 O   0  0  0  0  0  0
  -28.3420  -26.4830   20.1393 O   0  0  0  0  0  0
  -26.5624  -34.8924   22.4672 O   0  0  0  0  0  0
  -23.5418  -32.1399   23.7364 O   0  0  0  0  0  0
  -28.6416  -17.8460   20.8539 C   0  0  0  0  0  0
  -28.5683  -19.2484   20.6063 C   0  0  0  0  0  0
  -30.9905  -17.8569   20.3488 C   0  0  0  0  0  0
  -29.8416  -17.1010   20.6974 C   0  0  0  0  0  0
  -29.6985  -19.9980   20.1928 C   0  0  0  0  0  0
  -30.9250  -19.2636   20.1097 C   0  0  0  0  0  0
  -30.1212  -22.0037   15.9477 C   0  0  0  0  0  0
  -30.4467  -22.0041   17.4450 C   0  0  0  0  0  0
  -29.0114  -23.9302   19.9207 C   0  0  0  0  0  0
  -29.3488  -21.3067   18.2631 C   0  0  0  0  0  0
  -28.8260  -22.4250   20.4409 C   0  0  0  0  0  0
  -28.1498  -25.0848   20.5922 C   0  0  0  0  0  0
  -29.8049  -15.6534   20.9133 N   0  0  0  0  0  0
  -29.5862  -21.3544   19.7110 N   0  0  0  0  0  0
  -32.3984  -20.0697   19.6980 Cl  0  0  0  0  0  0
  -31.4840  -12.5103   19.1552 H   0  0  0  0  0  0
  -30.3755  -11.3863   19.8858 H   0  0  0  0  0  0
  -29.7741  -11.7596   17.4759 H   0  0  0  0  0  0
  -29.6585  -13.4791   17.7455 H   0  0  0  0  0  0
  -27.8612  -11.2960   18.8542 H   0  0  0  0  0  0
  -27.3806  -12.5910   17.7913 H   0  0  0  0  0  0
  -27.6797  -14.2527   19.5315 H   0  0  0  0  0  0
  -28.7071  -12.0247   21.3614 H   0  0  0  0  0  0
  -28.4431  -13.6687   21.8575 H   0  0  0  0  0  0
  -25.2765   -9.5682   22.4748 H   0  0  0  0  0  0
  -24.0005   -7.4628   22.7460 H   0  0  0  0  0  0
  -21.0833   -8.8773   19.8957 H   0  0  0  0  0  0
  -22.3688  -10.9674   19.6165 H   0  0  0  0  0  0
  -21.2008   -7.6145   23.9723 H   0  0  0  0  0  0
  -21.1481   -6.0519   25.9079 H   0  0  0  0  0  0
  -22.0598   -2.7610   23.2839 H   0  0  0  0  0  0
  -22.4093  -11.9908   22.4823 H   0  0  0  0  0  0
  -21.1111  -13.1275   22.2604 H   0  0  0  0  0  0
  -24.6636  -15.8422   20.5348 H   0  0  0  0  0  0
  -26.2731  -15.6256   20.0658 H   0  0  0  0  0  0
  -26.7176  -32.5452   23.1103 H   0  0  0  0  0  0
  -25.0059  -33.9734   25.0418 H   0  0  0  0  0  0
  -22.7119  -31.3040   21.4008 H   0  0  0  0  0  0
  -23.3768  -35.9602   23.3260 H   0  0  0  0  0  0
  -24.3592  -36.8956   22.2059 H   0  0  0  0  0  0
  -23.7208  -37.6468   23.6686 H   0  0  0  0  0  0
  -26.0937  -31.5596   20.6079 H   0  0  0  0  0  0
  -26.8384  -30.8397   22.0048 H   0  0  0  0  0  0
  -28.1185  -28.9977   21.1810 H   0  0  0  0  0  0
  -26.0049  -25.9321   18.9986 H   0  0  0  0  0  0
  -23.9745  -27.3038   19.0141 H   0  0  0  0  0  0
  -23.7573  -30.5951   19.4035 H   0  0  0  0  0  0
  -22.7538  -29.2506   19.8550 H   0  0  0  0  0  0
  -25.1280  -36.1930   25.0818 H   0  0  0  0  0  0
  -20.9988  -28.3262   24.1395 H   0  0  0  0  0  0
  -20.5664  -26.2296   23.3613 H   0  0  0  0  0  0
  -21.6644  -26.7423   22.1214 H   0  0  0  0  0  0
  -19.6913  -25.6286   21.1244 H   0  0  0  0  0  0
  -19.6691  -27.3182   20.6733 H   0  0  0  0  0  0
  -17.4199  -26.6670   21.4023 H   0  0  0  0  0  0
  -18.0333  -26.0063   22.9017 H   0  0  0  0  0  0
  -19.7946  -30.7259   24.2269 H   0  0  0  0  0  0
  -17.5029  -31.6264   24.5159 H   0  0  0  0  0  0
  -15.5362  -30.2990   23.7646 H   0  0  0  0  0  0
  -15.8676  -28.0819   22.7069 H   0  0  0  0  0  0
  -24.5884  -30.7117   25.7790 H   0  0  0  0  0  0
  -24.8946  -32.2922   26.4901 H   0  0  0  0  0  0
  -25.8055  -30.8905   27.0228 H   0  0  0  0  0  0
  -26.2920  -29.6778   24.1210 H   0  0  0  0  0  0
  -27.4032  -29.7285   25.4695 H   0  0  0  0  0  0
  -27.8786  -30.4317   23.9422 H   0  0  0  0  0  0
  -27.2658  -33.3638   26.2073 H   0  0  0  0  0  0
  -28.3856  -32.6907   25.0325 H   0  0  0  0  0  0
  -28.0723  -31.8472   26.5413 H   0  0  0  0  0  0
  -28.2560  -38.0128   24.7572 H   0  0  0  0  0  0
  -28.1127  -36.2665   24.6178 H   0  0  0  0  0  0
  -27.2323  -37.1312   25.8857 H   0  0  0  0  0  0
  -20.9361  -29.8769   21.6884 H   0  0  0  0  0  0
  -26.0159  -38.2852   24.1479 H   0  0  0  0  0  0
  -27.7329  -17.3347   21.1378 H   0  0  0  0  0  0
  -27.6055  -19.7332   20.6809 H   0  0  0  0  0  0
  -31.9464  -17.3666   20.2470 H   0  0  0  0  0  0
  -30.8987  -22.5131   15.3781 H   0  0  0  0  0  0
  -29.1767  -22.5108   15.7456 H   0  0  0  0  0  0
  -30.0441  -20.9851   15.5655 H   0  0  0  0  0  0
  -30.5902  -23.0303   17.7805 H   0  0  0  0  0  0
  -31.4018  -21.5028   17.5929 H   0  0  0  0  0  0
  -28.7841  -23.9654   18.8560 H   0  0  0  0  0  0
  -30.0652  -24.1953   20.0080 H   0  0  0  0  0  0
  -29.2495  -20.2783   17.9069 H   0  0  0  0  0  0
  -28.3861  -21.7713   18.0441 H   0  0  0  0  0  0
  -27.7648  -22.1741   20.4001 H   0  0  0  0  0  0
  -29.0998  -22.3813   21.4967 H   0  0  0  0  0  0
  -28.3659  -25.0810   21.6610 H   0  0  0  0  0  0
  -27.1044  -24.7856   20.5276 H   0  0  0  0  0  0
  -28.9197  -15.3122   21.2550 H   0  0  0  0  0  0
  1 25  1  0  0  0
  1 30  2  0  0  0
  1 83  1  0  0  0
  2  3  1  0  0  0
  2 25  1  0  0  0
  2 86  1  0  0  0
  2 87  1  0  0  0
  3  4  1  0  0  0
  3 88  1  0  0  0
  3 89  1  0  0  0
  4  5  1  0  0  0
  4 90  1  0  0  0
  4 91  1  0  0  0
  5  6  1  0  0  0
  5 26  1  0  0  0
  5 92  1  0  0  0
  6 25  1  0  0  0
  6 93  1  0  0  0
  6 94  1  0  0  0
  7  8  2  0  0  0
  7 26  1  0  0  0
  7 29  1  0  0  0
  8  9  1  0  0  0
  8 22  1  0  0  0
  9 10  1  0  0  0
  9 27  2  0  0  0
 10 11  2  0  0  0
 10 15  1  0  0  0
 11 12  1  0  0  0
 11 95  1  0  0  0
 12 13  2  0  0  0
 12 96  1  0  0  0
 13 14  1  0  0  0
 13 31  1  0  0  0
 14 15  2  0  0  0
 14 97  1  0  0  0
 15 98  1  0  0  0
 16 17  2  0  0  0
 16 21  1  0  0  0
 16 31  1  0  0  0
 17 18  1  0  0  0
 17 99  1  0  0  0
 18 19  2  0  0  0
 18100  1  0  0  0
 19 20  1  0  0  0
 19 24  1  0  0  0
 20 21  2  0  0  0
 20101  1  0  0  0
 21 23  1  0  0  0
 22 28  1  0  0  0
 22 32  2  0  0  0
 26 27  1  0  0  0
 28102  1  0  0  0
 28103  1  0  0  0
 29104  1  0  0  0
 29105  1  0  0  0
 33 34  1  0  0  0
 33 66  1  0  0  0
 33 70  2  0  0  0
 34 36  1  0  0  0
 34 59  1  0  0  0
 34106  1  0  0  0
 35 44  2  0  0  0
 35 45  1  0  0  0
 35 68  1  0  0  0
 36 56  1  0  0  0
 36107  1  0  0  0
 37 39  1  0  0  0
 37 47  1  0  0  0
 37 66  1  0  0  0
 37108  1  0  0  0
 38 43  2  0  0  0
 38 46  1  0  0  0
 38 47  1  0  0  0
 39 64  1  0  0  0
 39 67  2  0  0  0
 40 52  1  0  0  0
 40 53  2  0  0  0
 40 58  1  0  0  0
 41109  1  0  0  0
 41110  1  0  0  0
 41111  1  0  0  0
 41 48  1  0  0  0
 42 43  1  0  0  0
 42 66  1  0  0  0
 42112  1  0  0  0
 42113  1  0  0  0
 43 44  1  0  0  0
 44114  1  0  0  0
 45 46  2  0  0  0
 45115  1  0  0  0
 46116  1  0  0  0
 47117  1  0  0  0
 47118  1  0  0  0
 48 56  1  0  0  0
 48 65  1  0  0  0
 48119  1  0  0  0
 49 50  1  0  0  0
 49 53  1  0  0  0
 49 64  1  0  0  0
 49120  1  0  0  0
 50 51  1  0  0  0
 50121  1  0  0  0
 50122  1  0  0  0
 51 52  1  0  0  0
 51123  1  0  0  0
 51124  1  0  0  0
 52125  1  0  0  0
 52126  1  0  0  0
 53 54  1  0  0  0
 54 55  2  0  0  0
 54127  1  0  0  0
 55 57  1  0  0  0
 55128  1  0  0  0
 56 69  2  0  0  0
 57 58  2  0  0  0
 57129  1  0  0  0
 58130  1  0  0  0
 59 60  1  0  0  0
 59 61  1  0  0  0
 59 62  1  0  0  0
 60131  1  0  0  0
 60132  1  0  0  0
 60133  1  0  0  0
 61134  1  0  0  0
 61135  1  0  0  0
 61136  1  0  0  0
 62137  1  0  0  0
 62138  1  0  0  0
 62139  1  0  0  0
 63 65  1  0  0  0
 63140  1  0  0  0
 63141  1  0  0  0
 63142  1  0  0  0
 64143  1  0  0  0
 65144  1  0  0  0
 68 82  1  0  0  0
 71 72  2  0  0  0
 71 74  1  0  0  0
 71145  1  0  0  0
 72 75  1  0  0  0
 72146  1  0  0  0
 73 74  2  0  0  0
 73 76  1  0  0  0
 73147  1  0  0  0
 74 83  1  0  0  0
 75 76  2  0  0  0
 75 84  1  0  0  0
 76 85  1  0  0  0
 77 78  1  0  0  0
 77148  1  0  0  0
 77149  1  0  0  0
 77150  1  0  0  0
 78 80  1  0  0  0
 78151  1  0  0  0
 78152  1  0  0  0
 79 81  1  0  0  0
 79 82  1  0  0  0
 79153  1  0  0  0
 79154  1  0  0  0
 80 84  1  0  0  0
 80155  1  0  0  0
 80156  1  0  0  0
 81 84  1  0  0  0
 81157  1  0  0  0
 81158  1  0  0  0
 82159  1  0  0  0
 82160  1  0  0  0
 83161  1  0  0  0
M  ISO  4   1 100  68 101  82 101  83 100
M  END
> <chiral flag>
0

> <version>
0

> <s_m_source_file>
/data/baiqing/PycharmProjects/Reinvent-master-3.2/result/LINK_invent/BTK/process_docking_weight1_custom_product_contain_oxygen_bond_distance_aromatic_linkinvent_7_9_3/rearranged_h_0023.sdf

> <i_m_source_file_index>
80

> <r_mmod_Potential_Energy-OPLS-2005>
109.685974121094

> <r_mmod_Stretch_Energy-OPLS-2005>
79.2742156982422

> <r_mmod_Bend_Energy-OPLS-2005>
137.224227905273

> <r_mmod_Torsional_Energy-OPLS-2005>
255.336135864258

> <r_mmod_Improper_Torsional_Energy-OPLS-2005>
8.65350151062012

> <r_mmod_Van_der_Waal_Energy-OPLS-2005>
141.068252563477

> <r_mmod_Electrostatic_Energy-OPLS-2005>
-342.590240478516

> <r_mmod_Solvation_Energy-OPLS-2005>
-213.377456665039

> <b_mmod_Minimization_Converged-OPLS-2005>
0

> <r_mmod_RMS_Derivative-OPLS-2005>
1.36376738548279

$$$$
80
                    3D
 Structure written by MMmdl.
153161  0  0  1  0            999 V2000
  -30.4905  -15.1853   20.3630 C   0  0  0  0  0  0
  -30.4467  -12.7530   19.4928 C   0  0  0  0  0  0
  -29.5269  -12.5394   18.2667 C   0  0  0  0  0  0
  -28.0825  -12.2279   18.7083 C   0  0  0  0  0  0
  -27.6042  -13.1933   19.8125 C   0  0  2  0  0  0
  -28.6596  -13.4074   20.9315 C   0  0  0  0  0  0
  -25.2364  -13.7967   20.5708 C   0  0  0  0  0  0
  -24.1700  -13.0278   20.9308 C   0  0  0  0  0  0
  -24.6305  -11.6768   20.8861 C   0  0  0  0  0  0
  -23.9001  -10.4209   21.0464 C   0  0  0  0  0  0
  -24.3593   -9.4135   21.9218 C   0  0  0  0  0  0
  -23.6286   -8.2172   22.0753 C   0  0  0  0  0  0
  -22.4266   -8.0242   21.3540 C   0  0  0  0  0  0
  -21.9894   -9.0207   20.4634 C   0  0  0  0  0  0
  -22.7200  -10.2085   20.3063 C   0  0  0  0  0  0
  -21.6834   -6.0720   22.5293 C   0  0  0  0  0  0
  -21.3993   -6.5629   23.8224 C   0  0  0  0  0  0
  -21.3648   -5.6781   24.9190 C   0  0  0  0  0  0
  -21.6049   -4.3052   24.7234 C   0  0  0  0  0  0
  -21.8830   -3.8135   23.4357 C   0  0  0  0  0  0
  -21.9194   -4.6953   22.3415 C   0  0  0  0  0  0
  -22.7742  -13.5136   21.1932 C   0  0  0  0  0  0
  -22.1660   -4.2140   21.0988 F   0  0  0  0  0  0
  -21.5641   -3.4538   25.7749 F   0  0  0  0  0  0
  -29.8966  -13.8961   20.2927 N   0  0  0  0  0  0
  -26.2767  -12.9099   20.3252 N   0  0  0  0  0  0
  -25.9219  -11.6297   20.5841 N   0  0  0  0  0  0
  -22.0355  -12.8161   22.0486 N   0  0  0  0  0  0
  -25.3812  -15.1702   20.3959 N   0  0  0  0  0  0
  -31.7258  -15.1697   20.2655 O   0  0  0  0  0  0
  -21.6615   -6.8856   21.4251 O   0  0  0  0  0  0
  -22.3476  -14.5463   20.6758 O   0  0  0  0  0  0
  -24.6500  -31.8383   23.1784 C   0  0  0  0  0  0
  -25.9219  -32.4682   23.8235 C   0  0  1  0  0  0
  -27.2409  -27.0651   20.1921 C   0  0  0  0  0  0
  -25.5928  -33.8490   24.2157 N   0  0  0  0  0  0
  -23.4606  -30.4489   21.5263 C   0  0  2  0  0  0
  -24.9145  -28.8496   20.1237 C   0  0  0  0  0  0
  -22.7607  -29.4506   22.4836 C   0  0  0  0  0  0
  -18.0326  -28.1389   22.8486 C   0  0  0  0  0  0
  -24.1478  -36.7244   23.2647 C   0  0  0  0  0  0
  -26.0185  -30.6935   21.3823 C   0  0  0  0  0  0
  -26.0935  -29.2907   20.7374 C   0  0  0  0  0  0
  -27.2561  -28.4202   20.7405 C   0  0  0  0  0  0
  -26.0248  -26.7257   19.5594 C   0  0  0  0  0  0
  -24.8958  -27.5809   19.5188 C   0  0  0  0  0  0
  -23.6937  -29.7618   20.1526 C   0  0  0  0  0  0
  -25.4117  -36.3030   24.0314 C   0  0  1  0  0  0
  -20.5943  -28.3726   23.1226 C   0  0  2  0  0  0
  -20.6797  -26.9418   22.5409 C   0  0  0  0  0  0
  -19.5759  -26.6365   21.5233 C   0  0  0  0  0  0
  -18.1947  -26.7921   22.1647 C   0  0  0  0  0  0
  -19.1584  -28.8873   23.2850 C   0  0  0  0  0  0
  -18.9489  -30.1469   23.8872 C   0  0  0  0  0  0
  -17.6480  -30.6583   24.0556 C   0  0  0  0  0  0
  -25.9073  -34.9409   23.5050 C   0  0  0  0  0  0
  -16.5373  -29.9072   23.6337 C   0  0  0  0  0  0
  -16.7309  -28.6496   23.0355 C   0  0  0  0  0  0
  -26.4504  -31.6566   25.0705 C   0  0  0  0  0  0
  -25.3667  -31.3785   26.1398 C   0  0  0  0  0  0
  -27.0370  -30.2954   24.6315 C   0  0  0  0  0  0
  -27.6028  -32.4340   25.7504 C   0  0  0  0  0  0
  -27.5569  -37.1786   24.8467 C   0  0  0  0  0  0
  -21.4288  -29.3044   22.3592 N   0  0  0  0  0  0
  -26.4277  -37.3746   23.9414 N   0  0  0  0  0  0
  -24.7304  -31.0166   22.0847 N   0  0  0  0  0  0
  -23.4208  -28.8067   23.3029 O   0  0  0  0  0  0
  -28.3271  -26.0916   20.1712 O   0  0  0  0  0  0
  -26.5692  -34.8915   22.4648 O   0  0  0  0  0  0
  -23.5594  -32.1283   23.6940 O   0  0  0  0  0  0
  -30.4964  -19.5898   22.4227 C   0  0  0  0  0  0
  -29.9622  -20.7310   21.7596 C   0  0  0  0  0  0
  -30.4991  -18.2710   21.8833 C   0  0  0  0  0  0
  -29.4177  -20.6381   20.4623 C   0  0  0  0  0  0
  -29.9400  -17.9677   20.6218 C   0  0  0  0  0  0
  -29.4485  -19.2247   19.9300 C   0  0  0  0  0  0
  -28.6324  -23.2162   19.6747 C   0  0  0  0  0  0
  -28.4315  -23.6937   18.2507 C   0  0  0  0  0  0
  -28.4604  -16.3155   19.5450 C   0  0  0  0  0  0
  -28.2884  -24.5669   20.6434 C   0  0  0  0  0  0
  -28.9826  -21.8717   19.6834 N   0  0  0  0  0  0
  -29.7401  -16.4521   20.2242 N   0  0  0  0  0  0
  -29.0005  -19.0927   18.6570 F   0  0  0  0  0  0
  -31.4676  -12.9549   19.1621 H   0  0  0  0  0  0
  -30.5045  -11.8424   20.0918 H   0  0  0  0  0  0
  -29.9124  -11.7340   17.6412 H   0  0  0  0  0  0
  -29.5346  -13.4376   17.6483 H   0  0  0  0  0  0
  -28.0524  -11.2034   19.0803 H   0  0  0  0  0  0
  -27.4095  -12.2662   17.8517 H   0  0  0  0  0  0
  -27.4569  -14.0875   19.2336 H   0  0  0  0  0  0
  -28.8352  -12.4865   21.4859 H   0  0  0  0  0  0
  -28.3075  -14.1365   21.6621 H   0  0  0  0  0  0
  -25.2726   -9.5650   22.4811 H   0  0  0  0  0  0
  -24.0010   -7.4559   22.7457 H   0  0  0  0  0  0
  -21.0825   -8.8710   19.8944 H   0  0  0  0  0  0
  -22.3638  -10.9651   19.6205 H   0  0  0  0  0  0
  -21.1950   -7.6128   23.9737 H   0  0  0  0  0  0
  -21.1464   -6.0496   25.9099 H   0  0  0  0  0  0
  -22.0619   -2.7594   23.2856 H   0  0  0  0  0  0
  -22.3946  -11.9843   22.4937 H   0  0  0  0  0  0
  -21.0961  -13.1195   22.2650 H   0  0  0  0  0  0
  -24.5922  -15.7997   20.4971 H   0  0  0  0  0  0
  -26.2018  -15.6201   20.0152 H   0  0  0  0  0  0
  -26.7301  -32.5283   23.0976 H   0  0  0  0  0  0
  -25.0007  -33.9587   25.0266 H   0  0  0  0  0  0
  -22.7690  -31.2775   21.3611 H   0  0  0  0  0  0
  -23.3746  -35.9566   23.3289 H   0  0  0  0  0  0
  -24.3563  -36.8899   22.2065 H   0  0  0  0  0  0
  -23.7214  -37.6424   23.6700 H   0  0  0  0  0  0
  -26.1717  -31.4370   20.5985 H   0  0  0  0  0  0
  -26.8874  -30.7590   22.0252 H   0  0  0  0  0  0
  -28.1602  -28.7721   21.2155 H   0  0  0  0  0  0
  -25.9354  -25.7483   19.1063 H   0  0  0  0  0  0
  -23.9944  -27.2284   19.0370 H   0  0  0  0  0  0
  -23.8407  -30.5312   19.3934 H   0  0  0  0  0  0
  -22.8058  -29.2074   19.8425 H   0  0  0  0  0  0
  -25.1308  -36.1846   25.0804 H   0  0  0  0  0  0
  -21.0062  -28.3307   24.1341 H   0  0  0  0  0  0
  -20.5686  -26.2352   23.3642 H   0  0  0  0  0  0
  -21.6658  -26.7398   22.1213 H   0  0  0  0  0  0
  -19.6910  -25.6275   21.1268 H   0  0  0  0  0  0
  -19.6662  -27.3176   20.6763 H   0  0  0  0  0  0
  -17.4215  -26.6685   21.4048 H   0  0  0  0  0  0
  -18.0316  -26.0079   22.9058 H   0  0  0  0  0  0
  -19.7959  -30.7303   24.2216 H   0  0  0  0  0  0
  -17.5026  -31.6259   24.5148 H   0  0  0  0  0  0
  -15.5369  -30.2953   23.7651 H   0  0  0  0  0  0
  -15.8727  -28.0793   22.7069 H   0  0  0  0  0  0
  -24.5788  -30.7212   25.7697 H   0  0  0  0  0  0
  -24.8929  -32.2996   26.4819 H   0  0  0  0  0  0
  -25.7925  -30.8920   27.0189 H   0  0  0  0  0  0
  -26.3001  -29.6683   24.1288 H   0  0  0  0  0  0
  -27.3925  -29.7257   25.4911 H   0  0  0  0  0  0
  -27.8932  -30.4174   23.9676 H   0  0  0  0  0  0
  -27.2598  -33.3645   26.2045 H   0  0  0  0  0  0
  -28.3866  -32.6899   25.0359 H   0  0  0  0  0  0
  -28.0671  -31.8491   26.5454 H   0  0  0  0  0  0
  -28.2584  -38.0090   24.7529 H   0  0  0  0  0  0
  -28.1064  -36.2619   24.6270 H   0  0  0  0  0  0
  -27.2299  -37.1425   25.8875 H   0  0  0  0  0  0
  -20.9509  -29.8773   21.6781 H   0  0  0  0  0  0
  -26.0128  -38.2806   24.1427 H   0  0  0  0  0  0
  -30.9137  -19.7338   23.4103 H   0  0  0  0  0  0
  -30.0126  -21.6951   22.2483 H   0  0  0  0  0  0
  -30.8919  -17.4664   22.4885 H   0  0  0  0  0  0
  -29.3820  -24.0280   17.8340 H   0  0  0  0  0  0
  -27.7241  -24.5210   18.2059 H   0  0  0  0  0  0
  -28.0348  -22.8935   17.6223 H   0  0  0  0  0  0
  -28.5559  -15.7521   18.6156 H   0  0  0  0  0  0
  -27.9360  -17.2357   19.3027 H   0  0  0  0  0  0
  -27.7973  -15.8464   20.2579 H   0  0  0  0  0  0
  -28.9935  -24.5177   21.4736 H   0  0  0  0  0  0
  -27.3139  -24.3926   21.1017 H   0  0  0  0  0  0
  1 25  1  0  0  0
  1 30  2  0  0  0
  1 82  1  0  0  0
  2  3  1  0  0  0
  2 25  1  0  0  0
  2 84  1  0  0  0
  2 85  1  0  0  0
  3  4  1  0  0  0
  3 86  1  0  0  0
  3 87  1  0  0  0
  4  5  1  0  0  0
  4 88  1  0  0  0
  4 89  1  0  0  0
  5  6  1  0  0  0
  5 26  1  0  0  0
  5 90  1  0  0  0
  6 25  1  0  0  0
  6 91  1  0  0  0
  6 92  1  0  0  0
  7  8  2  0  0  0
  7 26  1  0  0  0
  7 29  1  0  0  0
  8  9  1  0  0  0
  8 22  1  0  0  0
  9 10  1  0  0  0
  9 27  2  0  0  0
 10 11  2  0  0  0
 10 15  1  0  0  0
 11 12  1  0  0  0
 11 93  1  0  0  0
 12 13  2  0  0  0
 12 94  1  0  0  0
 13 14  1  0  0  0
 13 31  1  0  0  0
 14 15  2  0  0  0
 14 95  1  0  0  0
 15 96  1  0  0  0
 16 17  2  0  0  0
 16 21  1  0  0  0
 16 31  1  0  0  0
 17 18  1  0  0  0
 17 97  1  0  0  0
 18 19  2  0  0  0
 18 98  1  0  0  0
 19 20  1  0  0  0
 19 24  1  0  0  0
 20 21  2  0  0  0
 20 99  1  0  0  0
 21 23  1  0  0  0
 22 28  1  0  0  0
 22 32  2  0  0  0
 26 27  1  0  0  0
 28100  1  0  0  0
 28101  1  0  0  0
 29102  1  0  0  0
 29103  1  0  0  0
 33 34  1  0  0  0
 33 66  1  0  0  0
 33 70  2  0  0  0
 34 36  1  0  0  0
 34 59  1  0  0  0
 34104  1  0  0  0
 35 44  2  0  0  0
 35 45  1  0  0  0
 35 68  1  0  0  0
 36 56  1  0  0  0
 36105  1  0  0  0
 37 39  1  0  0  0
 37 47  1  0  0  0
 37 66  1  0  0  0
 37106  1  0  0  0
 38 43  2  0  0  0
 38 46  1  0  0  0
 38 47  1  0  0  0
 39 64  1  0  0  0
 39 67  2  0  0  0
 40 52  1  0  0  0
 40 53  2  0  0  0
 40 58  1  0  0  0
 41107  1  0  0  0
 41108  1  0  0  0
 41109  1  0  0  0
 41 48  1  0  0  0
 42 43  1  0  0  0
 42 66  1  0  0  0
 42110  1  0  0  0
 42111  1  0  0  0
 43 44  1  0  0  0
 44112  1  0  0  0
 45 46  2  0  0  0
 45113  1  0  0  0
 46114  1  0  0  0
 47115  1  0  0  0
 47116  1  0  0  0
 48 56  1  0  0  0
 48 65  1  0  0  0
 48117  1  0  0  0
 49 50  1  0  0  0
 49 53  1  0  0  0
 49 64  1  0  0  0
 49118  1  0  0  0
 50 51  1  0  0  0
 50119  1  0  0  0
 50120  1  0  0  0
 51 52  1  0  0  0
 51121  1  0  0  0
 51122  1  0  0  0
 52123  1  0  0  0
 52124  1  0  0  0
 53 54  1  0  0  0
 54 55  2  0  0  0
 54125  1  0  0  0
 55 57  1  0  0  0
 55126  1  0  0  0
 56 69  2  0  0  0
 57 58  2  0  0  0
 57127  1  0  0  0
 58128  1  0  0  0
 59 60  1  0  0  0
 59 61  1  0  0  0
 59 62  1  0  0  0
 60129  1  0  0  0
 60130  1  0  0  0
 60131  1  0  0  0
 61132  1  0  0  0
 61133  1  0  0  0
 61134  1  0  0  0
 62135  1  0  0  0
 62136  1  0  0  0
 62137  1  0  0  0
 63 65  1  0  0  0
 63138  1  0  0  0
 63139  1  0  0  0
 63140  1  0  0  0
 64141  1  0  0  0
 65142  1  0  0  0
 68 80  1  0  0  0
 71 72  2  0  0  0
 71 73  1  0  0  0
 71143  1  0  0  0
 72 74  1  0  0  0
 72144  1  0  0  0
 73 75  2  0  0  0
 73145  1  0  0  0
 74 76  2  0  0  0
 74 81  1  0  0  0
 75 76  1  0  0  0
 75 82  1  0  0  0
 76 83  1  0  0  0
 77 78  1  0  0  0
 77 80  1  0  0  0
 77 81  2  0  0  0
 78146  1  0  0  0
 78147  1  0  0  0
 78148  1  0  0  0
 79 82  1  0  0  0
 79149  1  0  0  0
 79150  1  0  0  0
 79151  1  0  0  0
 80152  1  0  0  0
 80153  1  0  0  0
M  ISO  4   1 100  68 101  80 101  82 100
M  END
> <chiral flag>
0

> <version>
0

> <s_m_source_file>
/data/baiqing/PycharmProjects/Reinvent-master-3.2/result/LINK_invent/BTK/process_docking_weight1_custom_product_contain_oxygen_bond_distance_aromatic_linkinvent_7_9_3/rearranged_h_0023.sdf

> <i_m_source_file_index>
81

> <r_mmod_Potential_Energy-OPLS-2005>
1129.52941894531

> <r_mmod_Stretch_Energy-OPLS-2005>
377.711883544922

> <r_mmod_Bend_Energy-OPLS-2005>
438.117156982422

> <r_mmod_Torsional_Energy-OPLS-2005>
308.080017089844

> <r_mmod_Improper_Torsional_Energy-OPLS-2005>
9.53897380828857

> <r_mmod_Van_der_Waal_Energy-OPLS-2005>
146.55029296875

> <r_mmod_Electrostatic_Energy-OPLS-2005>
-284.954254150391

> <r_mmod_Solvation_Energy-OPLS-2005>
-194.354339599609

> <b_mmod_Minimization_Converged-OPLS-2005>
0

> <r_mmod_RMS_Derivative-OPLS-2005>
2.74951219558716

$$$$
81
                    3D
 Structure written by MMmdl.
160169  0  0  1  0            999 V2000
  -30.6194  -14.7203   20.5883 C   0  0  0  0  0  0
  -30.4377  -12.4699   19.4756 C   0  0  0  0  0  0
  -29.5132  -12.5365   18.2401 C   0  0  0  0  0  0
  -28.0384  -12.3482   18.6412 C   0  0  0  0  0  0
  -27.6463  -13.2257   19.8572 C   0  0  2  0  0  0
  -28.6795  -13.1080   20.9962 C   0  0  0  0  0  0
  -25.2532  -13.8191   20.5697 C   0  0  0  0  0  0
  -24.1813  -13.0436   20.9188 C   0  0  0  0  0  0
  -24.6384  -11.6913   20.8710 C   0  0  0  0  0  0
  -23.9072  -10.4286   21.0371 C   0  0  0  0  0  0
  -24.3612   -9.4206   21.9149 C   0  0  0  0  0  0
  -23.6282   -8.2247   22.0738 C   0  0  0  0  0  0
  -22.4267   -8.0280   21.3540 C   0  0  0  0  0  0
  -21.9912   -9.0255   20.4644 C   0  0  0  0  0  0
  -22.7242  -10.2124   20.3037 C   0  0  0  0  0  0
  -21.6860   -6.0731   22.5281 C   0  0  0  0  0  0
  -21.4016   -6.5620   23.8217 C   0  0  0  0  0  0
  -21.3663   -5.6759   24.9172 C   0  0  0  0  0  0
  -21.6058   -4.3028   24.7215 C   0  0  0  0  0  0
  -21.8820   -3.8132   23.4329 C   0  0  0  0  0  0
  -21.9194   -4.6958   22.3395 C   0  0  0  0  0  0
  -22.7843  -13.5230   21.1851 C   0  0  0  0  0  0
  -22.1665   -4.2151   21.0973 F   0  0  0  0  0  0
  -21.5639   -3.4511   25.7724 F   0  0  0  0  0  0
  -29.9933  -13.4936   20.4547 N   0  0  0  0  0  0
  -26.2937  -12.9385   20.3240 N   0  0  0  0  0  0
  -25.9306  -11.6527   20.5674 N   0  0  0  0  0  0
  -22.0464  -12.8249   22.0407 N   0  0  0  0  0  0
  -25.4282  -15.1922   20.4214 N   0  0  0  0  0  0
  -31.7097  -14.9094   20.0370 O   0  0  0  0  0  0
  -21.6633   -6.8880   21.4245 O   0  0  0  0  0  0
  -22.3534  -14.5515   20.6660 O   0  0  0  0  0  0
  -24.6323  -31.8544   23.1951 C   0  0  0  0  0  0
  -25.9146  -32.4747   23.8316 C   0  0  1  0  0  0
  -27.2158  -27.2466   20.1553 C   0  0  0  0  0  0
  -25.5955  -33.8546   24.2248 N   0  0  0  0  0  0
  -23.4284  -30.4736   21.5403 C   0  0  2  0  0  0
  -24.8741  -28.9083   20.1177 C   0  0  0  0  0  0
  -22.7503  -29.4605   22.4933 C   0  0  0  0  0  0
  -18.0308  -28.1377   22.8483 C   0  0  0  0  0  0
  -24.1491  -36.7277   23.2632 C   0  0  0  0  0  0
  -25.9725  -30.7649   21.3725 C   0  0  0  0  0  0
  -26.0457  -29.3836   20.7215 C   0  0  0  0  0  0
  -27.2222  -28.5666   20.7223 C   0  0  0  0  0  0
  -26.0243  -26.8327   19.5250 C   0  0  0  0  0  0
  -24.8687  -27.6425   19.5066 C   0  0  0  0  0  0
  -23.6462  -29.7993   20.1590 C   0  0  0  0  0  0
  -25.4117  -36.3059   24.0319 C   0  0  1  0  0  0
  -20.5909  -28.3691   23.1289 C   0  0  2  0  0  0
  -20.6797  -26.9423   22.5399 C   0  0  0  0  0  0
  -19.5776  -26.6397   21.5206 C   0  0  0  0  0  0
  -18.1951  -26.7936   22.1591 C   0  0  0  0  0  0
  -19.1563  -28.8842   23.2894 C   0  0  0  0  0  0
  -18.9485  -30.1437   23.8914 C   0  0  0  0  0  0
  -17.6489  -30.6569   24.0570 C   0  0  0  0  0  0
  -25.9063  -34.9433   23.5081 C   0  0  0  0  0  0
  -16.5378  -29.9077   23.6324 C   0  0  0  0  0  0
  -16.7304  -28.6495   23.0341 C   0  0  0  0  0  0
  -26.4520  -31.6575   25.0706 C   0  0  0  0  0  0
  -25.3739  -31.3728   26.1421 C   0  0  0  0  0  0
  -27.0366  -30.2994   24.6166 C   0  0  0  0  0  0
  -27.6073  -32.4322   25.7485 C   0  0  0  0  0  0
  -27.5576  -37.1792   24.8458 C   0  0  0  0  0  0
  -21.4223  -29.3067   22.3698 N   0  0  0  0  0  0
  -26.4287  -37.3762   23.9399 N   0  0  0  0  0  0
  -24.6970  -31.0492   22.0934 N   0  0  0  0  0  0
  -23.4202  -28.8164   23.3048 O   0  0  0  0  0  0
  -28.3172  -26.3628   20.1821 O   0  0  0  0  0  0
  -26.5631  -34.8917   22.4649 O   0  0  0  0  0  0
  -23.5474  -32.1388   23.7219 O   0  0  0  0  0  0
  -29.5246  -19.2158   19.6869 C   0  0  0  0  0  0
  -29.9126  -17.8365   19.9031 C   0  0  0  0  0  0
  -28.5994  -19.2974   21.8641 C   0  0  0  0  0  0
  -28.8243  -20.0106   20.6547 C   0  0  0  0  0  0
  -29.6621  -17.1230   21.1192 C   0  0  0  0  0  0
  -28.9803  -17.9359   22.0900 C   0  0  0  0  0  0
  -28.3883  -22.3826   19.5101 C   0  0  0  0  0  0
  -28.3737  -23.7829   19.5590 C   0  0  0  0  0  0
  -27.9992  -21.7958   18.1658 C   0  0  0  0  0  0
  -26.8565  -20.8418   18.5302 C   0  0  0  0  0  0
  -26.8258  -20.8959   20.0661 C   0  0  0  0  0  0
  -30.2545  -15.3515   22.8381 C   0  0  0  0  0  0
  -28.1506  -24.9264   20.6248 C   0  0  0  0  0  0
  -28.1738  -21.3196   20.4618 N   0  0  0  0  0  0
  -30.0576  -15.6925   21.4141 N   0  0  0  0  0  0
  -28.6201  -17.4214   23.2902 F   0  0  0  0  0  0
  -31.4767  -12.6147   19.1738 H   0  0  0  0  0  0
  -30.4008  -11.4796   19.9330 H   0  0  0  0  0  0
  -29.7984  -11.7758   17.5130 H   0  0  0  0  0  0
  -29.6389  -13.4978   17.7414 H   0  0  0  0  0  0
  -27.8886  -11.2934   18.8804 H   0  0  0  0  0  0
  -27.3871  -12.5631   17.7934 H   0  0  0  0  0  0
  -27.6586  -14.2590   19.5073 H   0  0  0  0  0  0
  -28.7115  -12.0880   21.3829 H   0  0  0  0  0  0
  -28.3722  -13.7327   21.8321 H   0  0  0  0  0  0
  -25.2756   -9.5680   22.4717 H   0  0  0  0  0  0
  -23.9995   -7.4635   22.7446 H   0  0  0  0  0  0
  -21.0853   -8.8767   19.8948 H   0  0  0  0  0  0
  -22.3696  -10.9653   19.6141 H   0  0  0  0  0  0
  -21.2004   -7.6125   23.9734 H   0  0  0  0  0  0
  -21.1491   -6.0476   25.9079 H   0  0  0  0  0  0
  -22.0599   -2.7599   23.2820 H   0  0  0  0  0  0
  -22.4055  -11.9938   22.4857 H   0  0  0  0  0  0
  -21.1079  -13.1310   22.2562 H   0  0  0  0  0  0
  -24.6744  -15.8538   20.5672 H   0  0  0  0  0  0
  -26.2939  -15.6330   20.1376 H   0  0  0  0  0  0
  -26.7207  -32.5402   23.1060 H   0  0  0  0  0  0
  -25.0120  -33.9697   25.0403 H   0  0  0  0  0  0
  -22.7253  -31.2963   21.3911 H   0  0  0  0  0  0
  -23.3767  -35.9597   23.3285 H   0  0  0  0  0  0
  -24.3580  -36.8901   22.2044 H   0  0  0  0  0  0
  -23.7234  -37.6466   23.6681 H   0  0  0  0  0  0
  -26.1066  -31.5212   20.5981 H   0  0  0  0  0  0
  -26.8507  -30.8191   22.0040 H   0  0  0  0  0  0
  -28.1236  -28.9260   21.2003 H   0  0  0  0  0  0
  -25.9793  -25.8584   19.0591 H   0  0  0  0  0  0
  -23.9714  -27.2684   19.0340 H   0  0  0  0  0  0
  -23.7757  -30.5713   19.3996 H   0  0  0  0  0  0
  -22.7627  -29.2341   19.8567 H   0  0  0  0  0  0
  -25.1308  -36.1894   25.0814 H   0  0  0  0  0  0
  -21.0018  -28.3249   24.1396 H   0  0  0  0  0  0
  -20.5701  -26.2296   23.3591 H   0  0  0  0  0  0
  -21.6667  -26.7455   22.1176 H   0  0  0  0  0  0
  -19.6922  -25.6323   21.1202 H   0  0  0  0  0  0
  -19.6717  -27.3232   20.6749 H   0  0  0  0  0  0
  -17.4245  -26.6753   21.3956 H   0  0  0  0  0  0
  -18.0313  -26.0042   22.8940 H   0  0  0  0  0  0
  -19.7961  -30.7248   24.2302 H   0  0  0  0  0  0
  -17.5046  -31.6246   24.5198 H   0  0  0  0  0  0
  -15.5374  -30.2977   23.7648 H   0  0  0  0  0  0
  -15.8710  -28.0807   22.7053 H   0  0  0  0  0  0
  -24.5919  -30.7067   25.7752 H   0  0  0  0  0  0
  -24.8928  -32.2896   26.4834 H   0  0  0  0  0  0
  -25.8046  -30.8918   27.0205 H   0  0  0  0  0  0
  -26.2936  -29.6735   24.1194 H   0  0  0  0  0  0
  -27.4076  -29.7259   25.4666 H   0  0  0  0  0  0
  -27.8809  -30.4291   23.9387 H   0  0  0  0  0  0
  -27.2685  -33.3631   26.2047 H   0  0  0  0  0  0
  -28.3897  -32.6850   25.0320 H   0  0  0  0  0  0
  -28.0732  -31.8449   26.5404 H   0  0  0  0  0  0
  -28.2598  -38.0087   24.7528 H   0  0  0  0  0  0
  -28.1085  -36.2629   24.6289 H   0  0  0  0  0  0
  -27.2307  -37.1418   25.8864 H   0  0  0  0  0  0
  -20.9406  -29.8791   21.6911 H   0  0  0  0  0  0
  -26.0169  -38.2832   24.1416 H   0  0  0  0  0  0
  -29.7425  -19.6380   18.7204 H   0  0  0  0  0  0
  -30.4146  -17.3216   19.0980 H   0  0  0  0  0  0
  -28.0580  -19.7946   22.6547 H   0  0  0  0  0  0
  -28.3742  -24.2538   18.5876 H   0  0  0  0  0  0
  -28.8386  -21.2976   17.6838 H   0  0  0  0  0  0
  -27.6297  -22.5502   17.4692 H   0  0  0  0  0  0
  -27.0597  -19.8339   18.1684 H   0  0  0  0  0  0
  -25.9002  -21.1591   18.1125 H   0  0  0  0  0  0
  -26.4790  -19.9462   20.4804 H   0  0  0  0  0  0
  -26.1074  -21.6462   20.4026 H   0  0  0  0  0  0
  -30.7484  -16.1662   23.3697 H   0  0  0  0  0  0
  -30.8804  -14.4709   23.0052 H   0  0  0  0  0  0
  -29.3027  -15.1525   23.3319 H   0  0  0  0  0  0
  -28.8329  -24.7468   21.4571 H   0  0  0  0  0  0
  -27.1531  -24.7877   21.0407 H   0  0  0  0  0  0
  1 25  1  0  0  0
  1 30  2  0  0  0
  1 85  1  0  0  0
  2  3  1  0  0  0
  2 25  1  0  0  0
  2 87  1  0  0  0
  2 88  1  0  0  0
  3  4  1  0  0  0
  3 89  1  0  0  0
  3 90  1  0  0  0
  4  5  1  0  0  0
  4 91  1  0  0  0
  4 92  1  0  0  0
  5  6  1  0  0  0
  5 26  1  0  0  0
  5 93  1  0  0  0
  6 25  1  0  0  0
  6 94  1  0  0  0
  6 95  1  0  0  0
  7  8  2  0  0  0
  7 26  1  0  0  0
  7 29  1  0  0  0
  8  9  1  0  0  0
  8 22  1  0  0  0
  9 10  1  0  0  0
  9 27  2  0  0  0
 10 11  2  0  0  0
 10 15  1  0  0  0
 11 12  1  0  0  0
 11 96  1  0  0  0
 12 13  2  0  0  0
 12 97  1  0  0  0
 13 14  1  0  0  0
 13 31  1  0  0  0
 14 15  2  0  0  0
 14 98  1  0  0  0
 15 99  1  0  0  0
 16 17  2  0  0  0
 16 21  1  0  0  0
 16 31  1  0  0  0
 17 18  1  0  0  0
 17100  1  0  0  0
 18 19  2  0  0  0
 18101  1  0  0  0
 19 20  1  0  0  0
 19 24  1  0  0  0
 20 21  2  0  0  0
 20102  1  0  0  0
 21 23  1  0  0  0
 22 28  1  0  0  0
 22 32  2  0  0  0
 26 27  1  0  0  0
 28103  1  0  0  0
 28104  1  0  0  0
 29105  1  0  0  0
 29106  1  0  0  0
 33 34  1  0  0  0
 33 66  1  0  0  0
 33 70  2  0  0  0
 34 36  1  0  0  0
 34 59  1  0  0  0
 34107  1  0  0  0
 35 44  2  0  0  0
 35 45  1  0  0  0
 35 68  1  0  0  0
 36 56  1  0  0  0
 36108  1  0  0  0
 37 39  1  0  0  0
 37 47  1  0  0  0
 37 66  1  0  0  0
 37109  1  0  0  0
 38 43  2  0  0  0
 38 46  1  0  0  0
 38 47  1  0  0  0
 39 64  1  0  0  0
 39 67  2  0  0  0
 40 52  1  0  0  0
 40 53  2  0  0  0
 40 58  1  0  0  0
 41110  1  0  0  0
 41111  1  0  0  0
 41112  1  0  0  0
 41 48  1  0  0  0
 42 43  1  0  0  0
 42 66  1  0  0  0
 42113  1  0  0  0
 42114  1  0  0  0
 43 44  1  0  0  0
 44115  1  0  0  0
 45 46  2  0  0  0
 45116  1  0  0  0
 46117  1  0  0  0
 47118  1  0  0  0
 47119  1  0  0  0
 48 56  1  0  0  0
 48 65  1  0  0  0
 48120  1  0  0  0
 49 50  1  0  0  0
 49 53  1  0  0  0
 49 64  1  0  0  0
 49121  1  0  0  0
 50 51  1  0  0  0
 50122  1  0  0  0
 50123  1  0  0  0
 51 52  1  0  0  0
 51124  1  0  0  0
 51125  1  0  0  0
 52126  1  0  0  0
 52127  1  0  0  0
 53 54  1  0  0  0
 54 55  2  0  0  0
 54128  1  0  0  0
 55 57  1  0  0  0
 55129  1  0  0  0
 56 69  2  0  0  0
 57 58  2  0  0  0
 57130  1  0  0  0
 58131  1  0  0  0
 59 60  1  0  0  0
 59 61  1  0  0  0
 59 62  1  0  0  0
 60132  1  0  0  0
 60133  1  0  0  0
 60134  1  0  0  0
 61135  1  0  0  0
 61136  1  0  0  0
 61137  1  0  0  0
 62138  1  0  0  0
 62139  1  0  0  0
 62140  1  0  0  0
 63 65  1  0  0  0
 63141  1  0  0  0
 63142  1  0  0  0
 63143  1  0  0  0
 64144  1  0  0  0
 65145  1  0  0  0
 68 83  1  0  0  0
 71 72  2  0  0  0
 71 74  1  0  0  0
 71146  1  0  0  0
 72 75  1  0  0  0
 72147  1  0  0  0
 73 74  2  0  0  0
 73 76  1  0  0  0
 73148  1  0  0  0
 74 84  1  0  0  0
 75 76  2  0  0  0
 75 85  1  0  0  0
 76 86  1  0  0  0
 77 78  2  0  0  0
 77 79  1  0  0  0
 77 84  1  0  0  0
 78 83  1  0  0  0
 78149  1  0  0  0
 79 80  1  0  0  0
 79150  1  0  0  0
 79151  1  0  0  0
 80 81  1  0  0  0
 80152  1  0  0  0
 80153  1  0  0  0
 81 84  1  0  0  0
 81154  1  0  0  0
 81155  1  0  0  0
 82 85  1  0  0  0
 82156  1  0  0  0
 82157  1  0  0  0
 82158  1  0  0  0
 83159  1  0  0  0
 83160  1  0  0  0
M  ISO  4   1 100  68 101  83 101  85 100
M  END
> <chiral flag>
0

> <version>
0

> <s_m_source_file>
/data/baiqing/PycharmProjects/Reinvent-master-3.2/result/LINK_invent/BTK/process_docking_weight1_custom_product_contain_oxygen_bond_distance_aromatic_linkinvent_7_9_3/rearranged_h_0023.sdf

> <i_m_source_file_index>
82

> <r_mmod_Potential_Energy-OPLS-2005>
518.701538085938

> <r_mmod_Stretch_Energy-OPLS-2005>
135.496505737305

> <r_mmod_Bend_Energy-OPLS-2005>
275.448913574219

> <r_mmod_Torsional_Energy-OPLS-2005>
377.938537597656

> <r_mmod_Improper_Torsional_Energy-OPLS-2005>
13.3095636367798

> <r_mmod_Van_der_Waal_Energy-OPLS-2005>
154.959381103516

> <r_mmod_Electrostatic_Energy-OPLS-2005>
-330.540985107422

> <r_mmod_Solvation_Energy-OPLS-2005>
-189.155258178711

> <b_mmod_Minimization_Converged-OPLS-2005>
0

> <r_mmod_RMS_Derivative-OPLS-2005>
2.84730625152588

$$$$
82
                    3D
 Structure written by MMmdl.
151159  0  0  1  0            999 V2000
  -30.5242  -15.0834   20.3320 C   0  0  0  0  0  0
  -30.4406  -12.6649   19.4893 C   0  0  0  0  0  0
  -29.5214  -12.4891   18.2566 C   0  0  0  0  0  0
  -28.0519  -12.2881   18.6825 C   0  0  0  0  0  0
  -27.6125  -13.2368   19.8280 C   0  0  2  0  0  0
  -28.6721  -13.3709   20.9440 C   0  0  0  0  0  0
  -25.2458  -13.8178   20.5826 C   0  0  0  0  0  0
  -24.1755  -13.0419   20.9296 C   0  0  0  0  0  0
  -24.6350  -11.6897   20.8801 C   0  0  0  0  0  0
  -23.9039  -10.4277   21.0425 C   0  0  0  0  0  0
  -24.3603   -9.4201   21.9194 C   0  0  0  0  0  0
  -23.6288   -8.2228   22.0749 C   0  0  0  0  0  0
  -22.4269   -8.0267   21.3537 C   0  0  0  0  0  0
  -21.9887   -9.0245   20.4648 C   0  0  0  0  0  0
  -22.7215  -10.2128   20.3069 C   0  0  0  0  0  0
  -21.6853   -6.0727   22.5267 C   0  0  0  0  0  0
  -21.4004   -6.5629   23.8199 C   0  0  0  0  0  0
  -21.3652   -5.6789   24.9160 C   0  0  0  0  0  0
  -21.6044   -4.3050   24.7218 C   0  0  0  0  0  0
  -21.8836   -3.8146   23.4341 C   0  0  0  0  0  0
  -21.9203   -4.6958   22.3394 C   0  0  0  0  0  0
  -22.7788  -13.5210   21.1924 C   0  0  0  0  0  0
  -22.1683   -4.2137   21.0977 F   0  0  0  0  0  0
  -21.5622   -3.4540   25.7739 F   0  0  0  0  0  0
  -29.9169  -13.8118   20.2943 N   0  0  0  0  0  0
  -26.2835  -12.9353   20.3336 N   0  0  0  0  0  0
  -25.9282  -11.6505   20.5820 N   0  0  0  0  0  0
  -22.0423  -12.8184   22.0457 N   0  0  0  0  0  0
  -25.4169  -15.1910   20.4316 N   0  0  0  0  0  0
  -31.7573  -15.0724   20.2478 O   0  0  0  0  0  0
  -21.6641   -6.8862   21.4226 O   0  0  0  0  0  0
  -22.3477  -14.5504   20.6737 O   0  0  0  0  0  0
  -24.6511  -31.8389   23.1807 C   0  0  0  0  0  0
  -25.9237  -32.4674   23.8252 C   0  0  1  0  0  0
  -27.2153  -27.0682   20.1458 C   0  0  0  0  0  0
  -25.5953  -33.8487   24.2156 N   0  0  0  0  0  0
  -23.4591  -30.4524   21.5313 C   0  0  2  0  0  0
  -24.9072  -28.8673   20.1087 C   0  0  0  0  0  0
  -22.7617  -29.4499   22.4865 C   0  0  0  0  0  0
  -18.0301  -28.1399   22.8467 C   0  0  0  0  0  0
  -24.1481  -36.7262   23.2638 C   0  0  0  0  0  0
  -26.0197  -30.6871   21.3905 C   0  0  0  0  0  0
  -26.0894  -29.2919   20.7284 C   0  0  0  0  0  0
  -27.2434  -28.4097   20.7260 C   0  0  0  0  0  0
  -26.0056  -26.7634   19.4826 C   0  0  0  0  0  0
  -24.8815  -27.6206   19.4679 C   0  0  0  0  0  0
  -23.6877  -29.7778   20.1527 C   0  0  0  0  0  0
  -25.4118  -36.3036   24.0305 C   0  0  1  0  0  0
  -20.5909  -28.3729   23.1224 C   0  0  2  0  0  0
  -20.6793  -26.9434   22.5405 C   0  0  0  0  0  0
  -19.5772  -26.6375   21.5213 C   0  0  0  0  0  0
  -18.1949  -26.7935   22.1613 C   0  0  0  0  0  0
  -19.1556  -28.8886   23.2828 C   0  0  0  0  0  0
  -18.9481  -30.1477   23.8863 C   0  0  0  0  0  0
  -17.6477  -30.6599   24.0549 C   0  0  0  0  0  0
  -25.9085  -34.9406   23.5052 C   0  0  0  0  0  0
  -16.5369  -29.9093   23.6330 C   0  0  0  0  0  0
  -16.7286  -28.6500   23.0366 C   0  0  0  0  0  0
  -26.4534  -31.6576   25.0733 C   0  0  0  0  0  0
  -25.3668  -31.3811   26.1389 C   0  0  0  0  0  0
  -27.0413  -30.2958   24.6388 C   0  0  0  0  0  0
  -27.6052  -32.4364   25.7538 C   0  0  0  0  0  0
  -27.5580  -37.1783   24.8463 C   0  0  0  0  0  0
  -21.4299  -29.3037   22.3601 N   0  0  0  0  0  0
  -26.4287  -37.3746   23.9406 N   0  0  0  0  0  0
  -24.7307  -31.0159   22.0890 N   0  0  0  0  0  0
  -23.4220  -28.8061   23.3056 O   0  0  0  0  0  0
  -28.2448  -26.0374   20.2252 O   0  0  0  0  0  0
  -26.5687  -34.8909   22.4641 O   0  0  0  0  0  0
  -23.5598  -32.1317   23.6960 O   0  0  0  0  0  0
  -30.7080  -20.5733   21.3285 C   0  0  0  0  0  0
  -31.1244  -18.1151   21.3404 C   0  0  0  0  0  0
  -29.5521  -20.4925   20.5196 C   0  0  0  0  0  0
  -30.0197  -17.8209   20.5117 C   0  0  0  0  0  0
  -31.4540  -19.4363   21.7258 C   0  0  0  0  0  0
  -29.2433  -19.0704   20.1332 C   0  0  0  0  0  0
  -28.9760  -23.2299   20.4104 C   0  0  0  0  0  0
  -28.9435  -16.2634   18.8974 C   0  0  0  0  0  0
  -27.9551  -24.4971   19.9641 C   0  0  0  0  0  0
  -28.7845  -21.8147   20.1591 N   0  0  0  0  0  0
  -29.7901  -16.3245   20.0928 N   0  0  0  0  0  0
  -29.9894  -23.5842   21.0153 O   0  0  0  0  0  0
  -32.5413  -19.6270   22.5096 F   0  0  0  0  0  0
  -28.1415  -18.9168   19.3624 F   0  0  0  0  0  0
  -31.4695  -12.8291   19.1652 H   0  0  0  0  0  0
  -30.4614  -11.7524   20.0859 H   0  0  0  0  0  0
  -29.8493  -11.6324   17.6656 H   0  0  0  0  0  0
  -29.6102  -13.3529   17.5981 H   0  0  0  0  0  0
  -27.9502  -11.2539   19.0117 H   0  0  0  0  0  0
  -27.3891  -12.4001   17.8230 H   0  0  0  0  0  0
  -27.5094  -14.2027   19.3538 H   0  0  0  0  0  0
  -28.8092  -12.4272   21.4731 H   0  0  0  0  0  0
  -28.3598  -14.1072   21.6870 H   0  0  0  0  0  0
  -25.2734   -9.5687   22.4780 H   0  0  0  0  0  0
  -24.0012   -7.4604   22.7448 H   0  0  0  0  0  0
  -21.0830   -8.8772   19.8934 H   0  0  0  0  0  0
  -22.3675  -10.9686   19.6191 H   0  0  0  0  0  0
  -21.1986   -7.6139   23.9695 H   0  0  0  0  0  0
  -21.1452   -6.0514   25.9057 H   0  0  0  0  0  0
  -22.0620   -2.7605   23.2853 H   0  0  0  0  0  0
  -22.4044  -11.9845   22.4849 H   0  0  0  0  0  0
  -21.1026  -13.1178   22.2645 H   0  0  0  0  0  0
  -24.6633  -15.8528   20.5816 H   0  0  0  0  0  0
  -26.2817  -15.6345   20.1516 H   0  0  0  0  0  0
  -26.7320  -32.5257   23.0996 H   0  0  0  0  0  0
  -25.0060  -33.9600   25.0278 H   0  0  0  0  0  0
  -22.7654  -31.2791   21.3705 H   0  0  0  0  0  0
  -23.3757  -35.9582   23.3295 H   0  0  0  0  0  0
  -24.3550  -36.8915   22.2057 H   0  0  0  0  0  0
  -23.7231  -37.6442   23.6700 H   0  0  0  0  0  0
  -26.1827  -31.4372   20.6153 H   0  0  0  0  0  0
  -26.8861  -30.7387   22.0386 H   0  0  0  0  0  0
  -28.1449  -28.7285   21.2298 H   0  0  0  0  0  0
  -25.8896  -25.8108   18.9880 H   0  0  0  0  0  0
  -23.9782  -27.2970   18.9687 H   0  0  0  0  0  0
  -23.8301  -30.5490   19.3953 H   0  0  0  0  0  0
  -22.8018  -29.2220   19.8411 H   0  0  0  0  0  0
  -25.1306  -36.1872   25.0798 H   0  0  0  0  0  0
  -20.9975  -28.3326   24.1350 H   0  0  0  0  0  0
  -20.5678  -26.2365   23.3635 H   0  0  0  0  0  0
  -21.6669  -26.7450   22.1210 H   0  0  0  0  0  0
  -19.6952  -25.6269   21.1289 H   0  0  0  0  0  0
  -19.6707  -27.3144   20.6709 H   0  0  0  0  0  0
  -17.4225  -26.6660   21.4014 H   0  0  0  0  0  0
  -18.0353  -26.0079   22.9013 H   0  0  0  0  0  0
  -19.7959  -30.7292   24.2239 H   0  0  0  0  0  0
  -17.5034  -31.6270   24.5170 H   0  0  0  0  0  0
  -15.5369  -30.2996   23.7662 H   0  0  0  0  0  0
  -15.8680  -28.0801   22.7133 H   0  0  0  0  0  0
  -24.5845  -30.7178   25.7698 H   0  0  0  0  0  0
  -24.8844  -32.3000   26.4724 H   0  0  0  0  0  0
  -25.7856  -30.9036   27.0249 H   0  0  0  0  0  0
  -26.3064  -29.6669   24.1348 H   0  0  0  0  0  0
  -27.3949  -29.7283   25.5012 H   0  0  0  0  0  0
  -27.9005  -30.4187   23.9786 H   0  0  0  0  0  0
  -27.2642  -33.3695   26.2044 H   0  0  0  0  0  0
  -28.3897  -32.6880   25.0389 H   0  0  0  0  0  0
  -28.0690  -31.8546   26.5512 H   0  0  0  0  0  0
  -28.2586  -38.0091   24.7517 H   0  0  0  0  0  0
  -28.1088  -36.2622   24.6285 H   0  0  0  0  0  0
  -27.2302  -37.1432   25.8865 H   0  0  0  0  0  0
  -20.9564  -29.8735   21.6729 H   0  0  0  0  0  0
  -26.0165  -38.2825   24.1376 H   0  0  0  0  0  0
  -31.0612  -21.5293   21.6779 H   0  0  0  0  0  0
  -31.7687  -17.3202   21.6852 H   0  0  0  0  0  0
  -29.0277  -15.3434   18.3236 H   0  0  0  0  0  0
  -27.8972  -16.4174   19.1584 H   0  0  0  0  0  0
  -29.2337  -17.0442   18.1926 H   0  0  0  0  0  0
  -26.9925  -24.2691   20.4236 H   0  0  0  0  0  0
  -27.7934  -24.3884   18.8919 H   0  0  0  0  0  0
  -27.9463  -21.6388   19.6195 H   0  0  0  0  0  0
  1 25  1  0  0  0
  1 30  2  0  0  0
  1 81  1  0  0  0
  2  3  1  0  0  0
  2 25  1  0  0  0
  2 85  1  0  0  0
  2 86  1  0  0  0
  3  4  1  0  0  0
  3 87  1  0  0  0
  3 88  1  0  0  0
  4  5  1  0  0  0
  4 89  1  0  0  0
  4 90  1  0  0  0
  5  6  1  0  0  0
  5 26  1  0  0  0
  5 91  1  0  0  0
  6 25  1  0  0  0
  6 92  1  0  0  0
  6 93  1  0  0  0
  7  8  2  0  0  0
  7 26  1  0  0  0
  7 29  1  0  0  0
  8  9  1  0  0  0
  8 22  1  0  0  0
  9 10  1  0  0  0
  9 27  2  0  0  0
 10 11  2  0  0  0
 10 15  1  0  0  0
 11 12  1  0  0  0
 11 94  1  0  0  0
 12 13  2  0  0  0
 12 95  1  0  0  0
 13 14  1  0  0  0
 13 31  1  0  0  0
 14 15  2  0  0  0
 14 96  1  0  0  0
 15 97  1  0  0  0
 16 17  2  0  0  0
 16 21  1  0  0  0
 16 31  1  0  0  0
 17 18  1  0  0  0
 17 98  1  0  0  0
 18 19  2  0  0  0
 18 99  1  0  0  0
 19 20  1  0  0  0
 19 24  1  0  0  0
 20 21  2  0  0  0
 20100  1  0  0  0
 21 23  1  0  0  0
 22 28  1  0  0  0
 22 32  2  0  0  0
 26 27  1  0  0  0
 28101  1  0  0  0
 28102  1  0  0  0
 29103  1  0  0  0
 29104  1  0  0  0
 33 34  1  0  0  0
 33 66  1  0  0  0
 33 70  2  0  0  0
 34 36  1  0  0  0
 34 59  1  0  0  0
 34105  1  0  0  0
 35 44  2  0  0  0
 35 45  1  0  0  0
 35 68  1  0  0  0
 36 56  1  0  0  0
 36106  1  0  0  0
 37 39  1  0  0  0
 37 47  1  0  0  0
 37 66  1  0  0  0
 37107  1  0  0  0
 38 43  2  0  0  0
 38 46  1  0  0  0
 38 47  1  0  0  0
 39 64  1  0  0  0
 39 67  2  0  0  0
 40 52  1  0  0  0
 40 53  2  0  0  0
 40 58  1  0  0  0
 41108  1  0  0  0
 41109  1  0  0  0
 41110  1  0  0  0
 41 48  1  0  0  0
 42 43  1  0  0  0
 42 66  1  0  0  0
 42111  1  0  0  0
 42112  1  0  0  0
 43 44  1  0  0  0
 44113  1  0  0  0
 45 46  2  0  0  0
 45114  1  0  0  0
 46115  1  0  0  0
 47116  1  0  0  0
 47117  1  0  0  0
 48 56  1  0  0  0
 48 65  1  0  0  0
 48118  1  0  0  0
 49 50  1  0  0  0
 49 53  1  0  0  0
 49 64  1  0  0  0
 49119  1  0  0  0
 50 51  1  0  0  0
 50120  1  0  0  0
 50121  1  0  0  0
 51 52  1  0  0  0
 51122  1  0  0  0
 51123  1  0  0  0
 52124  1  0  0  0
 52125  1  0  0  0
 53 54  1  0  0  0
 54 55  2  0  0  0
 54126  1  0  0  0
 55 57  1  0  0  0
 55127  1  0  0  0
 56 69  2  0  0  0
 57 58  2  0  0  0
 57128  1  0  0  0
 58129  1  0  0  0
 59 60  1  0  0  0
 59 61  1  0  0  0
 59 62  1  0  0  0
 60130  1  0  0  0
 60131  1  0  0  0
 60132  1  0  0  0
 61133  1  0  0  0
 61134  1  0  0  0
 61135  1  0  0  0
 62136  1  0  0  0
 62137  1  0  0  0
 62138  1  0  0  0
 63 65  1  0  0  0
 63139  1  0  0  0
 63140  1  0  0  0
 63141  1  0  0  0
 64142  1  0  0  0
 65143  1  0  0  0
 68 79  1  0  0  0
 71 73  2  0  0  0
 71 75  1  0  0  0
 71144  1  0  0  0
 72 74  1  0  0  0
 72 75  2  0  0  0
 72145  1  0  0  0
 73 76  1  0  0  0
 73 80  1  0  0  0
 74 76  2  0  0  0
 74 81  1  0  0  0
 75 83  1  0  0  0
 76 84  1  0  0  0
 77 79  1  0  0  0
 77 80  1  0  0  0
 77 82  2  0  0  0
 78 81  1  0  0  0
 78146  1  0  0  0
 78147  1  0  0  0
 78148  1  0  0  0
 79149  1  0  0  0
 79150  1  0  0  0
 80151  1  0  0  0
M  ISO  4   1 100  68 101  79 101  81 100
M  END
> <chiral flag>
0

> <version>
0

> <s_m_source_file>
/data/baiqing/PycharmProjects/Reinvent-master-3.2/result/LINK_invent/BTK/process_docking_weight1_custom_product_contain_oxygen_bond_distance_aromatic_linkinvent_7_9_3/rearranged_h_0023.sdf

> <i_m_source_file_index>
83

> <r_mmod_Potential_Energy-OPLS-2005>
805.174133300781

> <r_mmod_Stretch_Energy-OPLS-2005>
351.480895996094

> <r_mmod_Bend_Energy-OPLS-2005>
276.816253662109

> <r_mmod_Torsional_Energy-OPLS-2005>
291.312225341797

> <r_mmod_Improper_Torsional_Energy-OPLS-2005>
11.1059465408325

> <r_mmod_Van_der_Waal_Energy-OPLS-2005>
140.448547363281

> <r_mmod_Electrostatic_Energy-OPLS-2005>
-328.290252685547

> <r_mmod_Solvation_Energy-OPLS-2005>
-223.391540527344

> <b_mmod_Minimization_Converged-OPLS-2005>
0

> <r_mmod_RMS_Derivative-OPLS-2005>
2.4583420753479

$$$$
83
                    3D
 Structure written by MMmdl.
163172  0  0  1  0            999 V2000
  -30.5589  -14.6619   20.5891 C   0  0  0  0  0  0
  -30.4394  -12.4312   19.4613 C   0  0  0  0  0  0
  -29.4972  -12.5216   18.2348 C   0  0  0  0  0  0
  -28.0238  -12.3346   18.6475 C   0  0  0  0  0  0
  -27.6468  -13.2041   19.8735 C   0  0  2  0  0  0
  -28.6800  -13.0303   21.0060 C   0  0  0  0  0  0
  -25.2542  -13.8178   20.5716 C   0  0  0  0  0  0
  -24.1792  -13.0495   20.9219 C   0  0  0  0  0  0
  -24.6309  -11.6925   20.8748 C   0  0  0  0  0  0
  -23.8984  -10.4304   21.0409 C   0  0  0  0  0  0
  -24.3576   -9.4220   21.9185 C   0  0  0  0  0  0
  -23.6278   -8.2243   22.0747 C   0  0  0  0  0  0
  -22.4271   -8.0272   21.3521 C   0  0  0  0  0  0
  -21.9869   -9.0240   20.4630 C   0  0  0  0  0  0
  -22.7167  -10.2130   20.3043 C   0  0  0  0  0  0
  -21.6850   -6.0736   22.5277 C   0  0  0  0  0  0
  -21.4020   -6.5637   23.8217 C   0  0  0  0  0  0
  -21.3659   -5.6784   24.9177 C   0  0  0  0  0  0
  -21.6042   -4.3048   24.7220 C   0  0  0  0  0  0
  -21.8825   -3.8143   23.4341 C   0  0  0  0  0  0
  -21.9199   -4.6962   22.3400 C   0  0  0  0  0  0
  -22.7797  -13.5254   21.1900 C   0  0  0  0  0  0
  -22.1663   -4.2141   21.0978 F   0  0  0  0  0  0
  -21.5626   -3.4544   25.7738 F   0  0  0  0  0  0
  -29.9911  -13.4186   20.4665 N   0  0  0  0  0  0
  -26.2916  -12.9313   20.3328 N   0  0  0  0  0  0
  -25.9230  -11.6480   20.5759 N   0  0  0  0  0  0
  -22.0457  -12.8224   22.0445 N   0  0  0  0  0  0
  -25.4390  -15.1903   20.4194 N   0  0  0  0  0  0
  -31.6886  -14.8965   20.1447 O   0  0  0  0  0  0
  -21.6643   -6.8873   21.4230 O   0  0  0  0  0  0
  -22.3480  -14.5593   20.6777 O   0  0  0  0  0  0
  -24.6181  -31.8616   23.2028 C   0  0  0  0  0  0
  -25.9079  -32.4782   23.8345 C   0  0  1  0  0  0
  -27.2255  -27.3403   20.1342 C   0  0  0  0  0  0
  -25.5933  -33.8583   24.2261 N   0  0  0  0  0  0
  -23.4101  -30.4765   21.5494 C   0  0  2  0  0  0
  -24.8591  -28.9436   20.0994 C   0  0  0  0  0  0
  -22.7452  -29.4565   22.5009 C   0  0  0  0  0  0
  -18.0338  -28.1409   22.8412 C   0  0  0  0  0  0
  -24.1463  -36.7287   23.2629 C   0  0  0  0  0  0
  -25.9415  -30.7984   21.3717 C   0  0  0  0  0  0
  -26.0156  -29.4263   20.7188 C   0  0  0  0  0  0
  -27.1952  -28.6330   20.7356 C   0  0  0  0  0  0
  -26.0487  -26.9128   19.4725 C   0  0  0  0  0  0
  -24.8787  -27.6950   19.4615 C   0  0  0  0  0  0
  -23.6159  -29.8081   20.1626 C   0  0  0  0  0  0
  -25.4101  -36.3097   24.0291 C   0  0  1  0  0  0
  -20.5941  -28.3477   23.1231 C   0  0  2  0  0  0
  -20.6865  -26.9386   22.4994 C   0  0  0  0  0  0
  -19.5708  -26.6528   21.4931 C   0  0  0  0  0  0
  -18.1925  -26.7970   22.1504 C   0  0  0  0  0  0
  -19.1636  -28.8752   23.2865 C   0  0  0  0  0  0
  -18.9650  -30.1222   23.9098 C   0  0  0  0  0  0
  -17.6686  -30.6525   24.0752 C   0  0  0  0  0  0
  -25.9060  -34.9459   23.5075 C   0  0  0  0  0  0
  -16.5531  -29.9211   23.6295 C   0  0  0  0  0  0
  -16.7367  -28.6636   23.0313 C   0  0  0  0  0  0
  -26.4479  -31.6609   25.0706 C   0  0  0  0  0  0
  -25.3717  -31.3760   26.1438 C   0  0  0  0  0  0
  -27.0324  -30.3027   24.6161 C   0  0  0  0  0  0
  -27.6013  -32.4325   25.7523 C   0  0  0  0  0  0
  -27.5576  -37.1803   24.8466 C   0  0  0  0  0  0
  -21.4211  -29.2831   22.3639 N   0  0  0  0  0  0
  -26.4298  -37.3788   23.9387 N   0  0  0  0  0  0
  -24.6745  -31.0622   22.0990 N   0  0  0  0  0  0
  -23.4200  -28.8270   23.3197 O   0  0  0  0  0  0
  -28.3768  -26.5496   20.2318 O   0  0  0  0  0  0
  -26.5647  -34.8981   22.4642 O   0  0  0  0  0  0
  -23.5366  -32.1375   23.7422 O   0  0  0  0  0  0
  -30.0358  -19.3653   21.9133 C   0  0  0  0  0  0
  -30.3700  -17.9747   21.8530 C   0  0  0  0  0  0
  -28.9574  -19.9619   21.1896 C   0  0  0  0  0  0
  -28.2688  -19.0341   20.3278 C   0  0  0  0  0  0
  -29.6530  -17.0654   21.0381 C   0  0  0  0  0  0
  -28.6075  -17.6371   20.2765 C   0  0  0  0  0  0
  -25.9178  -23.5822   21.0883 C   0  0  0  0  0  0
  -26.9922  -24.2982   21.8937 C   0  0  0  0  0  0
  -26.6771  -22.5190   20.2778 C   0  0  0  0  0  0
  -28.2726  -24.0341   21.0952 C   0  0  2  0  0  0
  -27.0901  -19.4461   19.4646 C   0  0  0  0  0  0
  -28.5425  -21.4714   21.5805 C   0  0  0  0  0  0
  -28.4033  -25.1074   19.9204 C   0  0  0  0  0  0
  -29.7558  -15.6091   21.1716 N   0  0  0  0  0  0
  -28.1266  -22.5850   20.6124 N   0  3  1  0  0  0
  -27.8593  -16.7946   19.5194 F   0  0  0  0  0  0
  -31.4736  -12.6009   19.1608 H   0  0  0  0  0  0
  -30.4167  -11.4300   19.8924 H   0  0  0  0  0  0
  -29.7666  -11.7714   17.4918 H   0  0  0  0  0  0
  -29.6105  -13.4918   17.7496 H   0  0  0  0  0  0
  -27.8711  -11.2802   18.8844 H   0  0  0  0  0  0
  -27.3597  -12.5537   17.8116 H   0  0  0  0  0  0
  -27.6765  -14.2416   19.5411 H   0  0  0  0  0  0
  -28.7045  -11.9929   21.3421 H   0  0  0  0  0  0
  -28.3921  -13.6073   21.8850 H   0  0  0  0  0  0
  -25.2737   -9.5726   22.4745 H   0  0  0  0  0  0
  -24.0022   -7.4629   22.7445 H   0  0  0  0  0  0
  -21.0817   -8.8737   19.8913 H   0  0  0  0  0  0
  -22.3635  -10.9677   19.6145 H   0  0  0  0  0  0
  -21.2013   -7.6152   23.9711 H   0  0  0  0  0  0
  -21.1472   -6.0523   25.9074 H   0  0  0  0  0  0
  -22.0603   -2.7608   23.2847 H   0  0  0  0  0  0
  -22.4103  -11.9874   22.4785 H   0  0  0  0  0  0
  -21.1061  -13.1182   22.2699 H   0  0  0  0  0  0
  -24.6927  -15.8615   20.5540 H   0  0  0  0  0  0
  -26.2967  -15.6125   20.0825 H   0  0  0  0  0  0
  -26.7129  -32.5463   23.1127 H   0  0  0  0  0  0
  -25.0069  -33.9704   25.0405 H   0  0  0  0  0  0
  -22.6988  -31.2915   21.4107 H   0  0  0  0  0  0
  -23.3764  -35.9600   23.3300 H   0  0  0  0  0  0
  -24.3546  -36.8905   22.2056 H   0  0  0  0  0  0
  -23.7230  -37.6472   23.6672 H   0  0  0  0  0  0
  -26.0570  -31.5569   20.5950 H   0  0  0  0  0  0
  -26.8198  -30.8510   22.0008 H   0  0  0  0  0  0
  -28.0809  -29.0013   21.2384 H   0  0  0  0  0  0
  -25.9909  -25.9712   18.9517 H   0  0  0  0  0  0
  -23.9983  -27.3390   18.9427 H   0  0  0  0  0  0
  -23.7043  -30.5776   19.3902 H   0  0  0  0  0  0
  -22.7431  -29.2193   19.8850 H   0  0  0  0  0  0
  -25.1318  -36.1907   25.0784 H   0  0  0  0  0  0
  -20.9974  -28.2696   24.1364 H   0  0  0  0  0  0
  -20.6076  -26.2022   23.3018 H   0  0  0  0  0  0
  -21.6627  -26.7683   22.0432 H   0  0  0  0  0  0
  -19.6959  -25.6541   21.0814 H   0  0  0  0  0  0
  -19.6542  -27.3462   20.6558 H   0  0  0  0  0  0
  -17.4119  -26.6923   21.4004 H   0  0  0  0  0  0
  -18.0462  -26.0054   22.8828 H   0  0  0  0  0  0
  -19.8242  -30.6891   24.2443 H   0  0  0  0  0  0
  -17.5312  -31.6172   24.5393 H   0  0  0  0  0  0
  -15.5524  -30.3214   23.7330 H   0  0  0  0  0  0
  -15.8681  -28.1138   22.6966 H   0  0  0  0  0  0
  -24.5865  -30.7135   25.7786 H   0  0  0  0  0  0
  -24.8961  -32.2953   26.4868 H   0  0  0  0  0  0
  -25.8024  -30.8940   27.0221 H   0  0  0  0  0  0
  -26.2907  -29.6801   24.1133 H   0  0  0  0  0  0
  -27.3990  -29.7261   25.4672 H   0  0  0  0  0  0
  -27.8812  -30.4333   23.9422 H   0  0  0  0  0  0
  -27.2601  -33.3611   26.2145 H   0  0  0  0  0  0
  -28.3885  -32.6888   25.0402 H   0  0  0  0  0  0
  -28.0657  -31.8415   26.5450 H   0  0  0  0  0  0
  -28.2610  -38.0082   24.7540 H   0  0  0  0  0  0
  -28.1059  -36.2633   24.6281 H   0  0  0  0  0  0
  -27.2300  -37.1452   25.8868 H   0  0  0  0  0  0
  -20.9469  -29.7852   21.6259 H   0  0  0  0  0  0
  -26.0169  -38.2839   24.1421 H   0  0  0  0  0  0
  -30.5946  -19.9639   22.6177 H   0  0  0  0  0  0
  -31.1422  -17.5982   22.5101 H   0  0  0  0  0  0
  -25.3949  -24.2561   20.4119 H   0  0  0  0  0  0
  -25.1640  -23.1275   21.7401 H   0  0  0  0  0  0
  -27.0734  -23.8314   22.8753 H   0  0  0  0  0  0
  -26.7722  -25.3532   22.0693 H   0  0  0  0  0  0
  -26.5487  -22.7019   19.2100 H   0  0  0  0  0  0
  -26.2168  -21.5676   20.4971 H   0  0  0  0  0  0
  -29.1410  -24.1443   21.7436 H   0  0  0  0  0  0
  -26.1888  -19.5076   20.0749 H   0  0  0  0  0  0
  -26.8848  -18.7119   18.6836 H   0  0  0  0  0  0
  -27.2871  -20.3772   18.9375 H   0  0  0  0  0  0
  -29.3899  -21.8881   22.1302 H   0  0  0  0  0  0
  -27.7575  -21.3863   22.3343 H   0  0  0  0  0  0
  -27.7153  -24.8602   19.1149 H   0  0  0  0  0  0
  -29.3822  -24.9306   19.4738 H   0  0  0  0  0  0
  -28.9020  -15.1867   21.4999 H   0  0  0  0  0  0
  -28.7029  -22.4709   19.7897 H   0  0  0  0  0  0
  1 25  1  0  0  0
  1 30  2  0  0  0
  1 84  1  0  0  0
  2  3  1  0  0  0
  2 25  1  0  0  0
  2 87  1  0  0  0
  2 88  1  0  0  0
  3  4  1  0  0  0
  3 89  1  0  0  0
  3 90  1  0  0  0
  4  5  1  0  0  0
  4 91  1  0  0  0
  4 92  1  0  0  0
  5  6  1  0  0  0
  5 26  1  0  0  0
  5 93  1  0  0  0
  6 25  1  0  0  0
  6 94  1  0  0  0
  6 95  1  0  0  0
  7  8  2  0  0  0
  7 26  1  0  0  0
  7 29  1  0  0  0
  8  9  1  0  0  0
  8 22  1  0  0  0
  9 10  1  0  0  0
  9 27  2  0  0  0
 10 11  2  0  0  0
 10 15  1  0  0  0
 11 12  1  0  0  0
 11 96  1  0  0  0
 12 13  2  0  0  0
 12 97  1  0  0  0
 13 14  1  0  0  0
 13 31  1  0  0  0
 14 15  2  0  0  0
 14 98  1  0  0  0
 15 99  1  0  0  0
 16 17  2  0  0  0
 16 21  1  0  0  0
 16 31  1  0  0  0
 17 18  1  0  0  0
 17100  1  0  0  0
 18 19  2  0  0  0
 18101  1  0  0  0
 19 20  1  0  0  0
 19 24  1  0  0  0
 20 21  2  0  0  0
 20102  1  0  0  0
 21 23  1  0  0  0
 22 28  1  0  0  0
 22 32  2  0  0  0
 26 27  1  0  0  0
 28103  1  0  0  0
 28104  1  0  0  0
 29105  1  0  0  0
 29106  1  0  0  0
 33 34  1  0  0  0
 33 66  1  0  0  0
 33 70  2  0  0  0
 34 36  1  0  0  0
 34 59  1  0  0  0
 34107  1  0  0  0
 35 44  2  0  0  0
 35 45  1  0  0  0
 35 68  1  0  0  0
 36 56  1  0  0  0
 36108  1  0  0  0
 37 39  1  0  0  0
 37 47  1  0  0  0
 37 66  1  0  0  0
 37109  1  0  0  0
 38 43  2  0  0  0
 38 46  1  0  0  0
 38 47  1  0  0  0
 39 64  1  0  0  0
 39 67  2  0  0  0
 40 52  1  0  0  0
 40 53  2  0  0  0
 40 58  1  0  0  0
 41110  1  0  0  0
 41111  1  0  0  0
 41112  1  0  0  0
 41 48  1  0  0  0
 42 43  1  0  0  0
 42 66  1  0  0  0
 42113  1  0  0  0
 42114  1  0  0  0
 43 44  1  0  0  0
 44115  1  0  0  0
 45 46  2  0  0  0
 45116  1  0  0  0
 46117  1  0  0  0
 47118  1  0  0  0
 47119  1  0  0  0
 48 56  1  0  0  0
 48 65  1  0  0  0
 48120  1  0  0  0
 49 50  1  0  0  0
 49 53  1  0  0  0
 49 64  1  0  0  0
 49121  1  0  0  0
 50 51  1  0  0  0
 50122  1  0  0  0
 50123  1  0  0  0
 51 52  1  0  0  0
 51124  1  0  0  0
 51125  1  0  0  0
 52126  1  0  0  0
 52127  1  0  0  0
 53 54  1  0  0  0
 54 55  2  0  0  0
 54128  1  0  0  0
 55 57  1  0  0  0
 55129  1  0  0  0
 56 69  2  0  0  0
 57 58  2  0  0  0
 57130  1  0  0  0
 58131  1  0  0  0
 59 60  1  0  0  0
 59 61  1  0  0  0
 59 62  1  0  0  0
 60132  1  0  0  0
 60133  1  0  0  0
 60134  1  0  0  0
 61135  1  0  0  0
 61136  1  0  0  0
 61137  1  0  0  0
 62138  1  0  0  0
 62139  1  0  0  0
 62140  1  0  0  0
 63 65  1  0  0  0
 63141  1  0  0  0
 63142  1  0  0  0
 63143  1  0  0  0
 64144  1  0  0  0
 65145  1  0  0  0
 68 83  1  0  0  0
 71 72  2  0  0  0
 71 73  1  0  0  0
 71146  1  0  0  0
 72 75  1  0  0  0
 72147  1  0  0  0
 73 74  2  0  0  0
 73 82  1  0  0  0
 74 76  1  0  0  0
 74 81  1  0  0  0
 75 76  2  0  0  0
 75 84  1  0  0  0
 76 86  1  0  0  0
 77 78  1  0  0  0
 77 79  1  0  0  0
 77148  1  0  0  0
 77149  1  0  0  0
 78 80  1  0  0  0
 78150  1  0  0  0
 78151  1  0  0  0
 79 85  1  0  0  0
 79152  1  0  0  0
 79153  1  0  0  0
 80 83  1  0  0  0
 80 85  1  0  0  0
 80154  1  0  0  0
 81155  1  0  0  0
 81156  1  0  0  0
 81157  1  0  0  0
 82158  1  0  0  0
 82159  1  0  0  0
 82 85  1  0  0  0
 83160  1  0  0  0
 83161  1  0  0  0
 84162  1  0  0  0
 85163  1  0  0  0
M  CHG  1  85   1
M  ISO  4   1 100  68 101  83 101  84 100
M  END
> <chiral flag>
0

> <version>
0

> <s_m_source_file>
/data/baiqing/PycharmProjects/Reinvent-master-3.2/result/LINK_invent/BTK/process_docking_weight1_custom_product_contain_oxygen_bond_distance_aromatic_linkinvent_7_9_3/rearranged_h_0023.sdf

> <i_m_source_file_index>
84

> <r_mmod_Potential_Energy-OPLS-2005>
132.136093139648

> <r_mmod_Stretch_Energy-OPLS-2005>
93.2378768920898

> <r_mmod_Bend_Energy-OPLS-2005>
207.047256469727

> <r_mmod_Torsional_Energy-OPLS-2005>
311.747222900391

> <r_mmod_Improper_Torsional_Energy-OPLS-2005>
6.87337923049927

> <r_mmod_Van_der_Waal_Energy-OPLS-2005>
145.731521606445

> <r_mmod_Electrostatic_Energy-OPLS-2005>
-251.980331420898

> <r_mmod_Solvation_Energy-OPLS-2005>
-433.784088134766

> <b_mmod_Minimization_Converged-OPLS-2005>
0

> <r_mmod_RMS_Derivative-OPLS-2005>
9.07908916473389

$$$$
84
                    3D
 Structure written by MMmdl.
166176  0  0  1  0            999 V2000
  -30.7349  -14.3952   20.6510 C   0  0  0  0  0  0
  -30.4233  -12.2908   19.3982 C   0  0  0  0  0  0
  -29.4883  -12.5253   18.1954 C   0  0  0  0  0  0
  -28.0093  -12.3905   18.6100 C   0  0  0  0  0  0
  -27.6691  -13.2030   19.8874 C   0  0  2  0  0  0
  -28.7087  -12.9290   20.9964 C   0  0  0  0  0  0
  -25.2606  -13.8154   20.5684 C   0  0  0  0  0  0
  -24.1848  -13.0432   20.9155 C   0  0  0  0  0  0
  -24.6398  -11.6898   20.8727 C   0  0  0  0  0  0
  -23.9068  -10.4284   21.0401 C   0  0  0  0  0  0
  -24.3621   -9.4196   21.9178 C   0  0  0  0  0  0
  -23.6291   -8.2238   22.0755 C   0  0  0  0  0  0
  -22.4273   -8.0279   21.3547 C   0  0  0  0  0  0
  -21.9909   -9.0252   20.4651 C   0  0  0  0  0  0
  -22.7245  -10.2125   20.3048 C   0  0  0  0  0  0
  -21.6852   -6.0731   22.5280 C   0  0  0  0  0  0
  -21.4017   -6.5636   23.8209 C   0  0  0  0  0  0
  -21.3656   -5.6789   24.9172 C   0  0  0  0  0  0
  -21.6046   -4.3054   24.7227 C   0  0  0  0  0  0
  -21.8821   -3.8142   23.4346 C   0  0  0  0  0  0
  -21.9194   -4.6957   22.3400 C   0  0  0  0  0  0
  -22.7870  -13.5236   21.1821 C   0  0  0  0  0  0
  -22.1664   -4.2141   21.0978 F   0  0  0  0  0  0
  -21.5623   -3.4538   25.7736 F   0  0  0  0  0  0
  -30.0476  -13.2376   20.4578 N   0  0  0  0  0  0
  -26.3060  -12.9322   20.3427 N   0  0  0  0  0  0
  -25.9327  -11.6480   20.5787 N   0  0  0  0  0  0
  -22.0522  -12.8219   22.0384 N   0  0  0  0  0  0
  -25.4340  -15.1867   20.4115 N   0  0  0  0  0  0
  -31.7938  -14.6483   20.0680 O   0  0  0  0  0  0
  -21.6643   -6.8875   21.4241 O   0  0  0  0  0  0
  -22.3546  -14.5546   20.6686 O   0  0  0  0  0  0
  -24.6074  -31.8746   23.2118 C   0  0  0  0  0  0
  -25.8998  -32.4853   23.8400 C   0  0  1  0  0  0
  -27.2497  -27.4874   20.0951 C   0  0  0  0  0  0
  -25.5869  -33.8644   24.2342 N   0  0  0  0  0  0
  -23.3921  -30.4960   21.5524 C   0  0  2  0  0  0
  -24.8402  -28.9663   20.1141 C   0  0  0  0  0  0
  -22.7391  -29.4700   22.5047 C   0  0  0  0  0  0
  -18.0284  -28.1386   22.8494 C   0  0  0  0  0  0
  -24.1488  -36.7310   23.2645 C   0  0  0  0  0  0
  -25.9111  -30.8590   21.3535 C   0  0  0  0  0  0
  -25.9939  -29.4945   20.7069 C   0  0  0  0  0  0
  -27.1971  -28.7656   20.6986 C   0  0  0  0  0  0
  -26.0844  -26.9690   19.4946 C   0  0  0  0  0  0
  -24.8794  -27.6990   19.5052 C   0  0  0  0  0  0
  -23.5967  -29.8232   20.1670 C   0  0  0  0  0  0
  -25.4097  -36.3120   24.0367 C   0  0  1  0  0  0
  -20.5862  -28.3640   23.1367 C   0  0  2  0  0  0
  -20.6773  -26.9387   22.5437 C   0  0  0  0  0  0
  -19.5745  -26.6384   21.5231 C   0  0  0  0  0  0
  -18.1922  -26.7930   22.1632 C   0  0  0  0  0  0
  -19.1530  -28.8827   23.2921 C   0  0  0  0  0  0
  -18.9465  -30.1434   23.8915 C   0  0  0  0  0  0
  -17.6479  -30.6585   24.0563 C   0  0  0  0  0  0
  -25.9023  -34.9496   23.5154 C   0  0  0  0  0  0
  -16.5365  -29.9086   23.6337 C   0  0  0  0  0  0
  -16.7275  -28.6522   23.0328 C   0  0  0  0  0  0
  -26.4439  -31.6604   25.0702 C   0  0  0  0  0  0
  -25.3715  -31.3722   26.1461 C   0  0  0  0  0  0
  -27.0271  -30.3070   24.5999 C   0  0  0  0  0  0
  -27.6025  -32.4307   25.7458 C   0  0  0  0  0  0
  -27.5584  -37.1797   24.8470 C   0  0  0  0  0  0
  -21.4133  -29.3021   22.3788 N   0  0  0  0  0  0
  -26.4283  -37.3801   23.9443 N   0  0  0  0  0  0
  -24.6558  -31.0883   22.0995 N   0  0  0  0  0  0
  -23.4204  -28.8290   23.3095 O   0  0  0  0  0  0
  -28.3888  -26.7181   20.0529 O   0  0  0  0  0  0
  -26.5573  -34.8945   22.4704 O   0  0  0  0  0  0
  -23.5292  -32.1494   23.7551 O   0  0  0  0  0  0
  -31.8483  -18.6053   21.8138 C   0  0  0  0  0  0
  -31.6830  -17.2305   21.5601 C   0  0  0  0  0  0
  -29.5045  -18.7854   22.4346 C   0  0  0  0  0  0
  -30.7673  -19.3975   22.2623 C   0  0  0  0  0  0
  -30.4149  -16.6263   21.7255 C   0  0  0  0  0  0
  -29.3328  -17.4126   22.1683 C   0  0  0  0  0  0
  -31.6433  -23.0508   21.8573 C   0  0  0  0  0  0
  -29.4453  -22.6472   23.0477 C   0  0  0  0  0  0
  -29.4880  -24.2858   21.0348 C   0  0  0  0  0  0
  -30.3295  -25.1133   22.7401 C   0  0  0  0  0  0
  -31.5560  -21.5713   21.4510 C   0  0  0  0  0  0
  -30.2463  -21.4516   23.5959 C   0  0  0  0  0  0
  -30.1385  -25.6429   21.3115 C   0  0  0  0  0  0
  -30.2678  -23.6618   22.2109 C   0  0  0  0  0  0
  -29.3477  -26.9280   21.0881 C   0  0  0  0  0  0
  -30.9764  -20.7661   22.5254 N   0  0  0  0  0  0
  -30.1511  -15.2478   21.5059 N   0  0  0  0  0  0
  -28.1144  -16.8398   22.3334 F   0  0  0  0  0  0
  -31.4656  -12.3963   19.0915 H   0  0  0  0  0  0
  -30.3277  -11.2673   19.7633 H   0  0  0  0  0  0
  -29.7169  -11.8192   17.3952 H   0  0  0  0  0  0
  -29.6640  -13.5205   17.7842 H   0  0  0  0  0  0
  -27.8057  -11.3332   18.7797 H   0  0  0  0  0  0
  -27.3615  -12.6974   17.7874 H   0  0  0  0  0  0
  -27.7306  -14.2613   19.6290 H   0  0  0  0  0  0
  -28.6748  -11.8786   21.2890 H   0  0  0  0  0  0
  -28.4598  -13.4787   21.9041 H   0  0  0  0  0  0
  -25.2767   -9.5670   22.4752 H   0  0  0  0  0  0
  -23.9998   -7.4629   22.7468 H   0  0  0  0  0  0
  -21.0840   -8.8777   19.8954 H   0  0  0  0  0  0
  -22.3713  -10.9664   19.6153 H   0  0  0  0  0  0
  -21.2018   -7.6143   23.9712 H   0  0  0  0  0  0
  -21.1474   -6.0518   25.9074 H   0  0  0  0  0  0
  -22.0605   -2.7604   23.2850 H   0  0  0  0  0  0
  -22.4152  -11.9872   22.4744 H   0  0  0  0  0  0
  -21.1147  -13.1247   22.2620 H   0  0  0  0  0  0
  -24.6811  -15.8503   20.5541 H   0  0  0  0  0  0
  -26.3102  -15.6297   20.1649 H   0  0  0  0  0  0
  -26.7077  -32.5605   23.1191 H   0  0  0  0  0  0
  -25.0029  -33.9801   25.0489 H   0  0  0  0  0  0
  -22.6751  -31.3083   21.4144 H   0  0  0  0  0  0
  -23.3753  -35.9639   23.3315 H   0  0  0  0  0  0
  -24.3605  -36.8893   22.2058 H   0  0  0  0  0  0
  -23.7229  -37.6523   23.6632 H   0  0  0  0  0  0
  -26.0052  -31.6266   20.5848 H   0  0  0  0  0  0
  -26.8059  -30.9232   21.9610 H   0  0  0  0  0  0
  -28.0782  -29.1997   21.1487 H   0  0  0  0  0  0
  -26.1108  -25.9929   19.0295 H   0  0  0  0  0  0
  -23.9937  -27.2834   19.0440 H   0  0  0  0  0  0
  -23.6945  -30.5966   19.4045 H   0  0  0  0  0  0
  -22.7223  -29.2390   19.8764 H   0  0  0  0  0  0
  -25.1275  -36.1992   25.0862 H   0  0  0  0  0  0
  -20.9923  -28.3166   24.1502 H   0  0  0  0  0  0
  -20.5703  -26.2241   23.3611 H   0  0  0  0  0  0
  -21.6648  -26.7473   22.1214 H   0  0  0  0  0  0
  -19.6926  -25.6307   21.1236 H   0  0  0  0  0  0
  -19.6686  -27.3219   20.6779 H   0  0  0  0  0  0
  -17.4213  -26.6698   21.4016 H   0  0  0  0  0  0
  -18.0292  -26.0067   22.9019 H   0  0  0  0  0  0
  -19.7954  -30.7234   24.2278 H   0  0  0  0  0  0
  -17.5055  -31.6267   24.5157 H   0  0  0  0  0  0
  -15.5371  -30.3003   23.7647 H   0  0  0  0  0  0
  -15.8681  -28.0850   22.7008 H   0  0  0  0  0  0
  -24.5862  -30.7091   25.7801 H   0  0  0  0  0  0
  -24.8927  -32.2898   26.4903 H   0  0  0  0  0  0
  -25.8065  -30.8894   27.0217 H   0  0  0  0  0  0
  -26.2806  -29.6844   24.1052 H   0  0  0  0  0  0
  -27.4101  -29.7284   25.4409 H   0  0  0  0  0  0
  -27.8605  -30.4441   23.9103 H   0  0  0  0  0  0
  -27.2638  -33.3580   26.2087 H   0  0  0  0  0  0
  -28.3796  -32.6898   25.0257 H   0  0  0  0  0  0
  -28.0723  -31.8394   26.5322 H   0  0  0  0  0  0
  -28.2588  -38.0099   24.7529 H   0  0  0  0  0  0
  -28.1090  -36.2644   24.6271 H   0  0  0  0  0  0
  -27.2331  -37.1413   25.8874 H   0  0  0  0  0  0
  -20.9290  -29.8718   21.6995 H   0  0  0  0  0  0
  -26.0195  -38.2895   24.1415 H   0  0  0  0  0  0
  -32.8280  -19.0414   21.6853 H   0  0  0  0  0  0
  -32.5457  -16.6598   21.2521 H   0  0  0  0  0  0
  -28.6462  -19.3567   22.7529 H   0  0  0  0  0  0
  -32.1171  -23.6018   21.0443 H   0  0  0  0  0  0
  -32.3262  -23.1530   22.7030 H   0  0  0  0  0  0
  -28.9591  -23.1491   23.8858 H   0  0  0  0  0  0
  -28.6240  -22.2548   22.4454 H   0  0  0  0  0  0
  -29.7127  -23.8675   20.0521 H   0  0  0  0  0  0
  -28.4100  -24.3044   21.2082 H   0  0  0  0  0  0
  -29.4891  -25.3682   23.3903 H   0  0  0  0  0  0
  -31.2742  -25.3991   23.2067 H   0  0  0  0  0  0
  -32.5561  -21.2140   21.2036 H   0  0  0  0  0  0
  -30.9486  -21.4689   20.5505 H   0  0  0  0  0  0
  -29.5857  -20.7754   24.1383 H   0  0  0  0  0  0
  -30.9695  -21.8046   24.3328 H   0  0  0  0  0  0
  -31.0983  -25.6884   20.7949 H   0  0  0  0  0  0
  -30.0141  -27.7416   20.7978 H   0  0  0  0  0  0
  -28.8706  -27.2229   22.0233 H   0  0  0  0  0  0
  -29.2727  -14.9262   21.8848 H   0  0  0  0  0  0
  1 25  1  0  0  0
  1 30  2  0  0  0
  1 87  1  0  0  0
  2  3  1  0  0  0
  2 25  1  0  0  0
  2 89  1  0  0  0
  2 90  1  0  0  0
  3  4  1  0  0  0
  3 91  1  0  0  0
  3 92  1  0  0  0
  4  5  1  0  0  0
  4 93  1  0  0  0
  4 94  1  0  0  0
  5  6  1  0  0  0
  5 26  1  0  0  0
  5 95  1  0  0  0
  6 25  1  0  0  0
  6 96  1  0  0  0
  6 97  1  0  0  0
  7  8  2  0  0  0
  7 26  1  0  0  0
  7 29  1  0  0  0
  8  9  1  0  0  0
  8 22  1  0  0  0
  9 10  1  0  0  0
  9 27  2  0  0  0
 10 11  2  0  0  0
 10 15  1  0  0  0
 11 12  1  0  0  0
 11 98  1  0  0  0
 12 13  2  0  0  0
 12 99  1  0  0  0
 13 14  1  0  0  0
 13 31  1  0  0  0
 14 15  2  0  0  0
 14100  1  0  0  0
 15101  1  0  0  0
 16 17  2  0  0  0
 16 21  1  0  0  0
 16 31  1  0  0  0
 17 18  1  0  0  0
 17102  1  0  0  0
 18 19  2  0  0  0
 18103  1  0  0  0
 19 20  1  0  0  0
 19 24  1  0  0  0
 20 21  2  0  0  0
 20104  1  0  0  0
 21 23  1  0  0  0
 22 28  1  0  0  0
 22 32  2  0  0  0
 26 27  1  0  0  0
 28105  1  0  0  0
 28106  1  0  0  0
 29107  1  0  0  0
 29108  1  0  0  0
 33 34  1  0  0  0
 33 66  1  0  0  0
 33 70  2  0  0  0
 34 36  1  0  0  0
 34 59  1  0  0  0
 34109  1  0  0  0
 35 44  2  0  0  0
 35 45  1  0  0  0
 35 68  1  0  0  0
 36 56  1  0  0  0
 36110  1  0  0  0
 37 39  1  0  0  0
 37 47  1  0  0  0
 37 66  1  0  0  0
 37111  1  0  0  0
 38 43  2  0  0  0
 38 46  1  0  0  0
 38 47  1  0  0  0
 39 64  1  0  0  0
 39 67  2  0  0  0
 40 52  1  0  0  0
 40 53  2  0  0  0
 40 58  1  0  0  0
 41112  1  0  0  0
 41113  1  0  0  0
 41114  1  0  0  0
 41 48  1  0  0  0
 42 43  1  0  0  0
 42 66  1  0  0  0
 42115  1  0  0  0
 42116  1  0  0  0
 43 44  1  0  0  0
 44117  1  0  0  0
 45 46  2  0  0  0
 45118  1  0  0  0
 46119  1  0  0  0
 47120  1  0  0  0
 47121  1  0  0  0
 48 56  1  0  0  0
 48 65  1  0  0  0
 48122  1  0  0  0
 49 50  1  0  0  0
 49 53  1  0  0  0
 49 64  1  0  0  0
 49123  1  0  0  0
 50 51  1  0  0  0
 50124  1  0  0  0
 50125  1  0  0  0
 51 52  1  0  0  0
 51126  1  0  0  0
 51127  1  0  0  0
 52128  1  0  0  0
 52129  1  0  0  0
 53 54  1  0  0  0
 54 55  2  0  0  0
 54130  1  0  0  0
 55 57  1  0  0  0
 55131  1  0  0  0
 56 69  2  0  0  0
 57 58  2  0  0  0
 57132  1  0  0  0
 58133  1  0  0  0
 59 60  1  0  0  0
 59 61  1  0  0  0
 59 62  1  0  0  0
 60134  1  0  0  0
 60135  1  0  0  0
 60136  1  0  0  0
 61137  1  0  0  0
 61138  1  0  0  0
 61139  1  0  0  0
 62140  1  0  0  0
 62141  1  0  0  0
 62142  1  0  0  0
 63 65  1  0  0  0
 63143  1  0  0  0
 63144  1  0  0  0
 63145  1  0  0  0
 64146  1  0  0  0
 65147  1  0  0  0
 68 85  1  0  0  0
 71 72  2  0  0  0
 71 74  1  0  0  0
 71148  1  0  0  0
 72 75  1  0  0  0
 72149  1  0  0  0
 73 74  2  0  0  0
 73 76  1  0  0  0
 73150  1  0  0  0
 74 86  1  0  0  0
 75 76  2  0  0  0
 75 87  1  0  0  0
 76 88  1  0  0  0
 77 81  1  0  0  0
 77151  1  0  0  0
 77152  1  0  0  0
 77 84  1  0  0  0
 78 82  1  0  0  0
 78 84  1  0  0  0
 78153  1  0  0  0
 78154  1  0  0  0
 79 83  1  0  0  0
 79 84  1  0  0  0
 79155  1  0  0  0
 79156  1  0  0  0
 80 83  1  0  0  0
 80 84  1  0  0  0
 80157  1  0  0  0
 80158  1  0  0  0
 81 86  1  0  0  0
 81159  1  0  0  0
 81160  1  0  0  0
 82 86  1  0  0  0
 82161  1  0  0  0
 82162  1  0  0  0
 83 85  1  0  0  0
 83163  1  0  0  0
 85164  1  0  0  0
 85165  1  0  0  0
 87166  1  0  0  0
M  ISO  4   1 100  68 101  85 101  87 100
M  END
> <chiral flag>
0

> <version>
0

> <s_m_source_file>
/data/baiqing/PycharmProjects/Reinvent-master-3.2/result/LINK_invent/BTK/process_docking_weight1_custom_product_contain_oxygen_bond_distance_aromatic_linkinvent_7_9_3/rearranged_h_0023.sdf

> <i_m_source_file_index>
85

> <r_mmod_Potential_Energy-OPLS-2005>
43.3069953918457

> <r_mmod_Stretch_Energy-OPLS-2005>
34.8950805664062

> <r_mmod_Bend_Energy-OPLS-2005>
127.981666564941

> <r_mmod_Torsional_Energy-OPLS-2005>
300.644134521484

> <r_mmod_Improper_Torsional_Energy-OPLS-2005>
3.46405005455017

> <r_mmod_Van_der_Waal_Energy-OPLS-2005>
177.261764526367

> <r_mmod_Electrostatic_Energy-OPLS-2005>
-400.740325927734

> <r_mmod_Solvation_Energy-OPLS-2005>
-206.468215942383

> <b_mmod_Minimization_Converged-OPLS-2005>
0

> <r_mmod_RMS_Derivative-OPLS-2005>
2.42155027389526

$$$$
85
                    3D
 Structure written by MMmdl.
158167  0  0  1  0            999 V2000
  -30.6383  -14.6267   20.4946 C   0  0  0  0  0  0
  -30.4388  -12.3874   19.4460 C   0  0  0  0  0  0
  -29.5023  -12.5127   18.2227 C   0  0  0  0  0  0
  -28.0288  -12.3503   18.6384 C   0  0  0  0  0  0
  -27.6567  -13.2191   19.8647 C   0  0  2  0  0  0
  -28.7031  -13.0676   20.9919 C   0  0  0  0  0  0
  -25.2566  -13.8161   20.5708 C   0  0  0  0  0  0
  -24.1823  -13.0442   20.9205 C   0  0  0  0  0  0
  -24.6390  -11.6929   20.8719 C   0  0  0  0  0  0
  -23.9083  -10.4290   21.0385 C   0  0  0  0  0  0
  -24.3620   -9.4216   21.9190 C   0  0  0  0  0  0
  -23.6281   -8.2252   22.0741 C   0  0  0  0  0  0
  -22.4248   -8.0283   21.3553 C   0  0  0  0  0  0
  -21.9897   -9.0260   20.4660 C   0  0  0  0  0  0
  -22.7236  -10.2132   20.3075 C   0  0  0  0  0  0
  -21.6867   -6.0710   22.5278 C   0  0  0  0  0  0
  -21.3999   -6.5605   23.8207 C   0  0  0  0  0  0
  -21.3671   -5.6769   24.9193 C   0  0  0  0  0  0
  -21.6052   -4.3032   24.7233 C   0  0  0  0  0  0
  -21.8817   -3.8128   23.4360 C   0  0  0  0  0  0
  -21.9192   -4.6946   22.3411 C   0  0  0  0  0  0
  -22.7835  -13.5265   21.1844 C   0  0  0  0  0  0
  -22.1682   -4.2135   21.0992 F   0  0  0  0  0  0
  -21.5660   -3.4516   25.7752 F   0  0  0  0  0  0
  -30.0276  -13.4018   20.4385 N   0  0  0  0  0  0
  -26.3007  -12.9365   20.3332 N   0  0  0  0  0  0
  -25.9318  -11.6536   20.5727 N   0  0  0  0  0  0
  -22.0444  -12.8298   22.0400 N   0  0  0  0  0  0
  -25.4290  -15.1857   20.4157 N   0  0  0  0  0  0
  -31.7786  -14.8009   20.0531 O   0  0  0  0  0  0
  -21.6657   -6.8851   21.4230 O   0  0  0  0  0  0
  -22.3539  -14.5571   20.6702 O   0  0  0  0  0  0
  -24.6274  -31.8597   23.2032 C   0  0  0  0  0  0
  -25.9145  -32.4769   23.8340 C   0  0  1  0  0  0
  -27.2053  -27.2947   20.1083 C   0  0  0  0  0  0
  -25.5952  -33.8571   24.2271 N   0  0  0  0  0  0
  -23.4200  -30.4851   21.5449 C   0  0  2  0  0  0
  -24.8666  -28.9376   20.1164 C   0  0  0  0  0  0
  -22.7470  -29.4620   22.4903 C   0  0  0  0  0  0
  -18.0304  -28.1361   22.8479 C   0  0  0  0  0  0
  -24.1504  -36.7279   23.2617 C   0  0  0  0  0  0
  -25.9670  -30.7746   21.3874 C   0  0  0  0  0  0
  -26.0369  -29.3994   20.7327 C   0  0  0  0  0  0
  -27.2135  -28.5851   20.7289 C   0  0  0  0  0  0
  -26.0256  -26.9112   19.4469 C   0  0  0  0  0  0
  -24.8632  -27.6963   19.4639 C   0  0  0  0  0  0
  -23.6380  -29.8227   20.1609 C   0  0  0  0  0  0
  -25.4122  -36.3079   24.0328 C   0  0  1  0  0  0
  -20.5895  -28.3666   23.1274 C   0  0  2  0  0  0
  -20.6796  -26.9371   22.5416 C   0  0  0  0  0  0
  -19.5768  -26.6323   21.5215 C   0  0  0  0  0  0
  -18.1946  -26.7887   22.1614 C   0  0  0  0  0  0
  -19.1554  -28.8828   23.2876 C   0  0  0  0  0  0
  -18.9457  -30.1438   23.8878 C   0  0  0  0  0  0
  -17.6452  -30.6559   24.0571 C   0  0  0  0  0  0
  -25.9062  -34.9453   23.5106 C   0  0  0  0  0  0
  -16.5350  -29.9057   23.6319 C   0  0  0  0  0  0
  -16.7291  -28.6476   23.0337 C   0  0  0  0  0  0
  -26.4511  -31.6567   25.0714 C   0  0  0  0  0  0
  -25.3737  -31.3768   26.1441 C   0  0  0  0  0  0
  -27.0282  -30.2943   24.6211 C   0  0  0  0  0  0
  -27.6082  -32.4253   25.7481 C   0  0  0  0  0  0
  -27.5597  -37.1791   24.8471 C   0  0  0  0  0  0
  -21.4180  -29.3046   22.3677 N   0  0  0  0  0  0
  -26.4301  -37.3772   23.9419 N   0  0  0  0  0  0
  -24.6897  -31.0581   22.0998 N   0  0  0  0  0  0
  -23.4214  -28.8152   23.2958 O   0  0  0  0  0  0
  -28.2939  -26.4092   20.0624 O   0  0  0  0  0  0
  -26.5608  -34.8926   22.4666 O   0  0  0  0  0  0
  -23.5414  -32.1415   23.7326 O   0  0  0  0  0  0
  -29.2571  -19.4017   21.3232 C   0  0  0  0  0  0
  -29.5466  -18.0410   21.6411 C   0  0  0  0  0  0
  -29.5710  -18.8928   18.9947 C   0  0  0  0  0  0
  -29.2220  -19.8729   19.9797 C   0  0  0  0  0  0
  -29.8297  -17.0646   20.6489 C   0  0  0  0  0  0
  -29.8560  -17.5292   19.3066 C   0  0  0  0  0  0
  -28.8580  -22.3913   20.3506 C   0  0  0  0  0  0
  -26.7735  -22.1715   18.3395 C   0  0  0  0  0  0
  -27.0605  -23.5880   18.8411 C   0  0  0  0  0  0
  -28.0462  -21.3267   18.2947 C   0  0  0  0  0  0
  -27.8588  -23.6268   20.1604 C   0  0  2  0  0  0
  -28.2015  -25.0960   20.7725 C   0  0  0  0  0  0
  -28.7225  -21.2232   19.6071 N   0  0  0  0  0  0
  -29.8978  -15.6510   21.0101 N   0  0  0  0  0  0
  -29.7210  -22.4859   21.2281 O   0  0  0  0  0  0
  -30.0808  -16.6564   18.2934 F   0  0  0  0  0  0
  -31.4759  -12.5077   19.1312 H   0  0  0  0  0  0
  -30.3791  -11.3890   19.8833 H   0  0  0  0  0  0
  -29.7564  -11.7714   17.4654 H   0  0  0  0  0  0
  -29.6409  -13.4854   17.7506 H   0  0  0  0  0  0
  -27.8583  -11.2972   18.8687 H   0  0  0  0  0  0
  -27.3765  -12.5915   17.7994 H   0  0  0  0  0  0
  -27.6803  -14.2519   19.5179 H   0  0  0  0  0  0
  -28.7000  -12.0451   21.3711 H   0  0  0  0  0  0
  -28.4358  -13.6994   21.8403 H   0  0  0  0  0  0
  -25.2729   -9.5721   22.4825 H   0  0  0  0  0  0
  -23.9963   -7.4641   22.7457 H   0  0  0  0  0  0
  -21.0821   -8.8814   19.8977 H   0  0  0  0  0  0
  -22.3656  -10.9699   19.6232 H   0  0  0  0  0  0
  -21.1961   -7.6105   23.9702 H   0  0  0  0  0  0
  -21.1511   -6.0508   25.9097 H   0  0  0  0  0  0
  -22.0579   -2.7591   23.2887 H   0  0  0  0  0  0
  -22.4017  -11.9978   22.4868 H   0  0  0  0  0  0
  -21.1102  -13.1445   22.2592 H   0  0  0  0  0  0
  -24.6688  -15.8448   20.5285 H   0  0  0  0  0  0
  -26.2878  -15.6166   20.0968 H   0  0  0  0  0  0
  -26.7201  -32.5449   23.1060 H   0  0  0  0  0  0
  -25.0176  -33.9716   25.0458 H   0  0  0  0  0  0
  -22.7127  -31.3048   21.4012 H   0  0  0  0  0  0
  -23.3759  -35.9619   23.3291 H   0  0  0  0  0  0
  -24.3595  -36.8871   22.2028 H   0  0  0  0  0  0
  -23.7256  -37.6486   23.6619 H   0  0  0  0  0  0
  -26.1142  -31.5344   20.6189 H   0  0  0  0  0  0
  -26.8393  -30.8135   22.0246 H   0  0  0  0  0  0
  -28.1144  -28.9311   21.2152 H   0  0  0  0  0  0
  -26.0016  -26.0081   18.8756 H   0  0  0  0  0  0
  -23.9814  -27.3449   18.9505 H   0  0  0  0  0  0
  -23.7744  -30.6009   19.4094 H   0  0  0  0  0  0
  -22.7544  -29.2619   19.8466 H   0  0  0  0  0  0
  -25.1288  -36.1929   25.0810 H   0  0  0  0  0  0
  -20.9985  -28.3282   24.1399 H   0  0  0  0  0  0
  -20.5653  -26.2267   23.3626 H   0  0  0  0  0  0
  -21.6682  -26.7404   22.1246 H   0  0  0  0  0  0
  -19.6921  -25.6199   21.1310 H   0  0  0  0  0  0
  -19.6719  -27.3075   20.6702 H   0  0  0  0  0  0
  -17.4205  -26.6607   21.4048 H   0  0  0  0  0  0
  -18.0400  -26.0017   22.9005 H   0  0  0  0  0  0
  -19.7953  -30.7277   24.2201 H   0  0  0  0  0  0
  -17.5014  -31.6234   24.5174 H   0  0  0  0  0  0
  -15.5345  -30.2958   23.7597 H   0  0  0  0  0  0
  -15.8705  -28.0794   22.7044 H   0  0  0  0  0  0
  -24.5970  -30.7018   25.7851 H   0  0  0  0  0  0
  -24.8856  -32.2945   26.4744 H   0  0  0  0  0  0
  -25.8065  -30.9102   27.0308 H   0  0  0  0  0  0
  -26.2852  -29.6724   24.1202 H   0  0  0  0  0  0
  -27.3869  -29.7181   25.4760 H   0  0  0  0  0  0
  -27.8812  -30.4126   23.9504 H   0  0  0  0  0  0
  -27.2723  -33.3557   26.2089 H   0  0  0  0  0  0
  -28.3894  -32.6791   25.0294 H   0  0  0  0  0  0
  -28.0764  -31.8355   26.5378 H   0  0  0  0  0  0
  -28.2614  -38.0083   24.7489 H   0  0  0  0  0  0
  -28.1068  -36.2609   24.6296 H   0  0  0  0  0  0
  -27.2329  -37.1479   25.8876 H   0  0  0  0  0  0
  -20.9294  -29.8802   21.6958 H   0  0  0  0  0  0
  -26.0183  -38.2853   24.1382 H   0  0  0  0  0  0
  -28.9968  -20.0680   22.1361 H   0  0  0  0  0  0
  -29.5087  -17.7385   22.6801 H   0  0  0  0  0  0
  -29.5829  -19.1617   17.9479 H   0  0  0  0  0  0
  -26.3112  -22.2121   17.3527 H   0  0  0  0  0  0
  -26.0439  -21.6830   18.9919 H   0  0  0  0  0  0
  -26.0768  -24.0179   19.0132 H   0  0  0  0  0  0
  -27.5522  -24.1831   18.0722 H   0  0  0  0  0  0
  -28.7421  -21.7361   17.5572 H   0  0  0  0  0  0
  -27.7440  -20.3488   17.9182 H   0  0  0  0  0  0
  -27.1121  -23.2829   20.8789 H   0  0  0  0  0  0
  -29.1659  -25.0152   21.2758 H   0  0  0  0  0  0
  -27.5091  -25.2506   21.6025 H   0  0  0  0  0  0
  -29.1219  -15.3359   21.5705 H   0  0  0  0  0  0
  1 25  1  0  0  0
  1 30  2  0  0  0
  1 84  1  0  0  0
  2  3  1  0  0  0
  2 25  1  0  0  0
  2 87  1  0  0  0
  2 88  1  0  0  0
  3  4  1  0  0  0
  3 89  1  0  0  0
  3 90  1  0  0  0
  4  5  1  0  0  0
  4 91  1  0  0  0
  4 92  1  0  0  0
  5  6  1  0  0  0
  5 26  1  0  0  0
  5 93  1  0  0  0
  6 25  1  0  0  0
  6 94  1  0  0  0
  6 95  1  0  0  0
  7  8  2  0  0  0
  7 26  1  0  0  0
  7 29  1  0  0  0
  8  9  1  0  0  0
  8 22  1  0  0  0
  9 10  1  0  0  0
  9 27  2  0  0  0
 10 11  2  0  0  0
 10 15  1  0  0  0
 11 12  1  0  0  0
 11 96  1  0  0  0
 12 13  2  0  0  0
 12 97  1  0  0  0
 13 14  1  0  0  0
 13 31  1  0  0  0
 14 15  2  0  0  0
 14 98  1  0  0  0
 15 99  1  0  0  0
 16 17  2  0  0  0
 16 21  1  0  0  0
 16 31  1  0  0  0
 17 18  1  0  0  0
 17100  1  0  0  0
 18 19  2  0  0  0
 18101  1  0  0  0
 19 20  1  0  0  0
 19 24  1  0  0  0
 20 21  2  0  0  0
 20102  1  0  0  0
 21 23  1  0  0  0
 22 28  1  0  0  0
 22 32  2  0  0  0
 26 27  1  0  0  0
 28103  1  0  0  0
 28104  1  0  0  0
 29105  1  0  0  0
 29106  1  0  0  0
 33 34  1  0  0  0
 33 66  1  0  0  0
 33 70  2  0  0  0
 34 36  1  0  0  0
 34 59  1  0  0  0
 34107  1  0  0  0
 35 44  2  0  0  0
 35 45  1  0  0  0
 35 68  1  0  0  0
 36 56  1  0  0  0
 36108  1  0  0  0
 37 39  1  0  0  0
 37 47  1  0  0  0
 37 66  1  0  0  0
 37109  1  0  0  0
 38 43  2  0  0  0
 38 46  1  0  0  0
 38 47  1  0  0  0
 39 64  1  0  0  0
 39 67  2  0  0  0
 40 52  1  0  0  0
 40 53  2  0  0  0
 40 58  1  0  0  0
 41110  1  0  0  0
 41111  1  0  0  0
 41112  1  0  0  0
 41 48  1  0  0  0
 42 43  1  0  0  0
 42 66  1  0  0  0
 42113  1  0  0  0
 42114  1  0  0  0
 43 44  1  0  0  0
 44115  1  0  0  0
 45 46  2  0  0  0
 45116  1  0  0  0
 46117  1  0  0  0
 47118  1  0  0  0
 47119  1  0  0  0
 48 56  1  0  0  0
 48 65  1  0  0  0
 48120  1  0  0  0
 49 50  1  0  0  0
 49 53  1  0  0  0
 49 64  1  0  0  0
 49121  1  0  0  0
 50 51  1  0  0  0
 50122  1  0  0  0
 50123  1  0  0  0
 51 52  1  0  0  0
 51124  1  0  0  0
 51125  1  0  0  0
 52126  1  0  0  0
 52127  1  0  0  0
 53 54  1  0  0  0
 54 55  2  0  0  0
 54128  1  0  0  0
 55 57  1  0  0  0
 55129  1  0  0  0
 56 69  2  0  0  0
 57 58  2  0  0  0
 57130  1  0  0  0
 58131  1  0  0  0
 59 60  1  0  0  0
 59 61  1  0  0  0
 59 62  1  0  0  0
 60132  1  0  0  0
 60133  1  0  0  0
 60134  1  0  0  0
 61135  1  0  0  0
 61136  1  0  0  0
 61137  1  0  0  0
 62138  1  0  0  0
 62139  1  0  0  0
 62140  1  0  0  0
 63 65  1  0  0  0
 63141  1  0  0  0
 63142  1  0  0  0
 63143  1  0  0  0
 64144  1  0  0  0
 65145  1  0  0  0
 68 82  1  0  0  0
 71 72  2  0  0  0
 71 74  1  0  0  0
 71146  1  0  0  0
 72 75  1  0  0  0
 72147  1  0  0  0
 73 74  2  0  0  0
 73 76  1  0  0  0
 73148  1  0  0  0
 74 83  1  0  0  0
 75 76  2  0  0  0
 75 84  1  0  0  0
 76 86  1  0  0  0
 77 81  1  0  0  0
 77 83  1  0  0  0
 77 85  2  0  0  0
 78 79  1  0  0  0
 78 80  1  0  0  0
 78149  1  0  0  0
 78150  1  0  0  0
 79 81  1  0  0  0
 79151  1  0  0  0
 79152  1  0  0  0
 80 83  1  0  0  0
 80153  1  0  0  0
 80154  1  0  0  0
 81 82  1  0  0  0
 81155  1  0  0  0
 82156  1  0  0  0
 82157  1  0  0  0
 84158  1  0  0  0
M  ISO  4   1 100  68 101  82 101  84 100
M  END
> <chiral flag>
0

> <version>
0

> <s_m_source_file>
/data/baiqing/PycharmProjects/Reinvent-master-3.2/result/LINK_invent/BTK/process_docking_weight1_custom_product_contain_oxygen_bond_distance_aromatic_linkinvent_7_9_3/rearranged_h_0023.sdf

> <i_m_source_file_index>
86

> <r_mmod_Potential_Energy-OPLS-2005>
230.10237121582

> <r_mmod_Stretch_Energy-OPLS-2005>
100.41813659668

> <r_mmod_Bend_Energy-OPLS-2005>
179.377517700195

> <r_mmod_Torsional_Energy-OPLS-2005>
321.13427734375

> <r_mmod_Improper_Torsional_Energy-OPLS-2005>
4.94948530197144

> <r_mmod_Van_der_Waal_Energy-OPLS-2005>
153.889846801758

> <r_mmod_Electrostatic_Energy-OPLS-2005>
-357.914794921875

> <r_mmod_Solvation_Energy-OPLS-2005>
-224.07112121582

> <b_mmod_Minimization_Converged-OPLS-2005>
0

> <r_mmod_RMS_Derivative-OPLS-2005>
5.46569585800171

$$$$
86
                    3D
 Structure written by MMmdl.
162170  0  0  1  0            999 V2000
  -30.6529  -14.5837   20.4947 C   0  0  0  0  0  0
  -30.3999  -12.3399   19.4717 C   0  0  0  0  0  0
  -29.4936  -12.4939   18.2331 C   0  0  0  0  0  0
  -28.0163  -12.3457   18.6420 C   0  0  0  0  0  0
  -27.6426  -13.2247   19.8649 C   0  0  2  0  0  0
  -28.6796  -13.0931   21.0035 C   0  0  0  0  0  0
  -25.2496  -13.8182   20.5695 C   0  0  0  0  0  0
  -24.1807  -13.0462   20.9218 C   0  0  0  0  0  0
  -24.6370  -11.6912   20.8746 C   0  0  0  0  0  0
  -23.9038  -10.4293   21.0389 C   0  0  0  0  0  0
  -24.3576   -9.4196   21.9173 C   0  0  0  0  0  0
  -23.6277   -8.2221   22.0729 C   0  0  0  0  0  0
  -22.4262   -8.0242   21.3531 C   0  0  0  0  0  0
  -21.9896   -9.0210   20.4611 C   0  0  0  0  0  0
  -22.7209  -10.2096   20.3027 C   0  0  0  0  0  0
  -21.6852   -6.0674   22.5264 C   0  0  0  0  0  0
  -21.4020   -6.5600   23.8176 C   0  0  0  0  0  0
  -21.3702   -5.6772   24.9158 C   0  0  0  0  0  0
  -21.6047   -4.3026   24.7221 C   0  0  0  0  0  0
  -21.8821   -3.8100   23.4352 C   0  0  0  0  0  0
  -21.9194   -4.6909   22.3394 C   0  0  0  0  0  0
  -22.7820  -13.5203   21.1872 C   0  0  0  0  0  0
  -22.1651   -4.2080   21.0983 F   0  0  0  0  0  0
  -21.5655   -3.4522   25.7754 F   0  0  0  0  0  0
  -30.0049  -13.3815   20.4402 N   0  0  0  0  0  0
  -26.2919  -12.9392   20.3344 N   0  0  0  0  0  0
  -25.9296  -11.6537   20.5795 N   0  0  0  0  0  0
  -22.0474  -12.8203   22.0400 N   0  0  0  0  0  0
  -25.4288  -15.1896   20.4050 N   0  0  0  0  0  0
  -31.8332  -14.6851   20.1529 O   0  0  0  0  0  0
  -21.6656   -6.8826   21.4221 O   0  0  0  0  0  0
  -22.3524  -14.5538   20.6720 O   0  0  0  0  0  0
  -24.6122  -31.8691   23.2116 C   0  0  0  0  0  0
  -25.9025  -32.4781   23.8415 C   0  0  1  0  0  0
  -27.2046  -27.3924   20.1059 C   0  0  0  0  0  0
  -25.5881  -33.8575   24.2342 N   0  0  0  0  0  0
  -23.3973  -30.4991   21.5513 C   0  0  2  0  0  0
  -24.8390  -28.9708   20.1001 C   0  0  0  0  0  0
  -22.7388  -29.4677   22.4971 C   0  0  0  0  0  0
  -18.0249  -28.1367   22.8548 C   0  0  0  0  0  0
  -24.1457  -36.7223   23.2669 C   0  0  0  0  0  0
  -25.9316  -30.8220   21.3746 C   0  0  0  0  0  0
  -26.0023  -29.4606   20.7054 C   0  0  0  0  0  0
  -27.1825  -28.6779   20.7090 C   0  0  0  0  0  0
  -26.0328  -26.9532   19.4478 C   0  0  0  0  0  0
  -24.8503  -27.7172   19.4702 C   0  0  0  0  0  0
  -23.6036  -29.8434   20.1612 C   0  0  0  0  0  0
  -25.4084  -36.3071   24.0367 C   0  0  1  0  0  0
  -20.5865  -28.3644   23.1310 C   0  0  2  0  0  0
  -20.6751  -26.9386   22.5431 C   0  0  0  0  0  0
  -19.5703  -26.6389   21.5243 C   0  0  0  0  0  0
  -18.1868  -26.7924   22.1644 C   0  0  0  0  0  0
  -19.1519  -28.8818   23.2928 C   0  0  0  0  0  0
  -18.9487  -30.1440   23.8914 C   0  0  0  0  0  0
  -17.6499  -30.6607   24.0555 C   0  0  0  0  0  0
  -25.9038  -34.9440   23.5160 C   0  0  0  0  0  0
  -16.5371  -29.9122   23.6341 C   0  0  0  0  0  0
  -16.7250  -28.6499   23.0425 C   0  0  0  0  0  0
  -26.4497  -31.6542   25.0725 C   0  0  0  0  0  0
  -25.3832  -31.3581   26.1537 C   0  0  0  0  0  0
  -27.0373  -30.2977   24.6126 C   0  0  0  0  0  0
  -27.6045  -32.4317   25.7458 C   0  0  0  0  0  0
  -27.5534  -37.1750   24.8500 C   0  0  0  0  0  0
  -21.4126  -29.2974   22.3682 N   0  0  0  0  0  0
  -26.4231  -37.3796   23.9472 N   0  0  0  0  0  0
  -24.6640  -31.0822   22.0991 N   0  0  0  0  0  0
  -23.4173  -28.8241   23.3029 O   0  0  0  0  0  0
  -28.3419  -26.6047   20.2314 O   0  0  0  0  0  0
  -26.5655  -34.8890   22.4744 O   0  0  0  0  0  0
  -23.5312  -32.1450   23.7497 O   0  0  0  0  0  0
  -31.0152  -17.4502   19.3797 C   0  0  0  0  0  0
  -31.0983  -18.7702   18.8948 C   0  0  0  0  0  0
  -29.1498  -18.1059   20.8021 C   0  0  0  0  0  0
  -29.2249  -19.4556   20.3128 C   0  0  0  0  0  0
  -30.0332  -17.0707   20.3331 C   0  0  0  0  0  0
  -30.1942  -19.7495   19.3295 C   0  0  0  0  0  0
  -27.3297  -23.2840   18.5694 C   0  0  0  0  0  0
  -30.0287  -22.0474   21.7927 C   0  0  0  0  0  0
  -28.2763  -20.6051   20.7732 C   0  0  0  0  0  0
  -27.9426  -23.1291   21.0795 C   0  0  0  0  0  0
  -28.4921  -25.3314   19.5484 C   0  0  0  0  0  0
  -27.5882  -24.0753   19.8696 C   0  0  2  0  0  0
  -29.8827  -15.6829   20.7745 N   0  0  0  0  0  0
  -28.8952  -21.9841   20.8430 N   0  3  1  0  0  0
  -30.2658  -20.9990   18.8081 F   0  0  0  0  0  0
  -31.4508  -12.3996   19.1849 H   0  0  0  0  0  0
  -30.2662  -11.3525   19.9157 H   0  0  0  0  0  0
  -29.7558  -11.7435   17.4831 H   0  0  0  0  0  0
  -29.6590  -13.4673   17.7690 H   0  0  0  0  0  0
  -27.8555  -11.2950   18.8884 H   0  0  0  0  0  0
  -27.3622  -12.5620   17.7964 H   0  0  0  0  0  0
  -27.6579  -14.2573   19.5156 H   0  0  0  0  0  0
  -28.6618  -12.0912   21.4368 H   0  0  0  0  0  0
  -28.4309  -13.7781   21.8163 H   0  0  0  0  0  0
  -25.2688   -9.5705   22.4790 H   0  0  0  0  0  0
  -23.9955   -7.4637   22.7476 H   0  0  0  0  0  0
  -21.0822   -8.8721   19.8940 H   0  0  0  0  0  0
  -22.3641  -10.9626   19.6142 H   0  0  0  0  0  0
  -21.2003   -7.6106   23.9660 H   0  0  0  0  0  0
  -21.1551   -6.0513   25.9066 H   0  0  0  0  0  0
  -22.0573   -2.7558   23.2880 H   0  0  0  0  0  0
  -22.4055  -11.9843   22.4789 H   0  0  0  0  0  0
  -21.1089  -13.1217   22.2571 H   0  0  0  0  0  0
  -24.6697  -15.8560   20.4932 H   0  0  0  0  0  0
  -26.2782  -15.6074   20.0521 H   0  0  0  0  0  0
  -26.7029  -32.5498   23.1118 H   0  0  0  0  0  0
  -24.9926  -33.9717   25.0418 H   0  0  0  0  0  0
  -22.6807  -31.3129   21.4214 H   0  0  0  0  0  0
  -23.3735  -35.9546   23.3361 H   0  0  0  0  0  0
  -24.3542  -36.8795   22.2074 H   0  0  0  0  0  0
  -23.7160  -37.6403   23.6669 H   0  0  0  0  0  0
  -26.0853  -31.6067   20.6342 H   0  0  0  0  0  0
  -26.7980  -30.8359   22.0258 H   0  0  0  0  0  0
  -28.0720  -29.0602   21.1892 H   0  0  0  0  0  0
  -25.9942  -26.0138   18.9217 H   0  0  0  0  0  0
  -23.9525  -27.3444   18.9951 H   0  0  0  0  0  0
  -23.7021  -30.6260   19.4089 H   0  0  0  0  0  0
  -22.7198  -29.2762   19.8659 H   0  0  0  0  0  0
  -25.1241  -36.1928   25.0854 H   0  0  0  0  0  0
  -20.9952  -28.3230   24.1440 H   0  0  0  0  0  0
  -20.5670  -26.2266   23.3652 H   0  0  0  0  0  0
  -21.6612  -26.7462   22.1202 H   0  0  0  0  0  0
  -19.6867  -25.6329   21.1194 H   0  0  0  0  0  0
  -19.6597  -27.3263   20.6823 H   0  0  0  0  0  0
  -17.4181  -26.6744   21.3993 H   0  0  0  0  0  0
  -18.0196  -26.0045   22.8988 H   0  0  0  0  0  0
  -19.7983  -30.7243   24.2246 H   0  0  0  0  0  0
  -17.5087  -31.6294   24.5160 H   0  0  0  0  0  0
  -15.5374  -30.3061   23.7663 H   0  0  0  0  0  0
  -15.8636  -28.0805   22.7205 H   0  0  0  0  0  0
  -24.6074  -30.6801   25.7965 H   0  0  0  0  0  0
  -24.8980  -32.2703   26.5017 H   0  0  0  0  0  0
  -25.8348  -30.8823   27.0274 H   0  0  0  0  0  0
  -26.2891  -29.6606   24.1401 H   0  0  0  0  0  0
  -27.4348  -29.7307   25.4559 H   0  0  0  0  0  0
  -27.8649  -30.4225   23.9143 H   0  0  0  0  0  0
  -27.2617  -33.3657   26.1920 H   0  0  0  0  0  0
  -28.3907  -32.6805   25.0314 H   0  0  0  0  0  0
  -28.0684  -31.8560   26.5489 H   0  0  0  0  0  0
  -28.2616  -37.9994   24.7572 H   0  0  0  0  0  0
  -28.0948  -36.2535   24.6307 H   0  0  0  0  0  0
  -27.2267  -37.1381   25.8909 H   0  0  0  0  0  0
  -20.9299  -29.8598   21.6828 H   0  0  0  0  0  0
  -26.0086  -38.2834   24.1598 H   0  0  0  0  0  0
  -31.7193  -16.7468   18.9645 H   0  0  0  0  0  0
  -31.8556  -19.0367   18.1679 H   0  0  0  0  0  0
  -28.3926  -17.8720   21.5396 H   0  0  0  0  0  0
  -28.2572  -22.8865   18.1548 H   0  0  0  0  0  0
  -26.8898  -23.9208   17.7985 H   0  0  0  0  0  0
  -26.6345  -22.4582   18.7190 H   0  0  0  0  0  0
  -29.6816  -21.9715   22.8263 H   0  0  0  0  0  0
  -30.5471  -22.9993   21.6657 H   0  0  0  0  0  0
  -30.7516  -21.2518   21.6069 H   0  0  0  0  0  0
  -27.8212  -20.3486   21.7305 H   0  0  0  0  0  0
  -27.4491  -20.6481   20.0638 H   0  0  0  0  0  0
  -27.0055  -22.6981   21.4383 H   0  0  0  0  0  0
  -28.2826  -23.7370   21.9219 H   0  0  0  0  0  0
  -28.4061  -25.5753   18.4875 H   0  0  0  0  0  0
  -29.5313  -25.0297   19.6788 H   0  0  0  0  0  0
  -26.6173  -24.4692   20.1598 H   0  0  0  0  0  0
  -28.9840  -15.4496   21.1700 H   0  0  0  0  0  0
  -29.3109  -22.1130   19.9307 H   0  0  0  0  0  0
  1 25  1  0  0  0
  1 30  2  0  0  0
  1 83  1  0  0  0
  2  3  1  0  0  0
  2 25  1  0  0  0
  2 86  1  0  0  0
  2 87  1  0  0  0
  3  4  1  0  0  0
  3 88  1  0  0  0
  3 89  1  0  0  0
  4  5  1  0  0  0
  4 90  1  0  0  0
  4 91  1  0  0  0
  5  6  1  0  0  0
  5 26  1  0  0  0
  5 92  1  0  0  0
  6 25  1  0  0  0
  6 93  1  0  0  0
  6 94  1  0  0  0
  7  8  2  0  0  0
  7 26  1  0  0  0
  7 29  1  0  0  0
  8  9  1  0  0  0
  8 22  1  0  0  0
  9 10  1  0  0  0
  9 27  2  0  0  0
 10 11  2  0  0  0
 10 15  1  0  0  0
 11 12  1  0  0  0
 11 95  1  0  0  0
 12 13  2  0  0  0
 12 96  1  0  0  0
 13 14  1  0  0  0
 13 31  1  0  0  0
 14 15  2  0  0  0
 14 97  1  0  0  0
 15 98  1  0  0  0
 16 17  2  0  0  0
 16 21  1  0  0  0
 16 31  1  0  0  0
 17 18  1  0  0  0
 17 99  1  0  0  0
 18 19  2  0  0  0
 18100  1  0  0  0
 19 20  1  0  0  0
 19 24  1  0  0  0
 20 21  2  0  0  0
 20101  1  0  0  0
 21 23  1  0  0  0
 22 28  1  0  0  0
 22 32  2  0  0  0
 26 27  1  0  0  0
 28102  1  0  0  0
 28103  1  0  0  0
 29104  1  0  0  0
 29105  1  0  0  0
 33 34  1  0  0  0
 33 66  1  0  0  0
 33 70  2  0  0  0
 34 36  1  0  0  0
 34 59  1  0  0  0
 34106  1  0  0  0
 35 44  2  0  0  0
 35 45  1  0  0  0
 35 68  1  0  0  0
 36 56  1  0  0  0
 36107  1  0  0  0
 37 39  1  0  0  0
 37 47  1  0  0  0
 37 66  1  0  0  0
 37108  1  0  0  0
 38 43  2  0  0  0
 38 46  1  0  0  0
 38 47  1  0  0  0
 39 64  1  0  0  0
 39 67  2  0  0  0
 40 52  1  0  0  0
 40 53  2  0  0  0
 40 58  1  0  0  0
 41109  1  0  0  0
 41110  1  0  0  0
 41111  1  0  0  0
 41 48  1  0  0  0
 42 43  1  0  0  0
 42 66  1  0  0  0
 42112  1  0  0  0
 42113  1  0  0  0
 43 44  1  0  0  0
 44114  1  0  0  0
 45 46  2  0  0  0
 45115  1  0  0  0
 46116  1  0  0  0
 47117  1  0  0  0
 47118  1  0  0  0
 48 56  1  0  0  0
 48 65  1  0  0  0
 48119  1  0  0  0
 49 50  1  0  0  0
 49 53  1  0  0  0
 49 64  1  0  0  0
 49120  1  0  0  0
 50 51  1  0  0  0
 50121  1  0  0  0
 50122  1  0  0  0
 51 52  1  0  0  0
 51123  1  0  0  0
 51124  1  0  0  0
 52125  1  0  0  0
 52126  1  0  0  0
 53 54  1  0  0  0
 54 55  2  0  0  0
 54127  1  0  0  0
 55 57  1  0  0  0
 55128  1  0  0  0
 56 69  2  0  0  0
 57 58  2  0  0  0
 57129  1  0  0  0
 58130  1  0  0  0
 59 60  1  0  0  0
 59 61  1  0  0  0
 59 62  1  0  0  0
 60131  1  0  0  0
 60132  1  0  0  0
 60133  1  0  0  0
 61134  1  0  0  0
 61135  1  0  0  0
 61136  1  0  0  0
 62137  1  0  0  0
 62138  1  0  0  0
 62139  1  0  0  0
 63 65  1  0  0  0
 63140  1  0  0  0
 63141  1  0  0  0
 63142  1  0  0  0
 64143  1  0  0  0
 65144  1  0  0  0
 68 81  1  0  0  0
 71 72  2  0  0  0
 71 75  1  0  0  0
 71145  1  0  0  0
 72 76  1  0  0  0
 72146  1  0  0  0
 73 74  1  0  0  0
 73 75  2  0  0  0
 73147  1  0  0  0
 74 76  2  0  0  0
 74 79  1  0  0  0
 75 83  1  0  0  0
 76 85  1  0  0  0
 77148  1  0  0  0
 77149  1  0  0  0
 77150  1  0  0  0
 77 82  1  0  0  0
 78151  1  0  0  0
 78152  1  0  0  0
 78153  1  0  0  0
 78 84  1  0  0  0
 79 84  1  0  0  0
 79154  1  0  0  0
 79155  1  0  0  0
 80 82  1  0  0  0
 80 84  1  0  0  0
 80156  1  0  0  0
 80157  1  0  0  0
 81 82  1  0  0  0
 81158  1  0  0  0
 81159  1  0  0  0
 82160  1  0  0  0
 83161  1  0  0  0
 84162  1  0  0  0
M  CHG  1  84   1
M  ISO  4   1 100  68 101  81 101  83 100
M  END
> <chiral flag>
0

> <version>
0

> <s_m_source_file>
/data/baiqing/PycharmProjects/Reinvent-master-3.2/result/LINK_invent/BTK/process_docking_weight1_custom_product_contain_oxygen_bond_distance_aromatic_linkinvent_7_9_3/rearranged_h_0023.sdf

> <i_m_source_file_index>
87

> <r_mmod_Potential_Energy-OPLS-2005>
-105.084617614746

> <r_mmod_Stretch_Energy-OPLS-2005>
63.3605575561523

> <r_mmod_Bend_Energy-OPLS-2005>
145.689682006836

> <r_mmod_Torsional_Energy-OPLS-2005>
240.856018066406

> <r_mmod_Improper_Torsional_Energy-OPLS-2005>
4.86722421646118

> <r_mmod_Van_der_Waal_Energy-OPLS-2005>
159.197418212891

> <r_mmod_Electrostatic_Energy-OPLS-2005>
-322.058135986328

> <r_mmod_Solvation_Energy-OPLS-2005>
-431.944641113281

> <b_mmod_Minimization_Converged-OPLS-2005>
0

> <r_mmod_RMS_Derivative-OPLS-2005>
6.62130689620972

$$$$
87
                    3D
 Structure written by MMmdl.
165174  0  0  1  0            999 V2000
  -30.7061  -14.6066   20.5850 C   0  0  0  0  0  0
  -30.4147  -12.3931   19.4634 C   0  0  0  0  0  0
  -29.5058  -12.5115   18.2202 C   0  0  0  0  0  0
  -28.0270  -12.3543   18.6184 C   0  0  0  0  0  0
  -27.6425  -13.2272   19.8429 C   0  0  2  0  0  0
  -28.6723  -13.0876   20.9790 C   0  0  0  0  0  0
  -25.2515  -13.8201   20.5591 C   0  0  0  0  0  0
  -24.1807  -13.0477   20.9132 C   0  0  0  0  0  0
  -24.6394  -11.6951   20.8701 C   0  0  0  0  0  0
  -23.9087  -10.4328   21.0391 C   0  0  0  0  0  0
  -24.3634   -9.4232   21.9169 C   0  0  0  0  0  0
  -23.6282   -8.2279   22.0759 C   0  0  0  0  0  0
  -22.4261   -8.0320   21.3557 C   0  0  0  0  0  0
  -21.9912   -9.0295   20.4651 C   0  0  0  0  0  0
  -22.7262  -10.2160   20.3041 C   0  0  0  0  0  0
  -21.6875   -6.0749   22.5276 C   0  0  0  0  0  0
  -21.4035   -6.5644   23.8211 C   0  0  0  0  0  0
  -21.3638   -5.6781   24.9162 C   0  0  0  0  0  0
  -21.6035   -4.3046   24.7204 C   0  0  0  0  0  0
  -21.8821   -3.8151   23.4323 C   0  0  0  0  0  0
  -21.9191   -4.6975   22.3385 C   0  0  0  0  0  0
  -22.7832  -13.5267   21.1805 C   0  0  0  0  0  0
  -22.1654   -4.2169   21.0958 F   0  0  0  0  0  0
  -21.5615   -3.4523   25.7708 F   0  0  0  0  0  0
  -29.9978  -13.4329   20.4382 N   0  0  0  0  0  0
  -26.2910  -12.9396   20.3127 N   0  0  0  0  0  0
  -25.9304  -11.6553   20.5649 N   0  0  0  0  0  0
  -22.0471  -12.8287   22.0369 N   0  0  0  0  0  0
  -25.4249  -15.1921   20.4074 N   0  0  0  0  0  0
  -31.8454  -14.6778   20.1158 O   0  0  0  0  0  0
  -21.6654   -6.8900   21.4243 O   0  0  0  0  0  0
  -22.3528  -14.5570   20.6640 O   0  0  0  0  0  0
  -24.6259  -31.8663   23.2067 C   0  0  0  0  0  0
  -25.9116  -32.4818   23.8394 C   0  0  1  0  0  0
  -27.2322  -27.3457   20.1324 C   0  0  0  0  0  0
  -25.5926  -33.8602   24.2320 N   0  0  0  0  0  0
  -23.4183  -30.4955   21.5509 C   0  0  2  0  0  0
  -24.8659  -28.9496   20.1289 C   0  0  0  0  0  0
  -22.7499  -29.4703   22.4999 C   0  0  0  0  0  0
  -18.0347  -28.1370   22.8491 C   0  0  0  0  0  0
  -24.1483  -36.7293   23.2630 C   0  0  0  0  0  0
  -25.9580  -30.8102   21.3736 C   0  0  0  0  0  0
  -26.0372  -29.4346   20.7268 C   0  0  0  0  0  0
  -27.2245  -28.6446   20.7217 C   0  0  0  0  0  0
  -26.0518  -26.9357   19.4763 C   0  0  0  0  0  0
  -24.8725  -27.6982   19.4998 C   0  0  0  0  0  0
  -23.6337  -29.8284   20.1687 C   0  0  0  0  0  0
  -25.4100  -36.3091   24.0334 C   0  0  1  0  0  0
  -20.5954  -28.3710   23.1346 C   0  0  2  0  0  0
  -20.6888  -26.9477   22.5386 C   0  0  0  0  0  0
  -19.5902  -26.6525   21.5134 C   0  0  0  0  0  0
  -18.2023  -26.7979   22.1489 C   0  0  0  0  0  0
  -19.1575  -28.8824   23.2962 C   0  0  0  0  0  0
  -18.9471  -30.1404   23.9053 C   0  0  0  0  0  0
  -17.6451  -30.6542   24.0616 C   0  0  0  0  0  0
  -25.9049  -34.9464   23.5115 C   0  0  0  0  0  0
  -16.5385  -29.9053   23.6294 C   0  0  0  0  0  0
  -16.7330  -28.6459   23.0359 C   0  0  0  0  0  0
  -26.4483  -31.6595   25.0739 C   0  0  0  0  0  0
  -25.3710  -31.3752   26.1454 C   0  0  0  0  0  0
  -27.0314  -30.3032   24.6168 C   0  0  0  0  0  0
  -27.6080  -32.4283   25.7483 C   0  0  0  0  0  0
  -27.5572  -37.1791   24.8457 C   0  0  0  0  0  0
  -21.4196  -29.3161   22.3797 N   0  0  0  0  0  0
  -26.4288  -37.3782   23.9399 N   0  0  0  0  0  0
  -24.6873  -31.0713   22.1014 N   0  0  0  0  0  0
  -23.4232  -28.8187   23.3012 O   0  0  0  0  0  0
  -28.3593  -26.5183   20.1012 O   0  0  0  0  0  0
  -26.5615  -34.8938   22.4692 O   0  0  0  0  0  0
  -23.5418  -32.1422   23.7408 O   0  0  0  0  0  0
  -30.0752  -19.1812   21.8407 C   0  0  0  0  0  0
  -29.7005  -20.5475   22.0319 C   0  0  0  0  0  0
  -28.9495  -20.6686   19.7716 C   0  0  0  0  0  0
  -29.8943  -18.5079   20.6017 C   0  0  0  0  0  0
  -29.1279  -21.3509   21.0059 C   0  0  0  0  0  0
  -29.3249  -19.3106   19.5675 C   0  0  0  0  0  0
  -26.3306  -23.0879   21.1160 C   0  0  0  0  0  0
  -27.0604  -23.4563   19.8177 C   0  0  0  0  0  0
  -27.4534  -22.6331   22.0649 C   0  0  0  0  0  0
  -28.4639  -23.8212   20.3037 C   0  0  1  0  0  0
  -29.5360  -23.8546   19.1972 C   0  0  0  0  0  0
  -29.6791  -15.9495   22.3761 C   0  0  0  0  0  0
  -30.4949  -17.0717   20.3111 C   0  0  0  0  0  0
  -28.4109  -25.3059   20.9513 C   0  0  0  0  0  0
  -28.7021  -22.7067   21.2933 N   0  0  0  0  0  0
  -30.0701  -15.7755   20.9746 N   0  0  0  0  0  0
  -29.1057  -18.6859   17.9702 Cl  0  0  0  0  0  0
  -31.4624  -12.4791   19.1670 H   0  0  0  0  0  0
  -30.3168  -11.3998   19.9073 H   0  0  0  0  0  0
  -29.7770  -11.7570   17.4789 H   0  0  0  0  0  0
  -29.6577  -13.4774   17.7340 H   0  0  0  0  0  0
  -27.8601  -11.3014   18.8537 H   0  0  0  0  0  0
  -27.3819  -12.5809   17.7674 H   0  0  0  0  0  0
  -27.6595  -14.2644   19.5091 H   0  0  0  0  0  0
  -28.6735  -12.0628   21.3503 H   0  0  0  0  0  0
  -28.3654  -13.7012   21.8201 H   0  0  0  0  0  0
  -25.2805   -9.5702   22.4716 H   0  0  0  0  0  0
  -23.9974   -7.4702   22.7513 H   0  0  0  0  0  0
  -21.0825   -8.8853   19.8983 H   0  0  0  0  0  0
  -22.3749  -10.9687   19.6123 H   0  0  0  0  0  0
  -21.2059   -7.6159   23.9721 H   0  0  0  0  0  0
  -21.1429   -6.0501   25.9062 H   0  0  0  0  0  0
  -22.0608   -2.7616   23.2805 H   0  0  0  0  0  0
  -22.4109  -11.9978   22.4786 H   0  0  0  0  0  0
  -21.1091  -13.1330   22.2565 H   0  0  0  0  0  0
  -24.6665  -15.8501   20.5517 H   0  0  0  0  0  0
  -26.2825  -15.6345   20.1042 H   0  0  0  0  0  0
  -26.7205  -32.5526   23.1171 H   0  0  0  0  0  0
  -25.0073  -33.9745   25.0460 H   0  0  0  0  0  0
  -22.7110  -31.3146   21.4061 H   0  0  0  0  0  0
  -23.3750  -35.9615   23.3283 H   0  0  0  0  0  0
  -24.3606  -36.8928   22.2048 H   0  0  0  0  0  0
  -23.7229  -37.6504   23.6646 H   0  0  0  0  0  0
  -26.0810  -31.5718   20.6009 H   0  0  0  0  0  0
  -26.8389  -30.8608   22.0017 H   0  0  0  0  0  0
  -28.1328  -29.0301   21.1648 H   0  0  0  0  0  0
  -26.0238  -26.0449   18.8829 H   0  0  0  0  0  0
  -23.9807  -27.3292   19.0108 H   0  0  0  0  0  0
  -23.7503  -30.6007   19.4061 H   0  0  0  0  0  0
  -22.7555  -29.2539   19.8725 H   0  0  0  0  0  0
  -25.1259  -36.1973   25.0827 H   0  0  0  0  0  0
  -21.0081  -28.3206   24.1443 H   0  0  0  0  0  0
  -20.5839  -26.2294   23.3530 H   0  0  0  0  0  0
  -21.6778  -26.7623   22.1176 H   0  0  0  0  0  0
  -19.6860  -27.3484   20.6791 H   0  0  0  0  0  0
  -19.7162  -25.6503   21.1008 H   0  0  0  0  0  0
  -17.4347  -26.6826   21.3802 H   0  0  0  0  0  0
  -18.0345  -26.0021   22.8764 H   0  0  0  0  0  0
  -19.7903  -30.7186   24.2564 H   0  0  0  0  0  0
  -17.4981  -31.6207   24.5247 H   0  0  0  0  0  0
  -15.5381  -30.2969   23.7530 H   0  0  0  0  0  0
  -15.8759  -28.0767   22.7047 H   0  0  0  0  0  0
  -24.5891  -30.7091   25.7779 H   0  0  0  0  0  0
  -24.8867  -32.2917   26.4831 H   0  0  0  0  0  0
  -25.8000  -30.8970   27.0263 H   0  0  0  0  0  0
  -26.2885  -29.6820   24.1146 H   0  0  0  0  0  0
  -27.3988  -29.7263   25.4667 H   0  0  0  0  0  0
  -27.8760  -30.4342   23.9401 H   0  0  0  0  0  0
  -27.2746  -33.3585   26.2086 H   0  0  0  0  0  0
  -28.3857  -32.6834   25.0265 H   0  0  0  0  0  0
  -28.0763  -31.8380   26.5365 H   0  0  0  0  0  0
  -28.2577  -38.0096   24.7492 H   0  0  0  0  0  0
  -28.1083  -36.2626   24.6271 H   0  0  0  0  0  0
  -27.2303  -37.1424   25.8870 H   0  0  0  0  0  0
  -20.9336  -29.8956   21.7093 H   0  0  0  0  0  0
  -26.0185  -38.2869   24.1411 H   0  0  0  0  0  0
  -30.5470  -18.6653   22.6627 H   0  0  0  0  0  0
  -29.8735  -20.9895   23.0035 H   0  0  0  0  0  0
  -28.5157  -21.1651   18.9231 H   0  0  0  0  0  0
  -25.5784  -22.3161   20.9578 H   0  0  0  0  0  0
  -25.8208  -23.9569   21.5382 H   0  0  0  0  0  0
  -26.5771  -24.2328   19.2560 H   0  0  0  0  0  0
  -27.0708  -22.6044   19.1483 H   0  0  0  0  0  0
  -27.2256  -21.6334   22.4416 H   0  0  0  0  0  0
  -27.5147  -23.2807   22.9412 H   0  0  0  0  0  0
  -29.3985  -24.7204   18.5492 H   0  0  0  0  0  0
  -29.5070  -22.9885   18.5410 H   0  0  0  0  0  0
  -30.5376  -23.9270   19.6235 H   0  0  0  0  0  0
  -28.7549  -16.5235   22.4532 H   0  0  0  0  0  0
  -30.4652  -16.4824   22.9105 H   0  0  0  0  0  0
  -29.5465  -15.0192   22.9226 H   0  0  0  0  0  0
  -31.5652  -17.1876   20.4956 H   0  0  0  0  0  0
  -30.4247  -16.8843   19.2408 H   0  0  0  0  0  0
  -29.3244  -25.4213   21.5362 H   0  0  0  0  0  0
  -27.6181  -25.3796   21.6944 H   0  0  0  0  0  0
  1 25  1  0  0  0
  1 30  2  0  0  0
  1 86  1  0  0  0
  2  3  1  0  0  0
  2 25  1  0  0  0
  2 88  1  0  0  0
  2 89  1  0  0  0
  3  4  1  0  0  0
  3 90  1  0  0  0
  3 91  1  0  0  0
  4  5  1  0  0  0
  4 92  1  0  0  0
  4 93  1  0  0  0
  5  6  1  0  0  0
  5 26  1  0  0  0
  5 94  1  0  0  0
  6 25  1  0  0  0
  6 95  1  0  0  0
  6 96  1  0  0  0
  7  8  2  0  0  0
  7 26  1  0  0  0
  7 29  1  0  0  0
  8  9  1  0  0  0
  8 22  1  0  0  0
  9 10  1  0  0  0
  9 27  2  0  0  0
 10 11  2  0  0  0
 10 15  1  0  0  0
 11 12  1  0  0  0
 11 97  1  0  0  0
 12 13  2  0  0  0
 12 98  1  0  0  0
 13 14  1  0  0  0
 13 31  1  0  0  0
 14 15  2  0  0  0
 14 99  1  0  0  0
 15100  1  0  0  0
 16 17  2  0  0  0
 16 21  1  0  0  0
 16 31  1  0  0  0
 17 18  1  0  0  0
 17101  1  0  0  0
 18 19  2  0  0  0
 18102  1  0  0  0
 19 20  1  0  0  0
 19 24  1  0  0  0
 20 21  2  0  0  0
 20103  1  0  0  0
 21 23  1  0  0  0
 22 28  1  0  0  0
 22 32  2  0  0  0
 26 27  1  0  0  0
 28104  1  0  0  0
 28105  1  0  0  0
 29106  1  0  0  0
 29107  1  0  0  0
 33 34  1  0  0  0
 33 66  1  0  0  0
 33 70  2  0  0  0
 34 36  1  0  0  0
 34 59  1  0  0  0
 34108  1  0  0  0
 35 44  2  0  0  0
 35 45  1  0  0  0
 35 68  1  0  0  0
 36 56  1  0  0  0
 36109  1  0  0  0
 37 39  1  0  0  0
 37 47  1  0  0  0
 37 66  1  0  0  0
 37110  1  0  0  0
 38 43  2  0  0  0
 38 46  1  0  0  0
 38 47  1  0  0  0
 39 64  1  0  0  0
 39 67  2  0  0  0
 40 52  1  0  0  0
 40 53  2  0  0  0
 40 58  1  0  0  0
 41111  1  0  0  0
 41112  1  0  0  0
 41113  1  0  0  0
 41 48  1  0  0  0
 42 43  1  0  0  0
 42 66  1  0  0  0
 42114  1  0  0  0
 42115  1  0  0  0
 43 44  1  0  0  0
 44116  1  0  0  0
 45 46  2  0  0  0
 45117  1  0  0  0
 46118  1  0  0  0
 47119  1  0  0  0
 47120  1  0  0  0
 48 56  1  0  0  0
 48 65  1  0  0  0
 48121  1  0  0  0
 49 50  1  0  0  0
 49 53  1  0  0  0
 49 64  1  0  0  0
 49122  1  0  0  0
 50 51  1  0  0  0
 50123  1  0  0  0
 50124  1  0  0  0
 51 52  1  0  0  0
 51125  1  0  0  0
 51126  1  0  0  0
 52127  1  0  0  0
 52128  1  0  0  0
 53 54  1  0  0  0
 54 55  2  0  0  0
 54129  1  0  0  0
 55 57  1  0  0  0
 55130  1  0  0  0
 56 69  2  0  0  0
 57 58  2  0  0  0
 57131  1  0  0  0
 58132  1  0  0  0
 59 60  1  0  0  0
 59 61  1  0  0  0
 59 62  1  0  0  0
 60133  1  0  0  0
 60134  1  0  0  0
 60135  1  0  0  0
 61136  1  0  0  0
 61137  1  0  0  0
 61138  1  0  0  0
 62139  1  0  0  0
 62140  1  0  0  0
 62141  1  0  0  0
 63 65  1  0  0  0
 63142  1  0  0  0
 63143  1  0  0  0
 63144  1  0  0  0
 64145  1  0  0  0
 65146  1  0  0  0
 68 84  1  0  0  0
 71 72  2  0  0  0
 71 74  1  0  0  0
 71147  1  0  0  0
 72 75  1  0  0  0
 72148  1  0  0  0
 73 75  2  0  0  0
 73 76  1  0  0  0
 73149  1  0  0  0
 74 76  2  0  0  0
 74 83  1  0  0  0
 75 85  1  0  0  0
 76 87  1  0  0  0
 77 78  1  0  0  0
 77 79  1  0  0  0
 77150  1  0  0  0
 77151  1  0  0  0
 78 80  1  0  0  0
 78152  1  0  0  0
 78153  1  0  0  0
 79 85  1  0  0  0
 79154  1  0  0  0
 79155  1  0  0  0
 80 81  1  0  0  0
 80 84  1  0  0  0
 80 85  1  0  0  0
 81156  1  0  0  0
 81157  1  0  0  0
 81158  1  0  0  0
 82 86  1  0  0  0
 82159  1  0  0  0
 82160  1  0  0  0
 82161  1  0  0  0
 83 86  1  0  0  0
 83162  1  0  0  0
 83163  1  0  0  0
 84164  1  0  0  0
 84165  1  0  0  0
M  ISO  4   1 100  68 101  84 101  86 100
M  END
> <chiral flag>
0

> <version>
0

> <s_m_source_file>
/data/baiqing/PycharmProjects/Reinvent-master-3.2/result/LINK_invent/BTK/process_docking_weight1_custom_product_contain_oxygen_bond_distance_aromatic_linkinvent_7_9_3/rearranged_h_0023.sdf

> <i_m_source_file_index>
88

> <r_mmod_Potential_Energy-OPLS-2005>
361.550476074219

> <r_mmod_Stretch_Energy-OPLS-2005>
94.5397109985352

> <r_mmod_Bend_Energy-OPLS-2005>
218.011856079102

> <r_mmod_Torsional_Energy-OPLS-2005>
360.850036621094

> <r_mmod_Improper_Torsional_Energy-OPLS-2005>
17.0083656311035

> <r_mmod_Van_der_Waal_Energy-OPLS-2005>
162.907760620117

> <r_mmod_Electrostatic_Energy-OPLS-2005>
-330.304351806641

> <r_mmod_Solvation_Energy-OPLS-2005>
-198.045516967773

> <b_mmod_Minimization_Converged-OPLS-2005>
0

> <r_mmod_RMS_Derivative-OPLS-2005>
5.07125616073608

$$$$
88
                    3D
 Structure written by MMmdl.
148156  0  0  1  0            999 V2000
  -30.5263  -15.0212   20.4016 C   0  0  0  0  0  0
  -30.4388  -12.6368   19.5000 C   0  0  0  0  0  0
  -29.5217  -12.5336   18.2586 C   0  0  0  0  0  0
  -28.0593  -12.3060   18.6829 C   0  0  0  0  0  0
  -27.6239  -13.2543   19.8298 C   0  0  2  0  0  0
  -28.6665  -13.3254   20.9655 C   0  0  0  0  0  0
  -25.2444  -13.8223   20.5717 C   0  0  0  0  0  0
  -24.1771  -13.0436   20.9236 C   0  0  0  0  0  0
  -24.6399  -11.6925   20.8758 C   0  0  0  0  0  0
  -23.9088  -10.4291   21.0408 C   0  0  0  0  0  0
  -24.3636   -9.4203   21.9185 C   0  0  0  0  0  0
  -23.6302   -8.2245   22.0756 C   0  0  0  0  0  0
  -22.4284   -8.0287   21.3546 C   0  0  0  0  0  0
  -21.9924   -9.0259   20.4647 C   0  0  0  0  0  0
  -22.7259  -10.2135   20.3056 C   0  0  0  0  0  0
  -21.6855   -6.0741   22.5278 C   0  0  0  0  0  0
  -21.4011   -6.5642   23.8210 C   0  0  0  0  0  0
  -21.3657   -5.6792   24.9169 C   0  0  0  0  0  0
  -21.6045   -4.3057   24.7219 C   0  0  0  0  0  0
  -21.8819   -3.8150   23.4338 C   0  0  0  0  0  0
  -21.9190   -4.6968   22.3395 C   0  0  0  0  0  0
  -22.7789  -13.5204   21.1880 C   0  0  0  0  0  0
  -22.1662   -4.2155   21.0973 F   0  0  0  0  0  0
  -21.5626   -3.4538   25.7731 F   0  0  0  0  0  0
  -29.9313  -13.7540   20.3549 N   0  0  0  0  0  0
  -26.2866  -12.9465   20.3221 N   0  0  0  0  0  0
  -25.9334  -11.6590   20.5739 N   0  0  0  0  0  0
  -22.0440  -12.8193   22.0437 N   0  0  0  0  0  0
  -25.4098  -15.1953   20.4139 N   0  0  0  0  0  0
  -31.7399  -15.0472   20.1663 O   0  0  0  0  0  0
  -21.6646   -6.8885   21.4243 O   0  0  0  0  0  0
  -22.3473  -14.5507   20.6722 O   0  0  0  0  0  0
  -24.6497  -31.8388   23.1834 C   0  0  0  0  0  0
  -25.9245  -32.4665   23.8239 C   0  0  1  0  0  0
  -27.2117  -27.0769   20.1557 C   0  0  0  0  0  0
  -25.5979  -33.8472   24.2159 N   0  0  0  0  0  0
  -23.4569  -30.4569   21.5303 C   0  0  2  0  0  0
  -24.9063  -28.8760   20.1103 C   0  0  0  0  0  0
  -22.7607  -29.4513   22.4831 C   0  0  0  0  0  0
  -18.0310  -28.1404   22.8469 C   0  0  0  0  0  0
  -24.1490  -36.7229   23.2637 C   0  0  0  0  0  0
  -26.0185  -30.6922   21.3932 C   0  0  0  0  0  0
  -26.0875  -29.2992   20.7330 C   0  0  0  0  0  0
  -27.2411  -28.4175   20.7359 C   0  0  0  0  0  0
  -26.0029  -26.7737   19.4898 C   0  0  0  0  0  0
  -24.8806  -27.6289   19.4716 C   0  0  0  0  0  0
  -23.6875  -29.7863   20.1506 C   0  0  0  0  0  0
  -25.4117  -36.3007   24.0315 C   0  0  1  0  0  0
  -20.5930  -28.3734   23.1218 C   0  0  2  0  0  0
  -20.6794  -26.9430   22.5400 C   0  0  0  0  0  0
  -19.5765  -26.6379   21.5213 C   0  0  0  0  0  0
  -18.1947  -26.7940   22.1619 C   0  0  0  0  0  0
  -19.1571  -28.8887   23.2835 C   0  0  0  0  0  0
  -18.9485  -30.1480   23.8864 C   0  0  0  0  0  0
  -17.6479  -30.6596   24.0562 C   0  0  0  0  0  0
  -25.9088  -34.9391   23.5048 C   0  0  0  0  0  0
  -16.5368  -29.9086   23.6344 C   0  0  0  0  0  0
  -16.7292  -28.6509   23.0358 C   0  0  0  0  0  0
  -26.4543  -31.6554   25.0705 C   0  0  0  0  0  0
  -25.3714  -31.3762   26.1394 C   0  0  0  0  0  0
  -27.0422  -30.2942   24.6339 C   0  0  0  0  0  0
  -27.6067  -32.4335   25.7486 C   0  0  0  0  0  0
  -27.5590  -37.1737   24.8442 C   0  0  0  0  0  0
  -21.4292  -29.3054   22.3593 N   0  0  0  0  0  0
  -26.4255  -37.3749   23.9453 N   0  0  0  0  0  0
  -24.7286  -31.0186   22.0901 N   0  0  0  0  0  0
  -23.4227  -28.8063   23.3002 O   0  0  0  0  0  0
  -28.2343  -26.0413   20.2304 O   0  0  0  0  0  0
  -26.5672  -34.8907   22.4625 O   0  0  0  0  0  0
  -23.5598  -32.1291   23.7009 O   0  0  0  0  0  0
  -29.1319  -18.9467   20.3642 C   0  0  0  0  0  0
  -30.8947  -20.5964   20.5074 C   0  0  0  0  0  0
  -31.4094  -18.1641   20.5882 C   0  0  0  0  0  0
  -29.5038  -20.4076   20.3752 C   0  0  0  0  0  0
  -30.0589  -17.7633   20.4653 C   0  0  0  0  0  0
  -31.8090  -19.5219   20.6109 C   0  0  0  0  0  0
  -28.6130  -21.7650   20.2540 C   0  0  0  0  0  0
  -28.8747  -23.1796   20.2573 C   0  0  0  0  0  0
  -27.8809  -24.5087   20.0619 C   0  0  0  0  0  0
  -29.7470  -16.2332   20.4825 N   0  0  0  0  0  0
  -33.1268  -19.8069   20.7410 F   0  0  0  0  0  0
  -31.4690  -12.8011   19.1813 H   0  0  0  0  0  0
  -30.4475  -11.6973   20.0552 H   0  0  0  0  0  0
  -29.8533  -11.7229   17.6083 H   0  0  0  0  0  0
  -29.5950  -13.4498   17.6702 H   0  0  0  0  0  0
  -27.9733  -11.2695   19.0117 H   0  0  0  0  0  0
  -27.3918  -12.4099   17.8265 H   0  0  0  0  0  0
  -27.5729  -14.2458   19.3790 H   0  0  0  0  0  0
  -28.7726  -12.3631   21.4688 H   0  0  0  0  0  0
  -28.3543  -14.0429   21.7259 H   0  0  0  0  0  0
  -25.2781   -9.5678   22.4761 H   0  0  0  0  0  0
  -24.0002   -7.4638   22.7482 H   0  0  0  0  0  0
  -21.0852   -8.8786   19.8956 H   0  0  0  0  0  0
  -22.3720  -10.9678   19.6168 H   0  0  0  0  0  0
  -21.2009   -7.6153   23.9714 H   0  0  0  0  0  0
  -21.1475   -6.0524   25.9071 H   0  0  0  0  0  0
  -22.0601   -2.7615   23.2833 H   0  0  0  0  0  0
  -22.4064  -11.9861   22.4829 H   0  0  0  0  0  0
  -21.1057  -13.1218   22.2643 H   0  0  0  0  0  0
  -24.6381  -15.8443   20.5251 H   0  0  0  0  0  0
  -26.2464  -15.6365   20.0557 H   0  0  0  0  0  0
  -26.7309  -32.5244   23.0958 H   0  0  0  0  0  0
  -25.0132  -33.9583   25.0312 H   0  0  0  0  0  0
  -22.7628  -31.2848   21.3713 H   0  0  0  0  0  0
  -23.3794  -35.9515   23.3205 H   0  0  0  0  0  0
  -24.3604  -36.8957   22.2074 H   0  0  0  0  0  0
  -23.7180  -37.6367   23.6733 H   0  0  0  0  0  0
  -26.1859  -31.4431   20.6201 H   0  0  0  0  0  0
  -26.8849  -30.7395   22.0411 H   0  0  0  0  0  0
  -28.1385  -28.7354   21.2482 H   0  0  0  0  0  0
  -25.8805  -25.8231   18.9947 H   0  0  0  0  0  0
  -23.9802  -27.3001   18.9704 H   0  0  0  0  0  0
  -23.8356  -30.5619   19.3983 H   0  0  0  0  0  0
  -22.8009  -29.2354   19.8312 H   0  0  0  0  0  0
  -25.1289  -36.1807   25.0800 H   0  0  0  0  0  0
  -21.0011  -28.3321   24.1341 H   0  0  0  0  0  0
  -20.5689  -26.2347   23.3625 H   0  0  0  0  0  0
  -21.6654  -26.7433   22.1188 H   0  0  0  0  0  0
  -19.6929  -25.6282   21.1260 H   0  0  0  0  0  0
  -19.6701  -27.3180   20.6738 H   0  0  0  0  0  0
  -17.4214  -26.6684   21.4025 H   0  0  0  0  0  0
  -18.0345  -26.0092   22.9024 H   0  0  0  0  0  0
  -19.7962  -30.7310   24.2212 H   0  0  0  0  0  0
  -17.5032  -31.6275   24.5169 H   0  0  0  0  0  0
  -15.5369  -30.2982   23.7692 H   0  0  0  0  0  0
  -15.8690  -28.0821   22.7087 H   0  0  0  0  0  0
  -24.5897  -30.7113   25.7698 H   0  0  0  0  0  0
  -24.8906  -32.2952   26.4757 H   0  0  0  0  0  0
  -25.7982  -30.8961   27.0212 H   0  0  0  0  0  0
  -26.3058  -29.6641   24.1338 H   0  0  0  0  0  0
  -27.4008  -29.7261   25.4935 H   0  0  0  0  0  0
  -27.8980  -30.4159   23.9695 H   0  0  0  0  0  0
  -27.2659  -33.3670   26.1972 H   0  0  0  0  0  0
  -28.3919  -32.6838   25.0338 H   0  0  0  0  0  0
  -28.0696  -31.8521   26.5470 H   0  0  0  0  0  0
  -28.2479  -38.0161   24.7674 H   0  0  0  0  0  0
  -28.1213  -36.2704   24.6019 H   0  0  0  0  0  0
  -27.2347  -37.1073   25.8844 H   0  0  0  0  0  0
  -20.9518  -29.8773   21.6765 H   0  0  0  0  0  0
  -26.0102  -38.2779   24.1587 H   0  0  0  0  0  0
  -28.0780  -18.7257   20.2702 H   0  0  0  0  0  0
  -31.2924  -21.5997   20.5306 H   0  0  0  0  0  0
  -32.1894  -17.4248   20.6836 H   0  0  0  0  0  0
  -27.5648  -21.5305   20.1278 H   0  0  0  0  0  0
  -29.9081  -23.4668   20.3794 H   0  0  0  0  0  0
  -27.0037  -24.3164   20.6810 H   0  0  0  0  0  0
  -27.5328  -24.4048   19.0344 H   0  0  0  0  0  0
  -28.7620  -16.0282   20.5554 H   0  0  0  0  0  0
  1 25  1  0  0  0
  1 30  2  0  0  0
  1 80  1  0  0  0
  2  3  1  0  0  0
  2 25  1  0  0  0
  2 82  1  0  0  0
  2 83  1  0  0  0
  3  4  1  0  0  0
  3 84  1  0  0  0
  3 85  1  0  0  0
  4  5  1  0  0  0
  4 86  1  0  0  0
  4 87  1  0  0  0
  5  6  1  0  0  0
  5 26  1  0  0  0
  5 88  1  0  0  0
  6 25  1  0  0  0
  6 89  1  0  0  0
  6 90  1  0  0  0
  7  8  2  0  0  0
  7 26  1  0  0  0
  7 29  1  0  0  0
  8  9  1  0  0  0
  8 22  1  0  0  0
  9 10  1  0  0  0
  9 27  2  0  0  0
 10 11  2  0  0  0
 10 15  1  0  0  0
 11 12  1  0  0  0
 11 91  1  0  0  0
 12 13  2  0  0  0
 12 92  1  0  0  0
 13 14  1  0  0  0
 13 31  1  0  0  0
 14 15  2  0  0  0
 14 93  1  0  0  0
 15 94  1  0  0  0
 16 17  2  0  0  0
 16 21  1  0  0  0
 16 31  1  0  0  0
 17 18  1  0  0  0
 17 95  1  0  0  0
 18 19  2  0  0  0
 18 96  1  0  0  0
 19 20  1  0  0  0
 19 24  1  0  0  0
 20 21  2  0  0  0
 20 97  1  0  0  0
 21 23  1  0  0  0
 22 28  1  0  0  0
 22 32  2  0  0  0
 26 27  1  0  0  0
 28 98  1  0  0  0
 28 99  1  0  0  0
 29100  1  0  0  0
 29101  1  0  0  0
 33 34  1  0  0  0
 33 66  1  0  0  0
 33 70  2  0  0  0
 34 36  1  0  0  0
 34 59  1  0  0  0
 34102  1  0  0  0
 35 44  2  0  0  0
 35 45  1  0  0  0
 35 68  1  0  0  0
 36 56  1  0  0  0
 36103  1  0  0  0
 37 39  1  0  0  0
 37 47  1  0  0  0
 37 66  1  0  0  0
 37104  1  0  0  0
 38 43  2  0  0  0
 38 46  1  0  0  0
 38 47  1  0  0  0
 39 64  1  0  0  0
 39 67  2  0  0  0
 40 52  1  0  0  0
 40 53  2  0  0  0
 40 58  1  0  0  0
 41105  1  0  0  0
 41106  1  0  0  0
 41107  1  0  0  0
 41 48  1  0  0  0
 42 43  1  0  0  0
 42 66  1  0  0  0
 42108  1  0  0  0
 42109  1  0  0  0
 43 44  1  0  0  0
 44110  1  0  0  0
 45 46  2  0  0  0
 45111  1  0  0  0
 46112  1  0  0  0
 47113  1  0  0  0
 47114  1  0  0  0
 48 56  1  0  0  0
 48 65  1  0  0  0
 48115  1  0  0  0
 49 50  1  0  0  0
 49 53  1  0  0  0
 49 64  1  0  0  0
 49116  1  0  0  0
 50 51  1  0  0  0
 50117  1  0  0  0
 50118  1  0  0  0
 51 52  1  0  0  0
 51119  1  0  0  0
 51120  1  0  0  0
 52121  1  0  0  0
 52122  1  0  0  0
 53 54  1  0  0  0
 54 55  2  0  0  0
 54123  1  0  0  0
 55 57  1  0  0  0
 55124  1  0  0  0
 56 69  2  0  0  0
 57 58  2  0  0  0
 57125  1  0  0  0
 58126  1  0  0  0
 59 60  1  0  0  0
 59 61  1  0  0  0
 59 62  1  0  0  0
 60127  1  0  0  0
 60128  1  0  0  0
 60129  1  0  0  0
 61130  1  0  0  0
 61131  1  0  0  0
 61132  1  0  0  0
 62133  1  0  0  0
 62134  1  0  0  0
 62135  1  0  0  0
 63 65  1  0  0  0
 63136  1  0  0  0
 63137  1  0  0  0
 63138  1  0  0  0
 64139  1  0  0  0
 65140  1  0  0  0
 68 79  1  0  0  0
 71 74  2  0  0  0
 71 75  1  0  0  0
 71141  1  0  0  0
 72 74  1  0  0  0
 72 76  2  0  0  0
 72142  1  0  0  0
 73 75  2  0  0  0
 73 76  1  0  0  0
 73143  1  0  0  0
 74 77  1  0  0  0
 75 80  1  0  0  0
 76 81  1  0  0  0
 77 78  2  0  0  0
 77144  1  0  0  0
 78 79  1  0  0  0
 78145  1  0  0  0
 79146  1  0  0  0
 79147  1  0  0  0
 80148  1  0  0  0
M  ISO  4   1 100  68 101  79 101  80 100
M  END
> <chiral flag>
0

> <version>
0

> <s_m_source_file>
/data/baiqing/PycharmProjects/Reinvent-master-3.2/result/LINK_invent/BTK/process_docking_weight1_custom_product_contain_oxygen_bond_distance_aromatic_linkinvent_7_9_3/rearranged_h_0023.sdf

> <i_m_source_file_index>
89

> <r_mmod_Potential_Energy-OPLS-2005>
620.792663574219

> <r_mmod_Stretch_Energy-OPLS-2005>
314.494445800781

> <r_mmod_Bend_Energy-OPLS-2005>
250.822265625

> <r_mmod_Torsional_Energy-OPLS-2005>
216.361190795898

> <r_mmod_Improper_Torsional_Energy-OPLS-2005>
5.03914213180542

> <r_mmod_Van_der_Waal_Energy-OPLS-2005>
133.05712890625

> <r_mmod_Electrostatic_Energy-OPLS-2005>
-341.126678466797

> <r_mmod_Solvation_Energy-OPLS-2005>
-208.606246948242

> <b_mmod_Minimization_Converged-OPLS-2005>
0

> <r_mmod_RMS_Derivative-OPLS-2005>
0.933777928352356

$$$$
89
                    3D
 Structure written by MMmdl.
160169  0  0  1  0            999 V2000
  -30.6144  -14.6312   20.4661 C   0  0  0  0  0  0
  -30.4404  -12.3799   19.4388 C   0  0  0  0  0  0
  -29.5119  -12.5103   18.2120 C   0  0  0  0  0  0
  -28.0322  -12.3474   18.6206 C   0  0  0  0  0  0
  -27.6509  -13.2119   19.8524 C   0  0  2  0  0  0
  -28.6978  -13.0679   20.9787 C   0  0  0  0  0  0
  -25.2543  -13.8150   20.5593 C   0  0  0  0  0  0
  -24.1807  -13.0408   20.9156 C   0  0  0  0  0  0
  -24.6390  -11.6890   20.8739 C   0  0  0  0  0  0
  -23.9051  -10.4280   21.0413 C   0  0  0  0  0  0
  -24.3614   -9.4210   21.9182 C   0  0  0  0  0  0
  -23.6291   -8.2253   22.0755 C   0  0  0  0  0  0
  -22.4279   -8.0285   21.3548 C   0  0  0  0  0  0
  -21.9899   -9.0247   20.4652 C   0  0  0  0  0  0
  -22.7230  -10.2126   20.3061 C   0  0  0  0  0  0
  -21.6846   -6.0741   22.5286 C   0  0  0  0  0  0
  -21.4015   -6.5638   23.8225 C   0  0  0  0  0  0
  -21.3659   -5.6783   24.9175 C   0  0  0  0  0  0
  -21.6043   -4.3051   24.7218 C   0  0  0  0  0  0
  -21.8820   -3.8150   23.4343 C   0  0  0  0  0  0
  -21.9195   -4.6968   22.3407 C   0  0  0  0  0  0
  -22.7852  -13.5244   21.1798 C   0  0  0  0  0  0
  -22.1660   -4.2162   21.0982 F   0  0  0  0  0  0
  -21.5613   -3.4534   25.7727 F   0  0  0  0  0  0
  -30.0158  -13.4000   20.4133 N   0  0  0  0  0  0
  -26.2961  -12.9307   20.3237 N   0  0  0  0  0  0
  -25.9309  -11.6470   20.5725 N   0  0  0  0  0  0
  -22.0470  -12.8284   22.0384 N   0  0  0  0  0  0
  -25.4218  -15.1862   20.3924 N   0  0  0  0  0  0
  -31.7978  -14.7958   20.1608 O   0  0  0  0  0  0
  -21.6643   -6.8897   21.4253 O   0  0  0  0  0  0
  -22.3569  -14.5540   20.6634 O   0  0  0  0  0  0
  -24.6242  -31.8608   23.2062 C   0  0  0  0  0  0
  -25.9094  -32.4801   23.8368 C   0  0  1  0  0  0
  -27.2269  -27.3253   20.1224 C   0  0  0  0  0  0
  -25.5933  -33.8599   24.2298 N   0  0  0  0  0  0
  -23.4171  -30.4920   21.5411 C   0  0  2  0  0  0
  -24.8689  -28.9481   20.1092 C   0  0  0  0  0  0
  -22.7467  -29.4644   22.4846 C   0  0  0  0  0  0
  -18.0316  -28.1351   22.8504 C   0  0  0  0  0  0
  -24.1474  -36.7306   23.2642 C   0  0  0  0  0  0
  -25.9608  -30.7929   21.3772 C   0  0  0  0  0  0
  -26.0369  -29.4228   20.7194 C   0  0  0  0  0  0
  -27.2178  -28.6236   20.7180 C   0  0  0  0  0  0
  -26.0354  -26.9021   19.4848 C   0  0  0  0  0  0
  -24.8727  -27.6926   19.4840 C   0  0  0  0  0  0
  -23.6366  -29.8302   20.1553 C   0  0  0  0  0  0
  -25.4110  -36.3116   24.0341 C   0  0  1  0  0  0
  -20.5925  -28.3659   23.1251 C   0  0  2  0  0  0
  -20.6772  -26.9351   22.5399 C   0  0  0  0  0  0
  -19.5753  -26.6350   21.5183 C   0  0  0  0  0  0
  -18.1938  -26.7910   22.1596 C   0  0  0  0  0  0
  -19.1569  -28.8819   23.2888 C   0  0  0  0  0  0
  -18.9484  -30.1426   23.8890 C   0  0  0  0  0  0
  -17.6476  -30.6558   24.0541 C   0  0  0  0  0  0
  -25.9048  -34.9482   23.5122 C   0  0  0  0  0  0
  -16.5371  -29.9047   23.6323 C   0  0  0  0  0  0
  -16.7298  -28.6461   23.0367 C   0  0  0  0  0  0
  -26.4480  -31.6639   25.0757 C   0  0  0  0  0  0
  -25.3688  -31.3811   26.1478 C   0  0  0  0  0  0
  -27.0326  -30.3069   24.6224 C   0  0  0  0  0  0
  -27.6047  -32.4381   25.7531 C   0  0  0  0  0  0
  -27.5573  -37.1816   24.8476 C   0  0  0  0  0  0
  -21.4179  -29.3026   22.3608 N   0  0  0  0  0  0
  -26.4289  -37.3802   23.9427 N   0  0  0  0  0  0
  -24.6858  -31.0659   22.0988 N   0  0  0  0  0  0
  -23.4222  -28.8136   23.2857 O   0  0  0  0  0  0
  -28.3433  -26.4758   20.1829 O   0  0  0  0  0  0
  -26.5594  -34.8934   22.4668 O   0  0  0  0  0  0
  -23.5414  -32.1378   23.7405 O   0  0  0  0  0  0
  -30.8619  -19.3447   20.8698 C   0  0  0  0  0  0
  -28.8335  -19.2135   19.5845 C   0  0  0  0  0  0
  -30.8801  -17.9228   21.0058 C   0  0  0  0  0  0
  -28.8395  -17.7976   19.7339 C   0  0  0  0  0  0
  -29.8399  -20.0307   20.1535 C   0  0  0  0  0  0
  -29.8613  -17.1105   20.4412 C   0  0  0  0  0  0
  -28.1701  -23.2825   22.6928 C   0  0  0  0  0  0
  -29.2777  -24.1945   22.1614 C   0  0  0  0  0  0
  -28.3520  -22.0350   21.8260 C   0  0  0  0  0  0
  -29.1851  -23.9906   20.6392 C   0  0  2  0  0  0
  -29.9022  -21.5896   19.9158 C   0  0  0  0  0  0
  -28.1074  -25.0179   20.0554 C   0  0  0  0  0  0
  -29.7441  -15.6703   20.6400 N   0  0  0  0  0  0
  -28.8347  -22.5031   20.4973 N   0  3  1  0  0  0
  -31.4831  -12.5060   19.1379 H   0  0  0  0  0  0
  -30.3697  -11.3798   19.8683 H   0  0  0  0  0  0
  -29.7819  -11.7784   17.4502 H   0  0  0  0  0  0
  -29.6543  -13.4924   17.7583 H   0  0  0  0  0  0
  -27.8622  -11.2914   18.8371 H   0  0  0  0  0  0
  -27.3852  -12.5931   17.7785 H   0  0  0  0  0  0
  -27.6665  -14.2462   19.5062 H   0  0  0  0  0  0
  -28.7021  -12.0474   21.3651 H   0  0  0  0  0  0
  -28.4483  -13.7107   21.8264 H   0  0  0  0  0  0
  -25.2761   -9.5684   22.4739 H   0  0  0  0  0  0
  -23.9998   -7.4649   22.7476 H   0  0  0  0  0  0
  -21.0825   -8.8768   19.8968 H   0  0  0  0  0  0
  -22.3693  -10.9648   19.6173 H   0  0  0  0  0  0
  -21.2030   -7.6146   23.9738 H   0  0  0  0  0  0
  -21.1462   -6.0505   25.9080 H   0  0  0  0  0  0
  -22.0608   -2.7612   23.2832 H   0  0  0  0  0  0
  -22.4036  -11.9972   22.4854 H   0  0  0  0  0  0
  -21.1078  -13.1350   22.2507 H   0  0  0  0  0  0
  -24.6355  -15.8248   20.4562 H   0  0  0  0  0  0
  -26.2519  -15.6250   20.0174 H   0  0  0  0  0  0
  -26.7151  -32.5466   23.1098 H   0  0  0  0  0  0
  -25.0170  -33.9752   25.0512 H   0  0  0  0  0  0
  -22.7121  -31.3164   21.3990 H   0  0  0  0  0  0
  -23.3756  -35.9614   23.3335 H   0  0  0  0  0  0
  -24.3553  -36.8895   22.2046 H   0  0  0  0  0  0
  -23.7167  -37.6499   23.6633 H   0  0  0  0  0  0
  -26.0933  -31.5498   20.6028 H   0  0  0  0  0  0
  -26.8431  -30.8433   22.0036 H   0  0  0  0  0  0
  -28.1068  -28.9770   21.2223 H   0  0  0  0  0  0
  -25.9662  -25.9418   18.9957 H   0  0  0  0  0  0
  -23.9798  -27.3219   19.0036 H   0  0  0  0  0  0
  -23.7558  -30.6125   19.4021 H   0  0  0  0  0  0
  -22.7552  -29.2687   19.8426 H   0  0  0  0  0  0
  -25.1246  -36.1994   25.0824 H   0  0  0  0  0  0
  -21.0081  -28.3242   24.1345 H   0  0  0  0  0  0
  -20.5610  -26.2226   23.3584 H   0  0  0  0  0  0
  -21.6633  -26.7313   22.1184 H   0  0  0  0  0  0
  -19.6874  -25.6262   21.1193 H   0  0  0  0  0  0
  -19.6732  -27.3158   20.6726 H   0  0  0  0  0  0
  -17.4186  -26.6723   21.4007 H   0  0  0  0  0  0
  -18.0331  -26.0027   22.8964 H   0  0  0  0  0  0
  -19.7962  -30.7255   24.2240 H   0  0  0  0  0  0
  -17.5032  -31.6247   24.5111 H   0  0  0  0  0  0
  -15.5373  -30.2915   23.7668 H   0  0  0  0  0  0
  -15.8713  -28.0760   22.7096 H   0  0  0  0  0  0
  -24.5917  -30.7078   25.7851 H   0  0  0  0  0  0
  -24.8810  -32.2970   26.4827 H   0  0  0  0  0  0
  -25.7997  -30.9095   27.0308 H   0  0  0  0  0  0
  -26.2904  -29.6868   24.1191 H   0  0  0  0  0  0
  -27.3940  -29.7306   25.4755 H   0  0  0  0  0  0
  -27.8794  -30.4394   23.9489 H   0  0  0  0  0  0
  -27.2694  -33.3745   26.2007 H   0  0  0  0  0  0
  -28.3913  -32.6844   25.0386 H   0  0  0  0  0  0
  -28.0605  -31.8542   26.5540 H   0  0  0  0  0  0
  -28.2590  -38.0117   24.7526 H   0  0  0  0  0  0
  -28.1053  -36.2640   24.6279 H   0  0  0  0  0  0
  -27.2287  -37.1429   25.8879 H   0  0  0  0  0  0
  -20.9291  -29.8808   21.6900 H   0  0  0  0  0  0
  -26.0196  -38.2871   24.1476 H   0  0  0  0  0  0
  -31.6640  -19.9172   21.3186 H   0  0  0  0  0  0
  -28.0408  -19.6661   19.0072 H   0  0  0  0  0  0
  -31.6734  -17.4614   21.5772 H   0  0  0  0  0  0
  -28.0374  -17.2380   19.2689 H   0  0  0  0  0  0
  -27.1821  -23.7149   22.5234 H   0  0  0  0  0  0
  -28.2428  -23.0748   23.7620 H   0  0  0  0  0  0
  -30.2440  -23.8416   22.5292 H   0  0  0  0  0  0
  -29.1796  -25.2391   22.4670 H   0  0  0  0  0  0
  -27.4439  -21.4372   21.7308 H   0  0  0  0  0  0
  -29.1046  -21.4107   22.3109 H   0  0  0  0  0  0
  -30.1434  -24.1995   20.1620 H   0  0  0  0  0  0
  -29.9379  -21.7559   18.8382 H   0  0  0  0  0  0
  -30.8701  -21.9329   20.2839 H   0  0  0  0  0  0
  -27.1758  -24.8066   20.5801 H   0  0  0  0  0  0
  -27.9198  -24.7856   19.0065 H   0  0  0  0  0  0
  -28.7976  -15.3340   20.7387 H   0  0  0  0  0  0
  -28.0546  -22.4368   19.8585 H   0  0  0  0  0  0
  1 25  1  0  0  0
  1 30  2  0  0  0
  1 83  1  0  0  0
  2  3  1  0  0  0
  2 25  1  0  0  0
  2 85  1  0  0  0
  2 86  1  0  0  0
  3  4  1  0  0  0
  3 87  1  0  0  0
  3 88  1  0  0  0
  4  5  1  0  0  0
  4 89  1  0  0  0
  4 90  1  0  0  0
  5  6  1  0  0  0
  5 26  1  0  0  0
  5 91  1  0  0  0
  6 25  1  0  0  0
  6 92  1  0  0  0
  6 93  1  0  0  0
  7  8  2  0  0  0
  7 26  1  0  0  0
  7 29  1  0  0  0
  8  9  1  0  0  0
  8 22  1  0  0  0
  9 10  1  0  0  0
  9 27  2  0  0  0
 10 11  2  0  0  0
 10 15  1  0  0  0
 11 12  1  0  0  0
 11 94  1  0  0  0
 12 13  2  0  0  0
 12 95  1  0  0  0
 13 14  1  0  0  0
 13 31  1  0  0  0
 14 15  2  0  0  0
 14 96  1  0  0  0
 15 97  1  0  0  0
 16 17  2  0  0  0
 16 21  1  0  0  0
 16 31  1  0  0  0
 17 18  1  0  0  0
 17 98  1  0  0  0
 18 19  2  0  0  0
 18 99  1  0  0  0
 19 20  1  0  0  0
 19 24  1  0  0  0
 20 21  2  0  0  0
 20100  1  0  0  0
 21 23  1  0  0  0
 22 28  1  0  0  0
 22 32  2  0  0  0
 26 27  1  0  0  0
 28101  1  0  0  0
 28102  1  0  0  0
 29103  1  0  0  0
 29104  1  0  0  0
 33 34  1  0  0  0
 33 66  1  0  0  0
 33 70  2  0  0  0
 34 36  1  0  0  0
 34 59  1  0  0  0
 34105  1  0  0  0
 35 44  2  0  0  0
 35 45  1  0  0  0
 35 68  1  0  0  0
 36 56  1  0  0  0
 36106  1  0  0  0
 37 39  1  0  0  0
 37 47  1  0  0  0
 37 66  1  0  0  0
 37107  1  0  0  0
 38 43  2  0  0  0
 38 46  1  0  0  0
 38 47  1  0  0  0
 39 64  1  0  0  0
 39 67  2  0  0  0
 40 52  1  0  0  0
 40 53  2  0  0  0
 40 58  1  0  0  0
 41108  1  0  0  0
 41109  1  0  0  0
 41110  1  0  0  0
 41 48  1  0  0  0
 42 43  1  0  0  0
 42 66  1  0  0  0
 42111  1  0  0  0
 42112  1  0  0  0
 43 44  1  0  0  0
 44113  1  0  0  0
 45 46  2  0  0  0
 45114  1  0  0  0
 46115  1  0  0  0
 47116  1  0  0  0
 47117  1  0  0  0
 48 56  1  0  0  0
 48 65  1  0  0  0
 48118  1  0  0  0
 49 50  1  0  0  0
 49 53  1  0  0  0
 49 64  1  0  0  0
 49119  1  0  0  0
 50 51  1  0  0  0
 50120  1  0  0  0
 50121  1  0  0  0
 51 52  1  0  0  0
 51122  1  0  0  0
 51123  1  0  0  0
 52124  1  0  0  0
 52125  1  0  0  0
 53 54  1  0  0  0
 54 55  2  0  0  0
 54126  1  0  0  0
 55 57  1  0  0  0
 55127  1  0  0  0
 56 69  2  0  0  0
 57 58  2  0  0  0
 57128  1  0  0  0
 58129  1  0  0  0
 59 60  1  0  0  0
 59 61  1  0  0  0
 59 62  1  0  0  0
 60130  1  0  0  0
 60131  1  0  0  0
 60132  1  0  0  0
 61133  1  0  0  0
 61134  1  0  0  0
 61135  1  0  0  0
 62136  1  0  0  0
 62137  1  0  0  0
 62138  1  0  0  0
 63 65  1  0  0  0
 63139  1  0  0  0
 63140  1  0  0  0
 63141  1  0  0  0
 64142  1  0  0  0
 65143  1  0  0  0
 68 82  1  0  0  0
 71 73  2  0  0  0
 71 75  1  0  0  0
 71144  1  0  0  0
 72 74  1  0  0  0
 72 75  2  0  0  0
 72145  1  0  0  0
 73 76  1  0  0  0
 73146  1  0  0  0
 74 76  2  0  0  0
 74147  1  0  0  0
 75 81  1  0  0  0
 76 83  1  0  0  0
 77 78  1  0  0  0
 77 79  1  0  0  0
 77148  1  0  0  0
 77149  1  0  0  0
 78 80  1  0  0  0
 78150  1  0  0  0
 78151  1  0  0  0
 79 84  1  0  0  0
 79152  1  0  0  0
 79153  1  0  0  0
 80 82  1  0  0  0
 80 84  1  0  0  0
 80154  1  0  0  0
 81155  1  0  0  0
 81156  1  0  0  0
 81 84  1  0  0  0
 82157  1  0  0  0
 82158  1  0  0  0
 83159  1  0  0  0
 84160  1  0  0  0
M  CHG  1  84   1
M  ISO  4   1 100  68 101  82 101  83 100
M  END
> <chiral flag>
0

> <version>
0

> <s_m_source_file>
/data/baiqing/PycharmProjects/Reinvent-master-3.2/result/LINK_invent/BTK/process_docking_weight1_custom_product_contain_oxygen_bond_distance_aromatic_linkinvent_7_9_3/rearranged_h_0023.sdf

> <i_m_source_file_index>
90

> <r_mmod_Potential_Energy-OPLS-2005>
66.4427642822266

> <r_mmod_Stretch_Energy-OPLS-2005>
78.9299468994141

> <r_mmod_Bend_Energy-OPLS-2005>
160.241439819336

> <r_mmod_Torsional_Energy-OPLS-2005>
283.82421875

> <r_mmod_Improper_Torsional_Energy-OPLS-2005>
7.15376615524292

> <r_mmod_Van_der_Waal_Energy-OPLS-2005>
142.017501831055

> <r_mmod_Electrostatic_Energy-OPLS-2005>
-217.845062255859

> <r_mmod_Solvation_Energy-OPLS-2005>
-436.901641845703

> <b_mmod_Minimization_Converged-OPLS-2005>
0

> <r_mmod_RMS_Derivative-OPLS-2005>
5.1082649230957

$$$$
